MODEL 1
REMARK VINA RESULT: -7.831184645      0.000      0.000
REMARK  11 active torsions:
REMARK  status: ('A' for Active; 'I' for Inactive)
REMARK    1  A    between atoms: C6_6  and  O1_7 
REMARK    2  A    between atoms: O1_7  and  C7_8 
REMARK    3  A    between atoms: C9_10  and  C10_11 
REMARK    4  A    between atoms: C17_18  and  C18_19 
REMARK    5  A    between atoms: C18_19  and  C20_21 
REMARK    6  A    between atoms: C20_21  and  C21_22 
REMARK    7  A    between atoms: C21_22  and  C22_23 
REMARK    8  A    between atoms: C22_23  and  C23_24 
REMARK    9  A    between atoms: C32_33  and  O2_34 
REMARK   10  A    between atoms: C33_37  and  O4_38 
REMARK   11  A    between atoms: C34_40  and  O5_41 
ROOT
HETATM    1  C10 UNL     1      18.837   1.011  15.926  1.00  0.00     0.003 C 
HETATM    2  C11 UNL     1      18.092   2.329  15.822  1.00  0.00     0.006 C 
HETATM    3  C12 UNL     1      17.308   2.066  14.508  1.00  0.00     0.006 C 
HETATM    4  C13 UNL     1      18.461   1.579  13.674  1.00  0.00    -0.001 C 
HETATM    5  C14 UNL     1      18.209   1.253  12.273  1.00  0.00    -0.001 C 
HETATM    6  C15 UNL     1      17.176   2.210  11.714  1.00  0.00     0.006 C 
HETATM    7  C16 UNL     1      15.948   1.332  11.684  1.00  0.00     0.006 C 
HETATM    8  C17 UNL     1      16.556   0.064  11.114  1.00  0.00    -0.002 C 
HETATM    9  C26 UNL     1      17.805  -0.134  11.913  1.00  0.00    -0.036 C 
HETATM   10  C27 UNL     1      18.845  -0.639  10.883  1.00  0.00     0.016 C 
HETATM   11  C28 UNL     1      17.718  -1.136  12.984  1.00  0.00     0.011 C 
HETATM   12  C29 UNL     1      18.125  -0.784  14.360  1.00  0.00     0.011 C 
HETATM   13  C30 UNL     1      18.967   0.443  14.539  1.00  0.00    -0.036 C 
HETATM   14  C31 UNL     1      20.379   0.162  14.100  1.00  0.00     0.016 C 
ENDROOT
BRANCH   1  15
HETATM   15  C9  UNL     1      20.009   0.987  16.790  1.00  0.00     0.050 C 
HETATM   16  C8  UNL     1      19.907  -0.063  17.925  1.00  0.00     0.070 C 
HETATM   17  C7  UNL     1      20.935   0.491  18.868  1.00  0.00     0.264 C 
HETATM   18  O3  UNL     1      21.412   1.707  18.328  1.00  0.00    -0.331 OA
HETATM   19  C32 UNL     1      20.225   2.194  17.700  1.00  0.00     0.264 C 
BRANCH  17  20
HETATM   20  O1  UNL     1      21.983  -0.378  19.128  1.00  0.00    -0.353 OA
BRANCH  20  21
HETATM   21  C6  UNL     1      21.581  -1.608  19.591  1.00  0.00     0.156 C 
HETATM   22  C5  UNL     1      21.821  -2.703  18.571  1.00  0.00     0.035 C 
HETATM   23  C4  UNL     1      20.666  -3.661  18.503  1.00  0.00     0.007 C 
HETATM   24  C3  UNL     1      20.585  -4.562  19.705  1.00  0.00     0.036 C 
HETATM   25  C2  UNL     1      21.743  -4.322  20.607  1.00  0.00    -0.058 C 
HETATM   26  C1  UNL     1      22.718  -5.246  20.594  1.00  0.00     0.017 C 
HETATM   27  C34 UNL     1      21.929  -3.170  21.517  1.00  0.00     0.177 C 
HETATM   28  C33 UNL     1      22.433  -1.931  20.815  1.00  0.00     0.180 C 
BRANCH  27  29
HETATM   29  O5  UNL     1      22.892  -3.512  22.472  1.00  0.00    -0.389 OA
ATOM     30  H5  UNL     1      22.458  -3.622  23.310  1.00  0.00     0.210 HD
ENDBRANCH  27  29
BRANCH  28  31
HETATM   31  O4  UNL     1      22.450  -0.892  21.735  1.00  0.00    -0.390 OA
ATOM     32  H4  UNL     1      22.790  -1.163  22.579  1.00  0.00     0.210 HD
ENDBRANCH  28  31
ENDBRANCH  20  21
ENDBRANCH  17  20
BRANCH  19  33
HETATM   33  O2  UNL     1      19.308   2.220  18.762  1.00  0.00    -0.371 OA
ATOM     34  H2  UNL     1      19.417   2.992  19.305  1.00  0.00     0.212 HD
ENDBRANCH  19  33
ENDBRANCH   1  15
BRANCH   8  35
HETATM   35  C18 UNL     1      15.557  -0.984  11.039  1.00  0.00    -0.014 C 
HETATM   36  C19 UNL     1      15.237  -1.549   9.680  1.00  0.00     0.010 C 
BRANCH  35  37
HETATM   37  C20 UNL     1      14.209  -0.400  11.507  1.00  0.00     0.005 C 
BRANCH  37  38
HETATM   38  C21 UNL     1      13.483  -1.424  12.360  1.00  0.00     0.001 C 
BRANCH  38  39
HETATM   39  C22 UNL     1      14.305  -1.595  13.643  1.00  0.00     0.004 C 
BRANCH  39  40
HETATM   40  C23 UNL     1      14.229  -3.059  13.984  1.00  0.00    -0.023 C 
HETATM   41  C24 UNL     1      15.491  -3.822  13.636  1.00  0.00     0.009 C 
HETATM   42  C25 UNL     1      13.038  -3.648  13.259  1.00  0.00     0.009 C 
ENDBRANCH  39  40
ENDBRANCH  38  39
ENDBRANCH  37  38
ENDBRANCH  35  37
ENDBRANCH   8  35
TORSDOF 11
ENDMDL
MODEL 2
REMARK VINA RESULT: -7.530701384      3.981     11.400
REMARK  11 active torsions:
REMARK  status: ('A' for Active; 'I' for Inactive)
REMARK    1  A    between atoms: C6_6  and  O1_7 
REMARK    2  A    between atoms: O1_7  and  C7_8 
REMARK    3  A    between atoms: C9_10  and  C10_11 
REMARK    4  A    between atoms: C17_18  and  C18_19 
REMARK    5  A    between atoms: C18_19  and  C20_21 
REMARK    6  A    between atoms: C20_21  and  C21_22 
REMARK    7  A    between atoms: C21_22  and  C22_23 
REMARK    8  A    between atoms: C22_23  and  C23_24 
REMARK    9  A    between atoms: C32_33  and  O2_34 
REMARK   10  A    between atoms: C33_37  and  O4_38 
REMARK   11  A    between atoms: C34_40  and  O5_41 
ROOT
HETATM    1  C10 UNL     1      21.108  -3.845  21.819  1.00  0.00     0.003 C 
HETATM    2  C11 UNL     1      20.547  -5.253  21.854  1.00  0.00     0.006 C 
HETATM    3  C12 UNL     1      20.568  -5.488  23.389  1.00  0.00     0.006 C 
HETATM    4  C13 UNL     1      21.981  -5.042  23.646  1.00  0.00    -0.001 C 
HETATM    5  C14 UNL     1      22.499  -5.145  25.007  1.00  0.00    -0.001 C 
HETATM    6  C15 UNL     1      21.928  -6.383  25.668  1.00  0.00     0.006 C 
HETATM    7  C16 UNL     1      20.889  -5.776  26.579  1.00  0.00     0.006 C 
HETATM    8  C17 UNL     1      21.688  -4.615  27.140  1.00  0.00    -0.002 C 
HETATM    9  C26 UNL     1      22.327  -3.995  25.937  1.00  0.00    -0.036 C 
HETATM   10  C27 UNL     1      23.747  -3.603  26.416  1.00  0.00     0.016 C 
HETATM   11  C28 UNL     1      21.676  -2.780  25.432  1.00  0.00     0.011 C 
HETATM   12  C29 UNL     1      21.303  -2.679  24.006  1.00  0.00     0.011 C 
HETATM   13  C30 UNL     1      21.940  -3.647  23.056  1.00  0.00    -0.036 C 
HETATM   14  C31 UNL     1      23.369  -3.245  22.799  1.00  0.00     0.016 C 
ENDROOT
BRANCH   1  15
HETATM   15  C9  UNL     1      21.650  -3.386  20.546  1.00  0.00     0.050 C 
HETATM   16  C8  UNL     1      21.091  -2.010  20.108  1.00  0.00     0.070 C 
HETATM   17  C7  UNL     1      21.403  -2.072  18.640  1.00  0.00     0.264 C 
HETATM   18  O3  UNL     1      21.948  -3.346  18.364  1.00  0.00    -0.331 OA
HETATM   19  C32 UNL     1      21.217  -4.147  19.294  1.00  0.00     0.264 C 
BRANCH  17  20
HETATM   20  O1  UNL     1      22.253  -1.067  18.205  1.00  0.00    -0.353 OA
BRANCH  20  21
HETATM   21  C6  UNL     1      21.642  -0.132  17.405  1.00  0.00     0.156 C 
HETATM   22  C5  UNL     1      20.558  -0.747  16.542  1.00  0.00     0.035 C 
HETATM   23  C4  UNL     1      20.588  -0.204  15.142  1.00  0.00     0.007 C 
HETATM   24  C3  UNL     1      20.090   1.213  15.056  1.00  0.00     0.036 C 
HETATM   25  C2  UNL     1      19.606   1.670  16.387  1.00  0.00    -0.058 C 
HETATM   26  C1  UNL     1      18.275   1.734  16.554  1.00  0.00     0.017 C 
HETATM   27  C34 UNL     1      20.443   2.062  17.542  1.00  0.00     0.177 C 
HETATM   28  C33 UNL     1      20.970   0.883  18.326  1.00  0.00     0.180 C 
BRANCH  27  29
HETATM   29  O5  UNL     1      19.657   2.812  18.423  1.00  0.00    -0.389 OA
ATOM     30  H5  UNL     1      19.205   3.484  17.925  1.00  0.00     0.210 HD
ENDBRANCH  27  29
BRANCH  28  31
HETATM   31  O4  UNL     1      21.833   1.363  19.300  1.00  0.00    -0.390 OA
ATOM     32  H4  UNL     1      21.391   1.918  19.932  1.00  0.00     0.210 HD
ENDBRANCH  28  31
ENDBRANCH  20  21
ENDBRANCH  17  20
BRANCH  19  33
HETATM   33  O2  UNL     1      19.885  -3.874  18.949  1.00  0.00    -0.371 OA
ATOM     34  H2  UNL     1      19.821  -3.199  18.283  1.00  0.00     0.212 HD
ENDBRANCH  19  33
ENDBRANCH   1  15
BRANCH   8  35
HETATM   35  C18 UNL     1      20.865  -3.818  28.028  1.00  0.00    -0.014 C 
HETATM   36  C19 UNL     1      21.113  -3.938  29.509  1.00  0.00     0.010 C 
BRANCH  35  37
HETATM   37  C20 UNL     1      19.402  -4.281  27.875  1.00  0.00     0.005 C 
BRANCH  37  38
HETATM   38  C21 UNL     1      18.479  -3.080  27.966  1.00  0.00     0.001 C 
BRANCH  38  39
HETATM   39  C22 UNL     1      18.354  -2.508  26.549  1.00  0.00     0.004 C 
BRANCH  39  40
HETATM   40  C23 UNL     1      17.726  -3.598  25.724  1.00  0.00    -0.023 C 
HETATM   41  C24 UNL     1      17.784  -3.330  24.233  1.00  0.00     0.009 C 
HETATM   42  C25 UNL     1      16.291  -3.762  26.176  1.00  0.00     0.009 C 
ENDBRANCH  39  40
ENDBRANCH  38  39
ENDBRANCH  37  38
ENDBRANCH  35  37
ENDBRANCH   8  35
TORSDOF 11
ENDMDL
MODEL 3
REMARK VINA RESULT: -7.528645048      4.247     11.166
REMARK  11 active torsions:
REMARK  status: ('A' for Active; 'I' for Inactive)
REMARK    1  A    between atoms: C6_6  and  O1_7 
REMARK    2  A    between atoms: O1_7  and  C7_8 
REMARK    3  A    between atoms: C9_10  and  C10_11 
REMARK    4  A    between atoms: C17_18  and  C18_19 
REMARK    5  A    between atoms: C18_19  and  C20_21 
REMARK    6  A    between atoms: C20_21  and  C21_22 
REMARK    7  A    between atoms: C21_22  and  C22_23 
REMARK    8  A    between atoms: C22_23  and  C23_24 
REMARK    9  A    between atoms: C32_33  and  O2_34 
REMARK   10  A    between atoms: C33_37  and  O4_38 
REMARK   11  A    between atoms: C34_40  and  O5_41 
ROOT
HETATM    1  C10 UNL     1      20.822  -4.174  21.120  1.00  0.00     0.003 C 
HETATM    2  C11 UNL     1      20.420  -5.592  21.477  1.00  0.00     0.006 C 
HETATM    3  C12 UNL     1      20.622  -5.525  23.015  1.00  0.00     0.006 C 
HETATM    4  C13 UNL     1      21.998  -4.919  23.015  1.00  0.00    -0.001 C 
HETATM    5  C14 UNL     1      22.660  -4.714  24.300  1.00  0.00    -0.001 C 
HETATM    6  C15 UNL     1      22.294  -5.846  25.238  1.00  0.00     0.006 C 
HETATM    7  C16 UNL     1      21.295  -5.166  26.142  1.00  0.00     0.006 C 
HETATM    8  C17 UNL     1      22.019  -3.855  26.384  1.00  0.00    -0.002 C 
HETATM    9  C26 UNL     1      22.463  -3.426  25.021  1.00  0.00    -0.036 C 
HETATM   10  C27 UNL     1      23.875  -2.830  25.246  1.00  0.00     0.016 C 
HETATM   11  C28 UNL     1      21.639  -2.390  24.385  1.00  0.00     0.011 C 
HETATM   12  C29 UNL     1      21.114  -2.598  23.020  1.00  0.00     0.011 C 
HETATM   13  C30 UNL     1      21.750  -3.672  22.191  1.00  0.00    -0.036 C 
HETATM   14  C31 UNL     1      23.094  -3.207  21.697  1.00  0.00     0.016 C 
ENDROOT
BRANCH   1  15
HETATM   15  C9  UNL     1      21.180  -3.924  19.729  1.00  0.00     0.050 C 
HETATM   16  C8  UNL     1      20.146  -3.043  18.984  1.00  0.00     0.070 C 
HETATM   17  C7  UNL     1      20.497  -3.395  17.567  1.00  0.00     0.264 C 
HETATM   18  O3  UNL     1      21.498  -4.391  17.600  1.00  0.00    -0.331 OA
HETATM   19  C32 UNL     1      21.107  -5.111  18.771  1.00  0.00     0.264 C 
BRANCH  17  20
HETATM   20  O1  UNL     1      20.906  -2.310  16.806  1.00  0.00    -0.353 OA
BRANCH  20  21
HETATM   21  C6  UNL     1      20.393  -1.109  17.233  1.00  0.00     0.156 C 
HETATM   22  C5  UNL     1      21.482  -0.163  17.698  1.00  0.00     0.035 C 
HETATM   23  C4  UNL     1      21.088   0.564  18.952  1.00  0.00     0.007 C 
HETATM   24  C3  UNL     1      20.040   1.615  18.711  1.00  0.00     0.036 C 
HETATM   25  C2  UNL     1      19.739   1.719  17.258  1.00  0.00    -0.058 C 
HETATM   26  C1  UNL     1      20.248   2.781  16.612  1.00  0.00     0.017 C 
HETATM   27  C34 UNL     1      18.935   0.772  16.454  1.00  0.00     0.177 C 
HETATM   28  C33 UNL     1      19.705  -0.459  16.036  1.00  0.00     0.180 C 
BRANCH  27  29
HETATM   29  O5  UNL     1      18.538   1.417  15.278  1.00  0.00    -0.389 OA
ATOM     30  H5  UNL     1      19.160   2.111  15.092  1.00  0.00     0.210 HD
ENDBRANCH  27  29
BRANCH  28  31
HETATM   31  O4  UNL     1      18.825  -1.323  15.401  1.00  0.00    -0.390 OA
ATOM     32  H4  UNL     1      17.961  -0.943  15.294  1.00  0.00     0.210 HD
ENDBRANCH  28  31
ENDBRANCH  20  21
ENDBRANCH  17  20
BRANCH  19  33
HETATM   33  O2  UNL     1      19.782  -5.469  18.479  1.00  0.00    -0.371 OA
ATOM     34  H2  UNL     1      19.720  -5.973  17.676  1.00  0.00     0.212 HD
ENDBRANCH  19  33
ENDBRANCH   1  15
BRANCH   8  35
HETATM   35  C18 UNL     1      21.211  -2.976  27.204  1.00  0.00    -0.014 C 
HETATM   36  C19 UNL     1      21.793  -2.508  28.512  1.00  0.00     0.010 C 
BRANCH  35  37
HETATM   37  C20 UNL     1      19.945  -3.745  27.635  1.00  0.00     0.005 C 
BRANCH  37  38
HETATM   38  C21 UNL     1      18.781  -2.779  27.749  1.00  0.00     0.001 C 
BRANCH  38  39
HETATM   39  C22 UNL     1      18.429  -2.337  26.323  1.00  0.00     0.004 C 
BRANCH  39  40
HETATM   40  C23 UNL     1      17.851  -3.553  25.651  1.00  0.00    -0.023 C 
HETATM   41  C24 UNL     1      17.823  -3.446  24.140  1.00  0.00     0.009 C 
HETATM   42  C25 UNL     1      16.453  -3.767  26.192  1.00  0.00     0.009 C 
ENDBRANCH  39  40
ENDBRANCH  38  39
ENDBRANCH  37  38
ENDBRANCH  35  37
ENDBRANCH   8  35
TORSDOF 11
ENDMDL
MODEL 4
REMARK VINA RESULT: -7.416390163      1.052      1.655
REMARK  11 active torsions:
REMARK  status: ('A' for Active; 'I' for Inactive)
REMARK    1  A    between atoms: C6_6  and  O1_7 
REMARK    2  A    between atoms: O1_7  and  C7_8 
REMARK    3  A    between atoms: C9_10  and  C10_11 
REMARK    4  A    between atoms: C17_18  and  C18_19 
REMARK    5  A    between atoms: C18_19  and  C20_21 
REMARK    6  A    between atoms: C20_21  and  C21_22 
REMARK    7  A    between atoms: C21_22  and  C22_23 
REMARK    8  A    between atoms: C22_23  and  C23_24 
REMARK    9  A    between atoms: C32_33  and  O2_34 
REMARK   10  A    between atoms: C33_37  and  O4_38 
REMARK   11  A    between atoms: C34_40  and  O5_41 
ROOT
HETATM    1  C10 UNL     1      19.074   0.724  15.953  1.00  0.00     0.003 C 
HETATM    2  C11 UNL     1      18.342   2.052  16.003  1.00  0.00     0.006 C 
HETATM    3  C12 UNL     1      17.540   1.941  14.679  1.00  0.00     0.006 C 
HETATM    4  C13 UNL     1      18.679   1.538  13.782  1.00  0.00    -0.001 C 
HETATM    5  C14 UNL     1      18.407   1.368  12.357  1.00  0.00    -0.001 C 
HETATM    6  C15 UNL     1      17.378   2.390  11.919  1.00  0.00     0.006 C 
HETATM    7  C16 UNL     1      16.141   1.533  11.808  1.00  0.00     0.006 C 
HETATM    8  C17 UNL     1      16.728   0.329  11.097  1.00  0.00    -0.002 C 
HETATM    9  C26 UNL     1      17.984   0.032  11.854  1.00  0.00    -0.036 C 
HETATM   10  C27 UNL     1      19.006  -0.367  10.761  1.00  0.00     0.016 C 
HETATM   11  C28 UNL     1      17.898  -1.079  12.810  1.00  0.00     0.011 C 
HETATM   12  C29 UNL     1      18.325  -0.883  14.210  1.00  0.00     0.011 C 
HETATM   13  C30 UNL     1      19.182   0.309  14.512  1.00  0.00    -0.036 C 
HETATM   14  C31 UNL     1      20.586   0.064  14.027  1.00  0.00     0.016 C 
ENDROOT
BRANCH   1  15
HETATM   15  C9  UNL     1      20.256   0.594  16.795  1.00  0.00     0.050 C 
HETATM   16  C8  UNL     1      20.366  -0.791  17.480  1.00  0.00     0.070 C 
HETATM   17  C7  UNL     1      21.308  -0.442  18.595  1.00  0.00     0.264 C 
HETATM   18  O3  UNL     1      21.554   0.949  18.539  1.00  0.00    -0.331 OA
HETATM   19  C32 UNL     1      20.285   1.417  18.081  1.00  0.00     0.264 C 
BRANCH  17  20
HETATM   20  O1  UNL     1      22.497  -1.155  18.568  1.00  0.00    -0.353 OA
BRANCH  20  21
HETATM   21  C6  UNL     1      22.683  -1.964  19.663  1.00  0.00     0.156 C 
HETATM   22  C5  UNL     1      22.163  -1.324  20.934  1.00  0.00     0.035 C 
HETATM   23  C4  UNL     1      23.100  -1.537  22.088  1.00  0.00     0.007 C 
HETATM   24  C3  UNL     1      23.090  -2.954  22.593  1.00  0.00     0.036 C 
HETATM   25  C2  UNL     1      22.068  -3.753  21.865  1.00  0.00    -0.058 C 
HETATM   26  C1  UNL     1      20.933  -4.029  22.529  1.00  0.00     0.017 C 
HETATM   27  C34 UNL     1      22.176  -4.274  20.484  1.00  0.00     0.177 C 
HETATM   28  C33 UNL     1      21.874  -3.236  19.429  1.00  0.00     0.180 C 
BRANCH  27  29
HETATM   29  O5  UNL     1      21.235  -5.297  20.323  1.00  0.00    -0.389 OA
ATOM     30  H5  UNL     1      20.865  -5.230  19.450  1.00  0.00     0.210 HD
ENDBRANCH  27  29
BRANCH  28  31
HETATM   31  O4  UNL     1      22.125  -3.799  18.186  1.00  0.00    -0.390 OA
ATOM     32  H4  UNL     1      22.688  -3.253  17.649  1.00  0.00     0.210 HD
ENDBRANCH  28  31
ENDBRANCH  20  21
ENDBRANCH  17  20
BRANCH  19  33
HETATM   33  O2  UNL     1      19.406   0.908  19.049  1.00  0.00    -0.371 OA
ATOM     34  H2  UNL     1      19.864   0.421  19.723  1.00  0.00     0.212 HD
ENDBRANCH  19  33
ENDBRANCH   1  15
BRANCH   8  35
HETATM   35  C18 UNL     1      15.717  -0.695  10.920  1.00  0.00    -0.014 C 
HETATM   36  C19 UNL     1      15.267  -1.000   9.515  1.00  0.00     0.010 C 
BRANCH  35  37
HETATM   37  C20 UNL     1      14.423  -0.221  11.612  1.00  0.00     0.005 C 
BRANCH  37  38
HETATM   38  C21 UNL     1      13.797  -1.381  12.364  1.00  0.00     0.001 C 
BRANCH  38  39
HETATM   39  C22 UNL     1      14.509  -1.467  13.718  1.00  0.00     0.004 C 
BRANCH  39  40
HETATM   40  C23 UNL     1      14.465  -2.920  14.110  1.00  0.00    -0.023 C 
HETATM   41  C24 UNL     1      15.765  -3.652  13.845  1.00  0.00     0.009 C 
HETATM   42  C25 UNL     1      13.327  -3.574  13.358  1.00  0.00     0.009 C 
ENDBRANCH  39  40
ENDBRANCH  38  39
ENDBRANCH  37  38
ENDBRANCH  35  37
ENDBRANCH   8  35
TORSDOF 11
ENDMDL
MODEL 5
REMARK VINA RESULT: -7.112662842      2.732      5.679
REMARK  11 active torsions:
REMARK  status: ('A' for Active; 'I' for Inactive)
REMARK    1  A    between atoms: C6_6  and  O1_7 
REMARK    2  A    between atoms: O1_7  and  C7_8 
REMARK    3  A    between atoms: C9_10  and  C10_11 
REMARK    4  A    between atoms: C17_18  and  C18_19 
REMARK    5  A    between atoms: C18_19  and  C20_21 
REMARK    6  A    between atoms: C20_21  and  C21_22 
REMARK    7  A    between atoms: C21_22  and  C22_23 
REMARK    8  A    between atoms: C22_23  and  C23_24 
REMARK    9  A    between atoms: C32_33  and  O2_34 
REMARK   10  A    between atoms: C33_37  and  O4_38 
REMARK   11  A    between atoms: C34_40  and  O5_41 
ROOT
HETATM    1  C10 UNL     1      16.927  -1.247  12.058  1.00  0.00     0.003 C 
HETATM    2  C11 UNL     1      16.475  -1.358  10.614  1.00  0.00     0.006 C 
HETATM    3  C12 UNL     1      15.764  -2.735  10.684  1.00  0.00     0.006 C 
HETATM    4  C13 UNL     1      16.860  -3.498  11.378  1.00  0.00    -0.001 C 
HETATM    5  C14 UNL     1      16.661  -4.924  11.617  1.00  0.00    -0.001 C 
HETATM    6  C15 UNL     1      15.893  -5.524  10.457  1.00  0.00     0.006 C 
HETATM    7  C16 UNL     1      14.520  -5.680  11.065  1.00  0.00     0.006 C 
HETATM    8  C17 UNL     1      14.903  -6.248  12.418  1.00  0.00    -0.002 C 
HETATM    9  C26 UNL     1      16.017  -5.365  12.885  1.00  0.00    -0.036 C 
HETATM   10  C27 UNL     1      17.014  -6.332  13.570  1.00  0.00     0.016 C 
HETATM   11  C28 UNL     1      15.641  -4.342  13.869  1.00  0.00     0.011 C 
HETATM   12  C29 UNL     1      15.998  -2.927  13.637  1.00  0.00     0.011 C 
HETATM   13  C30 UNL     1      17.052  -2.639  12.612  1.00  0.00    -0.036 C 
HETATM   14  C31 UNL     1      18.410  -2.980  13.166  1.00  0.00     0.016 C 
ENDROOT
BRANCH   1  15
HETATM   15  C9  UNL     1      17.997  -0.298  12.340  1.00  0.00     0.050 C 
HETATM   16  C8  UNL     1      17.895   0.332  13.751  1.00  0.00     0.070 C 
HETATM   17  C7  UNL     1      18.746   1.551  13.541  1.00  0.00     0.264 C 
HETATM   18  O3  UNL     1      19.136   1.581  12.183  1.00  0.00    -0.331 OA
HETATM   19  C32 UNL     1      17.975   1.020  11.568  1.00  0.00     0.264 C 
BRANCH  17  20
HETATM   20  O1  UNL     1      19.853   1.611  14.373  1.00  0.00    -0.353 OA
BRANCH  20  21
HETATM   21  C6  UNL     1      19.652   1.036  15.605  1.00  0.00     0.156 C 
HETATM   22  C5  UNL     1      20.777   0.094  15.981  1.00  0.00     0.035 C 
HETATM   23  C4  UNL     1      20.260  -1.165  16.616  1.00  0.00     0.007 C 
HETATM   24  C3  UNL     1      19.749  -0.944  18.014  1.00  0.00     0.036 C 
HETATM   25  C2  UNL     1      19.985   0.464  18.432  1.00  0.00    -0.058 C 
HETATM   26  C1  UNL     1      20.992   0.676  19.295  1.00  0.00     0.017 C 
HETATM   27  C34 UNL     1      19.221   1.654  17.993  1.00  0.00     0.177 C 
HETATM   28  C33 UNL     1      19.639   2.163  16.634  1.00  0.00     0.180 C 
BRANCH  27  29
HETATM   29  O5  UNL     1      19.458   2.690  18.902  1.00  0.00    -0.389 OA
ATOM     30  H5  UNL     1      19.218   2.389  19.771  1.00  0.00     0.210 HD
ENDBRANCH  27  29
BRANCH  28  31
HETATM   31  O4  UNL     1      18.780   3.192  16.277  1.00  0.00    -0.390 OA
ATOM     32  H4  UNL     1      17.869   2.975  16.438  1.00  0.00     0.210 HD
ENDBRANCH  28  31
ENDBRANCH  20  21
ENDBRANCH  17  20
BRANCH  19  33
HETATM   33  O2  UNL     1      16.953   1.872  12.014  1.00  0.00    -0.371 OA
ATOM     34  H2  UNL     1      17.004   2.028  12.950  1.00  0.00     0.212 HD
ENDBRANCH  19  33
ENDBRANCH   1  15
BRANCH   8  35
HETATM   35  C18 UNL     1      13.722  -6.438  13.238  1.00  0.00    -0.014 C 
HETATM   36  C19 UNL     1      13.245  -7.849  13.462  1.00  0.00     0.010 C 
BRANCH  35  37
HETATM   37  C20 UNL     1      12.528  -5.768  12.528  1.00  0.00     0.005 C 
BRANCH  37  38
HETATM   38  C21 UNL     1      11.858  -4.792  13.477  1.00  0.00     0.001 C 
BRANCH  38  39
HETATM   39  C22 UNL     1      11.242  -3.686  12.613  1.00  0.00     0.004 C 
BRANCH  39  40
HETATM   40  C23 UNL     1      12.404  -2.920  12.041  1.00  0.00    -0.023 C 
HETATM   41  C24 UNL     1      12.718  -1.648  12.803  1.00  0.00     0.009 C 
HETATM   42  C25 UNL     1      12.092  -2.606  10.594  1.00  0.00     0.009 C 
ENDBRANCH  39  40
ENDBRANCH  38  39
ENDBRANCH  37  38
ENDBRANCH  35  37
ENDBRANCH   8  35
TORSDOF 11
ENDMDL
