MODEL 1
REMARK VINA RESULT: -4.667664259      0.000      0.000
REMARK  0 active torsions:
REMARK  status: ('A' for Active; 'I' for Inactive)
ROOT
HETATM    1  C1  UNL     1      15.456   1.174  14.857  1.00  0.00     0.088 C 
HETATM    2  C2  UNL     1      16.004   1.145  13.452  1.00  0.00     0.069 C 
HETATM    3  N1  UNL     1      16.692   2.036  12.869  1.00  0.00    -0.370 N 
ATOM      4  H1  UNL     1      16.962   2.915  13.310  1.00  0.00     0.161 HD
HETATM    5  C3  UNL     1      17.050   1.686  11.531  1.00  0.00     0.044 C 
HETATM    6  C4  UNL     1      18.510   1.266  11.552  1.00  0.00     0.040 C 
HETATM    7  C5  UNL     1      16.837   2.834  10.562  1.00  0.00     0.040 C 
HETATM    8  C6  UNL     1      16.134   0.538  11.205  1.00  0.00     0.106 C 
HETATM    9  C7  UNL     1      16.826  -0.584  10.474  1.00  0.00     0.035 C 
HETATM   10  N2  UNL     1      15.822   0.071  12.547  1.00  0.00    -0.374 N 
ATOM     11  H2  UNL     1      15.522  -0.872  12.793  1.00  0.00     0.161 HD
ENDROOT
TORSDOF 0
ENDMDL
MODEL 2
REMARK VINA RESULT: -4.317799566      2.391      3.656
REMARK  0 active torsions:
REMARK  status: ('A' for Active; 'I' for Inactive)
ROOT
HETATM    1  C1  UNL     1      16.281   0.227  12.409  1.00  0.00     0.088 C 
HETATM    2  C2  UNL     1      16.260   1.640  12.936  1.00  0.00     0.069 C 
HETATM    3  N1  UNL     1      17.132   2.545  12.766  1.00  0.00    -0.370 N 
ATOM      4  H1  UNL     1      17.986   2.408  12.225  1.00  0.00     0.161 HD
HETATM    5  C3  UNL     1      16.797   3.777  13.408  1.00  0.00     0.044 C 
HETATM    6  C4  UNL     1      16.307   4.727  12.328  1.00  0.00     0.040 C 
HETATM    7  C5  UNL     1      17.978   4.374  14.151  1.00  0.00     0.040 C 
HETATM    8  C6  UNL     1      15.703   3.395  14.367  1.00  0.00     0.106 C 
HETATM    9  C7  UNL     1      14.568   4.386  14.397  1.00  0.00     0.035 C 
HETATM   10  N2  UNL     1      15.219   2.180  13.731  1.00  0.00    -0.374 N 
ATOM     11  H2  UNL     1      14.285   1.783  13.840  1.00  0.00     0.161 HD
ENDROOT
TORSDOF 0
ENDMDL
MODEL 3
REMARK VINA RESULT: -4.099084260      1.931      4.058
REMARK  0 active torsions:
REMARK  status: ('A' for Active; 'I' for Inactive)
ROOT
HETATM    1  C1  UNL     1      16.415  -0.522  11.981  1.00  0.00     0.088 C 
HETATM    2  C2  UNL     1      16.063   0.431  13.095  1.00  0.00     0.069 C 
HETATM    3  N1  UNL     1      15.478   0.165  14.188  1.00  0.00    -0.370 N 
ATOM      4  H1  UNL     1      15.165  -0.771  14.445  1.00  0.00     0.161 HD
HETATM    5  C3  UNL     1      15.300   1.310  15.025  1.00  0.00     0.044 C 
HETATM    6  C4  UNL     1      16.343   1.227  16.127  1.00  0.00     0.040 C 
HETATM    7  C5  UNL     1      13.903   1.378  15.613  1.00  0.00     0.040 C 
HETATM    8  C6  UNL     1      15.544   2.470  14.100  1.00  0.00     0.106 C 
HETATM    9  C7  UNL     1      16.379   3.560  14.722  1.00  0.00     0.035 C 
HETATM   10  N2  UNL     1      16.350   1.819  13.079  1.00  0.00    -0.374 N 
ATOM     11  H2  UNL     1      17.011   2.283  12.455  1.00  0.00     0.161 HD
ENDROOT
TORSDOF 0
ENDMDL
MODEL 4
REMARK VINA RESULT: -4.035963657      3.203      4.223
REMARK  0 active torsions:
REMARK  status: ('A' for Active; 'I' for Inactive)
ROOT
HETATM    1  C1  UNL     1      15.299   1.237  15.139  1.00  0.00     0.088 C 
HETATM    2  C2  UNL     1      15.555   2.632  14.627  1.00  0.00     0.069 C 
HETATM    3  N1  UNL     1      16.628   3.094  14.133  1.00  0.00    -0.370 N 
ATOM      4  H1  UNL     1      17.478   2.542  14.023  1.00  0.00     0.161 HD
HETATM    5  C3  UNL     1      16.525   4.466  13.747  1.00  0.00     0.044 C 
HETATM    6  C4  UNL     1      16.390   4.497  12.234  1.00  0.00     0.040 C 
HETATM    7  C5  UNL     1      17.727   5.278  14.194  1.00  0.00     0.040 C 
HETATM    8  C6  UNL     1      15.276   4.939  14.438  1.00  0.00     0.106 C 
HETATM    9  C7  UNL     1      14.409   5.809  13.565  1.00  0.00     0.035 C 
HETATM   10  N2  UNL     1      14.590   3.670  14.626  1.00  0.00    -0.374 N 
ATOM     11  H2  UNL     1      13.584   3.549  14.738  1.00  0.00     0.161 HD
ENDROOT
TORSDOF 0
ENDMDL
MODEL 5
REMARK VINA RESULT: -4.034362173      2.505      3.179
REMARK  0 active torsions:
REMARK  status: ('A' for Active; 'I' for Inactive)
ROOT
HETATM    1  C1  UNL     1      14.037   1.245  15.933  1.00  0.00     0.088 C 
HETATM    2  C2  UNL     1      14.812   2.122  14.983  1.00  0.00     0.069 C 
HETATM    3  N1  UNL     1      14.982   3.376  15.047  1.00  0.00    -0.370 N 
ATOM      4  H1  UNL     1      14.592   3.959  15.788  1.00  0.00     0.161 HD
HETATM    5  C3  UNL     1      15.775   3.893  13.976  1.00  0.00     0.044 C 
HETATM    6  C4  UNL     1      17.161   4.169  14.536  1.00  0.00     0.040 C 
HETATM    7  C5  UNL     1      15.178   5.154  13.379  1.00  0.00     0.040 C 
HETATM    8  C6  UNL     1      15.783   2.779  12.967  1.00  0.00     0.106 C 
HETATM    9  C7  UNL     1      17.137   2.549  12.346  1.00  0.00     0.035 C 
HETATM   10  N2  UNL     1      15.491   1.647  13.833  1.00  0.00    -0.374 N 
ATOM     11  H2  UNL     1      15.734   0.675  13.643  1.00  0.00     0.161 HD
ENDROOT
TORSDOF 0
ENDMDL
