MODEL 1
REMARK VINA RESULT: -7.389991206      0.000      0.000
REMARK  8 active torsions:
REMARK  status: ('A' for Active; 'I' for Inactive)
REMARK    1  A    between atoms: N2_5  and  C3_6 
REMARK    2  A    between atoms: C3_6  and  C4_7 
REMARK    3  A    between atoms: C5_13  and  N5_14 
REMARK    4  A    between atoms: N6_17  and  N7_18 
REMARK    5  A    between atoms: N8_21  and  C6_22 
REMARK    6  A    between atoms: C6_22  and  C7_23 
REMARK    7  A    between atoms: C7_23  and  N9_24 
REMARK    8  A    between atoms: C13_42  and  N15_43 
ROOT
HETATM    1  N9  UNL     1     -39.426   0.684  43.306  1.00  0.00    -0.312 N 
HETATM    2  C8  UNL     1     -40.490  -0.061  43.504  1.00  0.00     0.156 A 
HETATM    3  C9  UNL     1     -40.973  -0.835  44.625  1.00  0.00     0.169 A 
HETATM    4  N10 UNL     1     -40.294  -0.982  45.836  1.00  0.00    -0.289 N 
ATOM      5  H10 UNL     1     -39.423  -0.527  46.111  1.00  0.00     0.172 HD
HETATM    6  C10 UNL     1     -41.040  -1.869  46.584  1.00  0.00     0.340 A 
HETATM    7  O2  UNL     1     -40.748  -2.239  47.727  1.00  0.00    -0.245 OA
HETATM    8  N11 UNL     1     -42.117  -2.246  45.887  1.00  0.00    -0.250 N 
ATOM      9  H11 UNL     1     -42.848  -2.895  46.177  1.00  0.00     0.192 HD
HETATM   10  N12 UNL     1     -42.029  -1.605  44.754  1.00  0.00    -0.278 N 
ATOM     11  H12 UNL     1     -42.732  -1.695  44.020  1.00  0.00     0.189 HD
HETATM   12  N13 UNL     1     -41.249  -0.127  42.316  1.00  0.00    -0.332 N 
ATOM     13  H13 UNL     1     -42.127  -0.624  42.167  1.00  0.00     0.168 HD
HETATM   14  C11 UNL     1     -40.576   0.592  41.441  1.00  0.00     0.148 A 
HETATM   15  C12 UNL     1     -40.844   0.860  40.104  1.00  0.00     0.290 A 
HETATM   16  O3  UNL     1     -41.890   0.400  39.550  1.00  0.00    -0.265 OA
HETATM   17  N14 UNL     1     -40.008   1.613  39.385  1.00  0.00    -0.154 N 
ATOM     18  H14 UNL     1     -40.205   1.816  38.406  1.00  0.00     0.187 HD
HETATM   19  C13 UNL     1     -38.901   2.100  39.975  1.00  0.00     0.680 A 
HETATM   20  N16 UNL     1     -38.616   1.851  41.283  1.00  0.00    -0.174 N 
ATOM     21  H16 UNL     1     -37.770   2.227  41.712  1.00  0.00     0.186 HD
HETATM   22  C14 UNL     1     -39.464   1.109  41.989  1.00  0.00     0.157 A 
ENDROOT
BRANCH   1  23
HETATM   23  C7  UNL     1     -38.482   1.203  44.225  1.00  0.00     0.154 C 
BRANCH  23  24
HETATM   24  C6  UNL     1     -37.106   0.697  44.290  1.00  0.00     0.174 C 
BRANCH  24  25
HETATM   25  N8  UNL     1     -37.081  -0.387  45.281  1.00  0.00    -0.241 N 
HETATM   26  C2  UNL     1     -37.107  -1.767  44.917  1.00  0.00     0.113 C 
HETATM   27  C1  UNL     1     -37.517  -2.274  43.585  1.00  0.00     0.092 C 
HETATM   28  N1  UNL     1     -36.759  -2.486  45.947  1.00  0.00    -0.268 N 
HETATM   29  N2  UNL     1     -36.448  -1.585  47.011  1.00  0.00    -0.191 N 
ATOM     30  H1  UNL     1     -36.717  -3.505  45.986  1.00  0.00     0.190 HD
HETATM   31  N6  UNL     1     -36.908  -0.377  46.616  1.00  0.00    -0.117 N 
BRANCH  29  32
HETATM   32  C3  UNL     1     -35.783  -2.073  48.161  1.00  0.00     0.236 C 
BRANCH  32  33
HETATM   33  C4  UNL     1     -34.778  -1.200  48.778  1.00  0.00     0.101 A 
HETATM   34  N3  UNL     1     -34.861  -0.748  50.078  1.00  0.00    -0.240 N 
HETATM   35  O1  UNL     1     -33.903   0.094  50.302  1.00  0.00    -0.155 OA
ATOM     36  H3  UNL     1     -35.567  -1.033  50.758  1.00  0.00     0.196 HD
HETATM   37  N4  UNL     1     -33.170   0.251  49.250  1.00  0.00    -0.224 N 
HETATM   38  C5  UNL     1     -33.679  -0.539  48.283  1.00  0.00     0.147 A 
ATOM     39  H4  UNL     1     -32.356   0.859  49.166  1.00  0.00     0.198 HD
BRANCH  38  40
HETATM   40  N5  UNL     1     -33.220  -0.691  47.117  1.00  0.00    -0.382 N 
ATOM     41  H52 UNL     1     -32.240  -0.639  46.838  1.00  0.00     0.157 HD
ATOM     42  H51 UNL     1     -33.786  -0.915  46.299  1.00  0.00     0.157 HD
ENDBRANCH  38  40
ENDBRANCH  32  33
ENDBRANCH  29  32
BRANCH  31  43
HETATM   43  N7  UNL     1     -37.490   0.487  47.441  1.00  0.00    -0.307 N 
ATOM     44  H72 UNL     1     -37.339   0.511  48.449  1.00  0.00     0.180 HD
ATOM     45  H71 UNL     1     -37.862   1.387  47.137  1.00  0.00     0.180 HD
ENDBRANCH  31  43
ENDBRANCH  24  25
ENDBRANCH  23  24
ENDBRANCH   1  23
BRANCH  19  46
HETATM   46  N15 UNL     1     -38.103   2.803  39.258  1.00  0.00    -0.234 N 
ATOM     47 2H15 UNL     1     -38.031   2.641  38.254  1.00  0.00     0.174 HD
ATOM     48 1H15 UNL     1     -37.560   3.528  39.726  1.00  0.00     0.174 HD
ENDBRANCH  19  46
TORSDOF 8
ENDMDL
MODEL 2
REMARK VINA RESULT: -7.142187596      4.579     11.317
REMARK  8 active torsions:
REMARK  status: ('A' for Active; 'I' for Inactive)
REMARK    1  A    between atoms: N2_5  and  C3_6 
REMARK    2  A    between atoms: C3_6  and  C4_7 
REMARK    3  A    between atoms: C5_13  and  N5_14 
REMARK    4  A    between atoms: N6_17  and  N7_18 
REMARK    5  A    between atoms: N8_21  and  C6_22 
REMARK    6  A    between atoms: C6_22  and  C7_23 
REMARK    7  A    between atoms: C7_23  and  N9_24 
REMARK    8  A    between atoms: C13_42  and  N15_43 
ROOT
HETATM    1  N9  UNL     1     -29.860  -1.778  49.818  1.00  0.00    -0.312 N 
HETATM    2  C8  UNL     1     -29.336  -0.788  50.504  1.00  0.00     0.156 A 
HETATM    3  C9  UNL     1     -29.713   0.592  50.713  1.00  0.00     0.169 A 
HETATM    4  N10 UNL     1     -30.815   1.209  50.120  1.00  0.00    -0.289 N 
ATOM      5  H10 UNL     1     -31.520   0.770  49.528  1.00  0.00     0.172 HD
HETATM    6  C10 UNL     1     -30.757   2.535  50.498  1.00  0.00     0.340 A 
HETATM    7  O2  UNL     1     -31.580   3.395  50.164  1.00  0.00    -0.245 OA
HETATM    8  N11 UNL     1     -29.689   2.730  51.280  1.00  0.00    -0.250 N 
ATOM      9  H11 UNL     1     -29.385   3.604  51.707  1.00  0.00     0.192 HD
HETATM   10  N12 UNL     1     -29.122   1.559  51.377  1.00  0.00    -0.278 N 
ATOM     11  H12 UNL     1     -28.279   1.406  51.930  1.00  0.00     0.189 HD
HETATM   12  N13 UNL     1     -28.120  -1.206  51.085  1.00  0.00    -0.332 N 
ATOM     13  H13 UNL     1     -27.495  -0.660  51.677  1.00  0.00     0.168 HD
HETATM   14  C11 UNL     1     -27.970  -2.456  50.698  1.00  0.00     0.148 A 
HETATM   15  C12 UNL     1     -26.944  -3.359  50.956  1.00  0.00     0.290 A 
HETATM   16  O3  UNL     1     -25.960  -3.026  51.686  1.00  0.00    -0.265 OA
HETATM   17  N14 UNL     1     -26.985  -4.591  50.444  1.00  0.00    -0.154 N 
ATOM     18  H14 UNL     1     -26.236  -5.256  50.636  1.00  0.00     0.187 HD
HETATM   19  C13 UNL     1     -28.029  -4.940  49.671  1.00  0.00     0.680 A 
HETATM   20  N16 UNL     1     -29.046  -4.075  49.404  1.00  0.00    -0.174 N 
ATOM     21  H16 UNL     1     -29.828  -4.357  48.813  1.00  0.00     0.186 HD
HETATM   22  C14 UNL     1     -28.997  -2.854  49.929  1.00  0.00     0.157 A 
ENDROOT
BRANCH   1  23
HETATM   23  C7  UNL     1     -31.141  -1.913  49.230  1.00  0.00     0.154 C 
BRANCH  23  24
HETATM   24  C6  UNL     1     -32.319  -2.296  50.019  1.00  0.00     0.174 C 
BRANCH  24  25
HETATM   25  N8  UNL     1     -33.485  -2.225  49.130  1.00  0.00    -0.241 N 
HETATM   26  C2  UNL     1     -33.907  -3.323  48.320  1.00  0.00     0.113 C 
HETATM   27  C1  UNL     1     -33.061  -4.497  47.994  1.00  0.00     0.092 C 
HETATM   28  N1  UNL     1     -35.118  -3.097  47.892  1.00  0.00    -0.268 N 
HETATM   29  N2  UNL     1     -35.544  -1.854  48.453  1.00  0.00    -0.191 N 
ATOM     30  H1  UNL     1     -35.660  -3.697  47.270  1.00  0.00     0.190 HD
HETATM   31  N6  UNL     1     -34.431  -1.281  48.964  1.00  0.00    -0.117 N 
BRANCH  29  32
HETATM   32  C3  UNL     1     -36.910  -1.492  48.380  1.00  0.00     0.236 C 
BRANCH  32  33
HETATM   33  C4  UNL     1     -37.331  -0.681  47.233  1.00  0.00     0.101 A 
HETATM   34  N3  UNL     1     -37.157   0.685  47.164  1.00  0.00    -0.240 N 
HETATM   35  O1  UNL     1     -37.731   1.138  46.095  1.00  0.00    -0.155 OA
ATOM     36  H3  UNL     1     -36.654   1.250  47.848  1.00  0.00     0.196 HD
HETATM   37  N4  UNL     1     -38.284   0.180  45.427  1.00  0.00    -0.224 N 
HETATM   38  C5  UNL     1     -38.055  -0.965  46.099  1.00  0.00     0.147 A 
ATOM     39  H4  UNL     1     -38.800   0.274  44.553  1.00  0.00     0.198 HD
BRANCH  38  40
HETATM   40  N5  UNL     1     -38.407  -2.126  45.749  1.00  0.00    -0.382 N 
ATOM     41  H52 UNL     1     -39.198  -2.657  46.112  1.00  0.00     0.157 HD
ATOM     42  H51 UNL     1     -37.945  -2.674  45.023  1.00  0.00     0.157 HD
ENDBRANCH  38  40
ENDBRANCH  32  33
ENDBRANCH  29  32
BRANCH  31  43
HETATM   43  N7  UNL     1     -34.185   0.023  48.893  1.00  0.00    -0.307 N 
ATOM     44  H72 UNL     1     -34.029   0.623  49.702  1.00  0.00     0.180 HD
ATOM     45  H71 UNL     1     -33.804   0.476  48.062  1.00  0.00     0.180 HD
ENDBRANCH  31  43
ENDBRANCH  24  25
ENDBRANCH  23  24
ENDBRANCH   1  23
BRANCH  19  46
HETATM   46  N15 UNL     1     -28.034  -6.123  49.175  1.00  0.00    -0.234 N 
ATOM     47 2H15 UNL     1     -27.739  -6.281  48.211  1.00  0.00     0.174 HD
ATOM     48 1H15 UNL     1     -28.332  -6.889  49.779  1.00  0.00     0.174 HD
ENDBRANCH  19  46
TORSDOF 8
ENDMDL
MODEL 3
REMARK VINA RESULT: -7.116526258      4.691     11.571
REMARK  8 active torsions:
REMARK  status: ('A' for Active; 'I' for Inactive)
REMARK    1  A    between atoms: N2_5  and  C3_6 
REMARK    2  A    between atoms: C3_6  and  C4_7 
REMARK    3  A    between atoms: C5_13  and  N5_14 
REMARK    4  A    between atoms: N6_17  and  N7_18 
REMARK    5  A    between atoms: N8_21  and  C6_22 
REMARK    6  A    between atoms: C6_22  and  C7_23 
REMARK    7  A    between atoms: C7_23  and  N9_24 
REMARK    8  A    between atoms: C13_42  and  N15_43 
ROOT
HETATM    1  N9  UNL     1     -29.530  -1.798  49.810  1.00  0.00    -0.312 N 
HETATM    2  C8  UNL     1     -29.085  -0.752  50.471  1.00  0.00     0.156 A 
HETATM    3  C9  UNL     1     -29.584   0.591  50.668  1.00  0.00     0.169 A 
HETATM    4  N10 UNL     1     -30.751   1.094  50.089  1.00  0.00    -0.289 N 
ATOM      5  H10 UNL     1     -31.424   0.582  49.519  1.00  0.00     0.172 HD
HETATM    6  C10 UNL     1     -30.807   2.425  50.447  1.00  0.00     0.340 A 
HETATM    7  O2  UNL     1     -31.713   3.200  50.118  1.00  0.00    -0.245 OA
HETATM    8  N11 UNL     1     -29.747   2.730  51.203  1.00  0.00    -0.250 N 
ATOM      9  H11 UNL     1     -29.516   3.636  51.611  1.00  0.00     0.192 HD
HETATM   10  N12 UNL     1     -29.072   1.619  51.305  1.00  0.00    -0.278 N 
ATOM     11  H12 UNL     1     -28.207   1.553  51.842  1.00  0.00     0.189 HD
HETATM   12  N13 UNL     1     -27.825  -1.047  51.032  1.00  0.00    -0.332 N 
ATOM     13  H13 UNL     1     -27.241  -0.437  51.602  1.00  0.00     0.168 HD
HETATM   14  C11 UNL     1     -27.568  -2.285  50.659  1.00  0.00     0.148 A 
HETATM   15  C12 UNL     1     -26.458  -3.085  50.908  1.00  0.00     0.290 A 
HETATM   16  O3  UNL     1     -25.495  -2.651  51.612  1.00  0.00    -0.265 OA
HETATM   17  N14 UNL     1     -26.395  -4.323  50.415  1.00  0.00    -0.154 N 
ATOM     18  H14 UNL     1     -25.585  -4.914  50.601  1.00  0.00     0.187 HD
HETATM   19  C13 UNL     1     -27.418  -4.780  49.670  1.00  0.00     0.680 A 
HETATM   20  N16 UNL     1     -28.515  -4.017  49.412  1.00  0.00    -0.174 N 
ATOM     21  H16 UNL     1     -29.280  -4.379  48.842  1.00  0.00     0.186 HD
HETATM   22  C14 UNL     1     -28.569  -2.788  49.919  1.00  0.00     0.157 A 
ENDROOT
BRANCH   1  23
HETATM   23  C7  UNL     1     -30.805  -2.060  49.252  1.00  0.00     0.154 C 
BRANCH  23  24
HETATM   24  C6  UNL     1     -31.962  -2.396  50.089  1.00  0.00     0.174 C 
BRANCH  24  25
HETATM   25  N8  UNL     1     -33.167  -1.973  49.364  1.00  0.00    -0.241 N 
HETATM   26  C2  UNL     1     -33.960  -0.857  49.770  1.00  0.00     0.113 C 
HETATM   27  C1  UNL     1     -33.901  -0.231  51.113  1.00  0.00     0.092 C 
HETATM   28  N1  UNL     1     -34.756  -0.521  48.793  1.00  0.00    -0.268 N 
HETATM   29  N2  UNL     1     -34.470  -1.388  47.693  1.00  0.00    -0.191 N 
ATOM     30  H1  UNL     1     -35.454   0.223  48.811  1.00  0.00     0.190 HD
HETATM   31  N6  UNL     1     -33.701  -2.378  48.197  1.00  0.00    -0.117 N 
BRANCH  29  32
HETATM   32  C3  UNL     1     -34.990  -1.079  46.414  1.00  0.00     0.236 C 
BRANCH  32  33
HETATM   33  C4  UNL     1     -36.446  -1.138  46.246  1.00  0.00     0.101 A 
HETATM   34  N3  UNL     1     -37.102  -2.207  45.676  1.00  0.00    -0.240 N 
HETATM   35  O1  UNL     1     -38.360  -1.924  45.554  1.00  0.00    -0.155 OA
ATOM     36  H3  UNL     1     -36.665  -3.085  45.394  1.00  0.00     0.196 HD
HETATM   37  N4  UNL     1     -38.612  -0.738  46.001  1.00  0.00    -0.224 N 
HETATM   38  C5  UNL     1     -37.450  -0.219  46.444  1.00  0.00     0.147 A 
ATOM     39  H4  UNL     1     -39.523  -0.280  46.017  1.00  0.00     0.198 HD
BRANCH  38  40
HETATM   40  N5  UNL     1     -37.288   0.910  46.985  1.00  0.00    -0.382 N 
ATOM     41  H52 UNL     1     -36.507   1.549  46.837  1.00  0.00     0.157 HD
ATOM     42  H51 UNL     1     -37.950   1.341  47.630  1.00  0.00     0.157 HD
ENDBRANCH  38  40
ENDBRANCH  32  33
ENDBRANCH  29  32
BRANCH  31  43
HETATM   43  N7  UNL     1     -33.816  -3.650  47.827  1.00  0.00    -0.307 N 
ATOM     44  H72 UNL     1     -33.090  -4.355  47.957  1.00  0.00     0.180 HD
ATOM     45  H71 UNL     1     -34.714  -4.116  47.695  1.00  0.00     0.180 HD
ENDBRANCH  31  43
ENDBRANCH  24  25
ENDBRANCH  23  24
ENDBRANCH   1  23
BRANCH  19  46
HETATM   46  N15 UNL     1     -27.324  -5.966  49.191  1.00  0.00    -0.234 N 
ATOM     47 2H15 UNL     1     -26.581  -6.592  49.502  1.00  0.00     0.174 HD
ATOM     48 1H15 UNL     1     -28.019  -6.256  48.504  1.00  0.00     0.174 HD
ENDBRANCH  19  46
TORSDOF 8
ENDMDL
MODEL 4
REMARK VINA RESULT: -7.106355655      2.177      3.482
REMARK  8 active torsions:
REMARK  status: ('A' for Active; 'I' for Inactive)
REMARK    1  A    between atoms: N2_5  and  C3_6 
REMARK    2  A    between atoms: C3_6  and  C4_7 
REMARK    3  A    between atoms: C5_13  and  N5_14 
REMARK    4  A    between atoms: N6_17  and  N7_18 
REMARK    5  A    between atoms: N8_21  and  C6_22 
REMARK    6  A    between atoms: C6_22  and  C7_23 
REMARK    7  A    between atoms: C7_23  and  N9_24 
REMARK    8  A    between atoms: C13_42  and  N15_43 
ROOT
HETATM    1  N9  UNL     1     -40.394  -0.045  41.440  1.00  0.00    -0.312 N 
HETATM    2  C8  UNL     1     -41.297  -0.156  40.492  1.00  0.00     0.156 A 
HETATM    3  C9  UNL     1     -42.430  -1.032  40.289  1.00  0.00     0.169 A 
HETATM    4  N10 UNL     1     -42.789  -2.072  41.148  1.00  0.00    -0.289 N 
ATOM      5  H10 UNL     1     -42.355  -2.309  42.041  1.00  0.00     0.172 HD
HETATM    6  C10 UNL     1     -43.850  -2.714  40.543  1.00  0.00     0.340 A 
HETATM    7  O2  UNL     1     -44.440  -3.690  41.020  1.00  0.00    -0.245 OA
HETATM    8  N11 UNL     1     -44.136  -2.109  39.385  1.00  0.00    -0.250 N 
ATOM      9  H11 UNL     1     -44.865  -2.360  38.719  1.00  0.00     0.192 HD
HETATM   10  N12 UNL     1     -43.280  -1.130  39.293  1.00  0.00    -0.278 N 
ATOM     11  H12 UNL     1     -43.271  -0.485  38.503  1.00  0.00     0.189 HD
HETATM   12  N13 UNL     1     -41.012   0.759  39.457  1.00  0.00    -0.332 N 
ATOM     13  H13 UNL     1     -41.539   0.908  38.597  1.00  0.00     0.168 HD
HETATM   14  C11 UNL     1     -39.916   1.380  39.843  1.00  0.00     0.148 A 
HETATM   15  C12 UNL     1     -39.173   2.369  39.208  1.00  0.00     0.290 A 
HETATM   16  O3  UNL     1     -39.538   2.826  38.082  1.00  0.00    -0.265 OA
HETATM   17  N14 UNL     1     -38.069   2.855  39.779  1.00  0.00    -0.154 N 
ATOM     18  H14 UNL     1     -37.526   3.585  39.318  1.00  0.00     0.187 HD
HETATM   19  C13 UNL     1     -37.686   2.368  40.974  1.00  0.00     0.680 A 
HETATM   20  N16 UNL     1     -38.396   1.400  41.616  1.00  0.00    -0.174 N 
ATOM     21  H16 UNL     1     -38.088   1.041  42.520  1.00  0.00     0.186 HD
HETATM   22  C14 UNL     1     -39.500   0.932  41.040  1.00  0.00     0.157 A 
ENDROOT
BRANCH   1  23
HETATM   23  C7  UNL     1     -40.357  -0.593  42.745  1.00  0.00     0.154 C 
BRANCH  23  24
HETATM   24  C6  UNL     1     -40.379   0.255  43.943  1.00  0.00     0.174 C 
BRANCH  24  25
HETATM   25  N8  UNL     1     -39.410  -0.303  44.895  1.00  0.00    -0.241 N 
HETATM   26  C2  UNL     1     -39.770  -1.262  45.889  1.00  0.00     0.113 C 
HETATM   27  C1  UNL     1     -41.161  -1.536  46.324  1.00  0.00     0.092 C 
HETATM   28  N1  UNL     1     -38.686  -1.808  46.367  1.00  0.00    -0.268 N 
HETATM   29  N2  UNL     1     -37.579  -1.248  45.659  1.00  0.00    -0.191 N 
ATOM     30  H1  UNL     1     -38.639  -2.505  47.110  1.00  0.00     0.190 HD
HETATM   31  N6  UNL     1     -38.072  -0.185  44.987  1.00  0.00    -0.117 N 
BRANCH  29  32
HETATM   32  C3  UNL     1     -36.304  -1.851  45.777  1.00  0.00     0.236 C 
BRANCH  32  33
HETATM   33  C4  UNL     1     -35.399  -1.315  46.800  1.00  0.00     0.101 A 
HETATM   34  N3  UNL     1     -35.785  -0.389  47.746  1.00  0.00    -0.240 N 
HETATM   35  O1  UNL     1     -34.751  -0.018  48.431  1.00  0.00    -0.155 OA
ATOM     36  H3  UNL     1     -36.737  -0.051  47.885  1.00  0.00     0.196 HD
HETATM   37  N4  UNL     1     -33.685  -0.623  48.022  1.00  0.00    -0.224 N 
HETATM   38  C5  UNL     1     -34.046  -1.440  47.014  1.00  0.00     0.147 A 
ATOM     39  H4  UNL     1     -32.743  -0.504  48.395  1.00  0.00     0.198 HD
BRANCH  38  40
HETATM   40  N5  UNL     1     -33.293  -2.226  46.375  1.00  0.00    -0.382 N 
ATOM     41  H52 UNL     1     -33.212  -2.302  45.362  1.00  0.00     0.157 HD
ATOM     42  H51 UNL     1     -32.638  -2.877  46.809  1.00  0.00     0.157 HD
ENDBRANCH  38  40
ENDBRANCH  32  33
ENDBRANCH  29  32
BRANCH  31  43
HETATM   43  N7  UNL     1     -37.409   0.958  44.842  1.00  0.00    -0.307 N 
ATOM     44  H72 UNL     1     -37.204   1.394  43.944  1.00  0.00     0.180 HD
ATOM     45  H71 UNL     1     -37.337   1.660  45.579  1.00  0.00     0.180 HD
ENDBRANCH  31  43
ENDBRANCH  24  25
ENDBRANCH  23  24
ENDBRANCH   1  23
BRANCH  19  46
HETATM   46  N15 UNL     1     -36.611   2.838  41.492  1.00  0.00    -0.234 N 
ATOM     47 2H15 UNL     1     -35.875   2.210  41.814  1.00  0.00     0.174 HD
ATOM     48 1H15 UNL     1     -36.520   3.852  41.558  1.00  0.00     0.174 HD
ENDBRANCH  19  46
TORSDOF 8
ENDMDL
MODEL 5
REMARK VINA RESULT: -7.104555023      4.191      8.278
REMARK  8 active torsions:
REMARK  status: ('A' for Active; 'I' for Inactive)
REMARK    1  A    between atoms: N2_5  and  C3_6 
REMARK    2  A    between atoms: C3_6  and  C4_7 
REMARK    3  A    between atoms: C5_13  and  N5_14 
REMARK    4  A    between atoms: N6_17  and  N7_18 
REMARK    5  A    between atoms: N8_21  and  C6_22 
REMARK    6  A    between atoms: C6_22  and  C7_23 
REMARK    7  A    between atoms: C7_23  and  N9_24 
REMARK    8  A    between atoms: C13_42  and  N15_43 
ROOT
HETATM    1  N9  UNL     1     -33.647  -1.357  48.376  1.00  0.00    -0.312 N 
HETATM    2  C8  UNL     1     -34.595  -0.474  48.150  1.00  0.00     0.156 A 
HETATM    3  C9  UNL     1     -35.864  -0.526  47.458  1.00  0.00     0.169 A 
HETATM    4  N10 UNL     1     -36.353  -1.649  46.787  1.00  0.00    -0.289 N 
ATOM      5  H10 UNL     1     -35.928  -2.575  46.749  1.00  0.00     0.172 HD
HETATM    6  C10 UNL     1     -37.529  -1.249  46.187  1.00  0.00     0.340 A 
HETATM    7  O2  UNL     1     -38.252  -1.985  45.506  1.00  0.00    -0.245 OA
HETATM    8  N11 UNL     1     -37.760   0.038  46.469  1.00  0.00    -0.250 N 
ATOM      9  H11 UNL     1     -38.547   0.608  46.163  1.00  0.00     0.192 HD
HETATM   10  N12 UNL     1     -36.758   0.405  47.220  1.00  0.00    -0.278 N 
ATOM     11  H12 UNL     1     -36.676   1.349  47.597  1.00  0.00     0.189 HD
HETATM   12  N13 UNL     1     -34.206   0.781  48.663  1.00  0.00    -0.332 N 
ATOM     13  H13 UNL     1     -34.736   1.651  48.643  1.00  0.00     0.168 HD
HETATM   14  C11 UNL     1     -33.008   0.583  49.174  1.00  0.00     0.148 A 
HETATM   15  C12 UNL     1     -32.139   1.473  49.796  1.00  0.00     0.290 A 
HETATM   16  O3  UNL     1     -32.469   2.688  49.962  1.00  0.00    -0.265 OA
HETATM   17  N14 UNL     1     -30.948   1.059  50.232  1.00  0.00    -0.154 N 
ATOM     18  H14 UNL     1     -30.311   1.709  50.694  1.00  0.00     0.187 HD
HETATM   19  C13 UNL     1     -30.601  -0.229  50.055  1.00  0.00     0.680 A 
HETATM   20  N16 UNL     1     -31.433  -1.119  49.449  1.00  0.00    -0.174 N 
ATOM     21  H16 UNL     1     -31.152  -2.092  49.321  1.00  0.00     0.186 HD
HETATM   22  C14 UNL     1     -32.622  -0.695  49.029  1.00  0.00     0.157 A 
ENDROOT
BRANCH   1  23
HETATM   23  C7  UNL     1     -33.648  -2.765  48.231  1.00  0.00     0.154 C 
BRANCH  23  24
HETATM   24  C6  UNL     1     -33.871  -3.660  49.373  1.00  0.00     0.174 C 
BRANCH  24  25
HETATM   25  N8  UNL     1     -35.206  -3.365  49.909  1.00  0.00    -0.241 N 
HETATM   26  C2  UNL     1     -35.418  -2.480  51.009  1.00  0.00     0.113 C 
HETATM   27  C1  UNL     1     -34.359  -2.050  51.954  1.00  0.00     0.092 C 
HETATM   28  N1  UNL     1     -36.681  -2.161  51.062  1.00  0.00    -0.268 N 
HETATM   29  N2  UNL     1     -37.329  -2.798  49.959  1.00  0.00    -0.191 N 
ATOM     30  H1  UNL     1     -37.124  -1.566  51.763  1.00  0.00     0.190 HD
HETATM   31  N6  UNL     1     -36.438  -3.693  49.478  1.00  0.00    -0.117 N 
BRANCH  29  32
HETATM   32  C3  UNL     1     -38.645  -2.412  49.611  1.00  0.00     0.236 C 
BRANCH  32  33
HETATM   33  C4  UNL     1     -39.177  -1.196  50.235  1.00  0.00     0.101 A 
HETATM   34  N3  UNL     1     -39.088   0.054  49.661  1.00  0.00    -0.240 N 
HETATM   35  O1  UNL     1     -39.534   0.942  50.492  1.00  0.00    -0.155 OA
ATOM     36  H3  UNL     1     -38.727   0.249  48.727  1.00  0.00     0.196 HD
HETATM   37  N4  UNL     1     -39.923   0.389  51.593  1.00  0.00    -0.224 N 
HETATM   38  C5  UNL     1     -39.722  -0.937  51.471  1.00  0.00     0.147 A 
ATOM     39  H4  UNL     1     -40.312   0.869  52.404  1.00  0.00     0.198 HD
BRANCH  38  40
HETATM   40  N5  UNL     1     -40.009  -1.823  52.324  1.00  0.00    -0.382 N 
ATOM     41  H52 UNL     1     -39.416  -2.599  52.618  1.00  0.00     0.157 HD
ATOM     42  H51 UNL     1     -40.879  -1.853  52.855  1.00  0.00     0.157 HD
ENDBRANCH  38  40
ENDBRANCH  32  33
ENDBRANCH  29  32
BRANCH  31  43
HETATM   43  N7  UNL     1     -36.783  -4.899  49.038  1.00  0.00    -0.307 N 
ATOM     44  H72 UNL     1     -37.321  -5.070  48.189  1.00  0.00     0.180 HD
ATOM     45  H71 UNL     1     -36.284  -5.752  49.294  1.00  0.00     0.180 HD
ENDBRANCH  31  43
ENDBRANCH  24  25
ENDBRANCH  23  24
ENDBRANCH   1  23
BRANCH  19  46
HETATM   46  N15 UNL     1     -29.443  -0.596  50.466  1.00  0.00    -0.234 N 
ATOM     47 2H15 UNL     1     -29.092  -0.285  51.372  1.00  0.00     0.174 HD
ATOM     48 1H15 UNL     1     -28.899  -1.212  49.862  1.00  0.00     0.174 HD
ENDBRANCH  19  46
TORSDOF 8
ENDMDL
