MODEL 1
REMARK VINA RESULT: -6.561305439      0.000      0.000
REMARK  12 active torsions:
REMARK  status: ('A' for Active; 'I' for Inactive)
REMARK    1  A    between atoms: N1_1  and  C1_5 
REMARK    2  A    between atoms: C1_5  and  N2_6 
REMARK    3  A    between atoms: C1_5  and  O1_10 
REMARK    4  A    between atoms: O1_10  and  C2_11 
REMARK    5  A    between atoms: C2_11  and  C3_13 
REMARK    6  A    between atoms: C3_13  and  C4_14 
REMARK    7  A    between atoms: C4_14  and  N3_15 
REMARK    8  A    between atoms: N3_15  and  C5_17 
REMARK    9  A    between atoms: C7_19  and  O3_20 
REMARK   10  A    between atoms: C10_24  and  O4_25 
REMARK   11  A    between atoms: C13_34  and  N6_35 
REMARK   12  A    between atoms: C14_39  and  C15_40 
ROOT
HETATM    1  C5  UNL     1     -36.992  -1.266  47.197  1.00  0.00     0.066 A 
HETATM    2  C6  UNL     1     -36.960  -2.379  46.399  1.00  0.00     0.069 A 
HETATM    3  C7  UNL     1     -37.301  -2.272  45.062  1.00  0.00     0.084 A 
HETATM    4  C8  UNL     1     -37.676  -1.072  44.500  1.00  0.00     0.077 A 
HETATM    5  C9  UNL     1     -37.714   0.061  45.286  1.00  0.00     0.083 A 
HETATM    6  C10 UNL     1     -37.372  -0.067  46.612  1.00  0.00     0.119 A 
HETATM    7  N4  UNL     1     -38.131   1.174  44.473  1.00  0.00    -0.348 N 
ATOM      8  H4  UNL     1     -38.024   2.157  44.725  1.00  0.00     0.163 HD
HETATM    9  C11 UNL     1     -38.728   0.691  43.242  1.00  0.00     0.237 C 
HETATM   10  N5  UNL     1     -38.418   1.500  42.109  1.00  0.00    -0.320 N 
ATOM     11  H5  UNL     1     -37.533   2.007  42.079  1.00  0.00     0.165 HD
HETATM   12  C12 UNL     1     -39.325   1.609  41.026  1.00  0.00     0.252 C 
HETATM   13  O5  UNL     1     -38.906   1.722  39.843  1.00  0.00    -0.271 OA
HETATM   14  C13 UNL     1     -40.789   1.593  41.247  1.00  0.00     0.296 C 
HETATM   15  C14 UNL     1     -41.173   0.546  42.278  1.00  0.00     0.201 C 
HETATM   16  C16 UNL     1     -40.196   0.499  43.389  1.00  0.00     0.200 C 
HETATM   17  O8  UNL     1     -40.623   0.290  44.512  1.00  0.00    -0.292 OA
HETATM   18  C17 UNL     1     -38.084  -0.665  43.163  1.00  0.00     0.221 C 
HETATM   19  O9  UNL     1     -37.929  -1.329  42.110  1.00  0.00    -0.287 OA
ENDROOT
BRANCH   1  20
HETATM   20  N3  UNL     1     -36.677  -1.334  48.586  1.00  0.00    -0.387 N 
ATOM     21  H3  UNL     1     -35.898  -0.761  48.910  1.00  0.00     0.159 HD
BRANCH  20  22
HETATM   22  C4  UNL     1     -37.342  -2.122  49.563  1.00  0.00     0.130 C 
BRANCH  22  23
HETATM   23  C3  UNL     1     -38.825  -2.281  49.298  1.00  0.00     0.131 C 
BRANCH  23  24
HETATM   24  C2  UNL     1     -39.556  -1.012  49.453  1.00  0.00     0.263 C 
HETATM   25  O2  UNL     1     -40.746  -0.878  49.000  1.00  0.00    -0.265 OA
BRANCH  24  26
HETATM   26  O1  UNL     1     -38.986   0.061  50.090  1.00  0.00    -0.265 OA
BRANCH  26  27
HETATM   27  C1  UNL     1     -39.542   0.657  51.228  1.00  0.00     0.526 C 
BRANCH  27  28
HETATM   28  N1  UNL     1     -40.349   1.815  50.850  1.00  0.00    -0.027 N 
ATOM     29  H13 UNL     1     -41.330   1.683  51.095  1.00  0.00     0.279 HD
ATOM     30  H12 UNL     1     -40.145   2.621  51.441  1.00  0.00     0.279 HD
ATOM     31  H11 UNL     1     -40.237   2.038  49.861  1.00  0.00     0.279 HD
ENDBRANCH  27  28
BRANCH  27  32
HETATM   32  N2  UNL     1     -40.317  -0.300  51.969  1.00  0.00    -0.027 N 
ATOM     33  H23 UNL     1     -41.303  -0.263  51.711  1.00  0.00     0.279 HD
ATOM     34  H22 UNL     1     -40.112  -1.255  51.674  1.00  0.00     0.279 HD
ATOM     35  H21 UNL     1     -40.188  -0.183  52.974  1.00  0.00     0.279 HD
ENDBRANCH  27  32
ENDBRANCH  26  27
ENDBRANCH  24  26
ENDBRANCH  23  24
ENDBRANCH  22  23
ENDBRANCH  20  22
ENDBRANCH   1  20
BRANCH   6  36
HETATM   36  O4  UNL     1     -37.401   1.040  47.420  1.00  0.00    -0.356 OA
ATOM     37  H4  UNL     1     -37.063   1.850  47.056  1.00  0.00     0.218 HD
ENDBRANCH   6  36
BRANCH   3  38
HETATM   38  O3  UNL     1     -37.252  -3.432  44.297  1.00  0.00    -0.360 OA
ATOM     39  H3  UNL     1     -37.378  -4.259  44.750  1.00  0.00     0.217 HD
ENDBRANCH   3  38
BRANCH  15  40
HETATM   40  C15 UNL     1     -41.178  -0.796  41.654  1.00  0.00     0.187 C 
HETATM   41  O6  UNL     1     -40.571  -1.016  40.582  1.00  0.00    -0.647 OA
HETATM   42  O7  UNL     1     -41.860  -1.840  42.252  1.00  0.00    -0.647 OA
ENDBRANCH  15  40
BRANCH  14  43
HETATM   43  N6  UNL     1     -41.494   1.465  40.011  1.00  0.00    -0.065 N 
ATOM     44  H63 UNL     1     -42.411   1.040  40.145  1.00  0.00     0.275 HD
ATOM     45  H62 UNL     1     -41.794   2.372  39.654  1.00  0.00     0.275 HD
ATOM     46  H61 UNL     1     -40.940   0.953  39.324  1.00  0.00     0.275 HD
ENDBRANCH  14  43
TORSDOF 12
ENDMDL
MODEL 2
REMARK VINA RESULT: -6.497128515      1.272      1.633
REMARK  12 active torsions:
REMARK  status: ('A' for Active; 'I' for Inactive)
REMARK    1  A    between atoms: N1_1  and  C1_5 
REMARK    2  A    between atoms: C1_5  and  N2_6 
REMARK    3  A    between atoms: C1_5  and  O1_10 
REMARK    4  A    between atoms: O1_10  and  C2_11 
REMARK    5  A    between atoms: C2_11  and  C3_13 
REMARK    6  A    between atoms: C3_13  and  C4_14 
REMARK    7  A    between atoms: C4_14  and  N3_15 
REMARK    8  A    between atoms: N3_15  and  C5_17 
REMARK    9  A    between atoms: C7_19  and  O3_20 
REMARK   10  A    between atoms: C10_24  and  O4_25 
REMARK   11  A    between atoms: C13_34  and  N6_35 
REMARK   12  A    between atoms: C14_39  and  C15_40 
ROOT
HETATM    1  C5  UNL     1     -37.009  -1.155  47.254  1.00  0.00     0.066 A 
HETATM    2  C6  UNL     1     -37.014  -2.294  46.492  1.00  0.00     0.069 A 
HETATM    3  C7  UNL     1     -37.362  -2.220  45.155  1.00  0.00     0.084 A 
HETATM    4  C8  UNL     1     -37.708  -1.029  44.558  1.00  0.00     0.077 A 
HETATM    5  C9  UNL     1     -37.709   0.130  45.307  1.00  0.00     0.083 A 
HETATM    6  C10 UNL     1     -37.360   0.035  46.634  1.00  0.00     0.119 A 
HETATM    7  N4  UNL     1     -38.101   1.228  44.462  1.00  0.00    -0.348 N 
ATOM      8  H4  UNL     1     -37.964   2.215  44.682  1.00  0.00     0.163 HD
HETATM    9  C11 UNL     1     -38.722   0.722  43.251  1.00  0.00     0.237 C 
HETATM   10  N5  UNL     1     -38.398   1.486  42.091  1.00  0.00    -0.320 N 
ATOM     11  H5  UNL     1     -37.500   1.967  42.038  1.00  0.00     0.165 HD
HETATM   12  C12 UNL     1     -39.311   1.586  41.011  1.00  0.00     0.252 C 
HETATM   13  O5  UNL     1     -38.899   1.649  39.823  1.00  0.00    -0.271 OA
HETATM   14  C13 UNL     1     -40.773   1.618  41.244  1.00  0.00     0.296 C 
HETATM   15  C14 UNL     1     -41.177   0.615  42.311  1.00  0.00     0.201 C 
HETATM   16  C16 UNL     1     -40.194   0.577  43.416  1.00  0.00     0.200 C 
HETATM   17  O8  UNL     1     -40.617   0.415  44.548  1.00  0.00    -0.292 OA
HETATM   18  C17 UNL     1     -38.116  -0.653  43.211  1.00  0.00     0.221 C 
HETATM   19  O9  UNL     1     -37.988  -1.354  42.179  1.00  0.00    -0.287 OA
ENDROOT
BRANCH   1  20
HETATM   20  N3  UNL     1     -36.684  -1.188  48.643  1.00  0.00    -0.387 N 
ATOM     21  H3  UNL     1     -36.111  -0.423  49.000  1.00  0.00     0.159 HD
BRANCH  20  22
HETATM   22  C4  UNL     1     -37.081  -2.181  49.578  1.00  0.00     0.130 C 
BRANCH  22  23
HETATM   23  C3  UNL     1     -38.093  -1.683  50.588  1.00  0.00     0.131 C 
BRANCH  23  24
HETATM   24  C2  UNL     1     -39.232  -1.004  49.947  1.00  0.00     0.263 C 
HETATM   25  O2  UNL     1     -39.212   0.258  49.734  1.00  0.00    -0.265 OA
BRANCH  24  26
HETATM   26  O1  UNL     1     -40.345  -1.705  49.556  1.00  0.00    -0.265 OA
BRANCH  26  27
HETATM   27  C1  UNL     1     -40.530  -2.177  48.252  1.00  0.00     0.526 C 
BRANCH  27  28
HETATM   28  N1  UNL     1     -41.694  -3.058  48.193  1.00  0.00    -0.027 N 
ATOM     29  H13 UNL     1     -41.672  -3.757  48.936  1.00  0.00     0.279 HD
ATOM     30  H12 UNL     1     -42.547  -2.569  48.463  1.00  0.00     0.279 HD
ATOM     31  H11 UNL     1     -41.786  -3.491  47.275  1.00  0.00     0.279 HD
ENDBRANCH  27  28
BRANCH  27  32
HETATM   32  N2  UNL     1     -40.659  -1.080  47.334  1.00  0.00    -0.027 N 
ATOM     33  H23 UNL     1     -40.971  -1.395  46.415  1.00  0.00     0.279 HD
ATOM     34  H22 UNL     1     -41.451  -0.483  47.573  1.00  0.00     0.279 HD
ATOM     35  H21 UNL     1     -39.793  -0.545  47.271  1.00  0.00     0.279 HD
ENDBRANCH  27  32
ENDBRANCH  26  27
ENDBRANCH  24  26
ENDBRANCH  23  24
ENDBRANCH  22  23
ENDBRANCH  20  22
ENDBRANCH   1  20
BRANCH   6  36
HETATM   36  O4  UNL     1     -37.351   1.167  47.407  1.00  0.00    -0.356 OA
ATOM     37  H4  UNL     1     -38.086   1.294  47.996  1.00  0.00     0.218 HD
ENDBRANCH   6  36
BRANCH   3  38
HETATM   38  O3  UNL     1     -37.352  -3.405  44.428  1.00  0.00    -0.360 OA
ATOM     39  H3  UNL     1     -36.544  -3.906  44.422  1.00  0.00     0.217 HD
ENDBRANCH   3  38
BRANCH  15  40
HETATM   40  C15 UNL     1     -41.225  -0.745  41.730  1.00  0.00     0.187 C 
HETATM   41  O6  UNL     1     -40.643  -1.013  40.655  1.00  0.00    -0.647 OA
HETATM   42  O7  UNL     1     -41.920  -1.753  42.373  1.00  0.00    -0.647 OA
ENDBRANCH  15  40
BRANCH  14  43
HETATM   43  N6  UNL     1     -41.491   1.470  40.018  1.00  0.00    -0.065 N 
ATOM     44  H63 UNL     1     -40.953   0.949  39.327  1.00  0.00     0.275 HD
ATOM     45  H62 UNL     1     -42.278   0.828  40.119  1.00  0.00     0.275 HD
ATOM     46  H61 UNL     1     -41.789   2.376  39.656  1.00  0.00     0.275 HD
ENDBRANCH  14  43
TORSDOF 12
ENDMDL
MODEL 3
REMARK VINA RESULT: -6.455388160      2.251      8.439
REMARK  12 active torsions:
REMARK  status: ('A' for Active; 'I' for Inactive)
REMARK    1  A    between atoms: N1_1  and  C1_5 
REMARK    2  A    between atoms: C1_5  and  N2_6 
REMARK    3  A    between atoms: C1_5  and  O1_10 
REMARK    4  A    between atoms: O1_10  and  C2_11 
REMARK    5  A    between atoms: C2_11  and  C3_13 
REMARK    6  A    between atoms: C3_13  and  C4_14 
REMARK    7  A    between atoms: C4_14  and  N3_15 
REMARK    8  A    between atoms: N3_15  and  C5_17 
REMARK    9  A    between atoms: C7_19  and  O3_20 
REMARK   10  A    between atoms: C10_24  and  O4_25 
REMARK   11  A    between atoms: C13_34  and  N6_35 
REMARK   12  A    between atoms: C14_39  and  C15_40 
ROOT
HETATM    1  C5  UNL     1     -39.653  -0.518  43.664  1.00  0.00     0.066 A 
HETATM    2  C6  UNL     1     -38.794   0.438  44.137  1.00  0.00     0.069 A 
HETATM    3  C7  UNL     1     -38.220   0.285  45.387  1.00  0.00     0.084 A 
HETATM    4  C8  UNL     1     -38.487  -0.808  46.181  1.00  0.00     0.077 A 
HETATM    5  C9  UNL     1     -39.350  -1.783  45.723  1.00  0.00     0.083 A 
HETATM    6  C10 UNL     1     -39.909  -1.611  44.479  1.00  0.00     0.119 A 
HETATM    7  N4  UNL     1     -39.462  -2.810  46.727  1.00  0.00    -0.348 N 
ATOM      8  H4  UNL     1     -39.837  -3.745  46.569  1.00  0.00     0.163 HD
HETATM    9  C11 UNL     1     -38.964  -2.315  47.997  1.00  0.00     0.237 C 
HETATM   10  N5  UNL     1     -38.264  -3.304  48.751  1.00  0.00    -0.320 N 
ATOM     11  H5  UNL     1     -37.763  -4.048  48.264  1.00  0.00     0.165 HD
HETATM   12  C12 UNL     1     -38.256  -3.264  50.168  1.00  0.00     0.252 C 
HETATM   13  O5  UNL     1     -37.241  -3.629  50.817  1.00  0.00    -0.271 OA
HETATM   14  C13 UNL     1     -39.437  -2.794  50.927  1.00  0.00     0.296 C 
HETATM   15  C14 UNL     1     -40.054  -1.570  50.274  1.00  0.00     0.201 C 
HETATM   16  C16 UNL     1     -40.048  -1.686  48.798  1.00  0.00     0.200 C 
HETATM   17  O8  UNL     1     -41.003  -1.234  48.189  1.00  0.00    -0.292 OA
HETATM   18  C17 UNL     1     -38.051  -1.227  47.506  1.00  0.00     0.221 C 
HETATM   19  O9  UNL     1     -37.076  -0.762  48.142  1.00  0.00    -0.287 OA
ENDROOT
BRANCH   1  20
HETATM   20  N3  UNL     1     -40.289  -0.388  42.394  1.00  0.00    -0.387 N 
ATOM     21  H3  UNL     1     -41.307  -0.319  42.394  1.00  0.00     0.159 HD
BRANCH  20  22
HETATM   22  C4  UNL     1     -39.645  -0.344  41.129  1.00  0.00     0.130 C 
BRANCH  22  23
HETATM   23  C3  UNL     1     -40.492   0.290  40.046  1.00  0.00     0.131 C 
BRANCH  23  24
HETATM   24  C2  UNL     1     -40.526   1.758  40.154  1.00  0.00     0.263 C 
HETATM   25  O2  UNL     1     -40.797   2.331  41.267  1.00  0.00    -0.265 OA
BRANCH  24  26
HETATM   26  O1  UNL     1     -40.266   2.555  39.068  1.00  0.00    -0.265 OA
BRANCH  26  27
HETATM   27  C1  UNL     1     -38.970   2.826  38.614  1.00  0.00     0.526 C 
BRANCH  27  28
HETATM   28  N1  UNL     1     -38.936   4.112  37.921  1.00  0.00    -0.027 N 
ATOM     29  H13 UNL     1     -38.272   4.753  38.356  1.00  0.00     0.279 HD
ATOM     30  H12 UNL     1     -38.499   4.030  37.003  1.00  0.00     0.279 HD
ATOM     31  H11 UNL     1     -39.866   4.524  37.857  1.00  0.00     0.279 HD
ENDBRANCH  27  28
BRANCH  27  32
HETATM   32  N2  UNL     1     -38.038   2.796  39.707  1.00  0.00    -0.027 N 
ATOM     33  H23 UNL     1     -38.210   3.555  40.366  1.00  0.00     0.279 HD
ATOM     34  H22 UNL     1     -38.214   2.006  40.327  1.00  0.00     0.279 HD
ATOM     35  H21 UNL     1     -37.074   2.802  39.372  1.00  0.00     0.279 HD
ENDBRANCH  27  32
ENDBRANCH  26  27
ENDBRANCH  24  26
ENDBRANCH  23  24
ENDBRANCH  22  23
ENDBRANCH  20  22
ENDBRANCH   1  20
BRANCH   6  36
HETATM   36  O4  UNL     1     -40.771  -2.561  43.995  1.00  0.00    -0.356 OA
ATOM     37  H4  UNL     1     -40.412  -3.205  43.395  1.00  0.00     0.218 HD
ENDBRANCH   6  36
BRANCH   3  38
HETATM   38  O3  UNL     1     -37.356   1.285  45.819  1.00  0.00    -0.360 OA
ATOM     39  H3  UNL     1     -36.781   1.080  46.548  1.00  0.00     0.217 HD
ENDBRANCH   3  38
BRANCH  15  40
HETATM   40  C15 UNL     1     -39.263  -0.366  50.613  1.00  0.00     0.187 C 
HETATM   41  O6  UNL     1     -38.225  -0.445  51.307  1.00  0.00    -0.647 OA
HETATM   42  O7  UNL     1     -39.664   0.879  50.164  1.00  0.00    -0.647 OA
ENDBRANCH  15  40
BRANCH  14  43
HETATM   43  N6  UNL     1     -39.118  -2.606  52.307  1.00  0.00    -0.065 N 
ATOM     44  H63 UNL     1     -38.338  -1.961  52.428  1.00  0.00     0.275 HD
ATOM     45  H62 UNL     1     -39.839  -2.069  52.789  1.00  0.00     0.275 HD
ATOM     46  H61 UNL     1     -38.942  -3.499  52.768  1.00  0.00     0.275 HD
ENDBRANCH  14  43
TORSDOF 12
ENDMDL
MODEL 4
REMARK VINA RESULT: -6.451087090      3.513      4.525
REMARK  12 active torsions:
REMARK  status: ('A' for Active; 'I' for Inactive)
REMARK    1  A    between atoms: N1_1  and  C1_5 
REMARK    2  A    between atoms: C1_5  and  N2_6 
REMARK    3  A    between atoms: C1_5  and  O1_10 
REMARK    4  A    between atoms: O1_10  and  C2_11 
REMARK    5  A    between atoms: C2_11  and  C3_13 
REMARK    6  A    between atoms: C3_13  and  C4_14 
REMARK    7  A    between atoms: C4_14  and  N3_15 
REMARK    8  A    between atoms: N3_15  and  C5_17 
REMARK    9  A    between atoms: C7_19  and  O3_20 
REMARK   10  A    between atoms: C10_24  and  O4_25 
REMARK   11  A    between atoms: C13_34  and  N6_35 
REMARK   12  A    between atoms: C14_39  and  C15_40 
ROOT
HETATM    1  C5  UNL     1     -35.903  -0.605  47.081  1.00  0.00     0.066 A 
HETATM    2  C6  UNL     1     -35.687  -1.751  46.361  1.00  0.00     0.069 A 
HETATM    3  C7  UNL     1     -36.405  -1.975  45.200  1.00  0.00     0.084 A 
HETATM    4  C8  UNL     1     -37.340  -1.076  44.738  1.00  0.00     0.077 A 
HETATM    5  C9  UNL     1     -37.572   0.085  45.448  1.00  0.00     0.083 A 
HETATM    6  C10 UNL     1     -36.848   0.288  46.599  1.00  0.00     0.119 A 
HETATM    7  N4  UNL     1     -38.583   0.850  44.765  1.00  0.00    -0.348 N 
ATOM      8  H4  UNL     1     -38.781   1.838  44.929  1.00  0.00     0.163 HD
HETATM    9  C11 UNL     1     -39.280   0.008  43.810  1.00  0.00     0.237 C 
HETATM   10  N5  UNL     1     -39.626   0.689  42.605  1.00  0.00    -0.320 N 
ATOM     11  H5  UNL     1     -39.039   1.455  42.273  1.00  0.00     0.165 HD
HETATM   12  C12 UNL     1     -40.775   0.315  41.865  1.00  0.00     0.252 C 
HETATM   13  O5  UNL     1     -40.780   0.378  40.607  1.00  0.00    -0.271 OA
HETATM   14  C13 UNL     1     -42.001  -0.162  42.543  1.00  0.00     0.296 C 
HETATM   15  C14 UNL     1     -41.662  -1.105  43.685  1.00  0.00     0.201 C 
HETATM   16  C16 UNL     1     -40.467  -0.644  44.427  1.00  0.00     0.200 C 
HETATM   17  O8  UNL     1     -40.450  -0.809  45.635  1.00  0.00    -0.292 OA
HETATM   18  C17 UNL     1     -38.230  -1.044  43.586  1.00  0.00     0.221 C 
HETATM   19  O9  UNL     1     -38.144  -1.770  42.568  1.00  0.00    -0.287 OA
ENDROOT
BRANCH   1  20
HETATM   20  N3  UNL     1     -35.206  -0.346  48.298  1.00  0.00    -0.387 N 
ATOM     21  H3  UNL     1     -35.770  -0.272  49.145  1.00  0.00     0.159 HD
BRANCH  20  22
HETATM   22  C4  UNL     1     -33.803  -0.181  48.448  1.00  0.00     0.130 C 
BRANCH  22  23
HETATM   23  C3  UNL     1     -33.404   0.349  49.809  1.00  0.00     0.131 C 
BRANCH  23  24
HETATM   24  C2  UNL     1     -32.453   1.470  49.713  1.00  0.00     0.263 C 
HETATM   25  O2  UNL     1     -32.862   2.665  49.508  1.00  0.00    -0.265 OA
BRANCH  24  26
HETATM   26  O1  UNL     1     -31.103   1.266  49.844  1.00  0.00    -0.265 OA
BRANCH  26  27
HETATM   27  C1  UNL     1     -30.346   1.814  50.886  1.00  0.00     0.526 C 
BRANCH  27  28
HETATM   28  N1  UNL     1     -29.082   1.095  51.026  1.00  0.00    -0.027 N 
ATOM     29  H13 UNL     1     -28.777   0.699  50.137  1.00  0.00     0.279 HD
ATOM     30  H12 UNL     1     -28.304   1.734  51.189  1.00  0.00     0.279 HD
ATOM     31  H11 UNL     1     -29.139   0.381  51.752  1.00  0.00     0.279 HD
ENDBRANCH  27  28
BRANCH  27  32
HETATM   32  N2  UNL     1     -30.127   3.216  50.666  1.00  0.00    -0.027 N 
ATOM     33  H23 UNL     1     -29.180   3.400  50.335  1.00  0.00     0.279 HD
ATOM     34  H22 UNL     1     -30.647   3.553  49.855  1.00  0.00     0.279 HD
ATOM     35  H21 UNL     1     -30.344   3.761  51.501  1.00  0.00     0.279 HD
ENDBRANCH  27  32
ENDBRANCH  26  27
ENDBRANCH  24  26
ENDBRANCH  23  24
ENDBRANCH  22  23
ENDBRANCH  20  22
ENDBRANCH   1  20
BRANCH   6  36
HETATM   36  O4  UNL     1     -37.055   1.430  47.328  1.00  0.00    -0.356 OA
ATOM     37  H4  UNL     1     -37.889   1.871  47.213  1.00  0.00     0.218 HD
ENDBRANCH   6  36
BRANCH   3  38
HETATM   38  O3  UNL     1     -36.148  -3.153  44.509  1.00  0.00    -0.360 OA
ATOM     39  H3  UNL     1     -35.714  -3.079  43.666  1.00  0.00     0.217 HD
ENDBRANCH   3  38
BRANCH  15  40
HETATM   40  C15 UNL     1     -41.345  -2.448  43.152  1.00  0.00     0.187 C 
HETATM   41  O6  UNL     1     -41.345  -3.457  43.892  1.00  0.00    -0.647 OA
HETATM   42  O7  UNL     1     -41.041  -2.612  41.813  1.00  0.00    -0.647 OA
ENDBRANCH  15  40
BRANCH  14  43
HETATM   43  N6  UNL     1     -42.927  -0.712  41.604  1.00  0.00    -0.065 N 
ATOM     44  H63 UNL     1     -42.457  -1.292  40.909  1.00  0.00     0.275 HD
ATOM     45  H62 UNL     1     -43.515  -1.428  42.031  1.00  0.00     0.275 HD
ATOM     46  H61 UNL     1     -43.484   0.021  41.166  1.00  0.00     0.275 HD
ENDBRANCH  14  43
TORSDOF 12
ENDMDL
MODEL 5
REMARK VINA RESULT: -6.449179744      2.165      3.186
REMARK  12 active torsions:
REMARK  status: ('A' for Active; 'I' for Inactive)
REMARK    1  A    between atoms: N1_1  and  C1_5 
REMARK    2  A    between atoms: C1_5  and  N2_6 
REMARK    3  A    between atoms: C1_5  and  O1_10 
REMARK    4  A    between atoms: O1_10  and  C2_11 
REMARK    5  A    between atoms: C2_11  and  C3_13 
REMARK    6  A    between atoms: C3_13  and  C4_14 
REMARK    7  A    between atoms: C4_14  and  N3_15 
REMARK    8  A    between atoms: N3_15  and  C5_17 
REMARK    9  A    between atoms: C7_19  and  O3_20 
REMARK   10  A    between atoms: C10_24  and  O4_25 
REMARK   11  A    between atoms: C13_34  and  N6_35 
REMARK   12  A    between atoms: C14_39  and  C15_40 
ROOT
HETATM    1  C5  UNL     1     -36.897  -1.116  47.223  1.00  0.00     0.066 A 
HETATM    2  C6  UNL     1     -36.912  -2.259  46.468  1.00  0.00     0.069 A 
HETATM    3  C7  UNL     1     -37.287  -2.194  45.137  1.00  0.00     0.084 A 
HETATM    4  C8  UNL     1     -37.649  -1.007  44.540  1.00  0.00     0.077 A 
HETATM    5  C9  UNL     1     -37.639   0.156  45.283  1.00  0.00     0.083 A 
HETATM    6  C10 UNL     1     -37.265   0.069  46.603  1.00  0.00     0.119 A 
HETATM    7  N4  UNL     1     -38.052   1.247  44.439  1.00  0.00    -0.348 N 
ATOM      8  H4  UNL     1     -37.915   2.236  44.651  1.00  0.00     0.163 HD
HETATM    9  C11 UNL     1     -38.694   0.732  43.243  1.00  0.00     0.237 C 
HETATM   10  N5  UNL     1     -38.395   1.491  42.073  1.00  0.00    -0.320 N 
ATOM     11  H5  UNL     1     -37.500   1.975  42.000  1.00  0.00     0.165 HD
HETATM   12  C12 UNL     1     -39.329   1.582  41.010  1.00  0.00     0.252 C 
HETATM   13  O5  UNL     1     -38.940   1.640  39.814  1.00  0.00    -0.271 OA
HETATM   14  C13 UNL     1     -40.786   1.610  41.271  1.00  0.00     0.296 C 
HETATM   15  C14 UNL     1     -41.166   0.611  42.351  1.00  0.00     0.201 C 
HETATM   16  C16 UNL     1     -40.161   0.583  43.437  1.00  0.00     0.200 C 
HETATM   17  O8  UNL     1     -40.562   0.426  44.578  1.00  0.00    -0.292 OA
HETATM   18  C17 UNL     1     -38.083  -0.641  43.199  1.00  0.00     0.221 C 
HETATM   19  O9  UNL     1     -37.972  -1.347  42.169  1.00  0.00    -0.287 OA
ENDROOT
BRANCH   1  20
HETATM   20  N3  UNL     1     -36.546  -1.140  48.605  1.00  0.00    -0.387 N 
ATOM     21  H3  UNL     1     -36.760  -0.303  49.149  1.00  0.00     0.159 HD
BRANCH  20  22
HETATM   22  C4  UNL     1     -35.927  -2.214  49.299  1.00  0.00     0.130 C 
BRANCH  22  23
HETATM   23  C3  UNL     1     -34.414  -2.143  49.286  1.00  0.00     0.131 C 
BRANCH  23  24
HETATM   24  C2  UNL     1     -33.922  -0.778  49.038  1.00  0.00     0.263 C 
HETATM   25  O2  UNL     1     -33.415  -0.455  47.908  1.00  0.00    -0.265 OA
BRANCH  24  26
HETATM   26  O1  UNL     1     -33.996   0.188  50.009  1.00  0.00    -0.265 OA
BRANCH  26  27
HETATM   27  C1  UNL     1     -32.898   0.967  50.396  1.00  0.00     0.526 C 
BRANCH  27  28
HETATM   28  N1  UNL     1     -31.665   0.192  50.285  1.00  0.00    -0.027 N 
ATOM     29  H13 UNL     1     -30.994   0.644  49.663  1.00  0.00     0.279 HD
ATOM     30  H12 UNL     1     -31.125   0.223  51.150  1.00  0.00     0.279 HD
ATOM     31  H11 UNL     1     -31.854  -0.768  49.997  1.00  0.00     0.279 HD
ENDBRANCH  27  28
BRANCH  27  32
HETATM   32  N2  UNL     1     -32.833   2.169  49.612  1.00  0.00    -0.027 N 
ATOM     33  H23 UNL     1     -32.262   2.040  48.777  1.00  0.00     0.279 HD
ATOM     34  H22 UNL     1     -33.726   2.370  49.162  1.00  0.00     0.279 HD
ATOM     35  H21 UNL     1     -32.509   2.958  50.170  1.00  0.00     0.279 HD
ENDBRANCH  27  32
ENDBRANCH  26  27
ENDBRANCH  24  26
ENDBRANCH  23  24
ENDBRANCH  22  23
ENDBRANCH  20  22
ENDBRANCH   1  20
BRANCH   6  36
HETATM   36  O4  UNL     1     -37.245   1.206  47.370  1.00  0.00    -0.356 OA
ATOM     37  H4  UNL     1     -37.394   2.031  46.922  1.00  0.00     0.218 HD
ENDBRANCH   6  36
BRANCH   3  38
HETATM   38  O3  UNL     1     -37.286  -3.383  44.416  1.00  0.00    -0.360 OA
ATOM     39  H3  UNL     1     -36.747  -4.093  44.747  1.00  0.00     0.217 HD
ENDBRANCH   3  38
BRANCH  15  40
HETATM   40  C15 UNL     1     -41.219  -0.752  41.779  1.00  0.00     0.187 C 
HETATM   41  O6  UNL     1     -40.657  -1.024  40.694  1.00  0.00    -0.647 OA
HETATM   42  O7  UNL     1     -41.898  -1.759  42.440  1.00  0.00    -0.647 OA
ENDBRANCH  15  40
BRANCH  14  43
HETATM   43  N6  UNL     1     -41.527   1.452  40.060  1.00  0.00    -0.065 N 
ATOM     44  H63 UNL     1     -41.720   2.351  39.618  1.00  0.00     0.275 HD
ATOM     45  H62 UNL     1     -40.959   1.035  39.323  1.00  0.00     0.275 HD
ATOM     46  H61 UNL     1     -42.383   0.921  40.221  1.00  0.00     0.275 HD
ENDBRANCH  14  43
TORSDOF 12
ENDMDL
