MODEL 1
REMARK VINA RESULT: -6.495991584      0.000      0.000
REMARK  13 active torsions:
REMARK  status: ('A' for Active; 'I' for Inactive)
REMARK    1  A    between atoms: C2_2  and  C3_3 
REMARK    2  A    between atoms: C2_2  and  C13_36 
REMARK    3  A    between atoms: C3_3  and  C4_5 
REMARK    4  A    between atoms: C4_5  and  C5_10 
REMARK    5  A    between atoms: N1_6  and  O2_8 
REMARK    6  A    between atoms: C9_16  and  N3_17 
REMARK    7  A    between atoms: C11_24  and  N5_25 
REMARK    8  A    between atoms: N5_25  and  N6_27 
REMARK    9  A    between atoms: C12_30  and  O4_31 
REMARK   10  A    between atoms: C13_36  and  O6_37 
REMARK   11  A    between atoms: C13_36  and  C14_39 
REMARK   12  A    between atoms: C14_39  and  C15_41 
REMARK   13  A    between atoms: C15_41  and  N8_42 
ROOT
HETATM    1  C15 UNL     1     -40.445  -2.369  42.730  1.00  0.00     0.360 C 
HETATM    2  C16 UNL     1     -39.029  -2.287  42.396  1.00  0.00     0.100 C 
HETATM    3  N9  UNL     1     -37.911  -2.210  42.149  1.00  0.00    -0.195 NA
ENDROOT
BRANCH   1   4
HETATM    4  C14 UNL     1     -40.877  -1.289  43.659  1.00  0.00     0.200 C 
HETATM    5  O7  UNL     1     -40.973  -1.617  44.853  1.00  0.00    -0.292 OA
BRANCH   4   6
HETATM    6  C13 UNL     1     -41.184   0.071  43.290  1.00  0.00     0.202 C 
BRANCH   6   7
HETATM    7  C2  UNL     1     -40.176   0.818  42.419  1.00  0.00     0.094 C 
HETATM    8  C1  UNL     1     -41.119   1.671  41.516  1.00  0.00     0.021 C 
BRANCH   7   9
HETATM    9  C3  UNL     1     -39.322   1.756  43.140  1.00  0.00     0.186 C 
HETATM   10  O1  UNL     1     -39.779   2.839  43.549  1.00  0.00    -0.290 OA
BRANCH   9  11
HETATM   11  C4  UNL     1     -37.900   1.432  43.404  1.00  0.00     0.129 C 
HETATM   12  N1  UNL     1     -37.021   2.036  42.726  1.00  0.00    -0.263 N 
ATOM     13  H1  UNL     1     -37.393   2.702  42.050  1.00  0.00     0.194 HD
BRANCH  12  14
HETATM   14  O2  UNL     1     -35.684   1.952  42.745  1.00  0.00    -0.289 OA
ATOM     15  H2  UNL     1     -35.066   1.684  42.075  1.00  0.00     0.244 HD
ENDBRANCH  12  14
BRANCH  11  16
HETATM   16  C5  UNL     1     -37.581   0.441  44.424  1.00  0.00     0.089 A 
HETATM   17  C6  UNL     1     -38.200   0.148  45.616  1.00  0.00     0.075 A 
HETATM   18  C7  UNL     1     -37.528  -0.869  46.232  1.00  0.00     0.131 A 
HETATM   19  C8  UNL     1     -37.801  -1.514  47.488  1.00  0.00     0.120 C 
HETATM   20  O5  UNL     1     -36.546  -1.176  45.445  1.00  0.00    -0.235 OA
HETATM   21  N2  UNL     1     -36.861  -2.405  47.948  1.00  0.00    -0.186 N 
HETATM   22  C12 UNL     1     -38.951  -1.243  48.174  1.00  0.00     0.130 C 
HETATM   23  C9  UNL     1     -36.600  -2.805  49.213  1.00  0.00     0.679 C 
ATOM     24  H2  UNL     1     -36.273  -2.827  47.230  1.00  0.00     0.184 HD
HETATM   25  N4  UNL     1     -37.116  -2.313  50.361  1.00  0.00    -0.154 N 
HETATM   26  C10 UNL     1     -38.221  -1.554  50.515  1.00  0.00     0.290 C 
ATOM     27  H4  UNL     1     -36.608  -2.543  51.215  1.00  0.00     0.187 HD
HETATM   28  O3  UNL     1     -38.468  -1.300  51.722  1.00  0.00    -0.265 OA
HETATM   29  C11 UNL     1     -39.066  -1.049  49.550  1.00  0.00     0.152 C 
HETATM   30  N7  UNL     1     -36.541  -0.433  44.377  1.00  0.00    -0.258 N 
ATOM     31  H7  UNL     1     -35.861  -0.497  43.619  1.00  0.00     0.195 HD
BRANCH  23  32
HETATM   32  N3  UNL     1     -35.765  -3.757  49.303  1.00  0.00    -0.234 N 
ATOM     33  H32 UNL     1     -35.293  -4.055  48.449  1.00  0.00     0.174 HD
ATOM     34  H31 UNL     1     -35.652  -4.134  50.245  1.00  0.00     0.174 HD
ENDBRANCH  23  32
BRANCH  29  35
HETATM   35  N5  UNL     1     -40.034  -0.354  49.971  1.00  0.00    -0.300 N 
ATOM     36  H5  UNL     1     -40.959  -0.783  49.955  1.00  0.00     0.186 HD
BRANCH  35  37
HETATM   37  N6  UNL     1     -39.945   0.941  50.451  1.00  0.00    -0.344 N 
ATOM     38  H62 UNL     1     -40.819   1.463  50.500  1.00  0.00     0.176 HD
ATOM     39  H61 UNL     1     -39.087   1.403  50.754  1.00  0.00     0.176 HD
ENDBRANCH  35  37
ENDBRANCH  29  35
BRANCH  22  40
HETATM   40  O4  UNL     1     -40.103  -1.157  47.443  1.00  0.00    -0.356 OA
ATOM     41  H4  UNL     1     -40.880  -0.855  47.898  1.00  0.00     0.218 HD
ENDBRANCH  22  40
ENDBRANCH  11  16
ENDBRANCH   9  11
ENDBRANCH   7   9
ENDBRANCH   6   7
BRANCH   6  42
HETATM   42  O6  UNL     1     -42.466   0.235  42.691  1.00  0.00    -0.387 OA
ATOM     43  H6  UNL     1     -42.962  -0.558  42.860  1.00  0.00     0.210 HD
ENDBRANCH   6  42
ENDBRANCH   4   6
ENDBRANCH   1   4
BRANCH   1  44
HETATM   44  N8  UNL     1     -41.182  -2.301  41.485  1.00  0.00    -0.056 N 
ATOM     45  H83 UNL     1     -40.887  -3.026  40.832  1.00  0.00     0.276 HD
ATOM     46  H82 UNL     1     -42.153  -2.589  41.605  1.00  0.00     0.276 HD
ATOM     47  H81 UNL     1     -41.112  -1.370  41.074  1.00  0.00     0.276 HD
ENDBRANCH   1  44
TORSDOF 13
ENDMDL
MODEL 2
REMARK VINA RESULT: -6.400509758      2.325      4.138
REMARK  13 active torsions:
REMARK  status: ('A' for Active; 'I' for Inactive)
REMARK    1  A    between atoms: C2_2  and  C3_3 
REMARK    2  A    between atoms: C2_2  and  C13_36 
REMARK    3  A    between atoms: C3_3  and  C4_5 
REMARK    4  A    between atoms: C4_5  and  C5_10 
REMARK    5  A    between atoms: N1_6  and  O2_8 
REMARK    6  A    between atoms: C9_16  and  N3_17 
REMARK    7  A    between atoms: C11_24  and  N5_25 
REMARK    8  A    between atoms: N5_25  and  N6_27 
REMARK    9  A    between atoms: C12_30  and  O4_31 
REMARK   10  A    between atoms: C13_36  and  O6_37 
REMARK   11  A    between atoms: C13_36  and  C14_39 
REMARK   12  A    between atoms: C14_39  and  C15_41 
REMARK   13  A    between atoms: C15_41  and  N8_42 
ROOT
HETATM    1  C15 UNL     1     -37.755   1.766  41.940  1.00  0.00     0.360 C 
HETATM    2  C16 UNL     1     -36.973   1.388  43.110  1.00  0.00     0.100 C 
HETATM    3  N9  UNL     1     -36.375   1.087  44.042  1.00  0.00    -0.195 NA
ENDROOT
BRANCH   1   4
HETATM    4  C14 UNL     1     -39.156   2.135  42.283  1.00  0.00     0.200 C 
HETATM    5  O7  UNL     1     -39.287   2.871  43.275  1.00  0.00    -0.292 OA
BRANCH   4   6
HETATM    6  C13 UNL     1     -40.340   1.717  41.573  1.00  0.00     0.202 C 
BRANCH   6   7
HETATM    7  C2  UNL     1     -40.787   0.265  41.728  1.00  0.00     0.094 C 
HETATM    8  C1  UNL     1     -42.318   0.381  41.450  1.00  0.00     0.021 C 
BRANCH   7   9
HETATM    9  C3  UNL     1     -40.247  -0.652  40.729  1.00  0.00     0.186 C 
HETATM   10  O1  UNL     1     -40.012  -0.257  39.572  1.00  0.00    -0.290 OA
BRANCH   9  11
HETATM   11  C4  UNL     1     -39.960  -2.063  41.077  1.00  0.00     0.129 C 
HETATM   12  N1  UNL     1     -40.695  -2.958  40.570  1.00  0.00    -0.263 N 
ATOM     13  H1  UNL     1     -41.429  -2.603  39.957  1.00  0.00     0.194 HD
BRANCH  12  14
HETATM   14  O2  UNL     1     -40.675  -4.291  40.699  1.00  0.00    -0.289 OA
ATOM     15  H2  UNL     1     -41.355  -4.904  40.954  1.00  0.00     0.244 HD
ENDBRANCH  12  14
BRANCH  11  16
HETATM   16  C5  UNL     1     -38.853  -2.356  41.980  1.00  0.00     0.089 A 
HETATM   17  C6  UNL     1     -38.644  -1.996  43.289  1.00  0.00     0.075 A 
HETATM   18  C7  UNL     1     -37.451  -2.512  43.710  1.00  0.00     0.131 A 
HETATM   19  C8  UNL     1     -36.814  -2.405  44.995  1.00  0.00     0.120 C 
HETATM   20  O5  UNL     1     -36.963  -3.155  42.698  1.00  0.00    -0.235 OA
HETATM   21  N2  UNL     1     -35.531  -2.888  45.096  1.00  0.00    -0.186 N 
HETATM   22  C12 UNL     1     -37.474  -1.851  46.056  1.00  0.00     0.130 C 
HETATM   23  C9  UNL     1     -34.550  -2.551  45.964  1.00  0.00     0.679 C 
ATOM     24  H2  UNL     1     -35.281  -3.605  44.416  1.00  0.00     0.184 HD
HETATM   25  N4  UNL     1     -34.551  -1.544  46.866  1.00  0.00    -0.154 N 
HETATM   26  C10 UNL     1     -35.610  -0.855  47.339  1.00  0.00     0.290 C 
ATOM     27  H4  UNL     1     -33.639  -1.272  47.233  1.00  0.00     0.187 HD
HETATM   28  O3  UNL     1     -35.286  -0.011  48.213  1.00  0.00    -0.265 OA
HETATM   29  C11 UNL     1     -36.940  -0.965  46.989  1.00  0.00     0.152 C 
HETATM   30  N7  UNL     1     -37.752  -3.088  41.665  1.00  0.00    -0.258 N 
ATOM     31  H7  UNL     1     -37.572  -3.520  40.759  1.00  0.00     0.195 HD
BRANCH  23  32
HETATM   32  N3  UNL     1     -33.515  -3.284  45.900  1.00  0.00    -0.234 N 
ATOM     33  H32 UNL     1     -33.548  -4.097  45.284  1.00  0.00     0.174 HD
ATOM     34  H31 UNL     1     -32.740  -2.974  46.487  1.00  0.00     0.174 HD
ENDBRANCH  23  32
BRANCH  29  35
HETATM   35  N5  UNL     1     -37.734  -0.184  47.587  1.00  0.00    -0.300 N 
ATOM     36  H5  UNL     1     -37.856   0.749  47.193  1.00  0.00     0.186 HD
BRANCH  35  37
HETATM   37  N6  UNL     1     -38.453  -0.488  48.729  1.00  0.00    -0.344 N 
ATOM     38  H62 UNL     1     -38.394   0.188  49.490  1.00  0.00     0.176 HD
ATOM     39  H61 UNL     1     -39.027  -1.321  48.865  1.00  0.00     0.176 HD
ENDBRANCH  35  37
ENDBRANCH  29  35
BRANCH  22  40
HETATM   40  O4  UNL     1     -38.785  -2.203  46.222  1.00  0.00    -0.356 OA
ATOM     41  H4  UNL     1     -38.961  -2.963  46.763  1.00  0.00     0.218 HD
ENDBRANCH  22  40
ENDBRANCH  11  16
ENDBRANCH   9  11
ENDBRANCH   7   9
ENDBRANCH   6   7
BRANCH   6  42
HETATM   42  O6  UNL     1     -41.479   2.539  41.806  1.00  0.00    -0.387 OA
ATOM     43  H6  UNL     1     -41.175   3.328  42.239  1.00  0.00     0.210 HD
ENDBRANCH   6  42
ENDBRANCH   4   6
ENDBRANCH   1   4
BRANCH   1  44
HETATM   44  N8  UNL     1     -37.071   2.877  41.311  1.00  0.00    -0.056 N 
ATOM     45  H83 UNL     1     -37.023   3.688  41.927  1.00  0.00     0.276 HD
ATOM     46  H82 UNL     1     -36.072   2.698  41.214  1.00  0.00     0.276 HD
ATOM     47  H81 UNL     1     -37.503   3.107  40.416  1.00  0.00     0.276 HD
ENDBRANCH   1  44
TORSDOF 13
ENDMDL
MODEL 3
REMARK VINA RESULT: -6.368120126      2.397      3.847
REMARK  13 active torsions:
REMARK  status: ('A' for Active; 'I' for Inactive)
REMARK    1  A    between atoms: C2_2  and  C3_3 
REMARK    2  A    between atoms: C2_2  and  C13_36 
REMARK    3  A    between atoms: C3_3  and  C4_5 
REMARK    4  A    between atoms: C4_5  and  C5_10 
REMARK    5  A    between atoms: N1_6  and  O2_8 
REMARK    6  A    between atoms: C9_16  and  N3_17 
REMARK    7  A    between atoms: C11_24  and  N5_25 
REMARK    8  A    between atoms: N5_25  and  N6_27 
REMARK    9  A    between atoms: C12_30  and  O4_31 
REMARK   10  A    between atoms: C13_36  and  O6_37 
REMARK   11  A    between atoms: C13_36  and  C14_39 
REMARK   12  A    between atoms: C14_39  and  C15_41 
REMARK   13  A    between atoms: C15_41  and  N8_42 
ROOT
HETATM    1  C15 UNL     1     -38.111   1.809  41.557  1.00  0.00     0.360 C 
HETATM    2  C16 UNL     1     -37.047   1.708  42.548  1.00  0.00     0.100 C 
HETATM    3  N9  UNL     1     -36.223   1.624  43.341  1.00  0.00    -0.195 NA
ENDROOT
BRANCH   1   4
HETATM    4  C14 UNL     1     -39.443   2.059  42.173  1.00  0.00     0.200 C 
HETATM    5  O7  UNL     1     -39.434   2.752  43.204  1.00  0.00    -0.292 OA
BRANCH   4   6
HETATM    6  C13 UNL     1     -40.708   1.573  41.679  1.00  0.00     0.202 C 
BRANCH   6   7
HETATM    7  C2  UNL     1     -41.346   0.388  42.400  1.00  0.00     0.094 C 
HETATM    8  C1  UNL     1     -42.795   0.417  41.824  1.00  0.00     0.021 C 
BRANCH   7   9
HETATM    9  C3  UNL     1     -40.781  -0.913  42.055  1.00  0.00     0.186 C 
HETATM   10  O1  UNL     1     -41.344  -1.644  41.218  1.00  0.00    -0.290 OA
BRANCH   9  11
HETATM   11  C4  UNL     1     -39.527  -1.384  42.688  1.00  0.00     0.129 C 
HETATM   12  N1  UNL     1     -38.639  -1.883  41.941  1.00  0.00    -0.263 N 
ATOM     13  H1  UNL     1     -38.886  -1.910  40.952  1.00  0.00     0.194 HD
BRANCH  12  14
HETATM   14  O2  UNL     1     -37.429  -2.383  42.224  1.00  0.00    -0.289 OA
ATOM     15  H2  UNL     1     -36.579  -2.223  41.830  1.00  0.00     0.244 HD
ENDBRANCH  12  14
BRANCH  11  16
HETATM   16  C5  UNL     1     -39.374  -1.251  44.132  1.00  0.00     0.089 A 
HETATM   17  C6  UNL     1     -39.949  -1.953  45.164  1.00  0.00     0.075 A 
HETATM   18  C7  UNL     1     -39.492  -1.458  46.352  1.00  0.00     0.131 A 
HETATM   19  C8  UNL     1     -39.806  -1.871  47.693  1.00  0.00     0.120 C 
HETATM   20  O5  UNL     1     -38.677  -0.499  46.049  1.00  0.00    -0.235 OA
HETATM   21  N2  UNL     1     -39.326  -1.087  48.716  1.00  0.00    -0.186 N 
HETATM   22  C12 UNL     1     -40.546  -2.998  47.920  1.00  0.00     0.130 C 
HETATM   23  C9  UNL     1     -39.789  -0.937  49.976  1.00  0.00     0.679 C 
ATOM     24  H2  UNL     1     -38.498  -0.537  48.489  1.00  0.00     0.184 HD
HETATM   25  N4  UNL     1     -40.935  -1.424  50.502  1.00  0.00    -0.154 N 
HETATM   26  C10 UNL     1     -41.714  -2.415  50.019  1.00  0.00     0.290 C 
ATOM     27  H4  UNL     1     -41.249  -0.988  51.369  1.00  0.00     0.187 HD
HETATM   28  O3  UNL     1     -42.689  -2.671  50.771  1.00  0.00    -0.265 OA
HETATM   29  C11 UNL     1     -41.570  -3.140  48.855  1.00  0.00     0.152 C 
HETATM   30  N7  UNL     1     -38.579  -0.345  44.761  1.00  0.00    -0.258 N 
ATOM     31  H7  UNL     1     -37.995   0.349  44.294  1.00  0.00     0.195 HD
BRANCH  23  32
HETATM   32  N3  UNL     1     -39.037  -0.250  50.736  1.00  0.00    -0.234 N 
ATOM     33  H32 UNL     1     -38.532   0.532  50.319  1.00  0.00     0.174 HD
ATOM     34  H31 UNL     1     -39.017  -0.562  51.707  1.00  0.00     0.174 HD
ENDBRANCH  23  32
BRANCH  29  35
HETATM   35  N5  UNL     1     -42.455  -4.014  48.636  1.00  0.00    -0.300 N 
ATOM     36  H5  UNL     1     -43.264  -3.731  48.082  1.00  0.00     0.186 HD
BRANCH  35  37
HETATM   37  N6  UNL     1     -42.420  -5.323  49.082  1.00  0.00    -0.344 N 
ATOM     38  H62 UNL     1     -43.174  -5.605  49.708  1.00  0.00     0.176 HD
ATOM     39  H61 UNL     1     -41.711  -6.015  48.837  1.00  0.00     0.176 HD
ENDBRANCH  35  37
ENDBRANCH  29  35
BRANCH  22  40
HETATM   40  O4  UNL     1     -40.251  -4.095  47.160  1.00  0.00    -0.356 OA
ATOM     41  H4  UNL     1     -39.681  -4.748  47.549  1.00  0.00     0.218 HD
ENDBRANCH  22  40
ENDBRANCH  11  16
ENDBRANCH   9  11
ENDBRANCH   7   9
ENDBRANCH   6   7
BRANCH   6  42
HETATM   42  O6  UNL     1     -41.708   2.580  41.551  1.00  0.00    -0.387 OA
ATOM     43  H6  UNL     1     -41.289   3.417  41.713  1.00  0.00     0.210 HD
ENDBRANCH   6  42
ENDBRANCH   4   6
ENDBRANCH   1   4
BRANCH   1  44
HETATM   44  N8  UNL     1     -37.753   2.884  40.655  1.00  0.00    -0.056 N 
ATOM     45  H83 UNL     1     -37.640   2.552  39.697  1.00  0.00     0.276 HD
ATOM     46  H82 UNL     1     -38.532   3.525  40.503  1.00  0.00     0.276 HD
ATOM     47  H81 UNL     1     -36.921   3.372  40.986  1.00  0.00     0.276 HD
ENDBRANCH   1  44
TORSDOF 13
ENDMDL
MODEL 4
REMARK VINA RESULT: -6.360673685      2.360      4.787
REMARK  13 active torsions:
REMARK  status: ('A' for Active; 'I' for Inactive)
REMARK    1  A    between atoms: C2_2  and  C3_3 
REMARK    2  A    between atoms: C2_2  and  C13_36 
REMARK    3  A    between atoms: C3_3  and  C4_5 
REMARK    4  A    between atoms: C4_5  and  C5_10 
REMARK    5  A    between atoms: N1_6  and  O2_8 
REMARK    6  A    between atoms: C9_16  and  N3_17 
REMARK    7  A    between atoms: C11_24  and  N5_25 
REMARK    8  A    between atoms: N5_25  and  N6_27 
REMARK    9  A    between atoms: C12_30  and  O4_31 
REMARK   10  A    between atoms: C13_36  and  O6_37 
REMARK   11  A    between atoms: C13_36  and  C14_39 
REMARK   12  A    between atoms: C14_39  and  C15_41 
REMARK   13  A    between atoms: C15_41  and  N8_42 
ROOT
HETATM    1  C15 UNL     1     -38.480   1.916  43.243  1.00  0.00     0.360 C 
HETATM    2  C16 UNL     1     -39.738   1.211  43.456  1.00  0.00     0.100 C 
HETATM    3  N9  UNL     1     -40.721   0.649  43.641  1.00  0.00    -0.195 NA
ENDROOT
BRANCH   1   4
HETATM    4  C14 UNL     1     -37.343   1.285  43.966  1.00  0.00     0.200 C 
HETATM    5  O7  UNL     1     -36.226   1.435  43.442  1.00  0.00    -0.292 OA
BRANCH   4   6
HETATM    6  C13 UNL     1     -37.433   0.535  45.195  1.00  0.00     0.202 C 
BRANCH   6   7
HETATM    7  C2  UNL     1     -36.463  -0.628  45.392  1.00  0.00     0.094 C 
HETATM    8  C1  UNL     1     -35.971  -0.377  46.851  1.00  0.00     0.021 C 
BRANCH   7   9
HETATM    9  C3  UNL     1     -37.081  -1.949  45.378  1.00  0.00     0.186 C 
HETATM   10  O1  UNL     1     -36.384  -2.974  45.498  1.00  0.00    -0.290 OA
BRANCH   9  11
HETATM   11  C4  UNL     1     -38.548  -2.095  45.228  1.00  0.00     0.129 C 
HETATM   12  N1  UNL     1     -39.016  -2.197  44.059  1.00  0.00    -0.263 N 
ATOM     13  H1  UNL     1     -38.314  -2.168  43.320  1.00  0.00     0.194 HD
BRANCH  12  14
HETATM   14  O2  UNL     1     -40.275  -2.338  43.624  1.00  0.00    -0.289 OA
ATOM     15  H2  UNL     1     -40.892  -1.702  43.280  1.00  0.00     0.244 HD
ENDBRANCH  12  14
BRANCH  11  16
HETATM   16  C5  UNL     1     -39.379  -2.114  46.426  1.00  0.00     0.089 A 
HETATM   17  C6  UNL     1     -39.161  -1.593  47.679  1.00  0.00     0.075 A 
HETATM   18  C7  UNL     1     -40.239  -1.868  48.472  1.00  0.00     0.131 A 
HETATM   19  C8  UNL     1     -40.468  -1.524  49.850  1.00  0.00     0.120 C 
HETATM   20  O5  UNL     1     -41.070  -2.526  47.729  1.00  0.00    -0.235 OA
HETATM   21  N2  UNL     1     -41.576  -2.071  50.453  1.00  0.00    -0.186 N 
HETATM   22  C12 UNL     1     -39.614  -0.686  50.510  1.00  0.00     0.130 C 
HETATM   23  C9  UNL     1     -41.814  -2.311  51.761  1.00  0.00     0.679 C 
ATOM     24  H2  UNL     1     -42.330  -2.336  49.818  1.00  0.00     0.184 HD
HETATM   25  N4  UNL     1     -40.951  -2.197  52.795  1.00  0.00    -0.154 N 
HETATM   26  C10 UNL     1     -39.780  -1.528  52.828  1.00  0.00     0.290 C 
ATOM     27  H4  UNL     1     -41.219  -2.676  53.656  1.00  0.00     0.187 HD
HETATM   28  O3  UNL     1     -39.232  -1.568  53.960  1.00  0.00    -0.265 OA
HETATM   29  C11 UNL     1     -39.146  -0.842  51.814  1.00  0.00     0.152 C 
HETATM   30  N7  UNL     1     -40.606  -2.692  46.525  1.00  0.00    -0.258 N 
ATOM     31  H7  UNL     1     -41.089  -3.180  45.771  1.00  0.00     0.195 HD
BRANCH  23  32
HETATM   32  N3  UNL     1     -42.998  -2.690  52.021  1.00  0.00    -0.234 N 
ATOM     33  H32 UNL     1     -43.648  -2.780  51.240  1.00  0.00     0.174 HD
ATOM     34  H31 UNL     1     -43.179  -2.868  53.009  1.00  0.00     0.174 HD
ENDBRANCH  23  32
BRANCH  29  35
HETATM   35  N5  UNL     1     -38.041  -0.307  52.114  1.00  0.00    -0.300 N 
ATOM     36  H5  UNL     1     -38.074   0.603  52.574  1.00  0.00     0.186 HD
BRANCH  35  37
HETATM   37  N6  UNL     1     -36.792  -0.851  51.873  1.00  0.00    -0.344 N 
ATOM     38  H62 UNL     1     -36.550  -1.679  52.416  1.00  0.00     0.176 HD
ATOM     39  H61 UNL     1     -36.108  -0.493  51.205  1.00  0.00     0.176 HD
ENDBRANCH  35  37
ENDBRANCH  29  35
BRANCH  22  40
HETATM   40  O4  UNL     1     -39.179   0.417  49.829  1.00  0.00    -0.356 OA
ATOM     41  H4  UNL     1     -38.311   0.372  49.447  1.00  0.00     0.218 HD
ENDBRANCH  22  40
ENDBRANCH  11  16
ENDBRANCH   9  11
ENDBRANCH   7   9
ENDBRANCH   6   7
BRANCH   6  42
HETATM   42  O6  UNL     1     -37.379   1.337  46.371  1.00  0.00    -0.387 OA
ATOM     43  H6  UNL     1     -36.481   1.328  46.679  1.00  0.00     0.210 HD
ENDBRANCH   6  42
ENDBRANCH   4   6
ENDBRANCH   1   4
BRANCH   1  44
HETATM   44  N8  UNL     1     -38.237   1.930  41.815  1.00  0.00    -0.056 N 
ATOM     45  H83 UNL     1     -37.770   2.787  41.520  1.00  0.00     0.276 HD
ATOM     46  H82 UNL     1     -37.513   1.262  41.550  1.00  0.00     0.276 HD
ATOM     47  H81 UNL     1     -39.102   1.774  41.299  1.00  0.00     0.276 HD
ENDBRANCH   1  44
TORSDOF 13
ENDMDL
MODEL 5
REMARK VINA RESULT: -6.303806484      2.575      4.140
REMARK  13 active torsions:
REMARK  status: ('A' for Active; 'I' for Inactive)
REMARK    1  A    between atoms: C2_2  and  C3_3 
REMARK    2  A    between atoms: C2_2  and  C13_36 
REMARK    3  A    between atoms: C3_3  and  C4_5 
REMARK    4  A    between atoms: C4_5  and  C5_10 
REMARK    5  A    between atoms: N1_6  and  O2_8 
REMARK    6  A    between atoms: C9_16  and  N3_17 
REMARK    7  A    between atoms: C11_24  and  N5_25 
REMARK    8  A    between atoms: N5_25  and  N6_27 
REMARK    9  A    between atoms: C12_30  and  O4_31 
REMARK   10  A    between atoms: C13_36  and  O6_37 
REMARK   11  A    between atoms: C13_36  and  C14_39 
REMARK   12  A    between atoms: C14_39  and  C15_41 
REMARK   13  A    between atoms: C15_41  and  N8_42 
ROOT
HETATM    1  C15 UNL     1     -40.412   1.414  40.040  1.00  0.00     0.360 C 
HETATM    2  C16 UNL     1     -40.389   0.037  39.561  1.00  0.00     0.100 C 
HETATM    3  N9  UNL     1     -40.386  -1.051  39.197  1.00  0.00    -0.195 NA
ENDROOT
BRANCH   1   4
HETATM    4  C14 UNL     1     -41.048   1.543  41.379  1.00  0.00     0.200 C 
HETATM    5  O7  UNL     1     -41.523   2.660  41.641  1.00  0.00    -0.292 OA
BRANCH   4   6
HETATM    6  C13 UNL     1     -41.153   0.499  42.370  1.00  0.00     0.202 C 
BRANCH   6   7
HETATM    7  C2  UNL     1     -40.151   0.507  43.522  1.00  0.00     0.094 C 
HETATM    8  C1  UNL     1     -40.840  -0.454  44.539  1.00  0.00     0.021 C 
BRANCH   7   9
HETATM    9  C3  UNL     1     -38.851  -0.076  43.205  1.00  0.00     0.186 C 
HETATM   10  O1  UNL     1     -38.775  -1.116  42.524  1.00  0.00    -0.290 OA
BRANCH   9  11
HETATM   11  C4  UNL     1     -37.601   0.562  43.680  1.00  0.00     0.129 C 
HETATM   12  N1  UNL     1     -36.977   1.311  42.877  1.00  0.00    -0.263 N 
ATOM     13  H1  UNL     1     -37.413   1.401  41.959  1.00  0.00     0.194 HD
BRANCH  12  14
HETATM   14  O2  UNL     1     -35.843   2.008  43.024  1.00  0.00    -0.289 OA
ATOM     15  H2  UNL     1     -35.136   2.188  42.415  1.00  0.00     0.244 HD
ENDBRANCH  12  14
BRANCH  11  16
HETATM   16  C5  UNL     1     -37.151   0.299  45.042  1.00  0.00     0.089 A 
HETATM   17  C6  UNL     1     -36.167  -0.535  45.517  1.00  0.00     0.075 A 
HETATM   18  C7  UNL     1     -36.117  -0.438  46.879  1.00  0.00     0.131 A 
HETATM   19  C8  UNL     1     -35.253  -1.113  47.809  1.00  0.00     0.120 C 
HETATM   20  O5  UNL     1     -37.030   0.417  47.209  1.00  0.00    -0.235 OA
HETATM   21  N2  UNL     1     -35.529  -0.951  49.146  1.00  0.00    -0.186 N 
HETATM   22  C12 UNL     1     -34.207  -1.872  47.365  1.00  0.00     0.130 C 
HETATM   23  C9  UNL     1     -35.227  -1.752  50.191  1.00  0.00     0.679 C 
ATOM     24  H2  UNL     1     -36.037  -0.099  49.385  1.00  0.00     0.184 HD
HETATM   25  N4  UNL     1     -34.694  -2.994  50.157  1.00  0.00    -0.154 N 
HETATM   26  C10 UNL     1     -34.050  -3.592  49.133  1.00  0.00     0.290 C 
ATOM     27  H4  UNL     1     -34.791  -3.547  51.010  1.00  0.00     0.187 HD
HETATM   28  O3  UNL     1     -33.624  -4.737  49.433  1.00  0.00    -0.265 OA
HETATM   29  C11 UNL     1     -33.820  -3.116  47.859  1.00  0.00     0.152 C 
HETATM   30  N7  UNL     1     -37.659   0.873  46.165  1.00  0.00    -0.258 N 
ATOM     31  H7  UNL     1     -38.416   1.555  46.185  1.00  0.00     0.195 HD
BRANCH  23  32
HETATM   32  N3  UNL     1     -35.488  -1.255  51.331  1.00  0.00    -0.234 N 
ATOM     33  H32 UNL     1     -35.044  -0.368  51.573  1.00  0.00     0.174 HD
ATOM     34  H31 UNL     1     -36.128  -1.810  51.899  1.00  0.00     0.174 HD
ENDBRANCH  23  32
BRANCH  29  35
HETATM   35  N5  UNL     1     -33.192  -3.892  47.084  1.00  0.00    -0.300 N 
ATOM     36  H5  UNL     1     -33.748  -4.511  46.493  1.00  0.00     0.186 HD
BRANCH  35  37
HETATM   37  N6  UNL     1     -31.816  -3.974  46.970  1.00  0.00    -0.344 N 
ATOM     38  H62 UNL     1     -31.313  -3.088  46.953  1.00  0.00     0.176 HD
ATOM     39  H61 UNL     1     -31.277  -4.838  46.902  1.00  0.00     0.176 HD
ENDBRANCH  35  37
ENDBRANCH  29  35
BRANCH  22  40
HETATM   40  O4  UNL     1     -33.464  -1.361  46.337  1.00  0.00    -0.356 OA
ATOM     41  H4  UNL     1     -33.520  -1.808  45.501  1.00  0.00     0.218 HD
ENDBRANCH  22  40
ENDBRANCH  11  16
ENDBRANCH   9  11
ENDBRANCH   7   9
ENDBRANCH   6   7
BRANCH   6  42
HETATM   42  O6  UNL     1     -42.453   0.367  42.939  1.00  0.00    -0.387 OA
ATOM     43  H6  UNL     1     -42.379  -0.225  43.678  1.00  0.00     0.210 HD
ENDBRANCH   6  42
ENDBRANCH   4   6
ENDBRANCH   1   4
BRANCH   1  44
HETATM   44  N8  UNL     1     -39.039   1.875  40.077  1.00  0.00    -0.056 N 
ATOM     45  H83 UNL     1     -38.435   1.223  40.576  1.00  0.00     0.276 HD
ATOM     46  H82 UNL     1     -38.598   1.821  39.159  1.00  0.00     0.276 HD
ATOM     47  H81 UNL     1     -38.985   2.816  40.469  1.00  0.00     0.276 HD
ENDBRANCH   1  44
TORSDOF 13
ENDMDL
