MODEL 1
REMARK VINA RESULT: -6.997445539      0.000      0.000
REMARK  14 active torsions:
REMARK  status: ('A' for Active; 'I' for Inactive)
REMARK    1  A    between atoms: C2_5  and  C3_6 
REMARK    2  A    between atoms: C9_21  and  N8_22 
REMARK    3  A    between atoms: N9_25  and  N10_26 
REMARK    4  A    between atoms: C11_30  and  N11_31 
REMARK    5  A    between atoms: N11_31  and  C12_33 
REMARK    6  A    between atoms: C12_33  and  O1_34 
REMARK    7  A    between atoms: C12_33  and  C13_36 
REMARK    8  A    between atoms: C13_36  and  O2_37 
REMARK    9  A    between atoms: C13_36  and  C14_39 
REMARK   10  A    between atoms: C14_39  and  O3_40 
REMARK   11  A    between atoms: C14_39  and  C15_42 
REMARK   12  A    between atoms: C15_42  and  O4_43 
REMARK   13  A    between atoms: C15_42  and  C16_45 
REMARK   14  A    between atoms: C16_45  and  O5_46 
ROOT
HETATM    1  C3  UNL     1     -32.392  -1.597  48.843  1.00  0.00     0.157 A 
HETATM    2  N3  UNL     1     -31.832  -0.464  49.369  1.00  0.00    -0.334 N 
ATOM      3  H3  UNL     1     -32.363   0.407  49.369  1.00  0.00     0.168 HD
HETATM    4  C4  UNL     1     -30.613  -0.485  49.878  1.00  0.00     0.110 A 
HETATM    5  C5  UNL     1     -30.096   0.674  50.393  1.00  0.00     0.144 A 
HETATM    6  N4  UNL     1     -30.598   1.811  50.472  1.00  0.00    -0.277 N 
ATOM      7  H4  UNL     1     -29.963   2.478  50.910  1.00  0.00     0.179 HD
HETATM    8  C6  UNL     1     -31.764   2.380  50.126  1.00  0.00     0.183 C 
HETATM    9  N5  UNL     1     -32.751   2.896  49.843  1.00  0.00    -0.172 NA
HETATM   10  N6  UNL     1     -28.816   0.582  50.908  1.00  0.00    -0.336 N 
ATOM     11  H6  UNL     1     -28.376   1.412  51.307  1.00  0.00     0.168 HD
HETATM   12  C7  UNL     1     -28.145  -0.575  50.894  1.00  0.00     0.182 A 
HETATM   13  N7  UNL     1     -28.669  -1.697  50.386  1.00  0.00    -0.347 N 
ATOM     14  H7  UNL     1     -28.127  -2.562  50.392  1.00  0.00     0.167 HD
HETATM   15  C8  UNL     1     -29.924  -1.684  49.861  1.00  0.00     0.110 A 
HETATM   16  C9  UNL     1     -30.479  -2.823  49.335  1.00  0.00     0.151 A 
HETATM   17  N9  UNL     1     -31.745  -2.757  48.819  1.00  0.00    -0.226 N 
ENDROOT
BRANCH   1  18
HETATM   18  C2  UNL     1     -33.763  -1.459  48.301  1.00  0.00     0.098 A 
HETATM   19  N2  UNL     1     -34.894  -1.759  48.985  1.00  0.00    -0.294 N 
HETATM   20  N1  UNL     1     -35.975  -1.530  48.228  1.00  0.00    -0.281 N 
ATOM     21  H2  UNL     1     -34.918  -2.111  49.943  1.00  0.00     0.187 HD
HETATM   22  C1  UNL     1     -37.321  -1.768  48.715  1.00  0.00     0.179 C 
HETATM   23  C11 UNL     1     -35.613  -1.076  47.032  1.00  0.00     0.121 A 
HETATM   24  C10 UNL     1     -34.183  -1.032  47.084  1.00  0.00     0.084 A 
BRANCH  23  25
HETATM   25  N11 UNL     1     -36.243  -0.723  45.993  1.00  0.00    -0.347 N 
ATOM     26  H11 UNL     1     -36.098  -1.336  45.190  1.00  0.00     0.163 HD
BRANCH  25  27
HETATM   27  C12 UNL     1     -37.090   0.340  45.743  1.00  0.00     0.250 C 
BRANCH  27  28
HETATM   28  O1  UNL     1     -37.407   1.094  46.880  1.00  0.00    -0.374 OA
ATOM     29  H1  UNL     1     -38.311   1.384  46.912  1.00  0.00     0.212 HD
ENDBRANCH  27  28
BRANCH  27  30
HETATM   30  C13 UNL     1     -38.399  -0.100  45.057  1.00  0.00     0.198 C 
BRANCH  30  31
HETATM   31  O2  UNL     1     -39.336  -0.439  46.001  1.00  0.00    -0.389 OA
ATOM     32  H2  UNL     1     -40.192  -0.120  45.741  1.00  0.00     0.210 HD
ENDBRANCH  30  31
BRANCH  30  33
HETATM   33  C14 UNL     1     -38.921   0.975  44.160  1.00  0.00     0.181 C 
BRANCH  33  34
HETATM   34  O3  UNL     1     -38.159   2.115  44.141  1.00  0.00    -0.390 OA
ATOM     35  H3  UNL     1     -38.551   2.856  44.589  1.00  0.00     0.210 HD
ENDBRANCH  33  34
BRANCH  33  36
HETATM   36  C15 UNL     1     -39.167   0.402  42.788  1.00  0.00     0.173 C 
BRANCH  36  37
HETATM   37  O4  UNL     1     -38.043  -0.222  42.263  1.00  0.00    -0.391 OA
ATOM     38  H4  UNL     1     -38.088  -0.317  41.320  1.00  0.00     0.210 HD
ENDBRANCH  36  37
BRANCH  36  39
HETATM   39  C16 UNL     1     -39.552   1.504  41.795  1.00  0.00     0.198 C 
BRANCH  39  40
HETATM   40  O5  UNL     1     -40.473   2.367  42.386  1.00  0.00    -0.398 OA
ATOM     41  H5  UNL     1     -40.297   3.259  42.111  1.00  0.00     0.209 HD
ENDBRANCH  39  40
ENDBRANCH  36  39
ENDBRANCH  33  36
ENDBRANCH  30  33
ENDBRANCH  27  30
ENDBRANCH  25  27
ENDBRANCH  23  25
ENDBRANCH   1  18
BRANCH  16  42
HETATM   42  N8  UNL     1     -29.849  -3.933  49.317  1.00  0.00    -0.382 N 
ATOM     43  H82 UNL     1     -29.340  -4.208  48.477  1.00  0.00     0.157 HD
ATOM     44  H81 UNL     1     -29.837  -4.558  50.123  1.00  0.00     0.157 HD
ENDBRANCH  16  42
BRANCH  17  45
HETATM   45  N10 UNL     1     -32.295  -3.943  48.283  1.00  0.00    -0.335 N 
ATOM     46 2H10 UNL     1     -32.560  -3.937  47.298  1.00  0.00     0.177 HD
ATOM     47 1H10 UNL     1     -32.436  -4.793  48.829  1.00  0.00     0.177 HD
ENDBRANCH  17  45
TORSDOF 14
ENDMDL
MODEL 2
REMARK VINA RESULT: -6.941756999      0.995      1.539
REMARK  14 active torsions:
REMARK  status: ('A' for Active; 'I' for Inactive)
REMARK    1  A    between atoms: C2_5  and  C3_6 
REMARK    2  A    between atoms: C9_21  and  N8_22 
REMARK    3  A    between atoms: N9_25  and  N10_26 
REMARK    4  A    between atoms: C11_30  and  N11_31 
REMARK    5  A    between atoms: N11_31  and  C12_33 
REMARK    6  A    between atoms: C12_33  and  O1_34 
REMARK    7  A    between atoms: C12_33  and  C13_36 
REMARK    8  A    between atoms: C13_36  and  O2_37 
REMARK    9  A    between atoms: C13_36  and  C14_39 
REMARK   10  A    between atoms: C14_39  and  O3_40 
REMARK   11  A    between atoms: C14_39  and  C15_42 
REMARK   12  A    between atoms: C15_42  and  O4_43 
REMARK   13  A    between atoms: C15_42  and  C16_45 
REMARK   14  A    between atoms: C16_45  and  O5_46 
ROOT
HETATM    1  C3  UNL     1     -32.437  -1.526  48.667  1.00  0.00     0.157 A 
HETATM    2  N3  UNL     1     -31.881  -0.423  49.257  1.00  0.00    -0.334 N 
ATOM      3  H3  UNL     1     -32.392   0.460  49.256  1.00  0.00     0.168 HD
HETATM    4  C4  UNL     1     -30.691  -0.487  49.826  1.00  0.00     0.110 A 
HETATM    5  C5  UNL     1     -30.177   0.643  50.403  1.00  0.00     0.144 A 
HETATM    6  N4  UNL     1     -30.658   1.789  50.492  1.00  0.00    -0.277 N 
ATOM      7  H4  UNL     1     -30.033   2.428  50.983  1.00  0.00     0.179 HD
HETATM    8  C6  UNL     1     -31.791   2.395  50.104  1.00  0.00     0.183 C 
HETATM    9  N5  UNL     1     -32.750   2.942  49.787  1.00  0.00    -0.172 NA
HETATM   10  N6  UNL     1     -28.927   0.507  50.981  1.00  0.00    -0.336 N 
ATOM     11  H6  UNL     1     -28.491   1.314  51.428  1.00  0.00     0.168 HD
HETATM   12  C7  UNL     1     -28.282  -0.664  50.966  1.00  0.00     0.182 A 
HETATM   13  N7  UNL     1     -28.803  -1.759  50.396  1.00  0.00    -0.347 N 
ATOM     14  H7  UNL     1     -28.281  -2.635  50.404  1.00  0.00     0.167 HD
HETATM   15  C8  UNL     1     -30.028  -1.701  49.808  1.00  0.00     0.110 A 
HETATM   16  C9  UNL     1     -30.580  -2.811  49.219  1.00  0.00     0.151 A 
HETATM   17  N9  UNL     1     -31.814  -2.700  48.640  1.00  0.00    -0.226 N 
ENDROOT
BRANCH   1  18
HETATM   18  C2  UNL     1     -33.774  -1.340  48.060  1.00  0.00     0.098 A 
HETATM   19  N2  UNL     1     -34.947  -1.561  48.701  1.00  0.00    -0.294 N 
HETATM   20  N1  UNL     1     -35.982  -1.306  47.889  1.00  0.00    -0.281 N 
ATOM     21  H2  UNL     1     -35.031  -1.879  49.667  1.00  0.00     0.187 HD
HETATM   22  C1  UNL     1     -37.358  -1.462  48.322  1.00  0.00     0.179 C 
HETATM   23  C11 UNL     1     -35.546  -0.911  46.697  1.00  0.00     0.121 A 
HETATM   24  C10 UNL     1     -34.119  -0.935  46.812  1.00  0.00     0.084 A 
BRANCH  23  25
HETATM   25  N11 UNL     1     -36.111  -0.564  45.619  1.00  0.00    -0.347 N 
ATOM     26  H11 UNL     1     -35.575   0.103  45.064  1.00  0.00     0.163 HD
BRANCH  25  27
HETATM   27  C12 UNL     1     -37.321  -0.921  45.055  1.00  0.00     0.250 C 
BRANCH  27  28
HETATM   28  O1  UNL     1     -37.202  -1.598  43.834  1.00  0.00    -0.374 OA
ATOM     29  H1  UNL     1     -37.889  -2.235  43.678  1.00  0.00     0.212 HD
ENDBRANCH  27  28
BRANCH  27  30
HETATM   30  C13 UNL     1     -38.261   0.287  44.865  1.00  0.00     0.198 C 
BRANCH  30  31
HETATM   31  O2  UNL     1     -37.712   1.407  45.439  1.00  0.00    -0.389 OA
ATOM     32  H2  UNL     1     -37.765   1.347  46.386  1.00  0.00     0.210 HD
ENDBRANCH  30  31
BRANCH  30  33
HETATM   33  C14 UNL     1     -38.542   0.523  43.416  1.00  0.00     0.181 C 
BRANCH  33  34
HETATM   34  O3  UNL     1     -39.755   0.045  42.990  1.00  0.00    -0.390 OA
ATOM     35  H3  UNL     1     -39.715  -0.471  42.194  1.00  0.00     0.210 HD
ENDBRANCH  33  34
BRANCH  33  36
HETATM   36  C15 UNL     1     -38.334   1.982  43.101  1.00  0.00     0.173 C 
BRANCH  36  37
HETATM   37  O4  UNL     1     -39.433   2.552  42.471  1.00  0.00    -0.391 OA
ATOM     38  H4  UNL     1     -39.806   1.984  41.808  1.00  0.00     0.210 HD
ENDBRANCH  36  37
BRANCH  36  39
HETATM   39  C16 UNL     1     -37.147   2.174  42.151  1.00  0.00     0.198 C 
BRANCH  39  40
HETATM   40  O5  UNL     1     -35.963   1.843  42.809  1.00  0.00    -0.398 OA
ATOM     41  H5  UNL     1     -35.571   1.082  42.398  1.00  0.00     0.209 HD
ENDBRANCH  39  40
ENDBRANCH  36  39
ENDBRANCH  33  36
ENDBRANCH  30  33
ENDBRANCH  27  30
ENDBRANCH  25  27
ENDBRANCH  23  25
ENDBRANCH   1  18
BRANCH  16  42
HETATM   42  N8  UNL     1     -29.973  -3.933  49.198  1.00  0.00    -0.382 N 
ATOM     43  H82 UNL     1     -28.990  -3.978  49.464  1.00  0.00     0.157 HD
ATOM     44  H81 UNL     1     -30.446  -4.794  48.924  1.00  0.00     0.157 HD
ENDBRANCH  16  42
BRANCH  17  45
HETATM   45  N10 UNL     1     -32.361  -3.856  48.040  1.00  0.00    -0.335 N 
ATOM     46 2H10 UNL     1     -33.189  -3.738  47.456  1.00  0.00     0.177 HD
ATOM     47 1H10 UNL     1     -31.970  -4.790  48.163  1.00  0.00     0.177 HD
ENDBRANCH  17  45
TORSDOF 14
ENDMDL
MODEL 3
REMARK VINA RESULT: -6.841937040      4.267      9.583
REMARK  14 active torsions:
REMARK  status: ('A' for Active; 'I' for Inactive)
REMARK    1  A    between atoms: C2_5  and  C3_6 
REMARK    2  A    between atoms: C9_21  and  N8_22 
REMARK    3  A    between atoms: N9_25  and  N10_26 
REMARK    4  A    between atoms: C11_30  and  N11_31 
REMARK    5  A    between atoms: N11_31  and  C12_33 
REMARK    6  A    between atoms: C12_33  and  O1_34 
REMARK    7  A    between atoms: C12_33  and  C13_36 
REMARK    8  A    between atoms: C13_36  and  O2_37 
REMARK    9  A    between atoms: C13_36  and  C14_39 
REMARK   10  A    between atoms: C14_39  and  O3_40 
REMARK   11  A    between atoms: C14_39  and  C15_42 
REMARK   12  A    between atoms: C15_42  and  O4_43 
REMARK   13  A    between atoms: C15_42  and  C16_45 
REMARK   14  A    between atoms: C16_45  and  O5_46 
ROOT
HETATM    1  C3  UNL     1     -38.917  -1.024  45.217  1.00  0.00     0.157 A 
HETATM    2  N3  UNL     1     -38.728  -0.109  44.216  1.00  0.00    -0.334 N 
ATOM      3  H3  UNL     1     -37.810   0.317  44.090  1.00  0.00     0.168 HD
HETATM    4  C4  UNL     1     -39.720   0.227  43.412  1.00  0.00     0.110 A 
HETATM    5  C5  UNL     1     -39.482   1.146  42.425  1.00  0.00     0.144 A 
HETATM    6  N4  UNL     1     -38.437   1.758  42.133  1.00  0.00    -0.277 N 
ATOM      7  H4  UNL     1     -38.571   2.385  41.339  1.00  0.00     0.179 HD
HETATM    8  C6  UNL     1     -37.179   1.801  42.599  1.00  0.00     0.183 C 
HETATM    9  N5  UNL     1     -36.095   1.860  42.974  1.00  0.00    -0.172 NA
HETATM   10  N6  UNL     1     -40.563   1.454  41.618  1.00  0.00    -0.336 N 
ATOM     11  H6  UNL     1     -40.449   2.132  40.864  1.00  0.00     0.168 HD
HETATM   12  C7  UNL     1     -41.755   0.878  41.809  1.00  0.00     0.182 A 
HETATM   13  N7  UNL     1     -41.967  -0.019  42.780  1.00  0.00    -0.347 N 
ATOM     14  H7  UNL     1     -42.890  -0.438  42.896  1.00  0.00     0.167 HD
HETATM   15  C8  UNL     1     -40.951  -0.372  43.613  1.00  0.00     0.110 A 
HETATM   16  C9  UNL     1     -41.146  -1.289  44.614  1.00  0.00     0.151 A 
HETATM   17  N9  UNL     1     -40.092  -1.609  45.425  1.00  0.00    -0.226 N 
ENDROOT
BRANCH   1  18
HETATM   18  C2  UNL     1     -37.737  -1.326  46.059  1.00  0.00     0.098 A 
HETATM   19  N2  UNL     1     -37.146  -2.543  46.145  1.00  0.00    -0.294 N 
HETATM   20  N1  UNL     1     -36.104  -2.500  46.986  1.00  0.00    -0.281 N 
ATOM     21  H2  UNL     1     -37.452  -3.375  45.640  1.00  0.00     0.187 HD
HETATM   22  C1  UNL     1     -35.291  -3.669  47.265  1.00  0.00     0.179 C 
HETATM   23  C11 UNL     1     -35.962  -1.275  47.483  1.00  0.00     0.121 A 
HETATM   24  C10 UNL     1     -37.019  -0.521  46.881  1.00  0.00     0.084 A 
BRANCH  23  25
HETATM   25  N11 UNL     1     -35.153  -0.738  48.295  1.00  0.00    -0.347 N 
ATOM     26  H11 UNL     1     -35.477  -0.732  49.262  1.00  0.00     0.163 HD
BRANCH  25  27
HETATM   27  C12 UNL     1     -33.911  -0.160  48.113  1.00  0.00     0.250 C 
BRANCH  27  28
HETATM   28  O1  UNL     1     -32.950  -1.030  47.583  1.00  0.00    -0.374 OA
ATOM     29  H1  UNL     1     -32.169  -1.115  48.118  1.00  0.00     0.212 HD
ENDBRANCH  27  28
BRANCH  27  30
HETATM   30  C13 UNL     1     -33.357   0.464  49.410  1.00  0.00     0.198 C 
BRANCH  30  31
HETATM   31  O2  UNL     1     -33.181  -0.508  50.362  1.00  0.00    -0.389 OA
ATOM     32  H2  UNL     1     -33.517  -0.209  51.199  1.00  0.00     0.210 HD
ENDBRANCH  30  31
BRANCH  30  33
HETATM   33  C14 UNL     1     -32.075   1.187  49.150  1.00  0.00     0.181 C 
BRANCH  33  34
HETATM   34  O3  UNL     1     -31.995   1.771  47.912  1.00  0.00    -0.390 OA
ATOM     35  H3  UNL     1     -31.119   1.792  47.545  1.00  0.00     0.210 HD
ENDBRANCH  33  34
BRANCH  33  36
HETATM   36  C15 UNL     1     -31.810   2.148  50.280  1.00  0.00     0.173 C 
BRANCH  36  37
HETATM   37  O4  UNL     1     -32.386   3.393  50.065  1.00  0.00    -0.391 OA
ATOM     38  H4  UNL     1     -33.197   3.338  49.575  1.00  0.00     0.210 HD
ENDBRANCH  36  37
BRANCH  36  39
HETATM   39  C16 UNL     1     -30.306   2.393  50.450  1.00  0.00     0.198 C 
BRANCH  39  40
HETATM   40  O5  UNL     1     -30.085   3.725  50.797  1.00  0.00    -0.398 OA
ATOM     41  H5  UNL     1     -30.454   4.295  50.132  1.00  0.00     0.209 HD
ENDBRANCH  39  40
ENDBRANCH  36  39
ENDBRANCH  33  36
ENDBRANCH  30  33
ENDBRANCH  27  30
ENDBRANCH  25  27
ENDBRANCH  23  25
ENDBRANCH   1  18
BRANCH  16  42
HETATM   42  N8  UNL     1     -42.279  -1.845  44.805  1.00  0.00    -0.382 N 
ATOM     43  H82 UNL     1     -42.918  -1.459  45.499  1.00  0.00     0.157 HD
ATOM     44  H81 UNL     1     -42.566  -2.672  44.281  1.00  0.00     0.157 HD
ENDBRANCH  16  42
BRANCH  17  45
HETATM   45  N10 UNL     1     -40.318  -2.556  46.449  1.00  0.00    -0.335 N 
ATOM     46 2H10 UNL     1     -40.044  -2.300  47.397  1.00  0.00     0.177 HD
ATOM     47 1H10 UNL     1     -40.739  -3.471  46.285  1.00  0.00     0.177 HD
ENDBRANCH  17  45
TORSDOF 14
ENDMDL
MODEL 4
REMARK VINA RESULT: -6.810033217      0.987      1.267
REMARK  14 active torsions:
REMARK  status: ('A' for Active; 'I' for Inactive)
REMARK    1  A    between atoms: C2_5  and  C3_6 
REMARK    2  A    between atoms: C9_21  and  N8_22 
REMARK    3  A    between atoms: N9_25  and  N10_26 
REMARK    4  A    between atoms: C11_30  and  N11_31 
REMARK    5  A    between atoms: N11_31  and  C12_33 
REMARK    6  A    between atoms: C12_33  and  O1_34 
REMARK    7  A    between atoms: C12_33  and  C13_36 
REMARK    8  A    between atoms: C13_36  and  O2_37 
REMARK    9  A    between atoms: C13_36  and  C14_39 
REMARK   10  A    between atoms: C14_39  and  O3_40 
REMARK   11  A    between atoms: C14_39  and  C15_42 
REMARK   12  A    between atoms: C15_42  and  O4_43 
REMARK   13  A    between atoms: C15_42  and  C16_45 
REMARK   14  A    between atoms: C16_45  and  O5_46 
ROOT
HETATM    1  C3  UNL     1     -32.758  -1.598  48.541  1.00  0.00     0.157 A 
HETATM    2  N3  UNL     1     -32.137  -0.532  49.133  1.00  0.00    -0.334 N 
ATOM      3  H3  UNL     1     -32.611   0.370  49.172  1.00  0.00     0.168 HD
HETATM    4  C4  UNL     1     -30.930  -0.658  49.656  1.00  0.00     0.110 A 
HETATM    5  C5  UNL     1     -30.349   0.437  50.238  1.00  0.00     0.144 A 
HETATM    6  N4  UNL     1     -30.779   1.599  50.370  1.00  0.00    -0.277 N 
ATOM      7  H4  UNL     1     -30.111   2.200  50.851  1.00  0.00     0.179 HD
HETATM    8  C6  UNL     1     -31.901   2.259  50.039  1.00  0.00     0.183 C 
HETATM    9  N5  UNL     1     -32.847   2.851  49.770  1.00  0.00    -0.172 NA
HETATM   10  N6  UNL     1     -29.086   0.237  50.766  1.00  0.00    -0.336 N 
ATOM     11  H6  UNL     1     -28.601   1.015  51.214  1.00  0.00     0.168 HD
HETATM   12  C7  UNL     1     -28.490  -0.959  50.701  1.00  0.00     0.182 A 
HETATM   13  N7  UNL     1     -29.076  -2.017  50.127  1.00  0.00    -0.347 N 
ATOM     14  H7  UNL     1     -28.591  -2.914  50.095  1.00  0.00     0.167 HD
HETATM   15  C8  UNL     1     -30.319  -1.897  49.586  1.00  0.00     0.110 A 
HETATM   16  C9  UNL     1     -30.937  -2.969  48.994  1.00  0.00     0.151 A 
HETATM   17  N9  UNL     1     -32.186  -2.795  48.465  1.00  0.00    -0.226 N 
ENDROOT
BRANCH   1  18
HETATM   18  C2  UNL     1     -34.108  -1.344  47.988  1.00  0.00     0.098 A 
HETATM   19  N2  UNL     1     -35.268  -1.609  48.639  1.00  0.00    -0.294 N 
HETATM   20  N1  UNL     1     -36.319  -1.271  47.880  1.00  0.00    -0.281 N 
ATOM     21  H2  UNL     1     -35.330  -2.010  49.574  1.00  0.00     0.187 HD
HETATM   22  C1  UNL     1     -37.685  -1.450  48.334  1.00  0.00     0.179 C 
HETATM   23  C11 UNL     1     -35.909  -0.776  46.716  1.00  0.00     0.121 A 
HETATM   24  C10 UNL     1     -34.480  -0.826  46.791  1.00  0.00     0.084 A 
BRANCH  23  25
HETATM   25  N11 UNL     1     -36.497  -0.328  45.689  1.00  0.00    -0.347 N 
ATOM     26  H11 UNL     1     -36.150  -0.712  44.810  1.00  0.00     0.163 HD
BRANCH  25  27
HETATM   27  C12 UNL     1     -37.522   0.585  45.538  1.00  0.00     0.250 C 
BRANCH  27  28
HETATM   28  O1  UNL     1     -38.795   0.004  45.458  1.00  0.00    -0.374 OA
ATOM     29  H1  UNL     1     -38.842  -0.873  45.820  1.00  0.00     0.212 HD
ENDBRANCH  27  28
BRANCH  27  30
HETATM   30  C13 UNL     1     -37.317   1.504  44.316  1.00  0.00     0.198 C 
BRANCH  30  31
HETATM   31  O2  UNL     1     -36.182   1.138  43.637  1.00  0.00    -0.389 OA
ATOM     32  H2  UNL     1     -35.461   1.709  43.874  1.00  0.00     0.210 HD
ENDBRANCH  30  31
BRANCH  30  33
HETATM   33  C14 UNL     1     -38.507   1.466  43.413  1.00  0.00     0.181 C 
BRANCH  33  34
HETATM   34  O3  UNL     1     -39.407   2.480  43.620  1.00  0.00    -0.390 OA
ATOM     35  H3  UNL     1     -39.804   2.820  42.827  1.00  0.00     0.210 HD
ENDBRANCH  33  34
BRANCH  33  36
HETATM   36  C15 UNL     1     -38.041   1.368  41.983  1.00  0.00     0.173 C 
BRANCH  36  37
HETATM   37  O4  UNL     1     -37.443   2.539  41.536  1.00  0.00    -0.391 OA
ATOM     38  H4  UNL     1     -37.356   2.565  40.591  1.00  0.00     0.210 HD
ENDBRANCH  36  37
BRANCH  36  39
HETATM   39  C16 UNL     1     -39.219   1.100  41.040  1.00  0.00     0.198 C 
BRANCH  39  40
HETATM   40  O5  UNL     1     -39.885   2.295  40.770  1.00  0.00    -0.398 OA
ATOM     41  H5  UNL     1     -39.719   2.917  41.468  1.00  0.00     0.209 HD
ENDBRANCH  39  40
ENDBRANCH  36  39
ENDBRANCH  33  36
ENDBRANCH  30  33
ENDBRANCH  27  30
ENDBRANCH  25  27
ENDBRANCH  23  25
ENDBRANCH   1  18
BRANCH  16  42
HETATM   42  N8  UNL     1     -30.378  -4.114  48.926  1.00  0.00    -0.382 N 
ATOM     43  H82 UNL     1     -30.144  -4.506  48.015  1.00  0.00     0.157 HD
ATOM     44  H81 UNL     1     -30.156  -4.654  49.763  1.00  0.00     0.157 HD
ENDBRANCH  16  42
BRANCH  17  45
HETATM   45  N10 UNL     1     -32.801  -3.914  47.860  1.00  0.00    -0.335 N 
ATOM     46 2H10 UNL     1     -32.743  -4.806  48.349  1.00  0.00     0.177 HD
ATOM     47 1H10 UNL     1     -33.294  -3.869  46.968  1.00  0.00     0.177 HD
ENDBRANCH  17  45
TORSDOF 14
ENDMDL
MODEL 5
REMARK VINA RESULT: -6.780234350      4.235      9.498
REMARK  14 active torsions:
REMARK  status: ('A' for Active; 'I' for Inactive)
REMARK    1  A    between atoms: C2_5  and  C3_6 
REMARK    2  A    between atoms: C9_21  and  N8_22 
REMARK    3  A    between atoms: N9_25  and  N10_26 
REMARK    4  A    between atoms: C11_30  and  N11_31 
REMARK    5  A    between atoms: N11_31  and  C12_33 
REMARK    6  A    between atoms: C12_33  and  O1_34 
REMARK    7  A    between atoms: C12_33  and  C13_36 
REMARK    8  A    between atoms: C13_36  and  O2_37 
REMARK    9  A    between atoms: C13_36  and  C14_39 
REMARK   10  A    between atoms: C14_39  and  O3_40 
REMARK   11  A    between atoms: C14_39  and  C15_42 
REMARK   12  A    between atoms: C15_42  and  O4_43 
REMARK   13  A    between atoms: C15_42  and  C16_45 
REMARK   14  A    between atoms: C16_45  and  O5_46 
ROOT
HETATM    1  C3  UNL     1     -38.235  -0.833  45.485  1.00  0.00     0.157 A 
HETATM    2  N3  UNL     1     -38.277   0.007  44.404  1.00  0.00    -0.334 N 
ATOM      3  H3  UNL     1     -37.434   0.504  44.120  1.00  0.00     0.168 HD
HETATM    4  C4  UNL     1     -39.397   0.180  43.726  1.00  0.00     0.110 A 
HETATM    5  C5  UNL     1     -39.390   1.031  42.653  1.00  0.00     0.144 A 
HETATM    6  N4  UNL     1     -38.463   1.710  42.174  1.00  0.00    -0.277 N 
ATOM      7  H4  UNL     1     -38.766   2.252  41.365  1.00  0.00     0.179 HD
HETATM    8  C6  UNL     1     -37.165   1.910  42.453  1.00  0.00     0.183 C 
HETATM    9  N5  UNL     1     -36.053   2.101  42.666  1.00  0.00    -0.172 NA
HETATM   10  N6  UNL     1     -40.595   1.167  41.987  1.00  0.00    -0.336 N 
ATOM     11  H6  UNL     1     -40.654   1.787  41.179  1.00  0.00     0.168 HD
HETATM   12  C7  UNL     1     -41.685   0.500  42.385  1.00  0.00     0.182 A 
HETATM   13  N7  UNL     1     -41.670  -0.327  43.438  1.00  0.00    -0.347 N 
ATOM     14  H7  UNL     1     -42.521  -0.819  43.712  1.00  0.00     0.167 HD
HETATM   15  C8  UNL     1     -40.521  -0.512  44.141  1.00  0.00     0.110 A 
HETATM   16  C9  UNL     1     -40.485  -1.355  45.223  1.00  0.00     0.151 A 
HETATM   17  N9  UNL     1     -39.304  -1.506  45.897  1.00  0.00    -0.226 N 
ENDROOT
BRANCH   1  18
HETATM   18  C2  UNL     1     -36.928  -0.952  46.170  1.00  0.00     0.098 A 
HETATM   19  N2  UNL     1     -35.973  -1.859  45.852  1.00  0.00    -0.294 N 
HETATM   20  N1  UNL     1     -34.906  -1.718  46.651  1.00  0.00    -0.281 N 
ATOM     21  H2  UNL     1     -36.055  -2.553  45.109  1.00  0.00     0.187 HD
HETATM   22  C1  UNL     1     -33.734  -2.564  46.528  1.00  0.00     0.179 C 
HETATM   23  C11 UNL     1     -35.106  -0.728  47.516  1.00  0.00     0.121 A 
HETATM   24  C10 UNL     1     -36.413  -0.237  47.202  1.00  0.00     0.084 A 
BRANCH  23  25
HETATM   25  N11 UNL     1     -34.420  -0.217  48.449  1.00  0.00    -0.347 N 
ATOM     26  H11 UNL     1     -34.216   0.774  48.321  1.00  0.00     0.163 HD
BRANCH  25  27
HETATM   27  C12 UNL     1     -33.895  -0.754  49.609  1.00  0.00     0.250 C 
BRANCH  27  28
HETATM   28  O1  UNL     1     -34.565  -0.357  50.773  1.00  0.00    -0.374 OA
ATOM     29  H1  UNL     1     -34.397  -0.913  51.525  1.00  0.00     0.212 HD
ENDBRANCH  27  28
BRANCH  27  30
HETATM   30  C13 UNL     1     -32.392  -0.449  49.771  1.00  0.00     0.198 C 
BRANCH  30  31
HETATM   31  O2  UNL     1     -31.656  -1.249  48.933  1.00  0.00    -0.389 OA
ATOM     32  H2  UNL     1     -30.740  -1.227  49.184  1.00  0.00     0.210 HD
ENDBRANCH  30  31
BRANCH  30  33
HETATM   33  C14 UNL     1     -32.107   0.994  49.507  1.00  0.00     0.181 C 
BRANCH  33  34
HETATM   34  O3  UNL     1     -33.013   1.861  50.063  1.00  0.00    -0.390 OA
ATOM     35  H3  UNL     1     -32.622   2.584  50.538  1.00  0.00     0.210 HD
ENDBRANCH  33  34
BRANCH  33  36
HETATM   36  C15 UNL     1     -30.682   1.297  49.891  1.00  0.00     0.173 C 
BRANCH  36  37
HETATM   37  O4  UNL     1     -30.203   0.442  50.875  1.00  0.00    -0.391 OA
ATOM     38  H4  UNL     1     -30.144   0.863  51.724  1.00  0.00     0.210 HD
ENDBRANCH  36  37
BRANCH  36  39
HETATM   39  C16 UNL     1     -30.556   2.716  50.455  1.00  0.00     0.198 C 
BRANCH  39  40
HETATM   40  O5  UNL     1     -29.473   2.778  51.331  1.00  0.00    -0.398 OA
ATOM     41  H5  UNL     1     -29.472   3.615  51.779  1.00  0.00     0.209 HD
ENDBRANCH  39  40
ENDBRANCH  36  39
ENDBRANCH  33  36
ENDBRANCH  30  33
ENDBRANCH  27  30
ENDBRANCH  25  27
ENDBRANCH  23  25
ENDBRANCH   1  18
BRANCH  16  42
HETATM   42  N8  UNL     1     -41.517  -1.996  45.611  1.00  0.00    -0.382 N 
ATOM     43  H82 UNL     1     -42.439  -1.573  45.511  1.00  0.00     0.157 HD
ATOM     44  H81 UNL     1     -41.449  -2.928  46.020  1.00  0.00     0.157 HD
ENDBRANCH  16  42
BRANCH  17  45
HETATM   45  N10 UNL     1     -39.292  -2.379  47.008  1.00  0.00    -0.335 N 
ATOM     46 2H10 UNL     1     -38.591  -3.119  47.018  1.00  0.00     0.177 HD
ATOM     47 1H10 UNL     1     -39.945  -2.303  47.788  1.00  0.00     0.177 HD
ENDBRANCH  17  45
TORSDOF 14
ENDMDL
