MODEL 1
REMARK VINA RESULT: -7.287506847      0.000      0.000
REMARK  10 active torsions:
REMARK  status: ('A' for Active; 'I' for Inactive)
REMARK    1  A    between atoms: S1_2  and  C2_3 
REMARK    2  A    between atoms: C3_8  and  C4_9 
REMARK    3  A    between atoms: C5_10  and  C6_11 
REMARK    4  A    between atoms: N3_12  and  N4_14 
REMARK       I    between atoms: C7_16  and  N6_18 
REMARK    5  A    between atoms: N6_18  and  C8_20 
REMARK    6  A    between atoms: C9_25  and  C10_26 
REMARK       I    between atoms: C10_26  and  N9_28 
REMARK    7  A    between atoms: N9_28  and  N10_30 
REMARK    8  A    between atoms: C11_33  and  N11_34 
REMARK    9  A    between atoms: N11_34  and  O2_36 
REMARK   10  A    between atoms: C12_43  and  N14_44 
ROOT
HETATM    1  N4  UNL     1     -37.652  -1.254  48.322  1.00  0.00    -0.273 N 
ATOM      2  H4  UNL     1     -37.017  -2.028  48.124  1.00  0.00     0.189 HD
HETATM    3  C7  UNL     1     -38.551  -1.409  49.226  1.00  0.00     0.221 C 
HETATM    4  N5  UNL     1     -38.617  -2.651  49.907  1.00  0.00    -0.061 NA
HETATM    5  N6  UNL     1     -39.473  -0.396  49.570  1.00  0.00    -0.161 N 
ATOM      6  H6  UNL     1     -40.213  -0.169  48.905  1.00  0.00     0.187 HD
ENDROOT
BRANCH   1   7
HETATM    7  N3  UNL     1     -37.510  -0.067  47.599  1.00  0.00    -0.307 N 
HETATM    8  C6  UNL     1     -36.559   0.017  46.732  1.00  0.00     0.147 C 
ATOM      9  H3  UNL     1     -38.145   0.716  47.754  1.00  0.00     0.186 HD
BRANCH   8  10
HETATM   10  C5  UNL     1     -35.646  -1.093  46.505  1.00  0.00     0.134 A 
HETATM   11  C4  UNL     1     -34.458  -1.346  47.145  1.00  0.00     0.099 A 
HETATM   12  C12 UNL     1     -33.982  -2.505  46.570  1.00  0.00     0.137 A 
HETATM   13  N13 UNL     1     -34.867  -2.905  45.631  1.00  0.00    -0.244 N 
HETATM   14  O3  UNL     1     -35.837  -2.052  45.616  1.00  0.00    -0.234 OA
ATOM     15  H13 UNL     1     -34.783  -3.732  45.040  1.00  0.00     0.196 HD
BRANCH  11  16
HETATM   16  C3  UNL     1     -33.867  -0.542  48.195  1.00  0.00     0.182 A 
HETATM   17  N2  UNL     1     -34.466  -0.324  49.377  1.00  0.00    -0.276 N 
HETATM   18  N1  UNL     1     -33.676   0.431  50.083  1.00  0.00    -0.272 N 
ATOM     19  H2  UNL     1     -35.375  -0.684  49.668  1.00  0.00     0.189 HD
HETATM   20  C2  UNL     1     -32.574   0.696  49.360  1.00  0.00     0.203 A 
ATOM     21  H1  UNL     1     -33.861   0.766  51.029  1.00  0.00     0.189 HD
HETATM   22  O4  UNL     1     -32.725   0.091  48.226  1.00  0.00    -0.267 OA
BRANCH  20  23
HETATM   23  S1  UNL     1     -31.235   1.704  49.974  1.00  0.00    -0.089 SA
HETATM   24  C1  UNL     1     -29.922   0.715  50.705  1.00  0.00     0.099 C 
ENDBRANCH  20  23
ENDBRANCH  11  16
BRANCH  12  25
HETATM   25  N14 UNL     1     -32.872  -3.062  46.916  1.00  0.00    -0.383 N 
ATOM     26 2H14 UNL     1     -32.074  -3.305  46.329  1.00  0.00     0.157 HD
ATOM     27 1H14 UNL     1     -32.660  -3.337  47.874  1.00  0.00     0.157 HD
ENDBRANCH  12  25
ENDBRANCH   8  10
ENDBRANCH   1   7
BRANCH   5  28
HETATM   28  C8  UNL     1     -39.426   0.257  50.686  1.00  0.00     0.701 A 
HETATM   29  N7  UNL     1     -40.131   1.376  50.908  1.00  0.00    -0.131 N 
HETATM   30  N8  UNL     1     -40.052   2.011  52.066  1.00  0.00    -0.278 N 
ATOM     31  H7  UNL     1     -40.737   1.743  50.174  1.00  0.00     0.205 HD
HETATM   32  C9  UNL     1     -39.255   1.529  53.031  1.00  0.00     0.164 A 
ATOM     33  H8  UNL     1     -40.593   2.862  52.223  1.00  0.00     0.188 HD
HETATM   34  C11 UNL     1     -38.531   0.380  52.805  1.00  0.00     0.174 A 
HETATM   35  N12 UNL     1     -38.605  -0.265  51.641  1.00  0.00    -0.171 N 
ATOM     36  H12 UNL     1     -38.069  -1.117  51.471  1.00  0.00     0.186 HD
BRANCH  32  37
HETATM   37  C10 UNL     1     -39.148   2.205  54.312  1.00  0.00     0.291 C 
HETATM   38  O1  UNL     1     -39.531   1.628  55.370  1.00  0.00    -0.264 OA
HETATM   39  N9  UNL     1     -38.608   3.518  54.345  1.00  0.00    -0.271 N 
ATOM     40  H9  UNL     1     -38.311   3.951  53.471  1.00  0.00     0.189 HD
BRANCH  39  41
HETATM   41  N10 UNL     1     -38.473   4.231  55.534  1.00  0.00    -0.342 N 
ATOM     42 2H10 UNL     1     -37.923   3.811  56.283  1.00  0.00     0.176 HD
ATOM     43 1H10 UNL     1     -38.903   5.146  55.668  1.00  0.00     0.176 HD
ENDBRANCH  39  41
ENDBRANCH  32  37
BRANCH  34  44
HETATM   44  N11 UNL     1     -37.777  -0.058  53.749  1.00  0.00    -0.250 N 
ATOM     45  H11 UNL     1     -36.845   0.342  53.865  1.00  0.00     0.196 HD
BRANCH  44  46
HETATM   46  O2  UNL     1     -38.191  -1.056  54.610  1.00  0.00    -0.288 OA
ATOM     47  H2  UNL     1     -38.715  -0.868  55.379  1.00  0.00     0.244 HD
ENDBRANCH  44  46
ENDBRANCH  34  44
ENDBRANCH   5  28
TORSDOF 10
ENDMDL
MODEL 2
REMARK VINA RESULT: -7.198414147      5.648      9.612
REMARK  10 active torsions:
REMARK  status: ('A' for Active; 'I' for Inactive)
REMARK    1  A    between atoms: S1_2  and  C2_3 
REMARK    2  A    between atoms: C3_8  and  C4_9 
REMARK    3  A    between atoms: C5_10  and  C6_11 
REMARK    4  A    between atoms: N3_12  and  N4_14 
REMARK       I    between atoms: C7_16  and  N6_18 
REMARK    5  A    between atoms: N6_18  and  C8_20 
REMARK    6  A    between atoms: C9_25  and  C10_26 
REMARK       I    between atoms: C10_26  and  N9_28 
REMARK    7  A    between atoms: N9_28  and  N10_30 
REMARK    8  A    between atoms: C11_33  and  N11_34 
REMARK    9  A    between atoms: N11_34  and  O2_36 
REMARK   10  A    between atoms: C12_43  and  N14_44 
ROOT
HETATM    1  N4  UNL     1     -38.230  -0.435  45.154  1.00  0.00    -0.273 N 
ATOM      2  H4  UNL     1     -37.645  -1.198  45.496  1.00  0.00     0.189 HD
HETATM    3  C7  UNL     1     -37.666   0.566  44.579  1.00  0.00     0.221 C 
HETATM    4  N5  UNL     1     -36.254   0.561  44.447  1.00  0.00    -0.061 NA
HETATM    5  N6  UNL     1     -38.391   1.668  44.075  1.00  0.00    -0.161 N 
ATOM      6  H6  UNL     1     -38.813   2.316  44.740  1.00  0.00     0.187 HD
ENDROOT
BRANCH   1   7
HETATM    7  N3  UNL     1     -39.613  -0.518  45.328  1.00  0.00    -0.307 N 
HETATM    8  C6  UNL     1     -40.088  -1.492  46.027  1.00  0.00     0.147 C 
ATOM      9  H3  UNL     1     -40.234   0.176  44.913  1.00  0.00     0.186 HD
BRANCH   8  10
HETATM   10  C5  UNL     1     -39.212  -2.490  46.624  1.00  0.00     0.134 A 
HETATM   11  C4  UNL     1     -38.809  -2.576  47.933  1.00  0.00     0.099 A 
HETATM   12  C12 UNL     1     -37.992  -3.685  47.983  1.00  0.00     0.137 A 
HETATM   13  N13 UNL     1     -37.928  -4.219  46.745  1.00  0.00    -0.244 N 
HETATM   14  O3  UNL     1     -38.657  -3.492  45.965  1.00  0.00    -0.234 OA
ATOM     15  H13 UNL     1     -37.398  -5.047  46.474  1.00  0.00     0.196 HD
BRANCH  11  16
HETATM   16  C3  UNL     1     -39.185  -1.674  49.002  1.00  0.00     0.182 A 
HETATM   17  N2  UNL     1     -40.311  -0.944  48.984  1.00  0.00    -0.276 N 
HETATM   18  N1  UNL     1     -40.346  -0.248  50.083  1.00  0.00    -0.272 N 
ATOM     19  H2  UNL     1     -41.013  -0.936  48.243  1.00  0.00     0.189 HD
HETATM   20  C2  UNL     1     -39.247  -0.529  50.804  1.00  0.00     0.203 A 
ATOM     21  H1  UNL     1     -41.084   0.403  50.352  1.00  0.00     0.189 HD
HETATM   22  O4  UNL     1     -38.570  -1.394  50.121  1.00  0.00    -0.267 OA
BRANCH  20  23
HETATM   23  S1  UNL     1     -38.915   0.222  52.389  1.00  0.00    -0.089 SA
HETATM   24  C1  UNL     1     -39.874   1.723  52.642  1.00  0.00     0.099 C 
ENDBRANCH  20  23
ENDBRANCH  11  16
BRANCH  12  25
HETATM   25  N14 UNL     1     -37.417  -4.091  49.063  1.00  0.00    -0.383 N 
ATOM     26 2H14 UNL     1     -36.764  -3.588  49.663  1.00  0.00     0.157 HD
ATOM     27 1H14 UNL     1     -37.562  -5.020  49.459  1.00  0.00     0.157 HD
ENDBRANCH  12  25
ENDBRANCH   8  10
ENDBRANCH   1   7
BRANCH   5  28
HETATM   28  C8  UNL     1     -38.546   1.895  42.810  1.00  0.00     0.701 A 
HETATM   29  N7  UNL     1     -37.552   2.318  42.016  1.00  0.00    -0.131 N 
HETATM   30  N8  UNL     1     -37.757   2.538  40.728  1.00  0.00    -0.278 N 
ATOM     31  H7  UNL     1     -36.624   2.472  42.410  1.00  0.00     0.205 HD
HETATM   32  C9  UNL     1     -38.977   2.337  40.209  1.00  0.00     0.164 A 
ATOM     33  H8  UNL     1     -36.992   2.859  40.134  1.00  0.00     0.188 HD
HETATM   34  C11 UNL     1     -40.000   1.903  41.023  1.00  0.00     0.174 A 
HETATM   35  N12 UNL     1     -39.801   1.679  42.322  1.00  0.00    -0.171 N 
ATOM     36  H12 UNL     1     -40.557   1.358  42.927  1.00  0.00     0.186 HD
BRANCH  32  37
HETATM   37  C10 UNL     1     -39.232   2.570  38.798  1.00  0.00     0.291 C 
HETATM   38  O1  UNL     1     -39.658   1.632  38.065  1.00  0.00    -0.264 OA
HETATM   39  N9  UNL     1     -38.993   3.866  38.270  1.00  0.00    -0.271 N 
ATOM     40  H9  UNL     1     -38.649   4.597  38.892  1.00  0.00     0.189 HD
BRANCH  39  41
HETATM   41  N10 UNL     1     -39.214   4.169  36.928  1.00  0.00    -0.342 N 
ATOM     42 2H10 UNL     1     -39.622   3.446  36.336  1.00  0.00     0.176 HD
ATOM     43 1H10 UNL     1     -38.982   5.081  36.534  1.00  0.00     0.176 HD
ENDBRANCH  39  41
ENDBRANCH  32  37
BRANCH  34  44
HETATM   44  N11 UNL     1     -41.158   1.718  40.497  1.00  0.00    -0.250 N 
ATOM     45  H11 UNL     1     -41.789   2.514  40.396  1.00  0.00     0.196 HD
BRANCH  44  46
HETATM   46  O2  UNL     1     -41.573   0.473  40.065  1.00  0.00    -0.288 OA
ATOM     47  H2  UNL     1     -41.332   0.133  39.212  1.00  0.00     0.244 HD
ENDBRANCH  44  46
ENDBRANCH  34  44
ENDBRANCH   5  28
TORSDOF 10
ENDMDL
MODEL 3
REMARK VINA RESULT: -6.974421276      1.006      1.610
REMARK  10 active torsions:
REMARK  status: ('A' for Active; 'I' for Inactive)
REMARK    1  A    between atoms: S1_2  and  C2_3 
REMARK    2  A    between atoms: C3_8  and  C4_9 
REMARK    3  A    between atoms: C5_10  and  C6_11 
REMARK    4  A    between atoms: N3_12  and  N4_14 
REMARK       I    between atoms: C7_16  and  N6_18 
REMARK    5  A    between atoms: N6_18  and  C8_20 
REMARK    6  A    between atoms: C9_25  and  C10_26 
REMARK       I    between atoms: C10_26  and  N9_28 
REMARK    7  A    between atoms: N9_28  and  N10_30 
REMARK    8  A    between atoms: C11_33  and  N11_34 
REMARK    9  A    between atoms: N11_34  and  O2_36 
REMARK   10  A    between atoms: C12_43  and  N14_44 
ROOT
HETATM    1  N4  UNL     1     -37.890  -1.382  47.640  1.00  0.00    -0.273 N 
ATOM      2  H4  UNL     1     -37.477  -2.196  47.182  1.00  0.00     0.189 HD
HETATM    3  C7  UNL     1     -38.746  -1.570  48.579  1.00  0.00     0.221 C 
HETATM    4  N5  UNL     1     -39.077  -2.902  48.936  1.00  0.00    -0.061 NA
HETATM    5  N6  UNL     1     -39.370  -0.508  49.270  1.00  0.00    -0.161 N 
ATOM      6  H6  UNL     1     -40.067   0.049  48.775  1.00  0.00     0.187 HD
ENDROOT
BRANCH   1   7
HETATM    7  N3  UNL     1     -37.502  -0.107  47.221  1.00  0.00    -0.307 N 
HETATM    8  C6  UNL     1     -36.343   0.035  46.674  1.00  0.00     0.147 C 
ATOM      9  H3  UNL     1     -38.122   0.693  47.346  1.00  0.00     0.186 HD
BRANCH   8  10
HETATM   10  C5  UNL     1     -35.450  -1.099  46.493  1.00  0.00     0.134 A 
HETATM   11  C4  UNL     1     -34.280  -1.360  47.161  1.00  0.00     0.099 A 
HETATM   12  C12 UNL     1     -33.818  -2.543  46.625  1.00  0.00     0.137 A 
HETATM   13  N13 UNL     1     -34.694  -2.950  45.682  1.00  0.00    -0.244 N 
HETATM   14  O3  UNL     1     -35.646  -2.078  45.626  1.00  0.00    -0.234 OA
ATOM     15  H13 UNL     1     -34.618  -3.794  45.114  1.00  0.00     0.196 HD
BRANCH  11  16
HETATM   16  C3  UNL     1     -33.690  -0.541  48.200  1.00  0.00     0.182 A 
HETATM   17  N2  UNL     1     -34.347  -0.186  49.316  1.00  0.00    -0.276 N 
HETATM   18  N1  UNL     1     -33.541   0.542  50.031  1.00  0.00    -0.272 N 
ATOM     19  H2  UNL     1     -35.305  -0.441  49.559  1.00  0.00     0.189 HD
HETATM   20  C2  UNL     1     -32.371   0.655  49.379  1.00  0.00     0.203 A 
ATOM     21  H1  UNL     1     -33.760   0.958  50.937  1.00  0.00     0.189 HD
HETATM   22  O4  UNL     1     -32.498  -0.012  48.278  1.00  0.00    -0.267 OA
BRANCH  20  23
HETATM   23  S1  UNL     1     -30.989   1.579  50.029  1.00  0.00    -0.089 SA
HETATM   24  C1  UNL     1     -29.735   0.508  50.748  1.00  0.00     0.099 C 
ENDBRANCH  20  23
ENDBRANCH  11  16
BRANCH  12  25
HETATM   25  N14 UNL     1     -32.727  -3.114  47.006  1.00  0.00    -0.383 N 
ATOM     26 2H14 UNL     1     -32.205  -2.972  47.871  1.00  0.00     0.157 HD
ATOM     27 1H14 UNL     1     -32.236  -3.811  46.448  1.00  0.00     0.157 HD
ENDBRANCH  12  25
ENDBRANCH   8  10
ENDBRANCH   1   7
BRANCH   5  28
HETATM   28  C8  UNL     1     -39.100  -0.205  50.499  1.00  0.00     0.701 A 
HETATM   29  N7  UNL     1     -38.150  -0.827  51.213  1.00  0.00    -0.131 N 
HETATM   30  N8  UNL     1     -37.908  -0.485  52.467  1.00  0.00    -0.278 N 
ATOM     31  H7  UNL     1     -37.605  -1.574  50.782  1.00  0.00     0.205 HD
HETATM   32  C9  UNL     1     -38.624   0.497  53.034  1.00  0.00     0.164 A 
ATOM     33  H8  UNL     1     -37.182  -0.964  53.000  1.00  0.00     0.188 HD
HETATM   34  C11 UNL     1     -39.600   1.137  52.302  1.00  0.00     0.174 A 
HETATM   35  N12 UNL     1     -39.849   0.797  51.038  1.00  0.00    -0.171 N 
ATOM     36  H12 UNL     1     -40.573   1.270  50.495  1.00  0.00     0.186 HD
BRANCH  32  37
HETATM   37  C10 UNL     1     -38.381   0.895  54.410  1.00  0.00     0.291 C 
HETATM   38  O1  UNL     1     -39.281   0.741  55.285  1.00  0.00    -0.264 OA
HETATM   39  N9  UNL     1     -37.120   1.455  54.742  1.00  0.00    -0.271 N 
ATOM     40  H9  UNL     1     -36.420   1.564  54.009  1.00  0.00     0.189 HD
BRANCH  39  41
HETATM   41  N10 UNL     1     -36.810   1.860  56.039  1.00  0.00    -0.342 N 
ATOM     42 2H10 UNL     1     -37.058   2.809  56.316  1.00  0.00     0.176 HD
ATOM     43 1H10 UNL     1     -36.350   1.238  56.704  1.00  0.00     0.176 HD
ENDBRANCH  39  41
ENDBRANCH  32  37
BRANCH  34  44
HETATM   44  N11 UNL     1     -40.270   2.075  52.872  1.00  0.00    -0.250 N 
ATOM     45  H11 UNL     1     -39.887   3.020  52.884  1.00  0.00     0.196 HD
BRANCH  44  46
HETATM   46  O2  UNL     1     -41.494   1.838  53.468  1.00  0.00    -0.288 OA
ATOM     47  H2  UNL     1     -41.988   2.531  53.891  1.00  0.00     0.244 HD
ENDBRANCH  44  46
ENDBRANCH  34  44
ENDBRANCH   5  28
TORSDOF 10
ENDMDL
MODEL 4
REMARK VINA RESULT: -6.897968218      3.602      5.198
REMARK  10 active torsions:
REMARK  status: ('A' for Active; 'I' for Inactive)
REMARK    1  A    between atoms: S1_2  and  C2_3 
REMARK    2  A    between atoms: C3_8  and  C4_9 
REMARK    3  A    between atoms: C5_10  and  C6_11 
REMARK    4  A    between atoms: N3_12  and  N4_14 
REMARK       I    between atoms: C7_16  and  N6_18 
REMARK    5  A    between atoms: N6_18  and  C8_20 
REMARK    6  A    between atoms: C9_25  and  C10_26 
REMARK       I    between atoms: C10_26  and  N9_28 
REMARK    7  A    between atoms: N9_28  and  N10_30 
REMARK    8  A    between atoms: C11_33  and  N11_34 
REMARK    9  A    between atoms: N11_34  and  O2_36 
REMARK   10  A    between atoms: C12_43  and  N14_44 
ROOT
HETATM    1  N4  UNL     1     -37.380  -0.970  48.033  1.00  0.00    -0.273 N 
ATOM      2  H4  UNL     1     -36.650  -1.641  47.792  1.00  0.00     0.189 HD
HETATM    3  C7  UNL     1     -38.242  -1.291  48.929  1.00  0.00     0.221 C 
HETATM    4  N5  UNL     1     -38.137  -2.565  49.543  1.00  0.00    -0.061 NA
HETATM    5  N6  UNL     1     -39.288  -0.430  49.328  1.00  0.00    -0.161 N 
ATOM      6  H6  UNL     1     -40.057  -0.267  48.678  1.00  0.00     0.187 HD
ENDROOT
BRANCH   1   7
HETATM    7  N3  UNL     1     -37.404   0.262  47.375  1.00  0.00    -0.307 N 
HETATM    8  C6  UNL     1     -37.283   0.277  46.091  1.00  0.00     0.147 C 
ATOM      9  H3  UNL     1     -37.514   1.131  47.898  1.00  0.00     0.186 HD
BRANCH   8  10
HETATM   10  C5  UNL     1     -37.122  -0.955  45.334  1.00  0.00     0.134 A 
HETATM   11  C4  UNL     1     -37.714  -1.290  44.142  1.00  0.00     0.099 A 
HETATM   12  C12 UNL     1     -37.241  -2.552  43.850  1.00  0.00     0.137 A 
HETATM   13  N13 UNL     1     -36.405  -2.929  44.840  1.00  0.00    -0.244 N 
HETATM   14  O3  UNL     1     -36.355  -1.967  45.701  1.00  0.00    -0.234 OA
ATOM     15  H13 UNL     1     -35.903  -3.815  44.898  1.00  0.00     0.196 HD
BRANCH  11  16
HETATM   16  C3  UNL     1     -38.634  -0.466  43.385  1.00  0.00     0.182 A 
HETATM   17  N2  UNL     1     -39.759   0.047  43.908  1.00  0.00    -0.276 N 
HETATM   18  N1  UNL     1     -40.351   0.731  42.972  1.00  0.00    -0.272 N 
ATOM     19  H2  UNL     1     -40.090  -0.076  44.865  1.00  0.00     0.189 HD
HETATM   20  C2  UNL     1     -39.609   0.658  41.853  1.00  0.00     0.203 A 
ATOM     21  H1  UNL     1     -41.231   1.238  43.071  1.00  0.00     0.189 HD
HETATM   22  O4  UNL     1     -38.581  -0.073  42.140  1.00  0.00    -0.267 OA
BRANCH  20  23
HETATM   23  S1  UNL     1     -40.077   1.466  40.332  1.00  0.00    -0.089 SA
HETATM   24  C1  UNL     1     -38.714   2.392  39.610  1.00  0.00     0.099 C 
ENDBRANCH  20  23
ENDBRANCH  11  16
BRANCH  12  25
HETATM   25  N14 UNL     1     -37.579  -3.206  42.792  1.00  0.00    -0.383 N 
ATOM     26 2H14 UNL     1     -38.373  -3.045  42.172  1.00  0.00     0.157 HD
ATOM     27 1H14 UNL     1     -37.056  -4.007  42.439  1.00  0.00     0.157 HD
ENDBRANCH  12  25
ENDBRANCH   8  10
ENDBRANCH   1   7
BRANCH   5  28
HETATM   28  C8  UNL     1     -39.318   0.164  50.478  1.00  0.00     0.701 A 
HETATM   29  N7  UNL     1     -40.056   1.258  50.716  1.00  0.00    -0.131 N 
HETATM   30  N8  UNL     1     -40.056   1.832  51.908  1.00  0.00    -0.278 N 
ATOM     31  H7  UNL     1     -40.625   1.654  49.968  1.00  0.00     0.205 HD
HETATM   32  C9  UNL     1     -39.307   1.312  52.892  1.00  0.00     0.164 A 
ATOM     33  H8  UNL     1     -40.622   2.664  52.078  1.00  0.00     0.188 HD
HETATM   34  C11 UNL     1     -38.549   0.189  52.649  1.00  0.00     0.174 A 
HETATM   35  N12 UNL     1     -38.544  -0.395  51.451  1.00  0.00    -0.171 N 
ATOM     36  H12 UNL     1     -37.982  -1.227  51.269  1.00  0.00     0.186 HD
BRANCH  32  37
HETATM   37  C10 UNL     1     -39.288   1.921  54.211  1.00  0.00     0.291 C 
HETATM   38  O1  UNL     1     -39.742   1.291  55.209  1.00  0.00    -0.264 OA
HETATM   39  N9  UNL     1     -38.751   3.228  54.348  1.00  0.00    -0.271 N 
ATOM     40  H9  UNL     1     -38.395   3.705  53.520  1.00  0.00     0.189 HD
BRANCH  39  41
HETATM   41  N10 UNL     1     -38.696   3.878  55.579  1.00  0.00    -0.342 N 
ATOM     42 2H10 UNL     1     -39.031   3.375  56.401  1.00  0.00     0.176 HD
ATOM     43 1H10 UNL     1     -38.335   4.827  55.673  1.00  0.00     0.176 HD
ENDBRANCH  39  41
ENDBRANCH  32  37
BRANCH  34  44
HETATM   44  N11 UNL     1     -37.842  -0.287  53.611  1.00  0.00    -0.250 N 
ATOM     45  H11 UNL     1     -36.935   0.134  53.815  1.00  0.00     0.196 HD
BRANCH  44  46
HETATM   46  O2  UNL     1     -38.275  -1.352  54.378  1.00  0.00    -0.288 OA
ATOM     47  H2  UNL     1     -38.123  -1.390  55.314  1.00  0.00     0.244 HD
ENDBRANCH  44  46
ENDBRANCH  34  44
ENDBRANCH   5  28
TORSDOF 10
ENDMDL
MODEL 5
REMARK VINA RESULT: -6.893642921      7.277     10.880
REMARK  10 active torsions:
REMARK  status: ('A' for Active; 'I' for Inactive)
REMARK    1  A    between atoms: S1_2  and  C2_3 
REMARK    2  A    between atoms: C3_8  and  C4_9 
REMARK    3  A    between atoms: C5_10  and  C6_11 
REMARK    4  A    between atoms: N3_12  and  N4_14 
REMARK       I    between atoms: C7_16  and  N6_18 
REMARK    5  A    between atoms: N6_18  and  C8_20 
REMARK    6  A    between atoms: C9_25  and  C10_26 
REMARK       I    between atoms: C10_26  and  N9_28 
REMARK    7  A    between atoms: N9_28  and  N10_30 
REMARK    8  A    between atoms: C11_33  and  N11_34 
REMARK    9  A    between atoms: N11_34  and  O2_36 
REMARK   10  A    between atoms: C12_43  and  N14_44 
ROOT
HETATM    1  N4  UNL     1     -38.217  -0.430  45.177  1.00  0.00    -0.273 N 
ATOM      2  H4  UNL     1     -37.625  -1.183  45.528  1.00  0.00     0.189 HD
HETATM    3  C7  UNL     1     -37.662   0.579  44.608  1.00  0.00     0.221 C 
HETATM    4  N5  UNL     1     -36.248   0.597  44.495  1.00  0.00    -0.061 NA
HETATM    5  N6  UNL     1     -38.398   1.668  44.092  1.00  0.00    -0.161 N 
ATOM      6  H6  UNL     1     -38.839   2.310  44.750  1.00  0.00     0.187 HD
ENDROOT
BRANCH   1   7
HETATM    7  N3  UNL     1     -39.601  -0.535  45.334  1.00  0.00    -0.307 N 
HETATM    8  C6  UNL     1     -40.148  -1.697  45.213  1.00  0.00     0.147 C 
ATOM      9  H3  UNL     1     -40.167   0.289  45.539  1.00  0.00     0.186 HD
BRANCH   8  10
HETATM   10  C5  UNL     1     -39.351  -2.878  44.919  1.00  0.00     0.134 A 
HETATM   11  C4  UNL     1     -39.093  -3.430  43.688  1.00  0.00     0.099 A 
HETATM   12  C12 UNL     1     -38.299  -4.527  43.948  1.00  0.00     0.137 A 
HETATM   13  N13 UNL     1     -38.106  -4.602  45.283  1.00  0.00    -0.244 N 
HETATM   14  O3  UNL     1     -38.739  -3.617  45.828  1.00  0.00    -0.234 OA
ATOM     15  H13 UNL     1     -37.559  -5.310  45.772  1.00  0.00     0.196 HD
BRANCH  11  16
HETATM   16  C3  UNL     1     -39.573  -2.936  42.414  1.00  0.00     0.182 A 
HETATM   17  N2  UNL     1     -39.322  -1.695  41.968  1.00  0.00    -0.276 N 
HETATM   18  N1  UNL     1     -39.890  -1.575  40.804  1.00  0.00    -0.272 N 
ATOM     19  H2  UNL     1     -38.783  -0.977  42.452  1.00  0.00     0.189 HD
HETATM   20  C2  UNL     1     -40.504  -2.733  40.503  1.00  0.00     0.203 A 
ATOM     21  H1  UNL     1     -39.873  -0.740  40.216  1.00  0.00     0.189 HD
HETATM   22  O4  UNL     1     -40.291  -3.531  41.499  1.00  0.00    -0.267 OA
BRANCH  20  23
HETATM   23  S1  UNL     1     -41.405  -2.981  38.982  1.00  0.00    -0.089 SA
HETATM   24  C1  UNL     1     -43.166  -2.672  39.179  1.00  0.00     0.099 C 
ENDBRANCH  20  23
ENDBRANCH  11  16
BRANCH  12  25
HETATM   25  N14 UNL     1     -37.849  -5.308  43.027  1.00  0.00    -0.383 N 
ATOM     26 2H14 UNL     1     -36.917  -5.713  42.937  1.00  0.00     0.157 HD
ATOM     27 1H14 UNL     1     -38.412  -5.625  42.238  1.00  0.00     0.157 HD
ENDBRANCH  12  25
ENDBRANCH   8  10
ENDBRANCH   1   7
BRANCH   5  28
HETATM   28  C8  UNL     1     -38.540   1.891  42.824  1.00  0.00     0.701 A 
HETATM   29  N7  UNL     1     -37.524   2.251  42.027  1.00  0.00    -0.131 N 
HETATM   30  N8  UNL     1     -37.716   2.468  40.737  1.00  0.00    -0.278 N 
ATOM     31  H7  UNL     1     -36.589   2.358  42.421  1.00  0.00     0.205 HD
HETATM   32  C9  UNL     1     -38.945   2.328  40.219  1.00  0.00     0.164 A 
ATOM     33  H8  UNL     1     -36.935   2.741  40.140  1.00  0.00     0.188 HD
HETATM   34  C11 UNL     1     -39.990   1.958  41.036  1.00  0.00     0.174 A 
HETATM   35  N12 UNL     1     -39.804   1.737  42.337  1.00  0.00    -0.171 N 
ATOM     36  H12 UNL     1     -40.577   1.464  42.944  1.00  0.00     0.186 HD
BRANCH  32  37
HETATM   37  C10 UNL     1     -39.186   2.560  38.805  1.00  0.00     0.291 C 
HETATM   38  O1  UNL     1     -39.627   1.628  38.073  1.00  0.00    -0.264 OA
HETATM   39  N9  UNL     1     -38.917   3.848  38.273  1.00  0.00    -0.271 N 
ATOM     40  H9  UNL     1     -38.562   4.575  38.894  1.00  0.00     0.189 HD
BRANCH  39  41
HETATM   41  N10 UNL     1     -39.124   4.149  36.928  1.00  0.00    -0.342 N 
ATOM     42 2H10 UNL     1     -38.596   4.923  36.525  1.00  0.00     0.176 HD
ATOM     43 1H10 UNL     1     -39.778   3.622  36.351  1.00  0.00     0.176 HD
ENDBRANCH  39  41
ENDBRANCH  32  37
BRANCH  34  44
HETATM   44  N11 UNL     1     -41.156   1.831  40.511  1.00  0.00    -0.250 N 
ATOM     45  H11 UNL     1     -41.811   2.611  40.562  1.00  0.00     0.196 HD
BRANCH  44  46
HETATM   46  O2  UNL     1     -41.548   0.666  39.879  1.00  0.00    -0.288 OA
ATOM     47  H2  UNL     1     -42.347   0.618  39.368  1.00  0.00     0.244 HD
ENDBRANCH  44  46
ENDBRANCH  34  44
ENDBRANCH   5  28
TORSDOF 10
ENDMDL
