MODEL 1
REMARK VINA RESULT: -6.334103860      0.000      0.000
REMARK  11 active torsions:
REMARK  status: ('A' for Active; 'I' for Inactive)
REMARK    1  A    between atoms: C2_2  and  N1_3 
REMARK    2  A    between atoms: C4_8  and  C5_9 
REMARK    3  A    between atoms: C5_9  and  C6_10 
REMARK    4  A    between atoms: C12_22  and  C13_23 
REMARK    5  A    between atoms: C13_23  and  C14_24 
REMARK    6  A    between atoms: C17_29  and  O4_30 
REMARK    7  A    between atoms: C18_32  and  C19_33 
REMARK    8  A    between atoms: C19_33  and  C20_34 
REMARK    9  A    between atoms: C23_39  and  O5_40 
REMARK   10  A    between atoms: C24_42  and  C25_43 
REMARK   11  A    between atoms: C25_43  and  C26_44 
ROOT
HETATM    1  N1  UNL     1      15.264  66.499  25.630  1.00  0.00    -0.217 NA
HETATM    2  N2  UNL     1      16.033  67.472  24.991  1.00  0.00    -0.287 N 
ATOM      3  H2  UNL     1      15.648  68.416  24.980  1.00  0.00     0.184 HD
HETATM    4  C3  UNL     1      17.283  67.301  24.360  1.00  0.00     0.255 C 
HETATM    5  O1  UNL     1      18.135  68.269  24.357  1.00  0.00    -0.270 OA
HETATM    6  C4  UNL     1      17.797  66.111  23.657  1.00  0.00     0.178 C 
HETATM    7  N3  UNL     1      16.757  65.312  23.052  1.00  0.00    -0.346 N 
ATOM      8  H3  UNL     1      15.988  65.011  23.652  1.00  0.00     0.163 HD
HETATM    9  C9  UNL     1      16.717  64.916  21.714  1.00  0.00     0.236 C 
HETATM   10  O2  UNL     1      16.028  63.871  21.431  1.00  0.00    -0.272 OA
HETATM   11  C10 UNL     1      17.386  65.569  20.570  1.00  0.00     0.225 C 
HETATM   12  N4  UNL     1      17.210  66.970  20.432  1.00  0.00    -0.351 N 
ATOM     13  H4  UNL     1      18.070  67.472  20.215  1.00  0.00     0.163 HD
HETATM   14  C11 UNL     1      16.097  67.789  20.536  1.00  0.00     0.240 C 
HETATM   15  O3  UNL     1      16.256  68.838  21.260  1.00  0.00    -0.271 OA
HETATM   16  C12 UNL     1      14.737  67.602  19.904  1.00  0.00     0.175 C 
HETATM   17  N5  UNL     1      13.844  66.804  20.659  1.00  0.00    -0.359 N 
ATOM     18  H5  UNL     1      14.009  65.804  20.539  1.00  0.00     0.162 HD
HETATM   19  C17 UNL     1      12.791  67.076  21.530  1.00  0.00     0.135 C 
HETATM   20  C18 UNL     1      12.517  68.154  22.468  1.00  0.00     0.158 C 
HETATM   21  N6  UNL     1      13.437  68.359  23.554  1.00  0.00    -0.361 N 
ATOM     22  H6  UNL     1      14.243  68.910  23.260  1.00  0.00     0.162 HD
HETATM   23  C23 UNL     1      13.524  68.009  24.896  1.00  0.00     0.132 C 
HETATM   24  C24 UNL     1      13.821  66.734  25.593  1.00  0.00     0.154 C 
ENDROOT
BRANCH   6  25
HETATM   25  C5  UNL     1      18.556  65.272  24.661  1.00  0.00     0.038 C 
BRANCH  25  26
HETATM   26  C6  UNL     1      17.890  63.995  25.041  1.00  0.00    -0.020 C 
HETATM   27  C7  UNL     1      18.803  62.871  24.517  1.00  0.00     0.009 C 
HETATM   28  C8  UNL     1      17.890  63.797  26.558  1.00  0.00     0.009 C 
ENDBRANCH  25  26
ENDBRANCH   6  25
BRANCH   1  29
HETATM   29  C2  UNL     1      15.673  66.417  27.035  1.00  0.00     0.110 C 
HETATM   30  C1  UNL     1      16.021  67.775  27.558  1.00  0.00     0.023 C 
ENDBRANCH   1  29
BRANCH  24  31
HETATM   31  C25 UNL     1      13.191  65.505  25.063  1.00  0.00     0.034 C 
BRANCH  31  32
HETATM   32  C26 UNL     1      12.517  64.595  26.028  1.00  0.00    -0.021 C 
HETATM   33  C27 UNL     1      12.146  65.291  27.323  1.00  0.00     0.009 C 
HETATM   34  C28 UNL     1      13.450  63.437  26.431  1.00  0.00     0.009 C 
ENDBRANCH  31  32
ENDBRANCH  24  31
BRANCH  23  35
HETATM   35  O5  UNL     1      13.314  68.967  25.796  1.00  0.00    -0.348 OA
ATOM     36  H5  UNL     1      13.831  68.941  26.593  1.00  0.00     0.219 HD
ENDBRANCH  23  35
BRANCH  16  37
HETATM   37  C13 UNL     1      14.915  67.283  18.460  1.00  0.00     0.038 C 
BRANCH  37  38
HETATM   38  C14 UNL     1      14.528  68.218  17.416  1.00  0.00    -0.020 C 
HETATM   39  C15 UNL     1      12.982  68.251  17.284  1.00  0.00     0.009 C 
HETATM   40  C16 UNL     1      14.875  69.669  17.683  1.00  0.00     0.009 C 
ENDBRANCH  37  38
ENDBRANCH  16  37
BRANCH  20  41
HETATM   41  C19 UNL     1      12.186  69.517  21.898  1.00  0.00     0.037 C 
BRANCH  41  42
HETATM   42  C20 UNL     1      11.599  69.613  20.561  1.00  0.00    -0.020 C 
HETATM   43  C21 UNL     1      11.987  70.830  19.795  1.00  0.00     0.009 C 
HETATM   44  C22 UNL     1      10.059  69.645  20.725  1.00  0.00     0.009 C 
ENDBRANCH  41  42
ENDBRANCH  20  41
BRANCH  19  45
HETATM   45  O4  UNL     1      11.852  66.158  21.490  1.00  0.00    -0.348 OA
ATOM     46  H4  UNL     1      11.619  65.836  22.353  1.00  0.00     0.219 HD
ENDBRANCH  19  45
TORSDOF 11
ENDMDL
MODEL 2
REMARK VINA RESULT: -6.253024251      1.961      6.602
REMARK  11 active torsions:
REMARK  status: ('A' for Active; 'I' for Inactive)
REMARK    1  A    between atoms: C2_2  and  N1_3 
REMARK    2  A    between atoms: C4_8  and  C5_9 
REMARK    3  A    between atoms: C5_9  and  C6_10 
REMARK    4  A    between atoms: C12_22  and  C13_23 
REMARK    5  A    between atoms: C13_23  and  C14_24 
REMARK    6  A    between atoms: C17_29  and  O4_30 
REMARK    7  A    between atoms: C18_32  and  C19_33 
REMARK    8  A    between atoms: C19_33  and  C20_34 
REMARK    9  A    between atoms: C23_39  and  O5_40 
REMARK   10  A    between atoms: C24_42  and  C25_43 
REMARK   11  A    between atoms: C25_43  and  C26_44 
ROOT
HETATM    1  N1  UNL     1      13.899  67.990  19.238  1.00  0.00    -0.217 NA
HETATM    2  N2  UNL     1      14.021  66.627  19.510  1.00  0.00    -0.287 N 
ATOM      3  H2  UNL     1      13.155  66.129  19.715  1.00  0.00     0.184 HD
HETATM    4  C3  UNL     1      15.202  65.858  19.532  1.00  0.00     0.255 C 
HETATM    5  O1  UNL     1      15.162  64.614  19.194  1.00  0.00    -0.270 OA
HETATM    6  C4  UNL     1      16.563  66.283  19.907  1.00  0.00     0.178 C 
HETATM    7  N3  UNL     1      16.580  67.353  20.879  1.00  0.00    -0.346 N 
ATOM      8  H3  UNL     1      16.040  68.191  20.663  1.00  0.00     0.163 HD
HETATM    9  C9  UNL     1      17.274  67.334  22.089  1.00  0.00     0.236 C 
HETATM   10  O2  UNL     1      17.576  68.467  22.612  1.00  0.00    -0.272 OA
HETATM   11  C10 UNL     1      17.709  66.144  22.850  1.00  0.00     0.225 C 
HETATM   12  N4  UNL     1      16.736  65.140  23.092  1.00  0.00    -0.351 N 
ATOM     13  H4  UNL     1      17.076  64.193  22.931  1.00  0.00     0.163 HD
HETATM   14  C11 UNL     1      15.416  65.197  23.506  1.00  0.00     0.240 C 
HETATM   15  O3  UNL     1      14.596  64.487  22.816  1.00  0.00    -0.271 OA
HETATM   16  C12 UNL     1      14.829  65.979  24.658  1.00  0.00     0.175 C 
HETATM   17  N5  UNL     1      14.471  67.311  24.340  1.00  0.00    -0.359 N 
ATOM     18  H5  UNL     1      15.268  67.948  24.347  1.00  0.00     0.162 HD
HETATM   19  C17 UNL     1      13.274  67.949  24.020  1.00  0.00     0.135 C 
HETATM   20  C18 UNL     1      12.066  67.528  23.326  1.00  0.00     0.158 C 
HETATM   21  N6  UNL     1      12.182  67.109  21.956  1.00  0.00    -0.361 N 
ATOM     22  H6  UNL     1      12.479  66.136  21.888  1.00  0.00     0.162 HD
HETATM   23  C23 UNL     1      11.998  67.672  20.699  1.00  0.00     0.132 C 
HETATM   24  C24 UNL     1      12.777  68.652  19.904  1.00  0.00     0.154 C 
ENDROOT
BRANCH   6  25
HETATM   25  C5  UNL     1      17.270  66.737  18.649  1.00  0.00     0.038 C 
BRANCH  25  26
HETATM   26  C6  UNL     1      18.439  67.632  18.876  1.00  0.00    -0.020 C 
HETATM   27  C7  UNL     1      19.646  66.917  18.242  1.00  0.00     0.009 C 
HETATM   28  C8  UNL     1      18.312  68.929  18.073  1.00  0.00     0.009 C 
ENDBRANCH  25  26
ENDBRANCH   6  25
BRANCH   1  29
HETATM   29  C2  UNL     1      13.740  68.174  17.793  1.00  0.00     0.110 C 
HETATM   30  C1  UNL     1      14.733  69.168  17.280  1.00  0.00     0.023 C 
ENDBRANCH   1  29
BRANCH  24  31
HETATM   31  C25 UNL     1      13.323  69.827  20.618  1.00  0.00     0.034 C 
BRANCH  31  32
HETATM   32  C26 UNL     1      12.506  71.070  20.640  1.00  0.00    -0.021 C 
HETATM   33  C27 UNL     1      11.747  71.245  21.941  1.00  0.00     0.009 C 
HETATM   34  C28 UNL     1      11.435  71.041  19.534  1.00  0.00     0.009 C 
ENDBRANCH  31  32
ENDBRANCH  24  31
BRANCH  23  35
HETATM   35  O5  UNL     1      10.925  67.295  20.007  1.00  0.00    -0.348 OA
ATOM     36  H5  UNL     1      11.052  66.663  19.309  1.00  0.00     0.219 HD
ENDBRANCH  23  35
BRANCH  16  37
HETATM   37  C13 UNL     1      15.660  65.745  25.872  1.00  0.00     0.038 C 
BRANCH  37  38
HETATM   38  C14 UNL     1      15.356  64.681  26.815  1.00  0.00    -0.020 C 
HETATM   39  C15 UNL     1      13.908  64.169  26.585  1.00  0.00     0.009 C 
HETATM   40  C16 UNL     1      16.186  63.422  26.662  1.00  0.00     0.009 C 
ENDBRANCH  37  38
ENDBRANCH  16  37
BRANCH  20  41
HETATM   41  C19 UNL     1      11.163  66.533  24.024  1.00  0.00     0.037 C 
BRANCH  41  42
HETATM   42  C20 UNL     1      10.555  66.891  25.306  1.00  0.00    -0.020 C 
HETATM   43  C21 UNL     1      10.535  65.796  26.316  1.00  0.00     0.009 C 
HETATM   44  C22 UNL     1       9.083  67.290  25.033  1.00  0.00     0.009 C 
ENDBRANCH  41  42
ENDBRANCH  20  41
BRANCH  19  45
HETATM   45  O4  UNL     1      13.238  69.195  24.435  1.00  0.00    -0.348 OA
ATOM     46  H4  UNL     1      12.743  69.298  25.240  1.00  0.00     0.219 HD
ENDBRANCH  19  45
TORSDOF 11
ENDMDL
MODEL 3
REMARK VINA RESULT: -6.200620786      1.741      7.772
REMARK  11 active torsions:
REMARK  status: ('A' for Active; 'I' for Inactive)
REMARK    1  A    between atoms: C2_2  and  N1_3 
REMARK    2  A    between atoms: C4_8  and  C5_9 
REMARK    3  A    between atoms: C5_9  and  C6_10 
REMARK    4  A    between atoms: C12_22  and  C13_23 
REMARK    5  A    between atoms: C13_23  and  C14_24 
REMARK    6  A    between atoms: C17_29  and  O4_30 
REMARK    7  A    between atoms: C18_32  and  C19_33 
REMARK    8  A    between atoms: C19_33  and  C20_34 
REMARK    9  A    between atoms: C23_39  and  O5_40 
REMARK   10  A    between atoms: C24_42  and  C25_43 
REMARK   11  A    between atoms: C25_43  and  C26_44 
ROOT
HETATM    1  N1  UNL     1      15.126  68.206  21.203  1.00  0.00    -0.217 NA
HETATM    2  N2  UNL     1      14.902  68.819  22.436  1.00  0.00    -0.287 N 
ATOM      3  H2  UNL     1      15.691  68.831  23.083  1.00  0.00     0.184 HD
HETATM    4  C3  UNL     1      13.713  69.423  22.892  1.00  0.00     0.255 C 
HETATM    5  O1  UNL     1      13.774  70.424  23.702  1.00  0.00    -0.270 OA
HETATM    6  C4  UNL     1      12.321  69.063  22.564  1.00  0.00     0.178 C 
HETATM    7  N3  UNL     1      12.150  67.660  22.264  1.00  0.00    -0.346 N 
ATOM      8  H3  UNL     1      12.752  67.258  21.546  1.00  0.00     0.163 HD
HETATM    9  C9  UNL     1      11.227  66.809  22.874  1.00  0.00     0.236 C 
HETATM   10  O2  UNL     1      10.869  65.764  22.221  1.00  0.00    -0.272 OA
HETATM   11  C10 UNL     1      10.604  66.975  24.204  1.00  0.00     0.225 C 
HETATM   12  N4  UNL     1      11.471  67.244  25.294  1.00  0.00    -0.351 N 
ATOM     13  H4  UNL     1      11.136  67.983  25.912  1.00  0.00     0.163 HD
HETATM   14  C11 UNL     1      12.683  66.699  25.683  1.00  0.00     0.240 C 
HETATM   15  O3  UNL     1      13.597  67.553  25.977  1.00  0.00    -0.271 OA
HETATM   16  C12 UNL     1      13.056  65.240  25.807  1.00  0.00     0.175 C 
HETATM   17  N5  UNL     1      13.520  64.649  24.607  1.00  0.00    -0.359 N 
ATOM     18  H5  UNL     1      12.762  64.376  23.981  1.00  0.00     0.162 HD
HETATM   19  C17 UNL     1      14.780  64.357  24.087  1.00  0.00     0.135 C 
HETATM   20  C18 UNL     1      16.085  64.988  24.205  1.00  0.00     0.158 C 
HETATM   21  N6  UNL     1      16.231  66.339  23.733  1.00  0.00    -0.361 N 
ATOM     22  H6  UNL     1      15.917  67.013  24.432  1.00  0.00     0.162 HD
HETATM   23  C23 UNL     1      16.684  66.974  22.584  1.00  0.00     0.132 C 
HETATM   24  C24 UNL     1      16.116  67.129  21.222  1.00  0.00     0.154 C 
ENDROOT
BRANCH   6  25
HETATM   25  C5  UNL     1      11.897  69.888  21.369  1.00  0.00     0.038 C 
BRANCH  25  26
HETATM   26  C6  UNL     1      10.703  69.373  20.645  1.00  0.00    -0.020 C 
HETATM   27  C7  UNL     1       9.819  70.602  20.362  1.00  0.00     0.009 C 
HETATM   28  C8  UNL     1      11.075  68.855  19.253  1.00  0.00     0.009 C 
ENDBRANCH  25  26
ENDBRANCH   6  25
BRANCH   1  29
HETATM   29  C2  UNL     1      15.578  69.219  20.245  1.00  0.00     0.110 C 
HETATM   30  C1  UNL     1      14.634  69.304  19.089  1.00  0.00     0.023 C 
ENDBRANCH   1  29
BRANCH  24  31
HETATM   31  C25 UNL     1      15.482  65.942  20.609  1.00  0.00     0.034 C 
BRANCH  31  32
HETATM   32  C26 UNL     1      15.916  65.548  19.241  1.00  0.00    -0.021 C 
HETATM   33  C27 UNL     1      17.161  66.287  18.790  1.00  0.00     0.009 C 
HETATM   34  C28 UNL     1      14.831  65.890  18.203  1.00  0.00     0.009 C 
ENDBRANCH  31  32
ENDBRANCH  24  31
BRANCH  23  35
HETATM   35  O5  UNL     1      17.858  67.596  22.646  1.00  0.00    -0.348 OA
ATOM     36  H5  UNL     1      18.626  67.068  22.829  1.00  0.00     0.219 HD
ENDBRANCH  23  35
BRANCH  16  37
HETATM   37  C13 UNL     1      11.991  64.533  26.572  1.00  0.00     0.038 C 
BRANCH  37  38
HETATM   38  C14 UNL     1      12.305  63.496  27.542  1.00  0.00    -0.020 C 
HETATM   39  C15 UNL     1      11.267  62.346  27.438  1.00  0.00     0.009 C 
HETATM   40  C16 UNL     1      13.623  62.780  27.322  1.00  0.00     0.009 C 
ENDBRANCH  37  38
ENDBRANCH  16  37
BRANCH  20  41
HETATM   41  C19 UNL     1      16.793  64.902  25.541  1.00  0.00     0.037 C 
BRANCH  41  42
HETATM   42  C20 UNL     1      17.881  63.939  25.715  1.00  0.00    -0.020 C 
HETATM   43  C21 UNL     1      18.611  63.589  24.464  1.00  0.00     0.009 C 
HETATM   44  C22 UNL     1      17.266  62.629  26.269  1.00  0.00     0.009 C 
ENDBRANCH  41  42
ENDBRANCH  20  41
BRANCH  19  45
HETATM   45  O4  UNL     1      14.777  63.282  23.331  1.00  0.00    -0.348 OA
ATOM     46  H4  UNL     1      14.112  63.314  22.654  1.00  0.00     0.219 HD
ENDBRANCH  19  45
TORSDOF 11
ENDMDL
MODEL 4
REMARK VINA RESULT: -6.185217358      1.614      6.844
REMARK  11 active torsions:
REMARK  status: ('A' for Active; 'I' for Inactive)
REMARK    1  A    between atoms: C2_2  and  N1_3 
REMARK    2  A    between atoms: C4_8  and  C5_9 
REMARK    3  A    between atoms: C5_9  and  C6_10 
REMARK    4  A    between atoms: C12_22  and  C13_23 
REMARK    5  A    between atoms: C13_23  and  C14_24 
REMARK    6  A    between atoms: C17_29  and  O4_30 
REMARK    7  A    between atoms: C18_32  and  C19_33 
REMARK    8  A    between atoms: C19_33  and  C20_34 
REMARK    9  A    between atoms: C23_39  and  O5_40 
REMARK   10  A    between atoms: C24_42  and  C25_43 
REMARK   11  A    between atoms: C25_43  and  C26_44 
ROOT
HETATM    1  N1  UNL     1      12.179  68.191  20.568  1.00  0.00    -0.217 NA
HETATM    2  N2  UNL     1      12.890  67.091  20.089  1.00  0.00    -0.287 N 
ATOM      3  H2  UNL     1      12.518  66.173  20.333  1.00  0.00     0.184 HD
HETATM    4  C3  UNL     1      14.062  67.100  19.306  1.00  0.00     0.255 C 
HETATM    5  O1  UNL     1      14.271  66.152  18.457  1.00  0.00    -0.270 OA
HETATM    6  C4  UNL     1      15.156  68.089  19.309  1.00  0.00     0.178 C 
HETATM    7  N3  UNL     1      15.340  68.733  20.589  1.00  0.00    -0.346 N 
ATOM      8  H3  UNL     1      14.523  69.171  21.014  1.00  0.00     0.163 HD
HETATM    9  C9  UNL     1      16.543  68.806  21.291  1.00  0.00     0.236 C 
HETATM   10  O2  UNL     1      16.673  69.761  22.139  1.00  0.00    -0.272 OA
HETATM   11  C10 UNL     1      17.704  67.899  21.170  1.00  0.00     0.225 C 
HETATM   12  N4  UNL     1      17.445  66.506  21.241  1.00  0.00    -0.351 N 
ATOM     13  H4  UNL     1      17.938  65.960  20.535  1.00  0.00     0.163 HD
HETATM   14  C11 UNL     1      16.653  65.742  22.083  1.00  0.00     0.240 C 
HETATM   15  O3  UNL     1      15.894  64.890  21.494  1.00  0.00    -0.271 OA
HETATM   16  C12 UNL     1      16.579  65.787  23.591  1.00  0.00     0.175 C 
HETATM   17  N5  UNL     1      15.673  66.746  24.106  1.00  0.00    -0.359 N 
ATOM     18  H5  UNL     1      16.063  67.688  24.123  1.00  0.00     0.162 HD
HETATM   19  C17 UNL     1      14.369  66.692  24.595  1.00  0.00     0.135 C 
HETATM   20  C18 UNL     1      13.214  65.865  24.283  1.00  0.00     0.158 C 
HETATM   21  N6  UNL     1      12.686  65.912  22.946  1.00  0.00    -0.361 N 
ATOM     22  H6  UNL     1      13.208  65.301  22.318  1.00  0.00     0.162 HD
HETATM   23  C23 UNL     1      11.657  66.564  22.280  1.00  0.00     0.132 C 
HETATM   24  C24 UNL     1      11.470  67.965  21.827  1.00  0.00     0.154 C 
ENDROOT
BRANCH   6  25
HETATM   25  C5  UNL     1      14.839  69.134  18.261  1.00  0.00     0.038 C 
BRANCH  25  26
HETATM   26  C6  UNL     1      16.014  69.621  17.487  1.00  0.00    -0.020 C 
HETATM   27  C7  UNL     1      16.383  70.986  18.096  1.00  0.00     0.009 C 
HETATM   28  C8  UNL     1      17.250  68.754  17.744  1.00  0.00     0.009 C 
ENDBRANCH  25  26
ENDBRANCH   6  25
BRANCH   1  29
HETATM   29  C2  UNL     1      11.194  68.595  19.561  1.00  0.00     0.110 C 
HETATM   30  C1  UNL     1      11.402  70.024  19.170  1.00  0.00     0.023 C 
ENDBRANCH   1  29
BRANCH  24  31
HETATM   31  C25 UNL     1      11.876  69.041  22.758  1.00  0.00     0.034 C 
BRANCH  31  32
HETATM   32  C26 UNL     1      10.841  70.020  23.186  1.00  0.00    -0.021 C 
HETATM   33  C27 UNL     1       9.453  69.650  22.699  1.00  0.00     0.009 C 
HETATM   34  C28 UNL     1      11.129  71.414  22.598  1.00  0.00     0.009 C 
ENDBRANCH  31  32
ENDBRANCH  24  31
BRANCH  23  35
HETATM   35  O5  UNL     1      10.589  65.845  21.941  1.00  0.00    -0.348 OA
ATOM     36  H5  UNL     1       9.839  66.310  21.590  1.00  0.00     0.219 HD
ENDBRANCH  23  35
BRANCH  16  37
HETATM   37  C13 UNL     1      17.962  65.759  24.144  1.00  0.00     0.038 C 
BRANCH  37  38
HETATM   38  C14 UNL     1      18.392  64.732  25.080  1.00  0.00    -0.020 C 
HETATM   39  C15 UNL     1      18.530  63.372  24.344  1.00  0.00     0.009 C 
HETATM   40  C16 UNL     1      19.773  64.934  25.674  1.00  0.00     0.009 C 
ENDBRANCH  37  38
ENDBRANCH  16  37
BRANCH  20  41
HETATM   41  C19 UNL     1      13.257  64.409  24.696  1.00  0.00     0.037 C 
BRANCH  41  42
HETATM   42  C20 UNL     1      13.972  64.030  25.915  1.00  0.00    -0.020 C 
HETATM   43  C21 UNL     1      15.067  63.039  25.715  1.00  0.00     0.009 C 
HETATM   44  C22 UNL     1      12.946  63.389  26.883  1.00  0.00     0.009 C 
ENDBRANCH  41  42
ENDBRANCH  20  41
BRANCH  19  45
HETATM   45  O4  UNL     1      14.145  67.583  25.534  1.00  0.00    -0.348 OA
ATOM     46  H4  UNL     1      14.075  67.193  26.398  1.00  0.00     0.219 HD
ENDBRANCH  19  45
TORSDOF 11
ENDMDL
MODEL 5
REMARK VINA RESULT: -6.000141255      2.325      7.862
REMARK  11 active torsions:
REMARK  status: ('A' for Active; 'I' for Inactive)
REMARK    1  A    between atoms: C2_2  and  N1_3 
REMARK    2  A    between atoms: C4_8  and  C5_9 
REMARK    3  A    between atoms: C5_9  and  C6_10 
REMARK    4  A    between atoms: C12_22  and  C13_23 
REMARK    5  A    between atoms: C13_23  and  C14_24 
REMARK    6  A    between atoms: C17_29  and  O4_30 
REMARK    7  A    between atoms: C18_32  and  C19_33 
REMARK    8  A    between atoms: C19_33  and  C20_34 
REMARK    9  A    between atoms: C23_39  and  O5_40 
REMARK   10  A    between atoms: C24_42  and  C25_43 
REMARK   11  A    between atoms: C25_43  and  C26_44 
ROOT
HETATM    1  N1  UNL     1      16.770  67.220  23.192  1.00  0.00    -0.217 NA
HETATM    2  N2  UNL     1      16.594  67.459  24.555  1.00  0.00    -0.287 N 
ATOM      3  H2  UNL     1      17.289  67.048  25.179  1.00  0.00     0.184 HD
HETATM    4  C3  UNL     1      15.568  68.204  25.171  1.00  0.00     0.255 C 
HETATM    5  O1  UNL     1      15.809  68.847  26.262  1.00  0.00    -0.270 OA
HETATM    6  C4  UNL     1      14.169  68.371  24.731  1.00  0.00     0.178 C 
HETATM    7  N3  UNL     1      13.664  67.238  23.990  1.00  0.00    -0.346 N 
ATOM      8  H3  UNL     1      14.208  66.924  23.187  1.00  0.00     0.163 HD
HETATM    9  C9  UNL     1      12.494  66.538  24.284  1.00  0.00     0.236 C 
HETATM   10  O2  UNL     1      11.939  65.891  23.324  1.00  0.00    -0.272 OA
HETATM   11  C10 UNL     1      11.807  66.454  25.589  1.00  0.00     0.225 C 
HETATM   12  N4  UNL     1      12.600  66.118  26.716  1.00  0.00    -0.351 N 
ATOM     13  H4  UNL     1      12.412  66.694  27.537  1.00  0.00     0.163 HD
HETATM   14  C11 UNL     1      13.580  65.161  26.920  1.00  0.00     0.240 C 
HETATM   15  O3  UNL     1      14.653  65.588  27.483  1.00  0.00    -0.271 OA
HETATM   16  C12 UNL     1      13.539  63.692  26.567  1.00  0.00     0.175 C 
HETATM   17  N5  UNL     1      13.948  63.394  25.245  1.00  0.00    -0.359 N 
ATOM     18  H5  UNL     1      13.211  63.553  24.558  1.00  0.00     0.162 HD
HETATM   19  C17 UNL     1      15.131  62.932  24.671  1.00  0.00     0.135 C 
HETATM   20  C18 UNL     1      16.538  63.101  24.999  1.00  0.00     0.158 C 
HETATM   21  N6  UNL     1      17.083  64.432  24.992  1.00  0.00    -0.361 N 
ATOM     22  H6  UNL     1      16.890  64.917  25.868  1.00  0.00     0.162 HD
HETATM   23  C23 UNL     1      17.800  65.235  24.114  1.00  0.00     0.132 C 
HETATM   24  C24 UNL     1      17.433  65.956  22.871  1.00  0.00     0.154 C 
ENDROOT
BRANCH   6  25
HETATM   25  C5  UNL     1      14.101  69.609  23.863  1.00  0.00     0.038 C 
BRANCH  25  26
HETATM   26  C6  UNL     1      13.008  69.605  22.853  1.00  0.00    -0.020 C 
HETATM   27  C7  UNL     1      11.813  70.308  23.523  1.00  0.00     0.009 C 
HETATM   28  C8  UNL     1      13.346  70.504  21.661  1.00  0.00     0.009 C 
ENDBRANCH  25  26
ENDBRANCH   6  25
BRANCH   1  29
HETATM   29  C2  UNL     1      17.568  68.307  22.619  1.00  0.00     0.110 C 
HETATM   30  C1  UNL     1      16.801  69.006  21.541  1.00  0.00     0.023 C 
ENDBRANCH   1  29
BRANCH  24  31
HETATM   31  C25 UNL     1      16.572  65.245  21.900  1.00  0.00     0.034 C 
BRANCH  31  32
HETATM   32  C26 UNL     1      16.738  65.566  20.457  1.00  0.00    -0.021 C 
HETATM   33  C27 UNL     1      15.428  65.927  19.786  1.00  0.00     0.009 C 
HETATM   34  C28 UNL     1      17.279  64.347  19.684  1.00  0.00     0.009 C 
ENDBRANCH  31  32
ENDBRANCH  24  31
BRANCH  23  35
HETATM   35  O5  UNL     1      19.085  65.449  24.386  1.00  0.00    -0.348 OA
ATOM     36  H5  UNL     1      19.665  65.630  23.656  1.00  0.00     0.219 HD
ENDBRANCH  23  35
BRANCH  16  37
HETATM   37  C13 UNL     1      12.254  63.115  27.052  1.00  0.00     0.038 C 
BRANCH  37  38
HETATM   38  C14 UNL     1      12.204  61.852  27.771  1.00  0.00    -0.020 C 
HETATM   39  C15 UNL     1      12.544  62.084  29.268  1.00  0.00     0.009 C 
HETATM   40  C16 UNL     1      10.839  61.195  27.834  1.00  0.00     0.009 C 
ENDBRANCH  37  38
ENDBRANCH  16  37
BRANCH  20  41
HETATM   41  C19 UNL     1      17.061  62.410  26.242  1.00  0.00     0.037 C 
BRANCH  41  42
HETATM   42  C20 UNL     1      18.313  61.657  26.171  1.00  0.00    -0.020 C 
HETATM   43  C21 UNL     1      19.532  62.438  26.526  1.00  0.00     0.009 C 
HETATM   44  C22 UNL     1      18.489  61.172  24.710  1.00  0.00     0.009 C 
ENDBRANCH  41  42
ENDBRANCH  20  41
BRANCH  19  45
HETATM   45  O4  UNL     1      14.921  62.190  23.608  1.00  0.00    -0.348 OA
ATOM     46  H4  UNL     1      15.149  61.278  23.748  1.00  0.00     0.219 HD
ENDBRANCH  19  45
TORSDOF 11
ENDMDL
