MODEL 1
REMARK VINA RESULT: -8.562572606      0.000      0.000
REMARK  9 active torsions:
REMARK  status: ('A' for Active; 'I' for Inactive)
REMARK    1  A    between atoms: C1_2  and  C2_4 
REMARK    2  A    between atoms: C2_4  and  C3_5 
REMARK    3  A    between atoms: C3_5  and  N1_6 
REMARK    4  A    between atoms: C3_5  and  C17_25 
REMARK       I    between atoms: N1_6  and  C4_8 
REMARK    5  A    between atoms: C4_8  and  C5_10 
REMARK    6  A    between atoms: C5_10  and  N2_11 
REMARK       I    between atoms: N2_11  and  C6_13 
REMARK    7  A    between atoms: C6_13  and  C7_15 
REMARK       I    between atoms: C17_25  and  N3_27 
REMARK    8  A    between atoms: N3_27  and  C18_29 
REMARK    9  A    between atoms: C18_29  and  C19_30 
ROOT
HETATM    1  N1  UNL     1      17.383  62.379  25.648  1.00  0.00    -0.346 N 
ATOM      2  H1  UNL     1      16.599  61.803  25.955  1.00  0.00     0.163 HD
HETATM    3  C4  UNL     1      17.836  63.459  26.420  1.00  0.00     0.236 C 
HETATM    4  O3  UNL     1      18.807  64.145  26.023  1.00  0.00    -0.272 OA
ENDROOT
BRANCH   1   5
HETATM    5  C3  UNL     1      18.090  62.099  24.358  1.00  0.00     0.186 C 
BRANCH   5   6
HETATM    6  C2  UNL     1      17.956  60.647  24.139  1.00  0.00     0.147 C 
BRANCH   6   7
HETATM    7  C1  UNL     1      18.952  59.770  24.732  1.00  0.00     0.175 C 
HETATM    8  O1  UNL     1      19.541  58.864  24.089  1.00  0.00    -0.648 OA
HETATM    9  O2  UNL     1      19.299  59.907  26.064  1.00  0.00    -0.648 OA
ENDBRANCH   6   7
ENDBRANCH   5   6
BRANCH   5  10
HETATM   10  C17 UNL     1      17.374  62.992  23.411  1.00  0.00     0.242 C 
HETATM   11  O5  UNL     1      16.225  62.543  23.026  1.00  0.00    -0.271 OA
HETATM   12  N3  UNL     1      17.757  64.209  22.889  1.00  0.00    -0.339 N 
ATOM     13  H3  UNL     1      18.665  64.575  23.177  1.00  0.00     0.164 HD
BRANCH  12  14
HETATM   14  C18 UNL     1      16.987  65.008  21.974  1.00  0.00     0.136 A 
HETATM   15  C20 UNL     1      15.785  65.758  22.345  1.00  0.00     0.062 A 
HETATM   16  C21 UNL     1      17.028  66.537  22.123  1.00  0.00     0.100 A 
HETATM   17 BR1  UNL     1      17.207  67.571  20.488  1.00  0.00    -0.088 Br
BRANCH  14  18
HETATM   18  C19 UNL     1      17.005  64.558  20.515  1.00  0.00     0.203 C 
HETATM   19  O6  UNL     1      18.078  64.121  20.085  1.00  0.00    -0.646 OA
HETATM   20  O7  UNL     1      15.889  64.637  19.736  1.00  0.00    -0.646 OA
ENDBRANCH  14  18
ENDBRANCH  12  14
ENDBRANCH   5  10
ENDBRANCH   1   5
BRANCH   3  21
HETATM   21  C5  UNL     1      17.162  63.783  27.703  1.00  0.00     0.225 C 
BRANCH  21  22
HETATM   22  N2  UNL     1      15.750  63.499  27.639  1.00  0.00    -0.352 N 
HETATM   23  C6  UNL     1      14.982  63.471  28.826  1.00  0.00     0.226 C 
HETATM   24  O4  UNL     1      15.541  63.687  29.916  1.00  0.00    -0.273 OA
ATOM     25  H2  UNL     1      15.307  63.319  26.739  1.00  0.00     0.162 HD
BRANCH  23  26
HETATM   26  C7  UNL     1      13.521  63.195  28.808  1.00  0.00     0.042 C 
HETATM   27  C8  UNL     1      13.221  62.126  29.822  1.00  0.00     0.024 C 
HETATM   28  C9  UNL     1      11.738  61.790  29.789  1.00  0.00    -0.013 C 
HETATM   29  C10 UNL     1      11.397  61.345  28.395  1.00  0.00     0.009 C 
HETATM   30  C14 UNL     1      11.000  63.055  30.183  1.00  0.00     0.009 C 
HETATM   31  C11 UNL     1      11.624  62.475  27.418  1.00  0.00    -0.013 C 
HETATM   32  C12 UNL     1      10.899  63.737  27.789  1.00  0.00     0.009 C 
HETATM   33  C16 UNL     1      13.096  62.782  27.422  1.00  0.00     0.024 C 
HETATM   34  C13 UNL     1      11.289  64.138  29.197  1.00  0.00    -0.013 C 
HETATM   35  C15 UNL     1      12.782  64.437  29.188  1.00  0.00     0.024 C 
ENDBRANCH  23  26
ENDBRANCH  21  22
ENDBRANCH   3  21
TORSDOF 9
ENDMDL
MODEL 2
REMARK VINA RESULT: -8.561961113      0.042      1.316
REMARK  9 active torsions:
REMARK  status: ('A' for Active; 'I' for Inactive)
REMARK    1  A    between atoms: C1_2  and  C2_4 
REMARK    2  A    between atoms: C2_4  and  C3_5 
REMARK    3  A    between atoms: C3_5  and  N1_6 
REMARK    4  A    between atoms: C3_5  and  C17_25 
REMARK       I    between atoms: N1_6  and  C4_8 
REMARK    5  A    between atoms: C4_8  and  C5_10 
REMARK    6  A    between atoms: C5_10  and  N2_11 
REMARK       I    between atoms: N2_11  and  C6_13 
REMARK    7  A    between atoms: C6_13  and  C7_15 
REMARK       I    between atoms: C17_25  and  N3_27 
REMARK    8  A    between atoms: N3_27  and  C18_29 
REMARK    9  A    between atoms: C18_29  and  C19_30 
ROOT
HETATM    1  N1  UNL     1      17.382  62.402  25.638  1.00  0.00    -0.346 N 
ATOM      2  H1  UNL     1      16.601  61.824  25.949  1.00  0.00     0.163 HD
HETATM    3  C4  UNL     1      17.830  63.489  26.403  1.00  0.00     0.236 C 
HETATM    4  O3  UNL     1      18.798  64.177  26.002  1.00  0.00    -0.272 OA
ENDROOT
BRANCH   1   5
HETATM    5  C3  UNL     1      18.091  62.117  24.350  1.00  0.00     0.186 C 
BRANCH   5   6
HETATM    6  C2  UNL     1      17.958  60.663  24.137  1.00  0.00     0.147 C 
BRANCH   6   7
HETATM    7  C1  UNL     1      18.950  59.789  24.739  1.00  0.00     0.175 C 
HETATM    8  O1  UNL     1      19.542  58.880  24.103  1.00  0.00    -0.648 OA
HETATM    9  O2  UNL     1      19.290  59.931  26.072  1.00  0.00    -0.648 OA
ENDBRANCH   6   7
ENDBRANCH   5   6
BRANCH   5  10
HETATM   10  C17 UNL     1      17.376  63.005  23.398  1.00  0.00     0.242 C 
HETATM   11  O5  UNL     1      16.231  62.550  23.009  1.00  0.00    -0.271 OA
HETATM   12  N3  UNL     1      17.756  64.224  22.877  1.00  0.00    -0.339 N 
ATOM     13  H3  UNL     1      18.660  64.594  23.170  1.00  0.00     0.164 HD
BRANCH  12  14
HETATM   14  C18 UNL     1      16.987  65.018  21.957  1.00  0.00     0.136 A 
HETATM   15  C20 UNL     1      15.781  65.766  22.323  1.00  0.00     0.062 A 
HETATM   16  C21 UNL     1      17.023  66.547  22.103  1.00  0.00     0.100 A 
HETATM   17 BR1  UNL     1      17.205  67.577  20.466  1.00  0.00    -0.088 Br
BRANCH  14  18
HETATM   18  C19 UNL     1      17.010  64.565  20.500  1.00  0.00     0.203 C 
HETATM   19  O6  UNL     1      18.090  64.141  20.071  1.00  0.00    -0.646 OA
HETATM   20  O7  UNL     1      15.893  64.627  19.721  1.00  0.00    -0.646 OA
ENDBRANCH  14  18
ENDBRANCH  12  14
ENDBRANCH   5  10
ENDBRANCH   1   5
BRANCH   3  21
HETATM   21  C5  UNL     1      17.154  63.818  27.684  1.00  0.00     0.225 C 
BRANCH  21  22
HETATM   22  N2  UNL     1      15.751  63.493  27.634  1.00  0.00    -0.352 N 
HETATM   23  C6  UNL     1      14.976  63.531  28.817  1.00  0.00     0.226 C 
HETATM   24  O4  UNL     1      15.522  63.842  29.891  1.00  0.00    -0.273 OA
ATOM     25  H2  UNL     1      15.318  63.235  26.747  1.00  0.00     0.162 HD
BRANCH  23  26
HETATM   26  C7  UNL     1      13.523  63.215  28.812  1.00  0.00     0.042 C 
HETATM   27  C8  UNL     1      12.758  64.464  29.150  1.00  0.00     0.024 C 
HETATM   28  C9  UNL     1      11.269  64.157  29.200  1.00  0.00    -0.013 C 
HETATM   29  C10 UNL     1      11.055  63.078  30.224  1.00  0.00     0.009 C 
HETATM   30  C14 UNL     1      10.876  63.708  27.805  1.00  0.00     0.009 C 
HETATM   31  C11 UNL     1      11.763  61.811  29.802  1.00  0.00    -0.013 C 
HETATM   32  C12 UNL     1      11.385  61.349  28.424  1.00  0.00     0.009 C 
HETATM   33  C16 UNL     1      13.238  62.105  29.790  1.00  0.00     0.024 C 
HETATM   34  C13 UNL     1      11.629  62.473  27.438  1.00  0.00    -0.013 C 
HETATM   35  C15 UNL     1      13.124  62.766  27.444  1.00  0.00     0.024 C 
ENDBRANCH  23  26
ENDBRANCH  21  22
ENDBRANCH   3  21
TORSDOF 9
ENDMDL
MODEL 3
REMARK VINA RESULT: -8.534425282      0.393      1.470
REMARK  9 active torsions:
REMARK  status: ('A' for Active; 'I' for Inactive)
REMARK    1  A    between atoms: C1_2  and  C2_4 
REMARK    2  A    between atoms: C2_4  and  C3_5 
REMARK    3  A    between atoms: C3_5  and  N1_6 
REMARK    4  A    between atoms: C3_5  and  C17_25 
REMARK       I    between atoms: N1_6  and  C4_8 
REMARK    5  A    between atoms: C4_8  and  C5_10 
REMARK    6  A    between atoms: C5_10  and  N2_11 
REMARK       I    between atoms: N2_11  and  C6_13 
REMARK    7  A    between atoms: C6_13  and  C7_15 
REMARK       I    between atoms: C17_25  and  N3_27 
REMARK    8  A    between atoms: N3_27  and  C18_29 
REMARK    9  A    between atoms: C18_29  and  C19_30 
ROOT
HETATM    1  N1  UNL     1      17.654  62.112  25.529  1.00  0.00    -0.346 N 
ATOM      2  H1  UNL     1      16.960  61.466  25.904  1.00  0.00     0.163 HD
HETATM    3  C4  UNL     1      18.068  63.235  26.260  1.00  0.00     0.236 C 
HETATM    4  O3  UNL     1      18.929  64.009  25.780  1.00  0.00    -0.272 OA
ENDROOT
BRANCH   1   5
HETATM    5  C3  UNL     1      18.266  61.894  24.180  1.00  0.00     0.186 C 
BRANCH   5   6
HETATM    6  C2  UNL     1      18.121  60.452  23.908  1.00  0.00     0.147 C 
BRANCH   6   7
HETATM    7  C1  UNL     1      19.054  59.536  24.542  1.00  0.00     0.175 C 
HETATM    8  O1  UNL     1      19.314  59.564  25.773  1.00  0.00    -0.648 OA
HETATM    9  O2  UNL     1      19.707  58.574  23.794  1.00  0.00    -0.648 OA
ENDBRANCH   6   7
ENDBRANCH   5   6
BRANCH   5  10
HETATM   10  C17 UNL     1      17.482  62.823  23.328  1.00  0.00     0.242 C 
HETATM   11  O5  UNL     1      16.305  62.389  23.016  1.00  0.00    -0.271 OA
HETATM   12  N3  UNL     1      17.826  64.061  22.828  1.00  0.00    -0.339 N 
ATOM     13  H3  UNL     1      18.754  64.415  23.060  1.00  0.00     0.164 HD
BRANCH  12  14
HETATM   14  C18 UNL     1      16.990  64.896  22.008  1.00  0.00     0.136 A 
HETATM   15  C20 UNL     1      15.710  65.460  22.443  1.00  0.00     0.062 A 
HETATM   16  C21 UNL     1      16.867  66.385  22.365  1.00  0.00     0.100 A 
HETATM   17 BR1  UNL     1      16.960  67.648  20.891  1.00  0.00    -0.088 Br
BRANCH  14  18
HETATM   18  C19 UNL     1      17.076  64.656  20.503  1.00  0.00     0.203 C 
HETATM   19  O6  UNL     1      18.211  64.557  20.024  1.00  0.00    -0.646 OA
HETATM   20  O7  UNL     1      15.953  64.558  19.736  1.00  0.00    -0.646 OA
ENDBRANCH  14  18
ENDBRANCH  12  14
ENDBRANCH   5  10
ENDBRANCH   1   5
BRANCH   3  21
HETATM   21  C5  UNL     1      17.484  63.501  27.599  1.00  0.00     0.225 C 
BRANCH  21  22
HETATM   22  N2  UNL     1      16.091  63.136  27.644  1.00  0.00    -0.352 N 
HETATM   23  C6  UNL     1      15.228  63.759  28.576  1.00  0.00     0.226 C 
HETATM   24  O4  UNL     1      15.689  64.614  29.353  1.00  0.00    -0.273 OA
ATOM     25  H2  UNL     1      15.728  62.430  27.005  1.00  0.00     0.162 HD
BRANCH  23  26
HETATM   26  C7  UNL     1      13.782  63.423  28.651  1.00  0.00     0.042 C 
HETATM   27  C8  UNL     1      13.343  62.883  27.318  1.00  0.00     0.024 C 
HETATM   28  C9  UNL     1      11.854  62.577  27.353  1.00  0.00    -0.013 C 
HETATM   29  C10 UNL     1      11.131  63.846  27.705  1.00  0.00     0.009 C 
HETATM   30  C14 UNL     1      11.661  61.498  28.401  1.00  0.00     0.009 C 
HETATM   31  C11 UNL     1      11.528  64.305  29.088  1.00  0.00    -0.013 C 
HETATM   32  C12 UNL     1      11.341  63.252  30.142  1.00  0.00     0.009 C 
HETATM   33  C16 UNL     1      12.992  64.645  29.044  1.00  0.00     0.024 C 
HETATM   34  C13 UNL     1      12.098  62.003  29.736  1.00  0.00    -0.013 C 
HETATM   35  C15 UNL     1      13.577  62.364  29.686  1.00  0.00     0.024 C 
ENDBRANCH  23  26
ENDBRANCH  21  22
ENDBRANCH   3  21
TORSDOF 9
ENDMDL
MODEL 4
REMARK VINA RESULT: -7.835008984      1.949      2.967
REMARK  9 active torsions:
REMARK  status: ('A' for Active; 'I' for Inactive)
REMARK    1  A    between atoms: C1_2  and  C2_4 
REMARK    2  A    between atoms: C2_4  and  C3_5 
REMARK    3  A    between atoms: C3_5  and  N1_6 
REMARK    4  A    between atoms: C3_5  and  C17_25 
REMARK       I    between atoms: N1_6  and  C4_8 
REMARK    5  A    between atoms: C4_8  and  C5_10 
REMARK    6  A    between atoms: C5_10  and  N2_11 
REMARK       I    between atoms: N2_11  and  C6_13 
REMARK    7  A    between atoms: C6_13  and  C7_15 
REMARK       I    between atoms: C17_25  and  N3_27 
REMARK    8  A    between atoms: N3_27  and  C18_29 
REMARK    9  A    between atoms: C18_29  and  C19_30 
ROOT
HETATM    1  N1  UNL     1      17.337  63.687  28.601  1.00  0.00    -0.346 N 
ATOM      2  H1  UNL     1      16.792  62.829  28.519  1.00  0.00     0.163 HD
HETATM    3  C4  UNL     1      17.177  64.547  29.697  1.00  0.00     0.236 C 
HETATM    4  O3  UNL     1      17.866  65.591  29.776  1.00  0.00    -0.272 OA
ENDROOT
BRANCH   1   5
HETATM    5  C3  UNL     1      18.335  64.072  27.553  1.00  0.00     0.186 C 
BRANCH   5   6
HETATM    6  C2  UNL     1      19.391  63.045  27.615  1.00  0.00     0.147 C 
BRANCH   6   7
HETATM    7  C1  UNL     1      19.490  62.097  26.517  1.00  0.00     0.175 C 
HETATM    8  O1  UNL     1      18.991  60.942  26.559  1.00  0.00    -0.648 OA
HETATM    9  O2  UNL     1      20.154  62.441  25.354  1.00  0.00    -0.648 OA
ENDBRANCH   6   7
ENDBRANCH   5   6
BRANCH   5  10
HETATM   10  C17 UNL     1      17.499  64.107  26.325  1.00  0.00     0.242 C 
HETATM   11  O5  UNL     1      16.299  63.655  26.489  1.00  0.00    -0.271 OA
HETATM   12  N3  UNL     1      17.818  64.541  25.056  1.00  0.00    -0.339 N 
ATOM     13  H3  UNL     1      18.763  64.895  24.908  1.00  0.00     0.164 HD
BRANCH  12  14
HETATM   14  C18 UNL     1      16.932  64.539  23.923  1.00  0.00     0.136 A 
HETATM   15  C20 UNL     1      16.007  65.629  23.599  1.00  0.00     0.062 A 
HETATM   16  C21 UNL     1      17.226  65.503  22.763  1.00  0.00     0.100 A 
HETATM   17 BR1  UNL     1      17.060  64.783  20.965  1.00  0.00    -0.088 Br
BRANCH  14  18
HETATM   18  C19 UNL     1      16.459  63.169  23.445  1.00  0.00     0.203 C 
HETATM   19  O6  UNL     1      15.242  63.031  23.280  1.00  0.00    -0.646 OA
HETATM   20  O7  UNL     1      17.342  62.157  23.214  1.00  0.00    -0.646 OA
ENDBRANCH  14  18
ENDBRANCH  12  14
ENDBRANCH   5  10
ENDBRANCH   1   5
BRANCH   3  21
HETATM   21  C5  UNL     1      16.193  64.214  30.759  1.00  0.00     0.225 C 
BRANCH  21  22
HETATM   22  N2  UNL     1      14.867  64.067  30.215  1.00  0.00    -0.352 N 
HETATM   23  C6  UNL     1      14.206  62.820  30.296  1.00  0.00     0.226 C 
HETATM   24  O4  UNL     1      14.785  61.859  30.833  1.00  0.00    -0.273 OA
ATOM     25  H2  UNL     1      14.406  64.862  29.773  1.00  0.00     0.162 HD
BRANCH  23  26
HETATM   26  C7  UNL     1      12.832  62.624  29.760  1.00  0.00     0.042 C 
HETATM   27  C8  UNL     1      12.934  62.148  28.337  1.00  0.00     0.024 C 
HETATM   28  C9  UNL     1      11.542  61.987  27.749  1.00  0.00    -0.013 C 
HETATM   29  C10 UNL     1      10.845  63.315  27.842  1.00  0.00     0.009 C 
HETATM   30  C14 UNL     1      10.847  60.918  28.571  1.00  0.00     0.009 C 
HETATM   31  C11 UNL     1      10.678  63.715  29.290  1.00  0.00    -0.013 C 
HETATM   32  C12 UNL     1       9.991  62.670  30.121  1.00  0.00     0.009 C 
HETATM   33  C16 UNL     1      12.055  63.912  29.861  1.00  0.00     0.024 C 
HETATM   34  C13 UNL     1      10.741  61.360  29.993  1.00  0.00    -0.013 C 
HETATM   35  C15 UNL     1      12.135  61.577  30.566  1.00  0.00     0.024 C 
ENDBRANCH  23  26
ENDBRANCH  21  22
ENDBRANCH   3  21
TORSDOF 9
ENDMDL
MODEL 5
REMARK VINA RESULT: -7.764749711      1.448      1.856
REMARK  9 active torsions:
REMARK  status: ('A' for Active; 'I' for Inactive)
REMARK    1  A    between atoms: C1_2  and  C2_4 
REMARK    2  A    between atoms: C2_4  and  C3_5 
REMARK    3  A    between atoms: C3_5  and  N1_6 
REMARK    4  A    between atoms: C3_5  and  C17_25 
REMARK       I    between atoms: N1_6  and  C4_8 
REMARK    5  A    between atoms: C4_8  and  C5_10 
REMARK    6  A    between atoms: C5_10  and  N2_11 
REMARK       I    between atoms: N2_11  and  C6_13 
REMARK    7  A    between atoms: C6_13  and  C7_15 
REMARK       I    between atoms: C17_25  and  N3_27 
REMARK    8  A    between atoms: N3_27  and  C18_29 
REMARK    9  A    between atoms: C18_29  and  C19_30 
ROOT
HETATM    1  N1  UNL     1      18.024  63.421  27.522  1.00  0.00    -0.346 N 
ATOM      2  H1  UNL     1      17.513  62.549  27.387  1.00  0.00     0.163 HD
HETATM    3  C4  UNL     1      17.866  64.182  28.689  1.00  0.00     0.236 C 
HETATM    4  O3  UNL     1      18.513  65.246  28.833  1.00  0.00    -0.272 OA
ENDROOT
BRANCH   1   5
HETATM    5  C3  UNL     1      18.971  63.931  26.480  1.00  0.00     0.186 C 
BRANCH   5   6
HETATM    6  C2  UNL     1      19.926  62.833  26.239  1.00  0.00     0.147 C 
BRANCH   6   7
HETATM    7  C1  UNL     1      19.420  61.601  25.658  1.00  0.00     0.175 C 
HETATM    8  O1  UNL     1      19.252  61.442  24.422  1.00  0.00    -0.648 OA
HETATM    9  O2  UNL     1      19.099  60.527  26.468  1.00  0.00    -0.648 OA
ENDBRANCH   6   7
ENDBRANCH   5   6
BRANCH   5  10
HETATM   10  C17 UNL     1      18.051  64.280  25.367  1.00  0.00     0.242 C 
HETATM   11  O5  UNL     1      16.868  63.772  25.480  1.00  0.00    -0.271 OA
HETATM   12  N3  UNL     1      18.277  65.053  24.248  1.00  0.00    -0.339 N 
ATOM     13  H3  UNL     1      19.208  65.456  24.141  1.00  0.00     0.164 HD
BRANCH  12  14
HETATM   14  C18 UNL     1      17.313  65.340  23.219  1.00  0.00     0.136 A 
HETATM   15  C20 UNL     1      16.153  66.217  23.398  1.00  0.00     0.062 A 
HETATM   16  C21 UNL     1      17.291  66.750  22.610  1.00  0.00     0.100 A 
HETATM   17 BR1  UNL     1      17.121  66.865  20.677  1.00  0.00    -0.088 Br
BRANCH  14  18
HETATM   18  C19 UNL     1      17.101  64.245  22.178  1.00  0.00     0.203 C 
HETATM   19  O6  UNL     1      15.961  63.773  22.097  1.00  0.00    -0.646 OA
HETATM   20  O7  UNL     1      18.122  63.817  21.382  1.00  0.00    -0.646 OA
ENDBRANCH  14  18
ENDBRANCH  12  14
ENDBRANCH   5  10
ENDBRANCH   1   5
BRANCH   3  21
HETATM   21  C5  UNL     1      16.932  63.723  29.748  1.00  0.00     0.225 C 
BRANCH  21  22
HETATM   22  N2  UNL     1      15.582  63.630  29.251  1.00  0.00    -0.352 N 
HETATM   23  C6  UNL     1      14.622  62.869  29.957  1.00  0.00     0.226 C 
HETATM   24  O4  UNL     1      14.959  62.282  31.000  1.00  0.00    -0.273 OA
ATOM     25  H2  UNL     1      15.321  64.112  28.391  1.00  0.00     0.162 HD
BRANCH  23  26
HETATM   26  C7  UNL     1      13.215  62.754  29.488  1.00  0.00     0.042 C 
HETATM   27  C8  UNL     1      12.496  61.763  30.363  1.00  0.00     0.024 C 
HETATM   28  C9  UNL     1      11.067  61.591  29.874  1.00  0.00    -0.013 C 
HETATM   29  C10 UNL     1      11.120  61.134  28.444  1.00  0.00     0.009 C 
HETATM   30  C14 UNL     1      10.395  62.943  30.018  1.00  0.00     0.009 C 
HETATM   31  C11 UNL     1      11.765  62.194  27.582  1.00  0.00    -0.013 C 
HETATM   32  C12 UNL     1      11.113  63.541  27.709  1.00  0.00     0.009 C 
HETATM   33  C16 UNL     1      13.190  62.338  28.040  1.00  0.00     0.024 C 
HETATM   34  C13 UNL     1      11.096  63.950  29.167  1.00  0.00    -0.013 C 
HETATM   35  C15 UNL     1      12.544  64.082  29.620  1.00  0.00     0.024 C 
ENDBRANCH  23  26
ENDBRANCH  21  22
ENDBRANCH   3  21
TORSDOF 9
ENDMDL
