MODEL 1
REMARK VINA RESULT: -7.969240911      0.000      0.000
REMARK  14 active torsions:
REMARK  status: ('A' for Active; 'I' for Inactive)
REMARK    1  A    between atoms: N1_5  and  C5_6 
REMARK    2  A    between atoms: C5_6  and  O1_7 
REMARK    3  A    between atoms: C5_6  and  C6_9 
REMARK    4  A    between atoms: C6_9  and  N2_10 
REMARK    5  A    between atoms: C6_9  and  C23_37 
REMARK       I    between atoms: N2_10  and  C7_12 
REMARK    6  A    between atoms: C7_12  and  C8_14 
REMARK    7  A    between atoms: C8_14  and  N3_15 
REMARK    8  A    between atoms: C8_14  and  C9_19 
REMARK       I    between atoms: C9_19  and  N4_21 
REMARK    9  A    between atoms: N4_21  and  C10_23 
REMARK   10  A    between atoms: C10_23  and  C11_24 
REMARK   11  A    between atoms: C10_23  and  C12_26 
REMARK   12  A    between atoms: C12_26  and  C13_27 
REMARK   13  A    between atoms: C23_37  and  N5_38 
REMARK   14  A    between atoms: C23_37  and  O4_42 
ROOT
HETATM    1  C8  UNL     1      15.915  63.574  23.458  1.00  0.00     0.365 C 
ENDROOT
BRANCH   1   2
HETATM    2  C7  UNL     1      17.196  62.876  23.606  1.00  0.00     0.258 C 
HETATM    3  N2  UNL     1      17.403  61.865  24.558  1.00  0.00    -0.343 N 
ATOM      4  H2  UNL     1      16.638  61.600  25.177  1.00  0.00     0.163 HD
HETATM    5  O2  UNL     1      18.207  63.159  22.867  1.00  0.00    -0.271 OA
BRANCH   3   6
HETATM    6  C6  UNL     1      18.720  61.167  24.687  1.00  0.00     0.215 C 
BRANCH   6   7
HETATM    7  C5  UNL     1      19.160  61.464  26.041  1.00  0.00     0.141 C 
BRANCH   7   8
HETATM    8  N1  UNL     1      19.317  62.665  26.722  1.00  0.00    -0.359 N 
HETATM    9  C2  UNL     1      19.590  64.053  26.220  1.00  0.00     0.083 C 
HETATM   10  C1  UNL     1      21.046  64.280  25.952  1.00  0.00     0.032 C 
HETATM   11  C3  UNL     1      19.092  64.603  27.511  1.00  0.00     0.045 C 
HETATM   12  C4  UNL     1      19.270  63.190  28.057  1.00  0.00     0.127 C 
ENDBRANCH   7   8
BRANCH   7  13
HETATM   13  O1  UNL     1      19.472  60.394  26.756  1.00  0.00    -0.348 OA
ATOM     14  H1  UNL     1      19.849  59.686  26.249  1.00  0.00     0.219 HD
ENDBRANCH   7  13
ENDBRANCH   6   7
BRANCH   6  15
HETATM   15  C23 UNL     1      18.591  59.742  24.359  1.00  0.00     0.347 C 
BRANCH  15  16
HETATM   16  N5  UNL     1      17.881  59.525  23.082  1.00  0.00    -0.051 N 
ATOM     17  H53 UNL     1      17.274  58.707  23.133  1.00  0.00     0.277 HD
ATOM     18  H52 UNL     1      17.173  60.243  22.926  1.00  0.00     0.277 HD
ATOM     19  H51 UNL     1      18.521  59.460  22.290  1.00  0.00     0.277 HD
ENDBRANCH  15  16
BRANCH  15  20
HETATM   20  O4  UNL     1      19.783  59.044  24.225  1.00  0.00    -0.368 OA
ATOM     21  H4  UNL     1      19.715  58.183  23.830  1.00  0.00     0.212 HD
ENDBRANCH  15  20
ENDBRANCH   6  15
ENDBRANCH   3   6
ENDBRANCH   1   2
BRANCH   1  22
HETATM   22  N3  UNL     1      15.570  64.069  24.792  1.00  0.00    -0.058 N 
ATOM     23  H33 UNL     1      15.728  63.387  25.533  1.00  0.00     0.275 HD
ATOM     24  H32 UNL     1      16.212  64.780  25.141  1.00  0.00     0.275 HD
ATOM     25  H31 UNL     1      14.603  64.388  24.730  1.00  0.00     0.275 HD
ENDBRANCH   1  22
BRANCH   1  26
HETATM   26  C9  UNL     1      15.978  64.738  22.501  1.00  0.00     0.258 C 
HETATM   27  O3  UNL     1      15.506  65.806  22.960  1.00  0.00    -0.271 OA
HETATM   28  N4  UNL     1      16.504  64.666  21.227  1.00  0.00    -0.353 N 
ATOM     29  H4  UNL     1      16.866  63.757  20.941  1.00  0.00     0.162 HD
BRANCH  28  30
HETATM   30  C10 UNL     1      16.602  65.751  20.231  1.00  0.00     0.095 C 
BRANCH  30  31
HETATM   31  C11 UNL     1      17.796  65.380  19.384  1.00  0.00     0.110 C 
HETATM   32 BR1  UNL     1      18.727  67.048  18.895  1.00  0.00    -0.094 Br
ENDBRANCH  30  31
BRANCH  30  33
HETATM   33  C12 UNL     1      15.298  65.806  19.568  1.00  0.00     0.035 C 
BRANCH  33  34
HETATM   34  C13 UNL     1      14.640  67.079  19.227  1.00  0.00    -0.037 C 
HETATM   35  C14 UNL     1      14.364  66.946  17.707  1.00  0.00     0.014 C 
HETATM   36  C15 UNL     1      13.717  68.144  17.127  1.00  0.00    -0.013 C 
HETATM   37  C16 UNL     1      12.380  68.345  17.768  1.00  0.00     0.009 C 
HETATM   38  C20 UNL     1      14.649  69.313  17.335  1.00  0.00     0.009 C 
HETATM   39  C17 UNL     1      12.605  68.459  19.263  1.00  0.00    -0.013 C 
HETATM   40  C18 UNL     1      13.395  69.738  19.452  1.00  0.00     0.009 C 
HETATM   41  C22 UNL     1      13.264  67.244  19.846  1.00  0.00     0.014 C 
HETATM   42  C19 UNL     1      14.770  69.531  18.801  1.00  0.00    -0.013 C 
HETATM   43  C21 UNL     1      15.387  68.339  19.548  1.00  0.00     0.014 C 
ENDBRANCH  33  34
ENDBRANCH  30  33
ENDBRANCH  28  30
ENDBRANCH   1  26
TORSDOF 14
ENDMDL
MODEL 2
REMARK VINA RESULT: -7.799345118      1.160      1.242
REMARK  14 active torsions:
REMARK  status: ('A' for Active; 'I' for Inactive)
REMARK    1  A    between atoms: N1_5  and  C5_6 
REMARK    2  A    between atoms: C5_6  and  O1_7 
REMARK    3  A    between atoms: C5_6  and  C6_9 
REMARK    4  A    between atoms: C6_9  and  N2_10 
REMARK    5  A    between atoms: C6_9  and  C23_37 
REMARK       I    between atoms: N2_10  and  C7_12 
REMARK    6  A    between atoms: C7_12  and  C8_14 
REMARK    7  A    between atoms: C8_14  and  N3_15 
REMARK    8  A    between atoms: C8_14  and  C9_19 
REMARK       I    between atoms: C9_19  and  N4_21 
REMARK    9  A    between atoms: N4_21  and  C10_23 
REMARK   10  A    between atoms: C10_23  and  C11_24 
REMARK   11  A    between atoms: C10_23  and  C12_26 
REMARK   12  A    between atoms: C12_26  and  C13_27 
REMARK   13  A    between atoms: C23_37  and  N5_38 
REMARK   14  A    between atoms: C23_37  and  O4_42 
ROOT
HETATM    1  C8  UNL     1      15.342  63.178  23.800  1.00  0.00     0.365 C 
ENDROOT
BRANCH   1   2
HETATM    2  C7  UNL     1      16.700  62.624  23.796  1.00  0.00     0.258 C 
HETATM    3  N2  UNL     1      17.175  61.771  24.804  1.00  0.00    -0.343 N 
ATOM      4  H2  UNL     1      16.558  61.522  25.577  1.00  0.00     0.163 HD
HETATM    5  O2  UNL     1      17.536  62.898  22.861  1.00  0.00    -0.271 OA
BRANCH   3   6
HETATM    6  C6  UNL     1      18.564  61.218  24.774  1.00  0.00     0.215 C 
BRANCH   6   7
HETATM    7  C5  UNL     1      19.101  61.505  26.095  1.00  0.00     0.141 C 
BRANCH   7   8
HETATM    8  N1  UNL     1      19.293  62.700  26.777  1.00  0.00    -0.359 N 
HETATM    9  C2  UNL     1      19.558  64.090  26.274  1.00  0.00     0.083 C 
HETATM   10  C1  UNL     1      21.004  64.308  25.952  1.00  0.00     0.032 C 
HETATM   11  C3  UNL     1      19.114  64.635  27.586  1.00  0.00     0.045 C 
HETATM   12  C4  UNL     1      19.302  63.217  28.116  1.00  0.00     0.127 C 
ENDBRANCH   7   8
BRANCH   7  13
HETATM   13  O1  UNL     1      19.479  60.432  26.772  1.00  0.00    -0.348 OA
ATOM     14  H1  UNL     1      19.864  59.751  26.234  1.00  0.00     0.219 HD
ENDBRANCH   7  13
ENDBRANCH   6   7
BRANCH   6  15
HETATM   15  C23 UNL     1      18.556  59.803  24.386  1.00  0.00     0.347 C 
BRANCH  15  16
HETATM   16  N5  UNL     1      17.918  59.587  23.071  1.00  0.00    -0.051 N 
ATOM     17  H53 UNL     1      16.991  60.010  23.037  1.00  0.00     0.277 HD
ATOM     18  H52 UNL     1      18.375  60.139  22.345  1.00  0.00     0.277 HD
ATOM     19  H51 UNL     1      17.883  58.600  22.816  1.00  0.00     0.277 HD
ENDBRANCH  15  16
BRANCH  15  20
HETATM   20  O4  UNL     1      19.801  59.199  24.280  1.00  0.00    -0.368 OA
ATOM     21  H4  UNL     1      20.353  59.253  25.051  1.00  0.00     0.212 HD
ENDBRANCH  15  20
ENDBRANCH   6  15
ENDBRANCH   3   6
ENDBRANCH   1   2
BRANCH   1  22
HETATM   22  N3  UNL     1      14.878  63.092  25.187  1.00  0.00    -0.058 N 
ATOM     23  H33 UNL     1      14.266  62.296  25.363  1.00  0.00     0.275 HD
ATOM     24  H32 UNL     1      15.610  62.832  25.847  1.00  0.00     0.275 HD
ATOM     25  H31 UNL     1      14.445  63.993  25.392  1.00  0.00     0.275 HD
ENDBRANCH   1  22
BRANCH   1  26
HETATM   26  C9  UNL     1      15.284  64.616  23.349  1.00  0.00     0.258 C 
HETATM   27  O3  UNL     1      14.667  65.376  24.135  1.00  0.00    -0.271 OA
HETATM   28  N4  UNL     1      15.849  65.085  22.181  1.00  0.00    -0.353 N 
ATOM     29  H4  UNL     1      16.331  64.395  21.606  1.00  0.00     0.162 HD
BRANCH  28  30
HETATM   30  C10 UNL     1      15.836  66.468  21.666  1.00  0.00     0.095 C 
BRANCH  30  31
HETATM   31  C11 UNL     1      17.246  66.964  21.878  1.00  0.00     0.110 C 
HETATM   32 BR1  UNL     1      17.141  68.846  22.458  1.00  0.00    -0.094 Br
ENDBRANCH  30  31
BRANCH  30  33
HETATM   33  C12 UNL     1      15.355  66.378  20.287  1.00  0.00     0.035 C 
BRANCH  33  34
HETATM   34  C13 UNL     1      14.766  67.530  19.580  1.00  0.00    -0.037 C 
HETATM   35  C14 UNL     1      13.739  66.875  18.620  1.00  0.00     0.014 C 
HETATM   36  C15 UNL     1      13.028  67.858  17.771  1.00  0.00    -0.013 C 
HETATM   37  C16 UNL     1      12.241  68.786  18.641  1.00  0.00     0.009 C 
HETATM   38  C20 UNL     1      14.064  68.572  16.936  1.00  0.00     0.009 C 
HETATM   39  C17 UNL     1      13.210  69.433  19.611  1.00  0.00    -0.013 C 
HETATM   40  C18 UNL     1      14.127  70.283  18.754  1.00  0.00     0.009 C 
HETATM   41  C22 UNL     1      13.929  68.433  20.467  1.00  0.00     0.014 C 
HETATM   42  C19 UNL     1      14.941  69.331  17.866  1.00  0.00    -0.013 C 
HETATM   43  C21 UNL     1      15.712  68.435  18.848  1.00  0.00     0.014 C 
ENDBRANCH  33  34
ENDBRANCH  30  33
ENDBRANCH  28  30
ENDBRANCH   1  26
TORSDOF 14
ENDMDL
MODEL 3
REMARK VINA RESULT: -7.610245320      4.692      7.147
REMARK  14 active torsions:
REMARK  status: ('A' for Active; 'I' for Inactive)
REMARK    1  A    between atoms: N1_5  and  C5_6 
REMARK    2  A    between atoms: C5_6  and  O1_7 
REMARK    3  A    between atoms: C5_6  and  C6_9 
REMARK    4  A    between atoms: C6_9  and  N2_10 
REMARK    5  A    between atoms: C6_9  and  C23_37 
REMARK       I    between atoms: N2_10  and  C7_12 
REMARK    6  A    between atoms: C7_12  and  C8_14 
REMARK    7  A    between atoms: C8_14  and  N3_15 
REMARK    8  A    between atoms: C8_14  and  C9_19 
REMARK       I    between atoms: C9_19  and  N4_21 
REMARK    9  A    between atoms: N4_21  and  C10_23 
REMARK   10  A    between atoms: C10_23  and  C11_24 
REMARK   11  A    between atoms: C10_23  and  C12_26 
REMARK   12  A    between atoms: C12_26  and  C13_27 
REMARK   13  A    between atoms: C23_37  and  N5_38 
REMARK   14  A    between atoms: C23_37  and  O4_42 
ROOT
HETATM    1  C8  UNL     1      15.670  63.315  23.886  1.00  0.00     0.365 C 
ENDROOT
BRANCH   1   2
HETATM    2  C7  UNL     1      17.034  62.784  23.975  1.00  0.00     0.258 C 
HETATM    3  N2  UNL     1      17.369  61.681  24.774  1.00  0.00    -0.343 N 
ATOM      4  H2  UNL     1      16.640  61.223  25.321  1.00  0.00     0.163 HD
HETATM    5  O2  UNL     1      18.005  63.312  23.321  1.00  0.00    -0.271 OA
BRANCH   3   6
HETATM    6  C6  UNL     1      18.769  61.158  24.845  1.00  0.00     0.215 C 
BRANCH   6   7
HETATM    7  C5  UNL     1      19.222  61.505  26.183  1.00  0.00     0.141 C 
BRANCH   7   8
HETATM    8  N1  UNL     1      19.392  62.730  26.814  1.00  0.00    -0.359 N 
HETATM    9  C2  UNL     1      19.661  64.098  26.256  1.00  0.00     0.083 C 
HETATM   10  C1  UNL     1      21.113  64.309  25.957  1.00  0.00     0.032 C 
HETATM   11  C3  UNL     1      19.184  64.698  27.532  1.00  0.00     0.045 C 
HETATM   12  C4  UNL     1      19.367  63.306  28.128  1.00  0.00     0.127 C 
ENDBRANCH   7   8
BRANCH   7  13
HETATM   13  O1  UNL     1      19.532  60.462  26.937  1.00  0.00    -0.348 OA
ATOM     14  H1  UNL     1      19.707  59.668  26.446  1.00  0.00     0.219 HD
ENDBRANCH   7  13
ENDBRANCH   6   7
BRANCH   6  15
HETATM   15  C23 UNL     1      18.812  59.730  24.510  1.00  0.00     0.347 C 
BRANCH  15  16
HETATM   16  N5  UNL     1      18.337  59.463  23.136  1.00  0.00    -0.051 N 
ATOM     17  H53 UNL     1      17.342  59.667  23.043  1.00  0.00     0.277 HD
ATOM     18  H52 UNL     1      18.706  60.150  22.479  1.00  0.00     0.277 HD
ATOM     19  H51 UNL     1      18.548  58.513  22.832  1.00  0.00     0.277 HD
ENDBRANCH  15  16
BRANCH  15  20
HETATM   20  O4  UNL     1      20.062  59.133  24.575  1.00  0.00    -0.368 OA
ATOM     21  H4  UNL     1      20.523  59.047  23.748  1.00  0.00     0.212 HD
ENDBRANCH  15  20
ENDBRANCH   6  15
ENDBRANCH   3   6
ENDBRANCH   1   2
BRANCH   1  22
HETATM   22  N3  UNL     1      14.787  62.148  23.848  1.00  0.00    -0.058 N 
ATOM     23  H33 UNL     1      13.812  62.366  24.057  1.00  0.00     0.275 HD
ATOM     24  H32 UNL     1      14.632  61.783  22.908  1.00  0.00     0.275 HD
ATOM     25  H31 UNL     1      15.197  61.466  24.487  1.00  0.00     0.275 HD
ENDBRANCH   1  22
BRANCH   1  26
HETATM   26  C9  UNL     1      15.290  64.182  25.060  1.00  0.00     0.258 C 
HETATM   27  O3  UNL     1      16.150  64.215  25.973  1.00  0.00    -0.271 OA
HETATM   28  N4  UNL     1      14.109  64.890  25.150  1.00  0.00    -0.353 N 
ATOM     29  H4  UNL     1      13.471  64.804  24.359  1.00  0.00     0.162 HD
BRANCH  28  30
HETATM   30  C10 UNL     1      13.660  65.756  26.258  1.00  0.00     0.095 C 
BRANCH  30  31
HETATM   31  C11 UNL     1      13.772  67.158  25.711  1.00  0.00     0.110 C 
HETATM   32 BR1  UNL     1      11.943  67.851  25.454  1.00  0.00    -0.094 Br
ENDBRANCH  30  31
BRANCH  30  33
HETATM   33  C12 UNL     1      12.325  65.280  26.623  1.00  0.00     0.035 C 
BRANCH  33  34
HETATM   34  C13 UNL     1      12.112  64.213  27.617  1.00  0.00    -0.037 C 
HETATM   35  C14 UNL     1      10.570  64.052  27.646  1.00  0.00     0.014 C 
HETATM   36  C15 UNL     1      10.111  63.030  28.614  1.00  0.00    -0.013 C 
HETATM   37  C16 UNL     1      10.654  61.694  28.218  1.00  0.00     0.009 C 
HETATM   38  C20 UNL     1      10.564  63.466  29.987  1.00  0.00     0.009 C 
HETATM   39  C17 UNL     1      12.164  61.816  28.159  1.00  0.00    -0.013 C 
HETATM   40  C18 UNL     1      12.601  62.078  29.585  1.00  0.00     0.009 C 
HETATM   41  C22 UNL     1      12.624  62.854  27.179  1.00  0.00     0.014 C 
HETATM   42  C19 UNL     1      12.051  63.454  29.990  1.00  0.00    -0.013 C 
HETATM   43  C21 UNL     1      12.673  64.440  28.990  1.00  0.00     0.014 C 
ENDBRANCH  33  34
ENDBRANCH  30  33
ENDBRANCH  28  30
ENDBRANCH   1  26
TORSDOF 14
ENDMDL
MODEL 4
REMARK VINA RESULT: -7.563359084      0.511      1.256
REMARK  14 active torsions:
REMARK  status: ('A' for Active; 'I' for Inactive)
REMARK    1  A    between atoms: N1_5  and  C5_6 
REMARK    2  A    between atoms: C5_6  and  O1_7 
REMARK    3  A    between atoms: C5_6  and  C6_9 
REMARK    4  A    between atoms: C6_9  and  N2_10 
REMARK    5  A    between atoms: C6_9  and  C23_37 
REMARK       I    between atoms: N2_10  and  C7_12 
REMARK    6  A    between atoms: C7_12  and  C8_14 
REMARK    7  A    between atoms: C8_14  and  N3_15 
REMARK    8  A    between atoms: C8_14  and  C9_19 
REMARK       I    between atoms: C9_19  and  N4_21 
REMARK    9  A    between atoms: N4_21  and  C10_23 
REMARK   10  A    between atoms: C10_23  and  C11_24 
REMARK   11  A    between atoms: C10_23  and  C12_26 
REMARK   12  A    between atoms: C12_26  and  C13_27 
REMARK   13  A    between atoms: C23_37  and  N5_38 
REMARK   14  A    between atoms: C23_37  and  O4_42 
ROOT
HETATM    1  C8  UNL     1      15.927  63.676  23.308  1.00  0.00     0.365 C 
ENDROOT
BRANCH   1   2
HETATM    2  C7  UNL     1      17.173  62.921  23.476  1.00  0.00     0.258 C 
HETATM    3  N2  UNL     1      17.410  62.083  24.576  1.00  0.00    -0.343 N 
ATOM      4  H2  UNL     1      16.692  61.990  25.295  1.00  0.00     0.163 HD
HETATM    5  O2  UNL     1      18.125  62.993  22.617  1.00  0.00    -0.271 OA
BRANCH   3   6
HETATM    6  C6  UNL     1      18.690  61.322  24.723  1.00  0.00     0.215 C 
BRANCH   6   7
HETATM    7  C5  UNL     1      19.127  61.599  26.082  1.00  0.00     0.141 C 
BRANCH   7   8
HETATM    8  N1  UNL     1      19.327  62.792  26.766  1.00  0.00    -0.359 N 
HETATM    9  C2  UNL     1      19.623  64.177  26.265  1.00  0.00     0.083 C 
HETATM   10  C1  UNL     1      21.077  64.370  25.967  1.00  0.00     0.032 C 
HETATM   11  C3  UNL     1      19.166  64.731  27.569  1.00  0.00     0.045 C 
HETATM   12  C4  UNL     1      19.322  63.311  28.104  1.00  0.00     0.127 C 
ENDBRANCH   7   8
BRANCH   7  13
HETATM   13  O1  UNL     1      19.384  60.517  26.800  1.00  0.00    -0.348 OA
ATOM     14  H1  UNL     1      20.152  60.036  26.513  1.00  0.00     0.219 HD
ENDBRANCH   7  13
ENDBRANCH   6   7
BRANCH   6  15
HETATM   15  C23 UNL     1      18.496  59.905  24.394  1.00  0.00     0.347 C 
BRANCH  15  16
HETATM   16  N5  UNL     1      17.885  59.718  23.062  1.00  0.00    -0.051 N 
ATOM     17  H53 UNL     1      18.572  59.388  22.384  1.00  0.00     0.277 HD
ATOM     18  H52 UNL     1      17.253  58.918  23.055  1.00  0.00     0.277 HD
ATOM     19  H51 UNL     1      17.416  60.561  22.730  1.00  0.00     0.277 HD
ENDBRANCH  15  16
BRANCH  15  20
HETATM   20  O4  UNL     1      19.647  59.130  24.368  1.00  0.00    -0.368 OA
ATOM     21  H4  UNL     1      20.190  59.171  25.147  1.00  0.00     0.212 HD
ENDBRANCH  15  20
ENDBRANCH   6  15
ENDBRANCH   3   6
ENDBRANCH   1   2
BRANCH   1  22
HETATM   22  N3  UNL     1      15.536  64.110  24.650  1.00  0.00    -0.058 N 
ATOM     23  H33 UNL     1      14.529  64.084  24.810  1.00  0.00     0.275 HD
ATOM     24  H32 UNL     1      15.794  63.450  25.383  1.00  0.00     0.275 HD
ATOM     25  H31 UNL     1      15.945  65.037  24.774  1.00  0.00     0.275 HD
ENDBRANCH   1  22
BRANCH   1  26
HETATM   26  C9  UNL     1      16.080  64.888  22.423  1.00  0.00     0.258 C 
HETATM   27  O3  UNL     1      15.797  65.973  22.986  1.00  0.00    -0.271 OA
HETATM   28  N4  UNL     1      16.492  64.839  21.107  1.00  0.00    -0.353 N 
ATOM     29  H4  UNL     1      16.701  63.913  20.735  1.00  0.00     0.162 HD
BRANCH  28  30
HETATM   30  C10 UNL     1      16.664  65.971  20.175  1.00  0.00     0.095 C 
BRANCH  30  31
HETATM   31  C11 UNL     1      17.899  65.621  19.380  1.00  0.00     0.110 C 
HETATM   32 BR1  UNL     1      18.681  67.304  18.711  1.00  0.00    -0.094 Br
ENDBRANCH  30  31
BRANCH  30  33
HETATM   33  C12 UNL     1      15.402  66.083  19.442  1.00  0.00     0.035 C 
BRANCH  33  34
HETATM   34  C13 UNL     1      14.693  67.365  19.285  1.00  0.00    -0.037 C 
HETATM   35  C14 UNL     1      13.303  67.085  19.914  1.00  0.00     0.014 C 
HETATM   36  C15 UNL     1      12.389  68.248  19.846  1.00  0.00    -0.013 C 
HETATM   37  C16 UNL     1      12.972  69.382  20.629  1.00  0.00     0.009 C 
HETATM   38  C20 UNL     1      12.187  68.584  18.387  1.00  0.00     0.009 C 
HETATM   39  C17 UNL     1      14.345  69.674  20.055  1.00  0.00    -0.013 C 
HETATM   40  C18 UNL     1      14.092  70.176  18.649  1.00  0.00     0.009 C 
HETATM   41  C22 UNL     1      15.265  68.491  20.125  1.00  0.00     0.014 C 
HETATM   42  C19 UNL     1      13.502  69.011  17.841  1.00  0.00    -0.013 C 
HETATM   43  C21 UNL     1      14.573  67.910  17.893  1.00  0.00     0.014 C 
ENDBRANCH  33  34
ENDBRANCH  30  33
ENDBRANCH  28  30
ENDBRANCH   1  26
TORSDOF 14
ENDMDL
MODEL 5
REMARK VINA RESULT: -7.556594271      5.110      8.138
REMARK  14 active torsions:
REMARK  status: ('A' for Active; 'I' for Inactive)
REMARK    1  A    between atoms: N1_5  and  C5_6 
REMARK    2  A    between atoms: C5_6  and  O1_7 
REMARK    3  A    between atoms: C5_6  and  C6_9 
REMARK    4  A    between atoms: C6_9  and  N2_10 
REMARK    5  A    between atoms: C6_9  and  C23_37 
REMARK       I    between atoms: N2_10  and  C7_12 
REMARK    6  A    between atoms: C7_12  and  C8_14 
REMARK    7  A    between atoms: C8_14  and  N3_15 
REMARK    8  A    between atoms: C8_14  and  C9_19 
REMARK       I    between atoms: C9_19  and  N4_21 
REMARK    9  A    between atoms: N4_21  and  C10_23 
REMARK   10  A    between atoms: C10_23  and  C11_24 
REMARK   11  A    between atoms: C10_23  and  C12_26 
REMARK   12  A    between atoms: C12_26  and  C13_27 
REMARK   13  A    between atoms: C23_37  and  N5_38 
REMARK   14  A    between atoms: C23_37  and  O4_42 
ROOT
HETATM    1  C8  UNL     1      19.733  63.678  27.528  1.00  0.00     0.365 C 
ENDROOT
BRANCH   1   2
HETATM    2  C7  UNL     1      19.599  62.657  26.484  1.00  0.00     0.258 C 
HETATM    3  N2  UNL     1      18.763  61.538  26.619  1.00  0.00    -0.343 N 
ATOM      4  H2  UNL     1      18.223  61.421  27.477  1.00  0.00     0.163 HD
HETATM    5  O2  UNL     1      20.251  62.733  25.380  1.00  0.00    -0.271 OA
BRANCH   3   6
HETATM    6  C6  UNL     1      18.642  60.513  25.537  1.00  0.00     0.215 C 
BRANCH   6   7
HETATM    7  C5  UNL     1      18.169  61.256  24.380  1.00  0.00     0.141 C 
BRANCH   7   8
HETATM    8  N1  UNL     1      17.113  62.144  24.217  1.00  0.00    -0.359 N 
HETATM    9  C2  UNL     1      16.980  63.371  23.363  1.00  0.00     0.083 C 
HETATM   10  C1  UNL     1      17.593  64.576  24.007  1.00  0.00     0.032 C 
HETATM   11  C3  UNL     1      15.499  63.276  23.481  1.00  0.00     0.045 C 
HETATM   12  C4  UNL     1      15.761  62.342  24.657  1.00  0.00     0.127 C 
ENDBRANCH   7   8
BRANCH   7  13
HETATM   13  O1  UNL     1      18.872  61.047  23.277  1.00  0.00    -0.348 OA
ATOM     14  H1  UNL     1      19.709  61.496  23.261  1.00  0.00     0.219 HD
ENDBRANCH   7  13
ENDBRANCH   6   7
BRANCH   6  15
HETATM   15  C23 UNL     1      19.907  59.791  25.355  1.00  0.00     0.347 C 
BRANCH  15  16
HETATM   16  N5  UNL     1      20.342  59.105  26.590  1.00  0.00    -0.051 N 
ATOM     17  H53 UNL     1      21.134  59.583  27.017  1.00  0.00     0.277 HD
ATOM     18  H52 UNL     1      19.658  59.222  27.337  1.00  0.00     0.277 HD
ATOM     19  H51 UNL     1      20.549  58.119  26.431  1.00  0.00     0.277 HD
ENDBRANCH  15  16
BRANCH  15  20
HETATM   20  O4  UNL     1      19.903  58.802  24.382  1.00  0.00    -0.368 OA
ATOM     21  H4  UNL     1      20.449  58.045  24.561  1.00  0.00     0.212 HD
ENDBRANCH  15  20
ENDBRANCH   6  15
ENDBRANCH   3   6
ENDBRANCH   1   2
BRANCH   1  22
HETATM   22  N3  UNL     1      19.868  64.955  26.826  1.00  0.00    -0.058 N 
ATOM     23  H33 UNL     1      20.318  64.874  25.914  1.00  0.00     0.275 HD
ATOM     24  H32 UNL     1      18.981  65.332  26.491  1.00  0.00     0.275 HD
ATOM     25  H31 UNL     1      20.358  65.577  27.469  1.00  0.00     0.275 HD
ENDBRANCH   1  22
BRANCH   1  26
HETATM   26  C9  UNL     1      18.544  63.746  28.452  1.00  0.00     0.258 C 
HETATM   27  O3  UNL     1      18.832  63.643  29.669  1.00  0.00    -0.271 OA
HETATM   28  N4  UNL     1      17.240  63.907  28.026  1.00  0.00    -0.353 N 
ATOM     29  H4  UNL     1      17.103  63.983  27.019  1.00  0.00     0.162 HD
BRANCH  28  30
HETATM   30  C10 UNL     1      16.024  63.981  28.859  1.00  0.00     0.095 C 
BRANCH  30  31
HETATM   31  C11 UNL     1      16.044  65.376  29.435  1.00  0.00     0.110 C 
HETATM   32 BR1  UNL     1      15.750  65.227  31.380  1.00  0.00    -0.094 Br
ENDBRANCH  30  31
BRANCH  30  33
HETATM   33  C12 UNL     1      14.911  63.635  27.974  1.00  0.00     0.035 C 
BRANCH  33  34
HETATM   34  C13 UNL     1      13.555  63.360  28.481  1.00  0.00    -0.037 C 
HETATM   35  C14 UNL     1      12.856  62.668  27.282  1.00  0.00     0.014 C 
HETATM   36  C15 UNL     1      11.444  62.316  27.557  1.00  0.00    -0.013 C 
HETATM   37  C16 UNL     1      11.389  61.334  28.684  1.00  0.00     0.009 C 
HETATM   38  C20 UNL     1      10.705  63.598  27.857  1.00  0.00     0.009 C 
HETATM   39  C17 UNL     1      12.083  61.967  29.874  1.00  0.00    -0.013 C 
HETATM   40  C18 UNL     1      11.218  63.149  30.260  1.00  0.00     0.009 C 
HETATM   41  C22 UNL     1      13.512  62.324  29.589  1.00  0.00     0.014 C 
HETATM   42  C19 UNL     1      11.280  64.162  29.107  1.00  0.00    -0.013 C 
HETATM   43  C21 UNL     1      12.766  64.532  28.984  1.00  0.00     0.014 C 
ENDBRANCH  33  34
ENDBRANCH  30  33
ENDBRANCH  28  30
ENDBRANCH   1  26
TORSDOF 14
ENDMDL
