MODEL 1
REMARK VINA RESULT: -7.604933338      0.000      0.000
REMARK  13 active torsions:
REMARK  status: ('A' for Active; 'I' for Inactive)
REMARK    1  A    between atoms: C2_2  and  C4_4 
REMARK    2  A    between atoms: C4_4  and  C5_5 
REMARK    3  A    between atoms: C4_4  and  C6_10 
REMARK    4  A    between atoms: C5_5  and  N1_6 
REMARK       I    between atoms: C6_10  and  N2_12 
REMARK    5  A    between atoms: C13_19  and  C14_20 
REMARK       I    between atoms: C14_20  and  N3_22 
REMARK    6  A    between atoms: N3_22  and  C15_24 
REMARK    7  A    between atoms: C15_24  and  C16_25 
REMARK    8  A    between atoms: C16_25  and  N4_26 
REMARK       I    between atoms: N4_26  and  C17_27 
REMARK    9  A    between atoms: N6_34  and  C22_35 
REMARK   10  A    between atoms: C22_35  and  O4_36 
REMARK   11  A    between atoms: C22_35  and  N7_38 
REMARK   12  A    between atoms: N7_38  and  C23_40 
REMARK   13  A    between atoms: C23_40  and  C24_41 
ROOT
HETATM    1  C6  UNL     1      14.201  67.321  19.242  1.00  0.00     0.244 C 
HETATM    2  O1  UNL     1      14.171  66.431  18.336  1.00  0.00    -0.271 OA
HETATM    3  N2  UNL     1      14.788  67.113  20.464  1.00  0.00    -0.251 N 
HETATM    4  C7  UNL     1      14.385  68.100  21.521  1.00  0.00     0.153 C 
HETATM    5  C8  UNL     1      13.505  67.189  22.418  1.00  0.00     0.027 C 
HETATM    6  C9  UNL     1      14.233  66.508  23.493  1.00  0.00    -0.002 C 
HETATM    7  C10 UNL     1      13.246  66.088  24.562  1.00  0.00     0.005 C 
HETATM    8  C11 UNL     1      14.018  65.526  25.693  1.00  0.00     0.002 C 
HETATM    9  C12 UNL     1      15.522  65.588  25.497  1.00  0.00     0.020 C 
HETATM   10  C13 UNL     1      15.913  64.910  24.240  1.00  0.00     0.050 C 
HETATM   11  C18 UNL     1      17.371  65.263  23.839  1.00  0.00     0.026 C 
HETATM   12  C19 UNL     1      17.238  64.919  22.303  1.00  0.00     0.056 C 
HETATM   13  C20 UNL     1      16.047  65.752  22.093  1.00  0.00     0.022 C 
HETATM   14  C21 UNL     1      15.047  65.265  23.065  1.00  0.00     0.055 C 
HETATM   15  N6  UNL     1      15.682  66.084  20.734  1.00  0.00    -0.223 N 
ENDROOT
BRANCH   1  16
HETATM   16  C4  UNL     1      13.556  68.595  18.849  1.00  0.00     0.108 C 
BRANCH  16  17
HETATM   17  C2  UNL     1      12.044  68.535  18.929  1.00  0.00    -0.008 C 
HETATM   18  C1  UNL     1      11.459  68.374  17.534  1.00  0.00     0.010 C 
HETATM   19  C3  UNL     1      11.368  69.635  19.643  1.00  0.00     0.010 C 
ENDBRANCH  16  17
BRANCH  16  20
HETATM   20  C5  UNL     1      13.986  68.978  17.441  1.00  0.00     0.244 C 
BRANCH  20  21
HETATM   21  N1  UNL     1      15.404  69.327  17.430  1.00  0.00    -0.079 N 
ATOM     22  H13 UNL     1      15.644  69.979  18.177  1.00  0.00     0.274 HD
ATOM     23  H12 UNL     1      15.993  68.546  17.721  1.00  0.00     0.274 HD
ATOM     24  H11 UNL     1      15.667  69.683  16.511  1.00  0.00     0.274 HD
ENDBRANCH  20  21
ENDBRANCH  16  20
ENDBRANCH   1  16
BRANCH  15  25
HETATM   25  C22 UNL     1      16.385  65.504  19.689  1.00  0.00     0.239 C 
BRANCH  25  26
HETATM   26  O4  UNL     1      15.986  64.261  19.476  1.00  0.00    -0.331 OA
ATOM     27  H4  UNL     1      16.598  63.794  18.921  1.00  0.00     0.221 HD
ENDBRANCH  25  26
BRANCH  25  28
HETATM   28  N7  UNL     1      17.407  65.898  18.831  1.00  0.00    -0.354 N 
ATOM     29  H7  UNL     1      17.354  65.552  17.873  1.00  0.00     0.163 HD
BRANCH  28  30
HETATM   30  C23 UNL     1      18.518  66.730  19.142  1.00  0.00     0.138 C 
BRANCH  30  31
HETATM   31  C24 UNL     1      18.313  68.169  19.419  1.00  0.00     0.134 C 
HETATM   32 CL1  UNL     1      17.954  68.688  21.042  1.00  0.00    -0.129 Cl
ENDBRANCH  30  31
ENDBRANCH  28  30
ENDBRANCH  25  28
ENDBRANCH  15  25
BRANCH  10  33
HETATM   33  C14 UNL     1      16.052  63.429  24.525  1.00  0.00     0.227 C 
HETATM   34  O2  UNL     1      15.309  62.649  23.944  1.00  0.00    -0.273 OA
HETATM   35  N3  UNL     1      17.047  63.090  25.444  1.00  0.00    -0.355 N 
ATOM     36  H3  UNL     1      17.537  63.902  25.821  1.00  0.00     0.162 HD
BRANCH  35  37
HETATM   37  C15 UNL     1      17.530  61.852  25.972  1.00  0.00     0.182 C 
BRANCH  37  38
HETATM   38  C16 UNL     1      18.729  61.482  25.085  1.00  0.00     0.180 C 
BRANCH  38  39
HETATM   39  N4  UNL     1      19.114  60.197  24.898  1.00  0.00    -0.370 NA
HETATM   40  C17 UNL     1      19.492  58.935  24.714  1.00  0.00     0.405 C 
HETATM   41  N5  UNL     1      19.640  57.984  25.825  1.00  0.00    -0.025 NA
HETATM   42  O3  UNL     1      19.785  58.326  23.608  1.00  0.00    -0.234 OA
ENDBRANCH  38  39
ENDBRANCH  37  38
ENDBRANCH  35  37
ENDBRANCH  10  33
TORSDOF 13
ENDMDL
MODEL 2
REMARK VINA RESULT: -7.314300369      1.409      1.466
REMARK  13 active torsions:
REMARK  status: ('A' for Active; 'I' for Inactive)
REMARK    1  A    between atoms: C2_2  and  C4_4 
REMARK    2  A    between atoms: C4_4  and  C5_5 
REMARK    3  A    between atoms: C4_4  and  C6_10 
REMARK    4  A    between atoms: C5_5  and  N1_6 
REMARK       I    between atoms: C6_10  and  N2_12 
REMARK    5  A    between atoms: C13_19  and  C14_20 
REMARK       I    between atoms: C14_20  and  N3_22 
REMARK    6  A    between atoms: N3_22  and  C15_24 
REMARK    7  A    between atoms: C15_24  and  C16_25 
REMARK    8  A    between atoms: C16_25  and  N4_26 
REMARK       I    between atoms: N4_26  and  C17_27 
REMARK    9  A    between atoms: N6_34  and  C22_35 
REMARK   10  A    between atoms: C22_35  and  O4_36 
REMARK   11  A    between atoms: C22_35  and  N7_38 
REMARK   12  A    between atoms: N7_38  and  C23_40 
REMARK   13  A    between atoms: C23_40  and  C24_41 
ROOT
HETATM    1  C6  UNL     1      14.135  67.523  19.649  1.00  0.00     0.244 C 
HETATM    2  O1  UNL     1      13.916  66.831  18.606  1.00  0.00    -0.271 OA
HETATM    3  N2  UNL     1      14.871  67.054  20.707  1.00  0.00    -0.251 N 
HETATM    4  C7  UNL     1      14.690  67.830  21.979  1.00  0.00     0.153 C 
HETATM    5  C8  UNL     1      13.882  66.797  22.810  1.00  0.00     0.027 C 
HETATM    6  C9  UNL     1      14.702  65.888  23.615  1.00  0.00    -0.002 C 
HETATM    7  C10 UNL     1      13.847  65.308  24.722  1.00  0.00     0.005 C 
HETATM    8  C11 UNL     1      14.727  64.502  25.597  1.00  0.00     0.002 C 
HETATM    9  C12 UNL     1      16.190  64.537  25.192  1.00  0.00     0.020 C 
HETATM   10  C13 UNL     1      16.353  64.105  23.785  1.00  0.00     0.050 C 
HETATM   11  C18 UNL     1      17.762  64.467  23.243  1.00  0.00     0.026 C 
HETATM   12  C19 UNL     1      17.392  64.439  21.708  1.00  0.00     0.056 C 
HETATM   13  C20 UNL     1      16.245  65.347  21.840  1.00  0.00     0.022 C 
HETATM   14  C21 UNL     1      15.358  64.721  22.842  1.00  0.00     0.055 C 
HETATM   15  N6  UNL     1      15.718  65.955  20.639  1.00  0.00    -0.223 N 
ENDROOT
BRANCH   1  16
HETATM   16  C4  UNL     1      13.534  68.876  19.604  1.00  0.00     0.108 C 
BRANCH  16  17
HETATM   17  C2  UNL     1      12.027  68.842  19.440  1.00  0.00    -0.008 C 
HETATM   18  C1  UNL     1      11.527  70.205  18.984  1.00  0.00     0.010 C 
HETATM   19  C3  UNL     1      11.239  68.369  20.593  1.00  0.00     0.010 C 
ENDBRANCH  16  17
BRANCH  16  20
HETATM   20  C5  UNL     1      14.160  69.683  18.477  1.00  0.00     0.244 C 
BRANCH  20  21
HETATM   21  N1  UNL     1      15.573  69.337  18.342  1.00  0.00    -0.079 N 
ATOM     22  H13 UNL     1      15.981  69.041  19.229  1.00  0.00     0.274 HD
ATOM     23  H12 UNL     1      15.707  68.471  17.821  1.00  0.00     0.274 HD
ATOM     24  H11 UNL     1      16.083  70.117  17.927  1.00  0.00     0.274 HD
ENDBRANCH  20  21
ENDBRANCH  16  20
ENDBRANCH   1  16
BRANCH  15  25
HETATM   25  C22 UNL     1      16.226  65.563  19.410  1.00  0.00     0.239 C 
BRANCH  25  26
HETATM   26  O4  UNL     1      15.654  64.446  18.991  1.00  0.00    -0.331 OA
ATOM     27  H4  UNL     1      16.232  63.701  19.105  1.00  0.00     0.221 HD
ENDBRANCH  25  26
BRANCH  25  28
HETATM   28  N7  UNL     1      17.189  66.041  18.527  1.00  0.00    -0.354 N 
ATOM     29  H7  UNL     1      16.988  65.933  17.534  1.00  0.00     0.163 HD
BRANCH  28  30
HETATM   30  C23 UNL     1      18.425  66.664  18.858  1.00  0.00     0.138 C 
BRANCH  30  31
HETATM   31  C24 UNL     1      18.921  67.803  18.054  1.00  0.00     0.134 C 
HETATM   32 CL1  UNL     1      20.476  67.692  17.278  1.00  0.00    -0.129 Cl
ENDBRANCH  30  31
ENDBRANCH  28  30
ENDBRANCH  25  28
ENDBRANCH  15  25
BRANCH  10  33
HETATM   33  C14 UNL     1      16.425  62.592  23.761  1.00  0.00     0.227 C 
HETATM   34  O2  UNL     1      15.381  61.958  23.674  1.00  0.00    -0.273 OA
HETATM   35  N3  UNL     1      17.712  62.055  23.837  1.00  0.00    -0.355 N 
ATOM     36  H3  UNL     1      18.437  62.768  23.922  1.00  0.00     0.162 HD
BRANCH  35  37
HETATM   37  C15 UNL     1      18.234  60.726  23.820  1.00  0.00     0.182 C 
BRANCH  37  38
HETATM   38  C16 UNL     1      18.982  60.575  25.155  1.00  0.00     0.180 C 
BRANCH  38  39
HETATM   39  N4  UNL     1      19.422  59.373  25.599  1.00  0.00    -0.370 NA
HETATM   40  C17 UNL     1      19.854  58.194  26.037  1.00  0.00     0.405 C 
HETATM   41  N5  UNL     1      19.661  56.950  25.277  1.00  0.00    -0.025 NA
HETATM   42  O3  UNL     1      20.485  57.914  27.134  1.00  0.00    -0.234 OA
ENDBRANCH  38  39
ENDBRANCH  37  38
ENDBRANCH  35  37
ENDBRANCH  10  33
TORSDOF 13
ENDMDL
MODEL 3
REMARK VINA RESULT: -7.104231082      1.540      2.063
REMARK  13 active torsions:
REMARK  status: ('A' for Active; 'I' for Inactive)
REMARK    1  A    between atoms: C2_2  and  C4_4 
REMARK    2  A    between atoms: C4_4  and  C5_5 
REMARK    3  A    between atoms: C4_4  and  C6_10 
REMARK    4  A    between atoms: C5_5  and  N1_6 
REMARK       I    between atoms: C6_10  and  N2_12 
REMARK    5  A    between atoms: C13_19  and  C14_20 
REMARK       I    between atoms: C14_20  and  N3_22 
REMARK    6  A    between atoms: N3_22  and  C15_24 
REMARK    7  A    between atoms: C15_24  and  C16_25 
REMARK    8  A    between atoms: C16_25  and  N4_26 
REMARK       I    between atoms: N4_26  and  C17_27 
REMARK    9  A    between atoms: N6_34  and  C22_35 
REMARK   10  A    between atoms: C22_35  and  O4_36 
REMARK   11  A    between atoms: C22_35  and  N7_38 
REMARK   12  A    between atoms: N7_38  and  C23_40 
REMARK   13  A    between atoms: C23_40  and  C24_41 
ROOT
HETATM    1  C6  UNL     1      14.205  67.140  19.526  1.00  0.00     0.244 C 
HETATM    2  O1  UNL     1      14.109  66.393  18.503  1.00  0.00    -0.271 OA
HETATM    3  N2  UNL     1      14.908  66.774  20.645  1.00  0.00    -0.251 N 
HETATM    4  C7  UNL     1      14.585  67.580  21.870  1.00  0.00     0.153 C 
HETATM    5  C8  UNL     1      13.813  66.515  22.695  1.00  0.00     0.027 C 
HETATM    6  C9  UNL     1      14.653  65.709  23.586  1.00  0.00    -0.002 C 
HETATM    7  C10 UNL     1      13.780  65.101  24.663  1.00  0.00     0.005 C 
HETATM    8  C11 UNL     1      14.667  64.406  25.623  1.00  0.00     0.002 C 
HETATM    9  C12 UNL     1      16.144  64.549  25.305  1.00  0.00     0.020 C 
HETATM   10  C13 UNL     1      16.430  64.079  23.930  1.00  0.00     0.050 C 
HETATM   11  C18 UNL     1      17.836  64.539  23.458  1.00  0.00     0.026 C 
HETATM   12  C19 UNL     1      17.568  64.421  21.907  1.00  0.00     0.056 C 
HETATM   13  C20 UNL     1      16.344  65.234  21.931  1.00  0.00     0.022 C 
HETATM   14  C21 UNL     1      15.450  64.573  22.904  1.00  0.00     0.055 C 
HETATM   15  N6  UNL     1      15.846  65.749  20.675  1.00  0.00    -0.223 N 
ENDROOT
BRANCH   1  16
HETATM   16  C4  UNL     1      13.499  68.434  19.388  1.00  0.00     0.108 C 
BRANCH  16  17
HETATM   17  C2  UNL     1      11.999  68.270  19.240  1.00  0.00    -0.008 C 
HETATM   18  C1  UNL     1      11.581  68.607  17.816  1.00  0.00     0.010 C 
HETATM   19  C3  UNL     1      11.149  68.992  20.206  1.00  0.00     0.010 C 
ENDBRANCH  16  17
BRANCH  16  20
HETATM   20  C5  UNL     1      14.056  69.202  18.199  1.00  0.00     0.244 C 
BRANCH  20  21
HETATM   21  N1  UNL     1      15.504  69.026  18.126  1.00  0.00    -0.079 N 
ATOM     22  H13 UNL     1      15.946  69.103  19.042  1.00  0.00     0.274 HD
ATOM     23  H12 UNL     1      15.762  68.062  17.918  1.00  0.00     0.274 HD
ATOM     24  H11 UNL     1      15.901  69.683  17.453  1.00  0.00     0.274 HD
ENDBRANCH  20  21
ENDBRANCH  16  20
ENDBRANCH   1  16
BRANCH  15  25
HETATM   25  C22 UNL     1      16.460  65.355  19.497  1.00  0.00     0.239 C 
BRANCH  25  26
HETATM   26  O4  UNL     1      16.061  64.149  19.130  1.00  0.00    -0.331 OA
ATOM     27  H4  UNL     1      16.503  63.867  18.338  1.00  0.00     0.221 HD
ENDBRANCH  25  26
BRANCH  25  28
HETATM   28  N7  UNL     1      17.395  65.904  18.625  1.00  0.00    -0.354 N 
ATOM     29  H7  UNL     1      17.159  65.880  17.633  1.00  0.00     0.163 HD
BRANCH  28  30
HETATM   30  C23 UNL     1      18.645  66.494  18.964  1.00  0.00     0.138 C 
BRANCH  30  31
HETATM   31  C24 UNL     1      18.721  67.935  19.292  1.00  0.00     0.134 C 
HETATM   32 CL1  UNL     1      17.957  68.527  20.739  1.00  0.00    -0.129 Cl
ENDBRANCH  30  31
ENDBRANCH  28  30
ENDBRANCH  25  28
ENDBRANCH  15  25
BRANCH  10  33
HETATM   33  C14 UNL     1      16.628  62.578  23.975  1.00  0.00     0.227 C 
HETATM   34  O2  UNL     1      15.749  61.858  23.519  1.00  0.00    -0.273 OA
HETATM   35  N3  UNL     1      17.830  62.152  24.545  1.00  0.00    -0.355 N 
ATOM     36  H3  UNL     1      18.409  62.922  24.878  1.00  0.00     0.162 HD
BRANCH  35  37
HETATM   37  C15 UNL     1      18.425  60.871  24.762  1.00  0.00     0.182 C 
BRANCH  37  38
HETATM   38  C16 UNL     1      19.488  61.105  25.846  1.00  0.00     0.180 C 
BRANCH  38  39
HETATM   39  N4  UNL     1      19.480  62.207  26.634  1.00  0.00    -0.370 NA
HETATM   40  C17 UNL     1      19.472  63.288  27.408  1.00  0.00     0.405 C 
HETATM   41  N5  UNL     1      19.484  64.652  26.861  1.00  0.00    -0.025 NA
HETATM   42  O3  UNL     1      19.453  63.363  28.702  1.00  0.00    -0.234 OA
ENDBRANCH  38  39
ENDBRANCH  37  38
ENDBRANCH  35  37
ENDBRANCH  10  33
TORSDOF 13
ENDMDL
MODEL 4
REMARK VINA RESULT: -6.829232673      5.212      7.639
REMARK  13 active torsions:
REMARK  status: ('A' for Active; 'I' for Inactive)
REMARK    1  A    between atoms: C2_2  and  C4_4 
REMARK    2  A    between atoms: C4_4  and  C5_5 
REMARK    3  A    between atoms: C4_4  and  C6_10 
REMARK    4  A    between atoms: C5_5  and  N1_6 
REMARK       I    between atoms: C6_10  and  N2_12 
REMARK    5  A    between atoms: C13_19  and  C14_20 
REMARK       I    between atoms: C14_20  and  N3_22 
REMARK    6  A    between atoms: N3_22  and  C15_24 
REMARK    7  A    between atoms: C15_24  and  C16_25 
REMARK    8  A    between atoms: C16_25  and  N4_26 
REMARK       I    between atoms: N4_26  and  C17_27 
REMARK    9  A    between atoms: N6_34  and  C22_35 
REMARK   10  A    between atoms: C22_35  and  O4_36 
REMARK   11  A    between atoms: C22_35  and  N7_38 
REMARK   12  A    between atoms: N7_38  and  C23_40 
REMARK   13  A    between atoms: C23_40  and  C24_41 
ROOT
HETATM    1  C6  UNL     1      12.638  63.202  28.059  1.00  0.00     0.244 C 
HETATM    2  O1  UNL     1      12.477  62.473  27.032  1.00  0.00    -0.271 OA
HETATM    3  N2  UNL     1      13.706  64.051  28.204  1.00  0.00    -0.251 N 
HETATM    4  C7  UNL     1      13.940  64.517  29.611  1.00  0.00     0.153 C 
HETATM    5  C8  UNL     1      15.240  63.733  29.941  1.00  0.00     0.027 C 
HETATM    6  C9  UNL     1      16.479  64.446  29.619  1.00  0.00    -0.002 C 
HETATM    7  C10 UNL     1      17.613  63.842  30.420  1.00  0.00     0.005 C 
HETATM    8  C11 UNL     1      18.821  64.662  30.181  1.00  0.00     0.002 C 
HETATM    9  C12 UNL     1      18.577  65.866  29.290  1.00  0.00     0.020 C 
HETATM   10  C13 UNL     1      17.993  65.446  27.995  1.00  0.00     0.050 C 
HETATM   11  C18 UNL     1      17.409  66.658  27.220  1.00  0.00     0.026 C 
HETATM   12  C19 UNL     1      16.420  65.842  26.299  1.00  0.00     0.056 C 
HETATM   13  C20 UNL     1      15.781  65.123  27.411  1.00  0.00     0.022 C 
HETATM   14  C21 UNL     1      16.881  64.445  28.126  1.00  0.00     0.055 C 
HETATM   15  N6  UNL     1      14.522  64.461  27.157  1.00  0.00    -0.223 N 
ENDROOT
BRANCH   1  16
HETATM   16  C4  UNL     1      11.565  63.056  29.069  1.00  0.00     0.108 C 
BRANCH  16  17
HETATM   17  C2  UNL     1      11.444  61.640  29.595  1.00  0.00    -0.008 C 
HETATM   18  C1  UNL     1      10.162  61.004  29.075  1.00  0.00     0.010 C 
HETATM   19  C3  UNL     1      11.549  61.456  31.055  1.00  0.00     0.010 C 
ENDBRANCH  16  17
BRANCH  16  20
HETATM   20  C5  UNL     1      10.236  63.505  28.480  1.00  0.00     0.244 C 
BRANCH  20  21
HETATM   21  N1  UNL     1      10.442  64.661  27.610  1.00  0.00    -0.079 N 
ATOM     22  H13 UNL     1       9.784  65.414  27.811  1.00  0.00     0.274 HD
ATOM     23  H12 UNL     1      11.306  65.157  27.831  1.00  0.00     0.274 HD
ATOM     24  H11 UNL     1      10.406  64.371  26.633  1.00  0.00     0.274 HD
ENDBRANCH  20  21
ENDBRANCH  16  20
ENDBRANCH   1  16
BRANCH  15  25
HETATM   25  C22 UNL     1      14.034  64.420  25.860  1.00  0.00     0.239 C 
BRANCH  25  26
HETATM   26  O4  UNL     1      13.020  65.255  25.703  1.00  0.00    -0.331 OA
ATOM     27  H4  UNL     1      12.678  65.217  24.818  1.00  0.00     0.221 HD
ENDBRANCH  25  26
BRANCH  25  28
HETATM   28  N7  UNL     1      14.335  63.712  24.700  1.00  0.00    -0.354 N 
ATOM     29  H7  UNL     1      13.768  63.922  23.880  1.00  0.00     0.163 HD
BRANCH  28  30
HETATM   30  C23 UNL     1      15.348  62.726  24.534  1.00  0.00     0.138 C 
BRANCH  30  31
HETATM   31  C24 UNL     1      16.305  62.827  23.410  1.00  0.00     0.134 C 
HETATM   32 CL1  UNL     1      17.628  63.953  23.509  1.00  0.00    -0.129 Cl
ENDBRANCH  30  31
ENDBRANCH  28  30
ENDBRANCH  25  28
ENDBRANCH  15  25
BRANCH  10  33
HETATM   33  C14 UNL     1      19.127  65.046  27.073  1.00  0.00     0.227 C 
HETATM   34  O2  UNL     1      19.929  65.903  26.726  1.00  0.00    -0.273 OA
HETATM   35  N3  UNL     1      19.148  63.699  26.705  1.00  0.00    -0.355 N 
ATOM     36  H3  UNL     1      18.372  63.165  27.096  1.00  0.00     0.162 HD
BRANCH  35  37
HETATM   37  C15 UNL     1      20.023  62.905  25.901  1.00  0.00     0.182 C 
BRANCH  37  38
HETATM   38  C16 UNL     1      19.576  61.454  26.140  1.00  0.00     0.180 C 
BRANCH  38  39
HETATM   39  N4  UNL     1      19.257  60.623  25.119  1.00  0.00    -0.370 NA
HETATM   40  C17 UNL     1      18.944  59.808  24.115  1.00  0.00     0.405 C 
HETATM   41  N5  UNL     1      19.686  58.569  23.843  1.00  0.00    -0.025 NA
HETATM   42  O3  UNL     1      17.997  59.923  23.238  1.00  0.00    -0.234 OA
ENDBRANCH  38  39
ENDBRANCH  37  38
ENDBRANCH  35  37
ENDBRANCH  10  33
TORSDOF 13
ENDMDL
MODEL 5
REMARK VINA RESULT: -6.818660104      1.954      2.393
REMARK  13 active torsions:
REMARK  status: ('A' for Active; 'I' for Inactive)
REMARK    1  A    between atoms: C2_2  and  C4_4 
REMARK    2  A    between atoms: C4_4  and  C5_5 
REMARK    3  A    between atoms: C4_4  and  C6_10 
REMARK    4  A    between atoms: C5_5  and  N1_6 
REMARK       I    between atoms: C6_10  and  N2_12 
REMARK    5  A    between atoms: C13_19  and  C14_20 
REMARK       I    between atoms: C14_20  and  N3_22 
REMARK    6  A    between atoms: N3_22  and  C15_24 
REMARK    7  A    between atoms: C15_24  and  C16_25 
REMARK    8  A    between atoms: C16_25  and  N4_26 
REMARK       I    between atoms: N4_26  and  C17_27 
REMARK    9  A    between atoms: N6_34  and  C22_35 
REMARK   10  A    between atoms: C22_35  and  O4_36 
REMARK   11  A    between atoms: C22_35  and  N7_38 
REMARK   12  A    between atoms: N7_38  and  C23_40 
REMARK   13  A    between atoms: C23_40  and  C24_41 
ROOT
HETATM    1  C6  UNL     1      13.311  67.351  21.475  1.00  0.00     0.244 C 
HETATM    2  O1  UNL     1      13.527  66.926  20.297  1.00  0.00    -0.271 OA
HETATM    3  N2  UNL     1      14.129  67.048  22.533  1.00  0.00    -0.251 N 
HETATM    4  C7  UNL     1      13.515  67.293  23.880  1.00  0.00     0.153 C 
HETATM    5  C8  UNL     1      13.305  65.828  24.350  1.00  0.00     0.027 C 
HETATM    6  C9  UNL     1      14.432  65.260  25.093  1.00  0.00    -0.002 C 
HETATM    7  C10 UNL     1      13.938  64.083  25.908  1.00  0.00     0.005 C 
HETATM    8  C11 UNL     1      15.061  63.613  26.749  1.00  0.00     0.002 C 
HETATM    9  C12 UNL     1      16.319  64.450  26.613  1.00  0.00     0.020 C 
HETATM   10  C13 UNL     1      16.750  64.518  25.197  1.00  0.00     0.050 C 
HETATM   11  C18 UNL     1      17.803  65.639  24.982  1.00  0.00     0.026 C 
HETATM   12  C19 UNL     1      17.577  65.821  23.429  1.00  0.00     0.056 C 
HETATM   13  C20 UNL     1      16.122  65.996  23.536  1.00  0.00     0.022 C 
HETATM   14  C21 UNL     1      15.630  64.791  24.235  1.00  0.00     0.055 C 
HETATM   15  N6  UNL     1      15.420  66.552  22.402  1.00  0.00    -0.223 N 
ENDROOT
BRANCH   1  16
HETATM   16  C4  UNL     1      12.107  68.207  21.589  1.00  0.00     0.108 C 
BRANCH  16  17
HETATM   17  C2  UNL     1      10.839  67.493  21.163  1.00  0.00    -0.008 C 
HETATM   18  C1  UNL     1       9.702  68.497  21.028  1.00  0.00     0.010 C 
HETATM   19  C3  UNL     1      10.410  66.344  21.983  1.00  0.00     0.010 C 
ENDBRANCH  16  17
BRANCH  16  20
HETATM   20  C5  UNL     1      12.292  69.471  20.763  1.00  0.00     0.244 C 
BRANCH  20  21
HETATM   21  N1  UNL     1      13.710  69.817  20.691  1.00  0.00    -0.079 N 
ATOM     22  H13 UNL     1      14.227  69.480  21.503  1.00  0.00     0.274 HD
ATOM     23  H12 UNL     1      14.198  69.282  19.973  1.00  0.00     0.274 HD
ATOM     24  H11 UNL     1      13.816  70.823  20.559  1.00  0.00     0.274 HD
ENDBRANCH  20  21
ENDBRANCH  16  20
ENDBRANCH   1  16
BRANCH  15  25
HETATM   25  C22 UNL     1      16.117  66.777  21.224  1.00  0.00     0.239 C 
BRANCH  25  26
HETATM   26  O4  UNL     1      16.397  68.061  21.072  1.00  0.00    -0.331 OA
ATOM     27  H4  UNL     1      15.691  68.516  20.629  1.00  0.00     0.221 HD
ENDBRANCH  25  26
BRANCH  25  28
HETATM   28  N7  UNL     1      16.574  65.994  20.168  1.00  0.00    -0.354 N 
ATOM     29  H7  UNL     1      16.456  64.986  20.266  1.00  0.00     0.163 HD
BRANCH  28  30
HETATM   30  C23 UNL     1      17.188  66.446  18.967  1.00  0.00     0.138 C 
BRANCH  30  31
HETATM   31  C24 UNL     1      18.649  66.676  18.921  1.00  0.00     0.134 C 
HETATM   32 CL1  UNL     1      19.303  67.813  17.776  1.00  0.00    -0.129 Cl
ENDBRANCH  30  31
ENDBRANCH  28  30
ENDBRANCH  25  28
ENDBRANCH  15  25
BRANCH  10  33
HETATM   33  C14 UNL     1      17.584  63.290  24.897  1.00  0.00     0.227 C 
HETATM   34  O2  UNL     1      17.200  62.520  24.027  1.00  0.00    -0.273 OA
HETATM   35  N3  UNL     1      18.746  63.157  25.662  1.00  0.00    -0.355 N 
ATOM     36  H3  UNL     1      18.862  63.906  26.345  1.00  0.00     0.162 HD
BRANCH  35  37
HETATM   37  C15 UNL     1      19.806  62.200  25.696  1.00  0.00     0.182 C 
BRANCH  37  38
HETATM   38  C16 UNL     1      19.151  60.897  26.183  1.00  0.00     0.180 C 
BRANCH  38  39
HETATM   39  N4  UNL     1      19.339  59.717  25.545  1.00  0.00    -0.370 NA
HETATM   40  C17 UNL     1      19.523  58.558  24.919  1.00  0.00     0.405 C 
HETATM   41  N5  UNL     1      19.633  58.458  23.457  1.00  0.00    -0.025 NA
HETATM   42  O3  UNL     1      19.635  57.369  25.424  1.00  0.00    -0.234 OA
ENDBRANCH  38  39
ENDBRANCH  37  38
ENDBRANCH  35  37
ENDBRANCH  10  33
TORSDOF 13
ENDMDL
