MODEL 1
REMARK VINA RESULT: -8.142515508      0.000      0.000
REMARK  9 active torsions:
REMARK  status: ('A' for Active; 'I' for Inactive)
REMARK    1  A    between atoms: C11_16  and  N4_17 
REMARK       I    between atoms: N4_17  and  C12_19 
REMARK       I    between atoms: C12_19  and  N6_24 
REMARK    2  A    between atoms: N6_24  and  C15_26 
REMARK    3  A    between atoms: C15_26  and  C16_27 
REMARK       I    between atoms: C16_27  and  N7_29 
REMARK    4  A    between atoms: N7_29  and  C17_31 
REMARK    5  A    between atoms: C17_31  and  C18_32 
REMARK       I    between atoms: C18_32  and  N8_34 
REMARK    6  A    between atoms: N8_34  and  C19_36 
REMARK    7  A    between atoms: C19_36  and  C20_37 
REMARK    8  A    between atoms: C19_36  and  C24_41 
REMARK    9  A    between atoms: C20_37  and  C21_38 
ROOT
HETATM    1  C1  UNL     1      19.742  62.683  27.372  1.00  0.00     0.221 C 
HETATM    2  N1  UNL     1      18.960  63.083  26.618  1.00  0.00    -0.462 NA
HETATM    3  C2  UNL     1      17.977  63.560  25.696  1.00  0.00     0.215 C 
HETATM    4  C3  UNL     1      17.451  64.908  26.114  1.00  0.00     0.106 C 
HETATM    5  C4  UNL     1      16.167  64.567  26.832  1.00  0.00     0.393 C 
HETATM    6  N2  UNL     1      16.444  64.463  28.237  1.00  0.00    -0.041 N 
ATOM      7  H21 UNL     1      16.966  65.274  28.570  1.00  0.00     0.280 HD
ATOM      8  H22 UNL     1      17.136  63.736  28.423  1.00  0.00     0.280 HD
HETATM    9  C5  UNL     1      15.247  64.255  29.022  1.00  0.00     0.189 C 
HETATM   10  C6  UNL     1      14.468  65.549  29.202  1.00  0.00     0.040 C 
HETATM   11  C7  UNL     1      14.346  63.262  28.338  1.00  0.00     0.038 C 
HETATM   12  C8  UNL     1      13.788  62.339  29.387  1.00  0.00     0.014 C 
HETATM   13  C9  UNL     1      15.168  62.474  27.350  1.00  0.00     0.248 C 
HETATM   14  N3  UNL     1      15.689  63.319  26.300  1.00  0.00    -0.017 N 
HETATM   15  C10 UNL     1      14.603  63.657  25.383  1.00  0.00     0.278 C 
HETATM   16  C11 UNL     1      16.785  62.641  25.647  1.00  0.00     0.341 C 
ENDROOT
BRANCH  16  17
HETATM   17  N4  UNL     1      16.449  62.224  24.308  1.00  0.00    -0.192 N 
HETATM   18  C12 UNL     1      17.362  62.515  23.240  1.00  0.00     0.683 C 
HETATM   19  N5  UNL     1      18.367  61.739  23.084  1.00  0.00    -0.150 N 
HETATM   20  N6  UNL     1      17.098  63.638  22.427  1.00  0.00    -0.217 N 
HETATM   21  C13 UNL     1      18.673  60.635  23.843  1.00  0.00     0.015 C 
ATOM     22  H5  UNL     1      19.005  61.962  22.319  1.00  0.00     0.195 HD
HETATM   23  C14 UNL     1      18.947  59.651  24.490  1.00  0.00     0.037 C 
ATOM     24  H6  UNL     1      16.239  64.168  22.571  1.00  0.00     0.178 HD
ATOM     25  H4  UNL     1      15.576  61.730  24.124  1.00  0.00     0.180 HD
BRANCH  20  26
HETATM   26  C15 UNL     1      18.013  64.048  21.403  1.00  0.00     0.240 C 
BRANCH  26  27
HETATM   27  C16 UNL     1      17.242  64.496  20.216  1.00  0.00     0.236 C 
HETATM   28  O1  UNL     1      17.609  64.239  19.029  1.00  0.00    -0.272 OA
HETATM   29  N7  UNL     1      16.049  65.240  20.449  1.00  0.00    -0.351 N 
ATOM     30  H7  UNL     1      15.755  65.434  21.406  1.00  0.00     0.163 HD
BRANCH  29  31
HETATM   31  C17 UNL     1      15.255  65.720  19.352  1.00  0.00     0.225 C 
BRANCH  31  32
HETATM   32  C18 UNL     1      14.681  67.024  19.678  1.00  0.00     0.236 C 
HETATM   33  O2  UNL     1      15.365  68.048  19.890  1.00  0.00    -0.272 OA
HETATM   34  N8  UNL     1      13.253  67.157  19.766  1.00  0.00    -0.345 N 
ATOM     35  H8  UNL     1      12.655  66.348  19.598  1.00  0.00     0.163 HD
BRANCH  34  36
HETATM   36  C19 UNL     1      12.677  68.411  20.086  1.00  0.00     0.185 C 
BRANCH  36  37
HETATM   37  C20 UNL     1      11.821  68.527  21.283  1.00  0.00     0.040 C 
BRANCH  37  38
HETATM   38  C21 UNL     1      10.546  67.774  21.204  1.00  0.00    -0.020 C 
HETATM   39  C22 UNL     1       9.462  68.681  21.868  1.00  0.00     0.009 C 
HETATM   40  C23 UNL     1      10.541  66.536  22.055  1.00  0.00     0.009 C 
ENDBRANCH  37  38
ENDBRANCH  36  37
BRANCH  36  41
HETATM   41  C24 UNL     1      12.006  69.018  18.877  1.00  0.00     0.196 C 
HETATM   42  O3  UNL     1      11.706  70.241  18.857  1.00  0.00    -0.646 OA
HETATM   43  O4  UNL     1      11.708  68.255  17.776  1.00  0.00    -0.646 OA
ENDBRANCH  36  41
ENDBRANCH  34  36
ENDBRANCH  31  32
ENDBRANCH  29  31
ENDBRANCH  26  27
ENDBRANCH  20  26
ENDBRANCH  16  17
TORSDOF 9
ENDMDL
MODEL 2
REMARK VINA RESULT: -8.027987348      3.236      8.238
REMARK  9 active torsions:
REMARK  status: ('A' for Active; 'I' for Inactive)
REMARK    1  A    between atoms: C11_16  and  N4_17 
REMARK       I    between atoms: N4_17  and  C12_19 
REMARK       I    between atoms: C12_19  and  N6_24 
REMARK    2  A    between atoms: N6_24  and  C15_26 
REMARK    3  A    between atoms: C15_26  and  C16_27 
REMARK       I    between atoms: C16_27  and  N7_29 
REMARK    4  A    between atoms: N7_29  and  C17_31 
REMARK    5  A    between atoms: C17_31  and  C18_32 
REMARK       I    between atoms: C18_32  and  N8_34 
REMARK    6  A    between atoms: N8_34  and  C19_36 
REMARK    7  A    between atoms: C19_36  and  C20_37 
REMARK    8  A    between atoms: C19_36  and  C24_41 
REMARK    9  A    between atoms: C20_37  and  C21_38 
ROOT
HETATM    1  C1  UNL     1      18.105  66.901  18.555  1.00  0.00     0.221 C 
HETATM    2  N1  UNL     1      17.215  66.421  19.120  1.00  0.00    -0.462 NA
HETATM    3  C2  UNL     1      16.112  65.851  19.828  1.00  0.00     0.215 C 
HETATM    4  C3  UNL     1      14.960  65.569  18.900  1.00  0.00     0.106 C 
HETATM    5  C4  UNL     1      14.065  66.770  19.089  1.00  0.00     0.393 C 
HETATM    6  N2  UNL     1      14.381  67.738  18.077  1.00  0.00    -0.041 N 
ATOM      7  H21 UNL     1      14.401  67.310  17.152  1.00  0.00     0.280 HD
ATOM      8  H22 UNL     1      15.355  68.033  18.142  1.00  0.00     0.280 HD
HETATM    9  C5  UNL     1      13.490  68.877  18.106  1.00  0.00     0.189 C 
HETATM   10  C6  UNL     1      12.148  68.550  17.469  1.00  0.00     0.040 C 
HETATM   11  C7  UNL     1      13.238  69.301  19.528  1.00  0.00     0.038 C 
HETATM   12  C8  UNL     1      13.272  70.805  19.579  1.00  0.00     0.014 C 
HETATM   13  C9  UNL     1      14.334  68.736  20.395  1.00  0.00     0.248 C 
HETATM   14  N3  UNL     1      14.310  67.291  20.406  1.00  0.00    -0.017 N 
HETATM   15  C10 UNL     1      13.192  66.844  21.235  1.00  0.00     0.278 C 
HETATM   16  C11 UNL     1      15.585  66.800  20.872  1.00  0.00     0.341 C 
ENDROOT
BRANCH  16  17
HETATM   17  N4  UNL     1      15.496  66.204  22.182  1.00  0.00    -0.192 N 
HETATM   18  C12 UNL     1      16.626  65.484  22.696  1.00  0.00     0.683 C 
HETATM   19  N5  UNL     1      17.579  66.159  23.218  1.00  0.00    -0.150 N 
HETATM   20  N6  UNL     1      16.619  64.076  22.596  1.00  0.00    -0.217 N 
HETATM   21  C13 UNL     1      17.639  67.527  23.342  1.00  0.00     0.015 C 
ATOM     22  H5  UNL     1      18.373  65.630  23.579  1.00  0.00     0.195 HD
HETATM   23  C14 UNL     1      17.700  68.727  23.475  1.00  0.00     0.037 C 
ATOM     24  H6  UNL     1      15.792  63.605  22.229  1.00  0.00     0.178 HD
ATOM     25  H4  UNL     1      14.643  66.292  22.733  1.00  0.00     0.180 HD
BRANCH  20  26
HETATM   26  C15 UNL     1      17.751  63.295  23.000  1.00  0.00     0.240 C 
BRANCH  26  27
HETATM   27  C16 UNL     1      17.375  62.469  24.174  1.00  0.00     0.236 C 
HETATM   28  O1  UNL     1      17.586  61.219  24.223  1.00  0.00    -0.272 OA
HETATM   29  N7  UNL     1      16.758  63.133  25.275  1.00  0.00    -0.351 N 
ATOM     30  H7  UNL     1      16.602  64.140  25.232  1.00  0.00     0.163 HD
BRANCH  29  31
HETATM   31  C17 UNL     1      16.354  62.400  26.443  1.00  0.00     0.225 C 
BRANCH  31  32
HETATM   32  C18 UNL     1      15.275  63.106  27.132  1.00  0.00     0.236 C 
HETATM   33  O2  UNL     1      15.416  63.680  28.233  1.00  0.00    -0.272 OA
HETATM   34  N8  UNL     1      13.973  63.154  26.527  1.00  0.00    -0.345 N 
ATOM     35  H8  UNL     1      13.812  62.701  25.627  1.00  0.00     0.163 HD
BRANCH  34  36
HETATM   36  C19 UNL     1      12.913  63.829  27.181  1.00  0.00     0.185 C 
BRANCH  36  37
HETATM   37  C20 UNL     1      11.700  63.075  27.555  1.00  0.00     0.040 C 
BRANCH  37  38
HETATM   38  C21 UNL     1      11.963  61.783  28.234  1.00  0.00    -0.020 C 
HETATM   39  C22 UNL     1      10.598  61.028  28.279  1.00  0.00     0.009 C 
HETATM   40  C23 UNL     1      12.326  61.944  29.683  1.00  0.00     0.009 C 
ENDBRANCH  37  38
ENDBRANCH  36  37
BRANCH  36  41
HETATM   41  C24 UNL     1      12.558  65.104  26.453  1.00  0.00     0.196 C 
HETATM   42  O3  UNL     1      11.389  65.568  26.509  1.00  0.00    -0.646 OA
HETATM   43  O4  UNL     1      13.497  65.783  25.719  1.00  0.00    -0.646 OA
ENDBRANCH  36  41
ENDBRANCH  34  36
ENDBRANCH  31  32
ENDBRANCH  29  31
ENDBRANCH  26  27
ENDBRANCH  20  26
ENDBRANCH  16  17
TORSDOF 9
ENDMDL
MODEL 3
REMARK VINA RESULT: -8.005103217      5.183      8.817
REMARK  9 active torsions:
REMARK  status: ('A' for Active; 'I' for Inactive)
REMARK    1  A    between atoms: C11_16  and  N4_17 
REMARK       I    between atoms: N4_17  and  C12_19 
REMARK       I    between atoms: C12_19  and  N6_24 
REMARK    2  A    between atoms: N6_24  and  C15_26 
REMARK    3  A    between atoms: C15_26  and  C16_27 
REMARK       I    between atoms: C16_27  and  N7_29 
REMARK    4  A    between atoms: N7_29  and  C17_31 
REMARK    5  A    between atoms: C17_31  and  C18_32 
REMARK       I    between atoms: C18_32  and  N8_34 
REMARK    6  A    between atoms: N8_34  and  C19_36 
REMARK    7  A    between atoms: C19_36  and  C20_37 
REMARK    8  A    between atoms: C19_36  and  C24_41 
REMARK    9  A    between atoms: C20_37  and  C21_38 
ROOT
HETATM    1  C1  UNL     1       9.828  64.817  27.515  1.00  0.00     0.221 C 
HETATM    2  N1  UNL     1      10.756  64.215  27.856  1.00  0.00    -0.462 NA
HETATM    3  C2  UNL     1      11.895  63.475  28.301  1.00  0.00     0.215 C 
HETATM    4  C3  UNL     1      11.689  61.995  28.111  1.00  0.00     0.106 C 
HETATM    5  C4  UNL     1      11.239  61.533  29.477  1.00  0.00     0.393 C 
HETATM    6  N2  UNL     1       9.804  61.526  29.506  1.00  0.00    -0.041 N 
ATOM      7  H21 UNL     1       9.422  61.036  28.696  1.00  0.00     0.280 HD
ATOM      8  H22 UNL     1       9.428  62.457  29.325  1.00  0.00     0.280 HD
HETATM    9  C5  UNL     1       9.280  60.982  30.739  1.00  0.00     0.189 C 
HETATM   10  C6  UNL     1       9.355  59.464  30.754  1.00  0.00     0.040 C 
HETATM   11  C7  UNL     1      10.072  61.498  31.910  1.00  0.00     0.038 C 
HETATM   12  C8  UNL     1       9.107  61.837  33.014  1.00  0.00     0.014 C 
HETATM   13  C9  UNL     1      10.808  62.741  31.477  1.00  0.00     0.248 C 
HETATM   14  N3  UNL     1      11.777  62.451  30.445  1.00  0.00    -0.017 N 
HETATM   15  C10 UNL     1      12.924  61.778  31.049  1.00  0.00     0.278 C 
HETATM   16  C11 UNL     1      12.135  63.678  29.774  1.00  0.00     0.341 C 
ENDROOT
BRANCH  16  17
HETATM   17  N4  UNL     1      13.485  64.090  30.073  1.00  0.00    -0.192 N 
HETATM   18  C12 UNL     1      14.182  64.922  29.134  1.00  0.00     0.683 C 
HETATM   19  N5  UNL     1      13.939  66.178  29.152  1.00  0.00    -0.150 N 
HETATM   20  N6  UNL     1      15.092  64.306  28.248  1.00  0.00    -0.217 N 
HETATM   21  C13 UNL     1      13.066  66.830  29.990  1.00  0.00     0.015 C 
ATOM     22  H5  UNL     1      14.445  66.753  28.478  1.00  0.00     0.195 HD
HETATM   23  C14 UNL     1      12.315  67.421  30.731  1.00  0.00     0.037 C 
ATOM     24  H6  UNL     1      15.283  63.309  28.341  1.00  0.00     0.178 HD
ATOM     25  H4  UNL     1      13.936  63.795  30.938  1.00  0.00     0.180 HD
BRANCH  20  26
HETATM   26  C15 UNL     1      15.754  65.055  27.221  1.00  0.00     0.240 C 
BRANCH  26  27
HETATM   27  C16 UNL     1      17.211  64.779  27.282  1.00  0.00     0.236 C 
HETATM   28  O1  UNL     1      18.077  65.593  26.840  1.00  0.00    -0.272 OA
HETATM   29  N7  UNL     1      17.622  63.545  27.866  1.00  0.00    -0.351 N 
ATOM     30  H7  UNL     1      16.920  62.901  28.229  1.00  0.00     0.163 HD
BRANCH  29  31
HETATM   31  C17 UNL     1      19.014  63.200  27.950  1.00  0.00     0.225 C 
BRANCH  31  32
HETATM   32  C18 UNL     1      19.486  62.696  26.661  1.00  0.00     0.236 C 
HETATM   33  O2  UNL     1      20.468  63.169  26.051  1.00  0.00    -0.272 OA
HETATM   34  N8  UNL     1      18.795  61.597  26.046  1.00  0.00    -0.345 N 
ATOM     35  H8  UNL     1      17.989  61.178  26.509  1.00  0.00     0.163 HD
BRANCH  34  36
HETATM   36  C19 UNL     1      19.234  61.097  24.794  1.00  0.00     0.185 C 
BRANCH  36  37
HETATM   37  C20 UNL     1      18.469  61.430  23.576  1.00  0.00     0.040 C 
BRANCH  37  38
HETATM   38  C21 UNL     1      17.785  62.745  23.619  1.00  0.00    -0.020 C 
HETATM   39  C22 UNL     1      16.254  62.440  23.650  1.00  0.00     0.009 C 
HETATM   40  C23 UNL     1      17.962  63.540  22.357  1.00  0.00     0.009 C 
ENDBRANCH  37  38
ENDBRANCH  36  37
BRANCH  36  41
HETATM   41  C24 UNL     1      19.509  59.614  24.875  1.00  0.00     0.196 C 
HETATM   42  O3  UNL     1      19.559  59.032  25.990  1.00  0.00    -0.646 OA
HETATM   43  O4  UNL     1      19.710  58.870  23.739  1.00  0.00    -0.646 OA
ENDBRANCH  36  41
ENDBRANCH  34  36
ENDBRANCH  31  32
ENDBRANCH  29  31
ENDBRANCH  26  27
ENDBRANCH  20  26
ENDBRANCH  16  17
TORSDOF 9
ENDMDL
MODEL 4
REMARK VINA RESULT: -7.967614943      5.613      8.527
REMARK  9 active torsions:
REMARK  status: ('A' for Active; 'I' for Inactive)
REMARK    1  A    between atoms: C11_16  and  N4_17 
REMARK       I    between atoms: N4_17  and  C12_19 
REMARK       I    between atoms: C12_19  and  N6_24 
REMARK    2  A    between atoms: N6_24  and  C15_26 
REMARK    3  A    between atoms: C15_26  and  C16_27 
REMARK       I    between atoms: C16_27  and  N7_29 
REMARK    4  A    between atoms: N7_29  and  C17_31 
REMARK    5  A    between atoms: C17_31  and  C18_32 
REMARK       I    between atoms: C18_32  and  N8_34 
REMARK    6  A    between atoms: N8_34  and  C19_36 
REMARK    7  A    between atoms: C19_36  and  C20_37 
REMARK    8  A    between atoms: C19_36  and  C24_41 
REMARK    9  A    between atoms: C20_37  and  C21_38 
ROOT
HETATM    1  C1  UNL     1      15.394  61.544  32.204  1.00  0.00     0.221 C 
HETATM    2  N1  UNL     1      14.751  62.489  32.022  1.00  0.00    -0.462 NA
HETATM    3  C2  UNL     1      13.951  63.648  31.774  1.00  0.00     0.215 C 
HETATM    4  C3  UNL     1      12.645  63.575  32.520  1.00  0.00     0.106 C 
HETATM    5  C4  UNL     1      11.681  63.062  31.477  1.00  0.00     0.393 C 
HETATM    6  N2  UNL     1      11.598  61.634  31.595  1.00  0.00    -0.041 N 
ATOM      7  H21 UNL     1      11.433  61.354  32.562  1.00  0.00     0.280 HD
ATOM      8  H22 UNL     1      12.509  61.199  31.452  1.00  0.00     0.280 HD
HETATM    9  C5  UNL     1      10.604  61.064  30.711  1.00  0.00     0.189 C 
HETATM   10  C6  UNL     1       9.198  61.259  31.255  1.00  0.00     0.040 C 
HETATM   11  C7  UNL     1      10.675  61.723  29.360  1.00  0.00     0.038 C 
HETATM   12  C8  UNL     1      10.527  60.654  28.311  1.00  0.00     0.014 C 
HETATM   13  C9  UNL     1      12.022  62.388  29.224  1.00  0.00     0.248 C 
HETATM   14  N3  UNL     1      12.188  63.451  30.189  1.00  0.00    -0.017 N 
HETATM   15  C10 UNL     1      11.390  64.600  29.767  1.00  0.00     0.278 C 
HETATM   16  C11 UNL     1      13.593  63.760  30.315  1.00  0.00     0.341 C 
ENDROOT
BRANCH  16  17
HETATM   17  N4  UNL     1      13.923  65.046  29.752  1.00  0.00    -0.192 N 
HETATM   18  C12 UNL     1      15.204  65.225  29.130  1.00  0.00     0.683 C 
HETATM   19  N5  UNL     1      15.348  64.814  27.928  1.00  0.00    -0.150 N 
HETATM   20  N6  UNL     1      16.227  65.844  29.882  1.00  0.00    -0.217 N 
HETATM   21  C13 UNL     1      14.390  64.206  27.151  1.00  0.00     0.015 C 
ATOM     22  H5  UNL     1      16.266  64.951  27.503  1.00  0.00     0.195 HD
HETATM   23  C14 UNL     1      13.555  63.687  26.448  1.00  0.00     0.037 C 
ATOM     24  H6  UNL     1      16.014  66.207  30.811  1.00  0.00     0.178 HD
ATOM     25  H4  UNL     1      13.256  65.816  29.795  1.00  0.00     0.180 HD
BRANCH  20  26
HETATM   26  C15 UNL     1      17.557  65.971  29.365  1.00  0.00     0.240 C 
BRANCH  26  27
HETATM   27  C16 UNL     1      18.209  64.638  29.371  1.00  0.00     0.236 C 
HETATM   28  O1  UNL     1      18.093  63.827  30.339  1.00  0.00    -0.272 OA
HETATM   29  N7  UNL     1      18.987  64.282  28.230  1.00  0.00    -0.351 N 
ATOM     30  H7  UNL     1      19.068  64.934  27.451  1.00  0.00     0.163 HD
BRANCH  29  31
HETATM   31  C17 UNL     1      19.660  63.014  28.167  1.00  0.00     0.225 C 
BRANCH  31  32
HETATM   32  C18 UNL     1      19.703  62.535  26.786  1.00  0.00     0.236 C 
HETATM   33  O2  UNL     1      20.388  63.072  25.889  1.00  0.00    -0.272 OA
HETATM   34  N8  UNL     1      18.922  61.388  26.419  1.00  0.00    -0.345 N 
ATOM     35  H8  UNL     1      18.349  60.916  27.119  1.00  0.00     0.163 HD
BRANCH  34  36
HETATM   36  C19 UNL     1      18.945  60.911  25.085  1.00  0.00     0.185 C 
BRANCH  36  37
HETATM   37  C20 UNL     1      17.752  61.088  24.234  1.00  0.00     0.040 C 
BRANCH  37  38
HETATM   38  C21 UNL     1      17.239  62.478  24.174  1.00  0.00    -0.020 C 
HETATM   39  C22 UNL     1      15.788  62.384  23.605  1.00  0.00     0.009 C 
HETATM   40  C23 UNL     1      17.960  63.327  23.165  1.00  0.00     0.009 C 
ENDBRANCH  37  38
ENDBRANCH  36  37
BRANCH  36  41
HETATM   41  C24 UNL     1      19.445  59.487  25.031  1.00  0.00     0.196 C 
HETATM   42  O3  UNL     1      19.674  58.848  26.092  1.00  0.00    -0.646 OA
HETATM   43  O4  UNL     1      19.661  58.859  23.830  1.00  0.00    -0.646 OA
ENDBRANCH  36  41
ENDBRANCH  34  36
ENDBRANCH  31  32
ENDBRANCH  29  31
ENDBRANCH  26  27
ENDBRANCH  20  26
ENDBRANCH  16  17
TORSDOF 9
ENDMDL
MODEL 5
REMARK VINA RESULT: -7.958575457      1.493      1.959
REMARK  9 active torsions:
REMARK  status: ('A' for Active; 'I' for Inactive)
REMARK    1  A    between atoms: C11_16  and  N4_17 
REMARK       I    between atoms: N4_17  and  C12_19 
REMARK       I    between atoms: C12_19  and  N6_24 
REMARK    2  A    between atoms: N6_24  and  C15_26 
REMARK    3  A    between atoms: C15_26  and  C16_27 
REMARK       I    between atoms: C16_27  and  N7_29 
REMARK    4  A    between atoms: N7_29  and  C17_31 
REMARK    5  A    between atoms: C17_31  and  C18_32 
REMARK       I    between atoms: C18_32  and  N8_34 
REMARK    6  A    between atoms: N8_34  and  C19_36 
REMARK    7  A    between atoms: C19_36  and  C20_37 
REMARK    8  A    between atoms: C19_36  and  C24_41 
REMARK    9  A    between atoms: C20_37  and  C21_38 
ROOT
HETATM    1  C1  UNL     1      19.689  62.616  27.398  1.00  0.00     0.221 C 
HETATM    2  N1  UNL     1      18.917  63.051  26.653  1.00  0.00    -0.462 NA
HETATM    3  C2  UNL     1      17.947  63.573  25.742  1.00  0.00     0.215 C 
HETATM    4  C3  UNL     1      17.449  64.921  26.192  1.00  0.00     0.106 C 
HETATM    5  C4  UNL     1      16.156  64.591  26.900  1.00  0.00     0.393 C 
HETATM    6  N2  UNL     1      16.429  64.446  28.302  1.00  0.00    -0.041 N 
ATOM      7  H21 UNL     1      16.967  65.237  28.655  1.00  0.00     0.280 HD
ATOM      8  H22 UNL     1      17.104  63.700  28.471  1.00  0.00     0.280 HD
HETATM    9  C5  UNL     1      15.226  64.246  29.080  1.00  0.00     0.189 C 
HETATM   10  C6  UNL     1      14.476  65.551  29.291  1.00  0.00     0.040 C 
HETATM   11  C7  UNL     1      14.305  63.290  28.371  1.00  0.00     0.038 C 
HETATM   12  C8  UNL     1      13.724  62.354  29.396  1.00  0.00     0.014 C 
HETATM   13  C9  UNL     1      15.111  62.508  27.365  1.00  0.00     0.248 C 
HETATM   14  N3  UNL     1      15.653  63.367  26.337  1.00  0.00    -0.017 N 
HETATM   15  C10 UNL     1      14.576  63.751  25.427  1.00  0.00     0.278 C 
HETATM   16  C11 UNL     1      16.734  62.682  25.669  1.00  0.00     0.341 C 
ENDROOT
BRANCH  16  17
HETATM   17  N4  UNL     1      16.392  62.305  24.320  1.00  0.00    -0.192 N 
HETATM   18  C12 UNL     1      17.307  62.614  23.258  1.00  0.00     0.683 C 
HETATM   19  N5  UNL     1      18.302  61.832  23.079  1.00  0.00    -0.150 N 
HETATM   20  N6  UNL     1      17.055  63.762  22.476  1.00  0.00    -0.217 N 
HETATM   21  C13 UNL     1      18.597  60.704  23.808  1.00  0.00     0.015 C 
ATOM     22  H5  UNL     1      18.941  62.068  22.320  1.00  0.00     0.195 HD
HETATM   23  C14 UNL     1      18.860  59.699  24.427  1.00  0.00     0.037 C 
ATOM     24  H6  UNL     1      16.202  64.298  22.637  1.00  0.00     0.178 HD
ATOM     25  H4  UNL     1      15.513  61.826  24.123  1.00  0.00     0.180 HD
BRANCH  20  26
HETATM   26  C15 UNL     1      17.973  64.189  21.462  1.00  0.00     0.240 C 
BRANCH  26  27
HETATM   27  C16 UNL     1      17.207  64.616  20.264  1.00  0.00     0.236 C 
HETATM   28  O1  UNL     1      16.485  63.816  19.597  1.00  0.00    -0.272 OA
HETATM   29  N7  UNL     1      17.307  65.984  19.875  1.00  0.00    -0.351 N 
ATOM     30  H7  UNL     1      17.882  66.624  20.422  1.00  0.00     0.163 HD
BRANCH  29  31
HETATM   31  C17 UNL     1      16.606  66.471  18.719  1.00  0.00     0.225 C 
BRANCH  31  32
HETATM   32  C18 UNL     1      15.172  66.545  18.994  1.00  0.00     0.236 C 
HETATM   33  O2  UNL     1      14.307  65.944  18.322  1.00  0.00    -0.272 OA
HETATM   34  N8  UNL     1      14.711  67.349  20.092  1.00  0.00    -0.345 N 
ATOM     35  H8  UNL     1      15.382  67.856  20.669  1.00  0.00     0.163 HD
BRANCH  34  36
HETATM   36  C19 UNL     1      13.325  67.437  20.372  1.00  0.00     0.185 C 
BRANCH  36  37
HETATM   37  C20 UNL     1      12.678  68.764  20.398  1.00  0.00     0.040 C 
BRANCH  37  38
HETATM   38  C21 UNL     1      12.572  69.423  19.074  1.00  0.00    -0.020 C 
HETATM   39  C22 UNL     1      11.554  70.593  19.249  1.00  0.00     0.009 C 
HETATM   40  C23 UNL     1      11.931  68.550  18.033  1.00  0.00     0.009 C 
ENDBRANCH  37  38
ENDBRANCH  36  37
BRANCH  36  41
HETATM   41  C24 UNL     1      12.973  66.636  21.603  1.00  0.00     0.196 C 
HETATM   42  O3  UNL     1      13.878  66.166  22.341  1.00  0.00    -0.646 OA
HETATM   43  O4  UNL     1      11.664  66.404  21.944  1.00  0.00    -0.646 OA
ENDBRANCH  36  41
ENDBRANCH  34  36
ENDBRANCH  31  32
ENDBRANCH  29  31
ENDBRANCH  26  27
ENDBRANCH  20  26
ENDBRANCH  16  17
TORSDOF 9
ENDMDL
