MODEL 1
REMARK VINA RESULT: -8.752612782      0.000      0.000
REMARK  5 active torsions:
REMARK  status: ('A' for Active; 'I' for Inactive)
REMARK    1  A    between atoms: O1_2  and  C2_3 
REMARK    2  A    between atoms: C13_15  and  C14_16 
REMARK    3  A    between atoms: C14_16  and  O3_17 
REMARK    4  A    between atoms: O3_17  and  C15_18 
REMARK    5  A    between atoms: C15_18  and  C16_20 
ROOT
HETATM    1  C2  UNL     1      47.553  23.193  -3.293  1.00  0.00     0.150 C 
HETATM    2  C3  UNL     1      47.780  24.650  -2.957  1.00  0.00     0.034 C 
HETATM    3  C4  UNL     1      46.503  25.254  -2.407  1.00  0.00     0.003 C 
HETATM    4  C5  UNL     1      45.279  24.596  -3.002  1.00  0.00     0.008 C 
HETATM    5  C6  UNL     1      45.562  24.176  -4.430  1.00  0.00     0.022 C 
HETATM    6  C7  UNL     1      44.286  23.769  -5.122  1.00  0.00     0.001 C 
HETATM    7  C8  UNL     1      44.562  23.794  -6.610  1.00  0.00     0.009 C 
HETATM    8  C9  UNL     1      45.341  22.517  -6.820  1.00  0.00     0.038 C 
HETATM    9  C10 UNL     1      45.194  21.688  -5.581  1.00  0.00     0.064 C 
HETATM   10  C11 UNL     1      44.982  20.257  -5.916  1.00  0.00     0.046 C 
HETATM   11  O2  UNL     1      46.223  21.864  -4.672  1.00  0.00    -0.372 OA
HETATM   12  C12 UNL     1      46.655  23.154  -4.534  1.00  0.00     0.155 C 
HETATM   13  C13 UNL     1      43.960  22.309  -4.908  1.00  0.00     0.049 C 
ENDROOT
BRANCH  13  14
HETATM   14  C14 UNL     1      42.751  21.922  -5.709  1.00  0.00     0.186 C 
BRANCH  14  15
HETATM   15  O3  UNL     1      41.676  21.458  -4.952  1.00  0.00    -0.320 OA
BRANCH  15  16
HETATM   16  C15 UNL     1      41.420  20.122  -4.683  1.00  0.00     0.267 C 
HETATM   17  O4  UNL     1      42.122  19.583  -3.793  1.00  0.00    -0.264 OA
BRANCH  16  18
HETATM   18  C16 UNL     1      40.370  19.351  -5.401  1.00  0.00     0.049 C 
HETATM   19  C17 UNL     1      39.267  19.027  -4.418  1.00  0.00     0.024 C 
HETATM   20  C18 UNL     1      38.212  18.188  -5.083  1.00  0.00    -0.013 C 
HETATM   21  C19 UNL     1      38.814  16.930  -5.657  1.00  0.00     0.009 C 
HETATM   22  C23 UNL     1      37.604  18.974  -6.224  1.00  0.00     0.009 C 
HETATM   23  C20 UNL     1      39.893  17.290  -6.674  1.00  0.00    -0.013 C 
HETATM   24  C21 UNL     1      39.323  18.146  -7.783  1.00  0.00     0.009 C 
HETATM   25  C25 UNL     1      40.945  18.087  -5.960  1.00  0.00     0.024 C 
HETATM   26  C22 UNL     1      38.685  19.377  -7.181  1.00  0.00    -0.013 C 
HETATM   27  C24 UNL     1      39.730  20.208  -6.495  1.00  0.00     0.024 C 
ENDBRANCH  16  18
ENDBRANCH  15  16
ENDBRANCH  14  15
ENDBRANCH  13  14
BRANCH   1  28
HETATM   28  O1  UNL     1      46.949  22.502  -2.263  1.00  0.00    -0.388 OA
HETATM   29  C1  UNL     1      47.822  22.237  -1.226  1.00  0.00     0.202 C 
ENDBRANCH   1  28
TORSDOF 5
ENDMDL
MODEL 2
REMARK VINA RESULT: -8.718639805      0.047      1.379
REMARK  5 active torsions:
REMARK  status: ('A' for Active; 'I' for Inactive)
REMARK    1  A    between atoms: O1_2  and  C2_3 
REMARK    2  A    between atoms: C13_15  and  C14_16 
REMARK    3  A    between atoms: C14_16  and  O3_17 
REMARK    4  A    between atoms: O3_17  and  C15_18 
REMARK    5  A    between atoms: C15_18  and  C16_20 
ROOT
HETATM    1  C2  UNL     1      47.550  23.197  -3.281  1.00  0.00     0.150 C 
HETATM    2  C3  UNL     1      47.790  24.652  -2.945  1.00  0.00     0.034 C 
HETATM    3  C4  UNL     1      46.517  25.268  -2.399  1.00  0.00     0.003 C 
HETATM    4  C5  UNL     1      45.289  24.621  -2.999  1.00  0.00     0.008 C 
HETATM    5  C6  UNL     1      45.573  24.198  -4.426  1.00  0.00     0.022 C 
HETATM    6  C7  UNL     1      44.296  23.802  -5.121  1.00  0.00     0.001 C 
HETATM    7  C8  UNL     1      44.577  23.824  -6.609  1.00  0.00     0.009 C 
HETATM    8  C9  UNL     1      45.346  22.540  -6.815  1.00  0.00     0.038 C 
HETATM    9  C10 UNL     1      45.186  21.713  -5.577  1.00  0.00     0.064 C 
HETATM   10  C11 UNL     1      44.962  20.284  -5.912  1.00  0.00     0.046 C 
HETATM   11  O2  UNL     1      46.213  21.880  -4.664  1.00  0.00    -0.372 OA
HETATM   12  C12 UNL     1      46.657  23.166  -4.525  1.00  0.00     0.155 C 
HETATM   13  C13 UNL     1      43.955  22.346  -4.908  1.00  0.00     0.049 C 
ENDROOT
BRANCH  13  14
HETATM   14  C14 UNL     1      42.746  21.970  -5.713  1.00  0.00     0.186 C 
BRANCH  14  15
HETATM   15  O3  UNL     1      41.671  21.496  -4.962  1.00  0.00    -0.320 OA
BRANCH  15  16
HETATM   16  C15 UNL     1      41.436  20.159  -4.679  1.00  0.00     0.267 C 
HETATM   17  O4  UNL     1      42.172  19.628  -3.813  1.00  0.00    -0.264 OA
BRANCH  16  18
HETATM   18  C16 UNL     1      40.367  19.377  -5.359  1.00  0.00     0.049 C 
HETATM   19  C17 UNL     1      40.985  18.107  -5.900  1.00  0.00     0.024 C 
HETATM   20  C18 UNL     1      39.957  17.313  -6.656  1.00  0.00    -0.013 C 
HETATM   21  C19 UNL     1      39.355  18.139  -7.765  1.00  0.00     0.009 C 
HETATM   22  C23 UNL     1      38.842  16.923  -5.710  1.00  0.00     0.009 C 
HETATM   23  C20 UNL     1      38.704  19.391  -7.183  1.00  0.00    -0.013 C 
HETATM   24  C21 UNL     1      37.641  19.025  -6.172  1.00  0.00     0.009 C 
HETATM   25  C25 UNL     1      39.773  20.173  -6.478  1.00  0.00     0.024 C 
HETATM   26  C22 UNL     1      38.256  18.160  -5.096  1.00  0.00    -0.013 C 
HETATM   27  C24 UNL     1      39.301  18.939  -4.353  1.00  0.00     0.024 C 
ENDBRANCH  16  18
ENDBRANCH  15  16
ENDBRANCH  14  15
ENDBRANCH  13  14
BRANCH   1  28
HETATM   28  O1  UNL     1      46.937  22.512  -2.252  1.00  0.00    -0.388 OA
HETATM   29  C1  UNL     1      47.802  22.244  -1.210  1.00  0.00     0.202 C 
ENDBRANCH   1  28
TORSDOF 5
ENDMDL
MODEL 3
REMARK VINA RESULT: -8.649334355      0.045      1.378
REMARK  5 active torsions:
REMARK  status: ('A' for Active; 'I' for Inactive)
REMARK    1  A    between atoms: O1_2  and  C2_3 
REMARK    2  A    between atoms: C13_15  and  C14_16 
REMARK    3  A    between atoms: C14_16  and  O3_17 
REMARK    4  A    between atoms: O3_17  and  C15_18 
REMARK    5  A    between atoms: C15_18  and  C16_20 
ROOT
HETATM    1  C2  UNL     1      47.538  23.181  -3.269  1.00  0.00     0.150 C 
HETATM    2  C3  UNL     1      47.775  24.638  -2.945  1.00  0.00     0.034 C 
HETATM    3  C4  UNL     1      46.498  25.260  -2.416  1.00  0.00     0.003 C 
HETATM    4  C5  UNL     1      45.275  24.607  -3.019  1.00  0.00     0.008 C 
HETATM    5  C6  UNL     1      45.570  24.170  -4.440  1.00  0.00     0.022 C 
HETATM    6  C7  UNL     1      44.298  23.768  -5.141  1.00  0.00     0.001 C 
HETATM    7  C8  UNL     1      44.592  23.775  -6.627  1.00  0.00     0.009 C 
HETATM    8  C9  UNL     1      45.361  22.489  -6.814  1.00  0.00     0.038 C 
HETATM    9  C10 UNL     1      45.192  21.674  -5.569  1.00  0.00     0.064 C 
HETATM   10  C11 UNL     1      44.970  20.242  -5.892  1.00  0.00     0.046 C 
HETATM   11  O2  UNL     1      46.212  21.850  -4.650  1.00  0.00    -0.372 OA
HETATM   12  C12 UNL     1      46.654  23.137  -4.520  1.00  0.00     0.155 C 
HETATM   13  C13 UNL     1      43.956  22.314  -4.917  1.00  0.00     0.049 C 
ENDROOT
BRANCH  13  14
HETATM   14  C14 UNL     1      42.753  21.930  -5.728  1.00  0.00     0.186 C 
BRANCH  14  15
HETATM   15  O3  UNL     1      41.666  21.480  -4.979  1.00  0.00    -0.320 OA
BRANCH  15  16
HETATM   16  C15 UNL     1      41.421  20.151  -4.665  1.00  0.00     0.267 C 
HETATM   17  O4  UNL     1      42.126  19.649  -3.756  1.00  0.00    -0.264 OA
BRANCH  16  18
HETATM   18  C16 UNL     1      40.380  19.347  -5.360  1.00  0.00     0.049 C 
HETATM   19  C17 UNL     1      39.838  20.169  -6.507  1.00  0.00     0.024 C 
HETATM   20  C18 UNL     1      38.732  19.423  -7.200  1.00  0.00    -0.013 C 
HETATM   21  C19 UNL     1      37.639  19.063  -6.226  1.00  0.00     0.009 C 
HETATM   22  C23 UNL     1      39.288  18.136  -7.770  1.00  0.00     0.009 C 
HETATM   23  C20 UNL     1      38.209  18.200  -5.103  1.00  0.00    -0.013 C 
HETATM   24  C21 UNL     1      38.844  16.945  -5.659  1.00  0.00     0.009 C 
HETATM   25  C25 UNL     1      39.275  18.998  -4.412  1.00  0.00     0.024 C 
HETATM   26  C22 UNL     1      39.903  17.329  -6.666  1.00  0.00    -0.013 C 
HETATM   27  C24 UNL     1      40.998  18.095  -5.986  1.00  0.00     0.024 C 
ENDBRANCH  16  18
ENDBRANCH  15  16
ENDBRANCH  14  15
ENDBRANCH  13  14
BRANCH   1  28
HETATM   28  O1  UNL     1      46.916  22.506  -2.239  1.00  0.00    -0.388 OA
HETATM   29  C1  UNL     1      47.778  22.229  -1.196  1.00  0.00     0.202 C 
ENDBRANCH   1  28
TORSDOF 5
ENDMDL
MODEL 4
REMARK VINA RESULT: -8.490704538      1.230      2.048
REMARK  5 active torsions:
REMARK  status: ('A' for Active; 'I' for Inactive)
REMARK    1  A    between atoms: O1_2  and  C2_3 
REMARK    2  A    between atoms: C13_15  and  C14_16 
REMARK    3  A    between atoms: C14_16  and  O3_17 
REMARK    4  A    between atoms: O3_17  and  C15_18 
REMARK    5  A    between atoms: C15_18  and  C16_20 
ROOT
HETATM    1  C2  UNL     1      47.550  23.331  -4.013  1.00  0.00     0.150 C 
HETATM    2  C3  UNL     1      47.088  24.753  -3.793  1.00  0.00     0.034 C 
HETATM    3  C4  UNL     1      45.679  24.754  -3.232  1.00  0.00     0.003 C 
HETATM    4  C5  UNL     1      44.889  23.563  -3.725  1.00  0.00     0.008 C 
HETATM    5  C6  UNL     1      45.324  23.199  -5.130  1.00  0.00     0.022 C 
HETATM    6  C7  UNL     1      44.372  22.199  -5.733  1.00  0.00     0.001 C 
HETATM    7  C8  UNL     1      44.597  22.222  -7.230  1.00  0.00     0.009 C 
HETATM    8  C9  UNL     1      45.873  21.427  -7.381  1.00  0.00     0.038 C 
HETATM    9  C10 UNL     1      46.128  20.730  -6.081  1.00  0.00     0.064 C 
HETATM   10  C11 UNL     1      46.592  19.337  -6.302  1.00  0.00     0.046 C 
HETATM   11  O2  UNL     1      46.968  21.431  -5.232  1.00  0.00    -0.372 OA
HETATM   12  C12 UNL     1      46.762  22.783  -5.207  1.00  0.00     0.155 C 
HETATM   13  C13 UNL     1      44.750  20.775  -5.401  1.00  0.00     0.049 C 
ENDROOT
BRANCH  13  14
HETATM   14  C14 UNL     1      43.848  19.814  -6.118  1.00  0.00     0.186 C 
BRANCH  14  15
HETATM   15  O3  UNL     1      43.073  19.010  -5.283  1.00  0.00    -0.320 OA
BRANCH  15  16
HETATM   16  C15 UNL     1      42.001  18.238  -5.706  1.00  0.00     0.267 C 
HETATM   17  O4  UNL     1      42.272  17.108  -6.178  1.00  0.00    -0.264 OA
BRANCH  16  18
HETATM   18  C16 UNL     1      40.593  18.711  -5.612  1.00  0.00     0.049 C 
HETATM   19  C17 UNL     1      39.694  17.626  -6.163  1.00  0.00     0.024 C 
HETATM   20  C18 UNL     1      38.263  18.085  -6.152  1.00  0.00    -0.013 C 
HETATM   21  C19 UNL     1      38.108  19.367  -6.931  1.00  0.00     0.009 C 
HETATM   22  C23 UNL     1      37.844  18.357  -4.723  1.00  0.00     0.009 C 
HETATM   23  C20 UNL     1      38.994  20.451  -6.326  1.00  0.00    -0.013 C 
HETATM   24  C21 UNL     1      38.647  20.682  -4.872  1.00  0.00     0.009 C 
HETATM   25  C25 UNL     1      40.414  19.972  -6.398  1.00  0.00     0.024 C 
HETATM   26  C22 UNL     1      38.765  19.376  -4.121  1.00  0.00    -0.013 C 
HETATM   27  C24 UNL     1      40.187  18.899  -4.149  1.00  0.00     0.024 C 
ENDBRANCH  16  18
ENDBRANCH  15  16
ENDBRANCH  14  15
ENDBRANCH  13  14
BRANCH   1  28
HETATM   28  O1  UNL     1      47.336  22.530  -2.909  1.00  0.00    -0.388 OA
HETATM   29  C1  UNL     1      48.421  22.510  -2.056  1.00  0.00     0.202 C 
ENDBRANCH   1  28
TORSDOF 5
ENDMDL
MODEL 5
REMARK VINA RESULT: -8.389457428      1.203      1.627
REMARK  5 active torsions:
REMARK  status: ('A' for Active; 'I' for Inactive)
REMARK    1  A    between atoms: O1_2  and  C2_3 
REMARK    2  A    between atoms: C13_15  and  C14_16 
REMARK    3  A    between atoms: C14_16  and  O3_17 
REMARK    4  A    between atoms: O3_17  and  C15_18 
REMARK    5  A    between atoms: C15_18  and  C16_20 
ROOT
HETATM    1  C2  UNL     1      47.600  23.319  -3.970  1.00  0.00     0.150 C 
HETATM    2  C3  UNL     1      47.154  24.736  -3.693  1.00  0.00     0.034 C 
HETATM    3  C4  UNL     1      45.767  24.727  -3.080  1.00  0.00     0.003 C 
HETATM    4  C5  UNL     1      44.953  23.553  -3.575  1.00  0.00     0.008 C 
HETATM    5  C6  UNL     1      45.332  23.228  -5.005  1.00  0.00     0.022 C 
HETATM    6  C7  UNL     1      44.353  22.249  -5.600  1.00  0.00     0.001 C 
HETATM    7  C8  UNL     1      44.521  22.313  -7.103  1.00  0.00     0.009 C 
HETATM    8  C9  UNL     1      45.786  21.518  -7.324  1.00  0.00     0.038 C 
HETATM    9  C10 UNL     1      46.087  20.783  -6.055  1.00  0.00     0.064 C 
HETATM   10  C11 UNL     1      46.535  19.394  -6.332  1.00  0.00     0.046 C 
HETATM   11  O2  UNL     1      46.962  21.456  -5.219  1.00  0.00    -0.372 OA
HETATM   12  C12 UNL     1      46.764  22.808  -5.149  1.00  0.00     0.155 C 
HETATM   13  C13 UNL     1      44.736  20.814  -5.322  1.00  0.00     0.049 C 
ENDROOT
BRANCH  13  14
HETATM   14  C14 UNL     1      43.803  19.878  -6.031  1.00  0.00     0.186 C 
BRANCH  14  15
HETATM   15  O3  UNL     1      43.044  19.064  -5.189  1.00  0.00    -0.320 OA
BRANCH  15  16
HETATM   16  C15 UNL     1      42.004  18.249  -5.609  1.00  0.00     0.267 C 
HETATM   17  O4  UNL     1      42.313  17.097  -5.997  1.00  0.00    -0.264 OA
BRANCH  16  18
HETATM   18  C16 UNL     1      40.586  18.702  -5.606  1.00  0.00     0.049 C 
HETATM   19  C17 UNL     1      40.184  18.980  -4.175  1.00  0.00     0.024 C 
HETATM   20  C18 UNL     1      38.735  19.376  -4.113  1.00  0.00    -0.013 C 
HETATM   21  C19 UNL     1      37.863  18.309  -4.724  1.00  0.00     0.009 C 
HETATM   22  C23 UNL     1      38.538  20.649  -4.909  1.00  0.00     0.009 C 
HETATM   23  C20 UNL     1      38.266  18.080  -6.179  1.00  0.00    -0.013 C 
HETATM   24  C21 UNL     1      38.155  19.361  -6.976  1.00  0.00     0.009 C 
HETATM   25  C25 UNL     1      39.702  17.645  -6.190  1.00  0.00     0.024 C 
HETATM   26  C22 UNL     1      39.000  20.429  -6.319  1.00  0.00    -0.013 C 
HETATM   27  C24 UNL     1      40.445  20.028  -6.355  1.00  0.00     0.024 C 
ENDBRANCH  16  18
ENDBRANCH  15  16
ENDBRANCH  14  15
ENDBRANCH  13  14
BRANCH   1  28
HETATM   28  O1  UNL     1      47.424  22.488  -2.882  1.00  0.00    -0.388 OA
HETATM   29  C1  UNL     1      48.550  22.417  -2.087  1.00  0.00     0.202 C 
ENDBRANCH   1  28
TORSDOF 5
ENDMDL
