MODEL 1
REMARK VINA RESULT: -7.032577883      0.000      0.000
REMARK  8 active torsions:
REMARK  status: ('A' for Active; 'I' for Inactive)
REMARK    1  A    between atoms: N1_1  and  C1_5 
REMARK    2  A    between atoms: C1_5  and  C2_6 
REMARK    3  A    between atoms: C2_6  and  C3_7 
REMARK    4  A    between atoms: C3_7  and  C4_8 
REMARK    5  A    between atoms: C4_8  and  N2_9 
REMARK    6  A    between atoms: N2_9  and  C5_12 
REMARK    7  A    between atoms: N4_18  and  C8_19 
REMARK    8  A    between atoms: C8_19  and  C9_20 
ROOT
HETATM    1  C5  UNL     1      57.863  43.950  36.835  1.00  0.00     0.487 C 
HETATM    2  N3  UNL     1      57.196  45.043  36.170  1.00  0.00    -0.027 N 
ATOM      3  H31 UNL     1      57.822  45.566  35.557  1.00  0.00     0.281 HD
ATOM      4  H32 UNL     1      56.957  45.801  36.810  1.00  0.00     0.281 HD
HETATM    5  C6  UNL     1      56.051  44.530  35.475  1.00  0.00     0.257 C 
HETATM    6  C7  UNL     1      56.257  43.023  35.453  1.00  0.00     0.153 C 
HETATM    7  N4  UNL     1      57.529  42.805  36.040  1.00  0.00    -0.339 N 
ENDROOT
BRANCH   1   8
HETATM    8  N2  UNL     1      57.371  43.684  38.168  1.00  0.00    -0.029 N 
ATOM      9  H22 UNL     1      57.951  42.986  38.633  1.00  0.00     0.281 HD
ATOM     10  H21 UNL     1      56.488  43.174  38.130  1.00  0.00     0.281 HD
BRANCH   8  11
HETATM   11  C4  UNL     1      57.242  44.874  38.989  1.00  0.00     0.237 C 
BRANCH  11  12
HETATM   12  C3  UNL     1      55.772  45.012  39.298  1.00  0.00     0.029 C 
BRANCH  12  13
HETATM   13  C2  UNL     1      55.286  46.381  38.928  1.00  0.00     0.029 C 
BRANCH  13  14
HETATM   14  C1  UNL     1      54.046  46.308  38.095  1.00  0.00     0.229 C 
BRANCH  14  15
HETATM   15  N1  UNL     1      54.052  47.319  37.034  1.00  0.00    -0.079 N 
ATOM     16  H13 UNL     1      54.360  48.226  37.385  1.00  0.00     0.274 HD
ATOM     17  H12 UNL     1      54.798  47.149  36.361  1.00  0.00     0.274 HD
ATOM     18  H11 UNL     1      53.144  47.385  36.576  1.00  0.00     0.274 HD
ENDBRANCH  14  15
ENDBRANCH  13  14
ENDBRANCH  12  13
ENDBRANCH  11  12
ENDBRANCH   8  11
ENDBRANCH   1   8
BRANCH   7  19
HETATM   19  C8  UNL     1      58.550  42.236  35.259  1.00  0.00     0.100 C 
BRANCH  19  20
HETATM   20  C9  UNL     1      58.897  40.835  35.498  1.00  0.00    -0.021 A 
HETATM   21  C10 UNL     1      58.340  40.100  36.548  1.00  0.00     0.013 A 
HETATM   22  C11 UNL     1      58.664  38.773  36.782  1.00  0.00     0.001 A 
HETATM   23  C12 UNL     1      59.570  38.148  35.950  1.00  0.00     0.000 A 
HETATM   24  C13 UNL     1      60.117  38.874  34.915  1.00  0.00     0.001 A 
HETATM   25  C14 UNL     1      59.800  40.195  34.676  1.00  0.00     0.013 A 
ENDBRANCH  19  20
ENDBRANCH   7  19
TORSDOF 8
ENDMDL
MODEL 2
REMARK VINA RESULT: -6.940366392      1.789      2.857
REMARK  8 active torsions:
REMARK  status: ('A' for Active; 'I' for Inactive)
REMARK    1  A    between atoms: N1_1  and  C1_5 
REMARK    2  A    between atoms: C1_5  and  C2_6 
REMARK    3  A    between atoms: C2_6  and  C3_7 
REMARK    4  A    between atoms: C3_7  and  C4_8 
REMARK    5  A    between atoms: C4_8  and  N2_9 
REMARK    6  A    between atoms: N2_9  and  C5_12 
REMARK    7  A    between atoms: N4_18  and  C8_19 
REMARK    8  A    between atoms: C8_19  and  C9_20 
ROOT
HETATM    1  C5  UNL     1      55.740  43.626  36.647  1.00  0.00     0.487 C 
HETATM    2  N3  UNL     1      55.676  44.223  37.957  1.00  0.00    -0.027 N 
ATOM      3  H31 UNL     1      55.082  43.696  38.597  1.00  0.00     0.281 HD
ATOM      4  H32 UNL     1      55.150  45.098  37.963  1.00  0.00     0.281 HD
HETATM    5  C6  UNL     1      57.012  44.384  38.456  1.00  0.00     0.257 C 
HETATM    6  C7  UNL     1      57.871  43.527  37.539  1.00  0.00     0.153 C 
HETATM    7  N4  UNL     1      56.963  42.878  36.665  1.00  0.00    -0.339 N 
ENDROOT
BRANCH   1   8
HETATM    8  N2  UNL     1      55.857  44.582  35.569  1.00  0.00    -0.029 N 
ATOM      9  H22 UNL     1      55.367  44.251  34.738  1.00  0.00     0.281 HD
ATOM     10  H21 UNL     1      56.811  44.601  35.207  1.00  0.00     0.281 HD
BRANCH   8  11
HETATM   11  C4  UNL     1      55.417  45.919  35.926  1.00  0.00     0.237 C 
BRANCH  11  12
HETATM   12  C3  UNL     1      54.359  46.293  34.917  1.00  0.00     0.029 C 
BRANCH  12  13
HETATM   13  C2  UNL     1      53.192  46.942  35.599  1.00  0.00     0.029 C 
BRANCH  13  14
HETATM   14  C1  UNL     1      51.923  46.201  35.323  1.00  0.00     0.229 C 
BRANCH  14  15
HETATM   15  N1  UNL     1      52.160  44.761  35.191  1.00  0.00    -0.079 N 
ATOM     16  H13 UNL     1      51.757  44.394  34.329  1.00  0.00     0.274 HD
ATOM     17  H12 UNL     1      53.142  44.560  35.004  1.00  0.00     0.274 HD
ATOM     18  H11 UNL     1      51.824  44.250  36.007  1.00  0.00     0.274 HD
ENDBRANCH  14  15
ENDBRANCH  13  14
ENDBRANCH  12  13
ENDBRANCH  11  12
ENDBRANCH   8  11
ENDBRANCH   1   8
BRANCH   7  19
HETATM   19  C8  UNL     1      56.867  41.476  36.701  1.00  0.00     0.100 C 
BRANCH  19  20
HETATM   20  C9  UNL     1      57.981  40.697  36.163  1.00  0.00    -0.021 A 
HETATM   21  C10 UNL     1      58.715  41.119  35.052  1.00  0.00     0.013 A 
HETATM   22  C11 UNL     1      59.772  40.387  34.534  1.00  0.00     0.001 A 
HETATM   23  C12 UNL     1      60.118  39.195  35.136  1.00  0.00     0.000 A 
HETATM   24  C13 UNL     1      59.394  38.780  36.233  1.00  0.00     0.001 A 
HETATM   25  C14 UNL     1      58.341  39.504  36.753  1.00  0.00     0.013 A 
ENDBRANCH  19  20
ENDBRANCH   7  19
TORSDOF 8
ENDMDL
MODEL 3
REMARK VINA RESULT: -6.909037082      1.649      2.648
REMARK  8 active torsions:
REMARK  status: ('A' for Active; 'I' for Inactive)
REMARK    1  A    between atoms: N1_1  and  C1_5 
REMARK    2  A    between atoms: C1_5  and  C2_6 
REMARK    3  A    between atoms: C2_6  and  C3_7 
REMARK    4  A    between atoms: C3_7  and  C4_8 
REMARK    5  A    between atoms: C4_8  and  N2_9 
REMARK    6  A    between atoms: N2_9  and  C5_12 
REMARK    7  A    between atoms: N4_18  and  C8_19 
REMARK    8  A    between atoms: C8_19  and  C9_20 
ROOT
HETATM    1  C5  UNL     1      55.696  43.665  36.673  1.00  0.00     0.487 C 
HETATM    2  N3  UNL     1      55.656  44.232  37.998  1.00  0.00    -0.027 N 
ATOM      3  H31 UNL     1      55.070  43.693  38.635  1.00  0.00     0.281 HD
ATOM      4  H32 UNL     1      55.132  45.108  38.031  1.00  0.00     0.281 HD
HETATM    5  C6  UNL     1      56.999  44.379  38.479  1.00  0.00     0.257 C 
HETATM    6  C7  UNL     1      57.841  43.540  37.529  1.00  0.00     0.153 C 
HETATM    7  N4  UNL     1      56.917  42.913  36.655  1.00  0.00    -0.339 N 
ENDROOT
BRANCH   1   8
HETATM    8  N2  UNL     1      55.800  44.645  35.615  1.00  0.00    -0.029 N 
ATOM      9  H22 UNL     1      55.405  44.282  34.748  1.00  0.00     0.281 HD
ATOM     10  H21 UNL     1      56.772  44.760  35.326  1.00  0.00     0.281 HD
BRANCH   8  11
HETATM   11  C4  UNL     1      55.210  45.928  35.951  1.00  0.00     0.237 C 
BRANCH  11  12
HETATM   12  C3  UNL     1      54.352  46.314  34.771  1.00  0.00     0.029 C 
BRANCH  12  13
HETATM   13  C2  UNL     1      52.904  46.326  35.159  1.00  0.00     0.029 C 
BRANCH  13  14
HETATM   14  C1  UNL     1      52.678  47.157  36.382  1.00  0.00     0.229 C 
BRANCH  14  15
HETATM   15  N1  UNL     1      51.399  47.869  36.319  1.00  0.00    -0.079 N 
ATOM     16  H13 UNL     1      51.482  48.738  35.791  1.00  0.00     0.274 HD
ATOM     17  H12 UNL     1      50.731  47.384  35.720  1.00  0.00     0.274 HD
ATOM     18  H11 UNL     1      51.016  48.033  37.249  1.00  0.00     0.274 HD
ENDBRANCH  14  15
ENDBRANCH  13  14
ENDBRANCH  12  13
ENDBRANCH  11  12
ENDBRANCH   8  11
ENDBRANCH   1   8
BRANCH   7  19
HETATM   19  C8  UNL     1      56.817  41.512  36.661  1.00  0.00     0.100 C 
BRANCH  19  20
HETATM   20  C9  UNL     1      57.948  40.740  36.145  1.00  0.00    -0.021 A 
HETATM   21  C10 UNL     1      58.346  39.531  36.721  1.00  0.00     0.013 A 
HETATM   22  C11 UNL     1      59.416  38.793  36.240  1.00  0.00     0.001 A 
HETATM   23  C12 UNL     1      60.118  39.265  35.150  1.00  0.00     0.000 A 
HETATM   24  C13 UNL     1      59.723  40.456  34.583  1.00  0.00     0.001 A 
HETATM   25  C14 UNL     1      58.659  41.197  35.056  1.00  0.00     0.013 A 
ENDBRANCH  19  20
ENDBRANCH   7  19
TORSDOF 8
ENDMDL
MODEL 4
REMARK VINA RESULT: -6.637221439      2.814      7.745
REMARK  8 active torsions:
REMARK  status: ('A' for Active; 'I' for Inactive)
REMARK    1  A    between atoms: N1_1  and  C1_5 
REMARK    2  A    between atoms: C1_5  and  C2_6 
REMARK    3  A    between atoms: C2_6  and  C3_7 
REMARK    4  A    between atoms: C3_7  and  C4_8 
REMARK    5  A    between atoms: C4_8  and  N2_9 
REMARK    6  A    between atoms: N2_9  and  C5_12 
REMARK    7  A    between atoms: N4_18  and  C8_19 
REMARK    8  A    between atoms: C8_19  and  C9_20 
ROOT
HETATM    1  C5  UNL     1      55.500  45.514  35.576  1.00  0.00     0.487 C 
HETATM    2  N3  UNL     1      56.467  46.296  36.304  1.00  0.00    -0.027 N 
ATOM      3  H31 UNL     1      56.679  47.182  35.844  1.00  0.00     0.281 HD
ATOM      4  H32 UNL     1      57.403  45.891  36.268  1.00  0.00     0.281 HD
HETATM    5  C6  UNL     1      55.999  46.475  37.648  1.00  0.00     0.257 C 
HETATM    6  C7  UNL     1      54.533  46.071  37.601  1.00  0.00     0.153 C 
HETATM    7  N4  UNL     1      54.259  45.791  36.238  1.00  0.00    -0.339 N 
ENDROOT
BRANCH   1   8
HETATM    8  N2  UNL     1      55.706  44.086  35.669  1.00  0.00    -0.029 N 
ATOM      9  H22 UNL     1      55.118  43.593  34.997  1.00  0.00     0.281 HD
ATOM     10  H21 UNL     1      55.315  43.722  36.538  1.00  0.00     0.281 HD
BRANCH   8  11
HETATM   11  C4  UNL     1      57.095  43.688  35.525  1.00  0.00     0.237 C 
BRANCH  11  12
HETATM   12  C3  UNL     1      57.083  42.419  34.709  1.00  0.00     0.029 C 
BRANCH  12  13
HETATM   13  C2  UNL     1      58.205  41.517  35.129  1.00  0.00     0.029 C 
BRANCH  13  14
HETATM   14  C1  UNL     1      57.929  40.893  36.459  1.00  0.00     0.229 C 
BRANCH  14  15
HETATM   15  N1  UNL     1      58.330  39.484  36.485  1.00  0.00    -0.079 N 
ATOM     16  H13 UNL     1      58.380  39.093  35.544  1.00  0.00     0.274 HD
ATOM     17  H12 UNL     1      59.309  39.379  36.751  1.00  0.00     0.274 HD
ATOM     18  H11 UNL     1      57.718  38.932  37.086  1.00  0.00     0.274 HD
ENDBRANCH  14  15
ENDBRANCH  13  14
ENDBRANCH  12  13
ENDBRANCH  11  12
ENDBRANCH   8  11
ENDBRANCH   1   8
BRANCH   7  19
HETATM   19  C8  UNL     1      53.321  46.585  35.556  1.00  0.00     0.100 C 
BRANCH  19  20
HETATM   20  C9  UNL     1      51.906  46.407  35.878  1.00  0.00    -0.021 A 
HETATM   21  C10 UNL     1      51.029  47.488  35.998  1.00  0.00     0.013 A 
HETATM   22  C11 UNL     1      49.686  47.329  36.303  1.00  0.00     0.001 A 
HETATM   23  C12 UNL     1      49.191  46.057  36.497  1.00  0.00     0.000 A 
HETATM   24  C13 UNL     1      50.056  44.991  36.378  1.00  0.00     0.001 A 
HETATM   25  C14 UNL     1      51.394  45.142  36.074  1.00  0.00     0.013 A 
ENDBRANCH  19  20
ENDBRANCH   7  19
TORSDOF 8
ENDMDL
MODEL 5
REMARK VINA RESULT: -6.630514700      2.809      7.747
REMARK  8 active torsions:
REMARK  status: ('A' for Active; 'I' for Inactive)
REMARK    1  A    between atoms: N1_1  and  C1_5 
REMARK    2  A    between atoms: C1_5  and  C2_6 
REMARK    3  A    between atoms: C2_6  and  C3_7 
REMARK    4  A    between atoms: C3_7  and  C4_8 
REMARK    5  A    between atoms: C4_8  and  N2_9 
REMARK    6  A    between atoms: N2_9  and  C5_12 
REMARK    7  A    between atoms: N4_18  and  C8_19 
REMARK    8  A    between atoms: C8_19  and  C9_20 
ROOT
HETATM    1  C5  UNL     1      55.488  45.527  35.585  1.00  0.00     0.487 C 
HETATM    2  N3  UNL     1      56.468  46.296  36.310  1.00  0.00    -0.027 N 
ATOM      3  H31 UNL     1      56.681  47.184  35.854  1.00  0.00     0.281 HD
ATOM      4  H32 UNL     1      57.401  45.885  36.261  1.00  0.00     0.281 HD
HETATM    5  C6  UNL     1      56.014  46.468  37.660  1.00  0.00     0.257 C 
HETATM    6  C7  UNL     1      54.545  46.075  37.624  1.00  0.00     0.153 C 
HETATM    7  N4  UNL     1      54.256  45.808  36.262  1.00  0.00    -0.339 N 
ENDROOT
BRANCH   1   8
HETATM    8  N2  UNL     1      55.685  44.097  35.665  1.00  0.00    -0.029 N 
ATOM      9  H22 UNL     1      55.104  43.614  34.979  1.00  0.00     0.281 HD
ATOM     10  H21 UNL     1      55.279  43.725  36.525  1.00  0.00     0.281 HD
BRANCH   8  11
HETATM   11  C4  UNL     1      57.074  43.693  35.537  1.00  0.00     0.237 C 
BRANCH  11  12
HETATM   12  C3  UNL     1      57.065  42.421  34.726  1.00  0.00     0.029 C 
BRANCH  12  13
HETATM   13  C2  UNL     1      58.198  41.530  35.138  1.00  0.00     0.029 C 
BRANCH  13  14
HETATM   14  C1  UNL     1      57.935  40.902  36.470  1.00  0.00     0.229 C 
BRANCH  14  15
HETATM   15  N1  UNL     1      58.334  39.492  36.487  1.00  0.00    -0.079 N 
ATOM     16  H13 UNL     1      57.645  38.904  36.018  1.00  0.00     0.274 HD
ATOM     17  H12 UNL     1      59.131  39.322  35.873  1.00  0.00     0.274 HD
ATOM     18  H11 UNL     1      58.518  39.167  37.436  1.00  0.00     0.274 HD
ENDBRANCH  14  15
ENDBRANCH  13  14
ENDBRANCH  12  13
ENDBRANCH  11  12
ENDBRANCH   8  11
ENDBRANCH   1   8
BRANCH   7  19
HETATM   19  C8  UNL     1      53.317  46.614  35.595  1.00  0.00     0.100 C 
BRANCH  19  20
HETATM   20  C9  UNL     1      51.901  46.420  35.906  1.00  0.00    -0.021 A 
HETATM   21  C10 UNL     1      51.353  45.152  36.113  1.00  0.00     0.013 A 
HETATM   22  C11 UNL     1      50.012  44.958  36.407  1.00  0.00     0.001 A 
HETATM   23  C12 UNL     1      49.183  46.056  36.501  1.00  0.00     0.000 A 
HETATM   24  C13 UNL     1      49.725  47.306  36.298  1.00  0.00     0.001 A 
HETATM   25  C14 UNL     1      51.058  47.506  36.005  1.00  0.00     0.013 A 
ENDBRANCH  19  20
ENDBRANCH   7  19
TORSDOF 8
ENDMDL
