MODEL 1
REMARK VINA RESULT: -7.413675899      0.000      0.000
REMARK  7 active torsions:
REMARK  status: ('A' for Active; 'I' for Inactive)
REMARK    1  A    between atoms: C2_2  and  C3_3 
REMARK    2  A    between atoms: C7_10  and  N2_11 
REMARK    3  A    between atoms: N2_11  and  N3_13 
REMARK    4  A    between atoms: N3_13  and  C8_15 
REMARK    5  A    between atoms: C8_15  and  N4_17 
REMARK    6  A    between atoms: N5_20  and  C10_21 
REMARK    7  A    between atoms: N6_23  and  C12_24 
ROOT
HETATM    1  C3  UNL     1     -67.660  47.018   0.437  1.00  0.00     0.034 A 
HETATM    2  C4  UNL     1     -67.747  46.265   1.596  1.00  0.00     0.077 A 
HETATM    3 CL1  UNL     1     -68.805  44.868   1.653  1.00  0.00    -0.081 Cl
HETATM    4  C5  UNL     1     -67.014  46.614   2.726  1.00  0.00     0.119 A 
HETATM    5  C6  UNL     1     -66.212  47.754   2.589  1.00  0.00     0.155 A 
HETATM    6  N1  UNL     1     -65.618  47.891   3.794  1.00  0.00    -0.172 N 
ATOM      7  H1  UNL     1     -64.961  48.631   4.041  1.00  0.00     0.186 HD
HETATM    8  C7  UNL     1     -66.013  46.922   4.610  1.00  0.00     0.701 A 
HETATM    9  N5  UNL     1     -66.878  46.122   3.960  1.00  0.00    -0.177 N 
HETATM   10  N6  UNL     1     -66.134  48.481   1.458  1.00  0.00    -0.298 N 
HETATM   11  C14 UNL     1     -66.852  48.123   0.381  1.00  0.00     0.257 A 
HETATM   12  O1  UNL     1     -66.823  48.761  -0.710  1.00  0.00    -0.267 OA
ENDROOT
BRANCH   8  13
HETATM   13  N2  UNL     1     -65.649  46.749   5.818  1.00  0.00    -0.130 N 
ATOM     14  H2  UNL     1     -66.358  46.547   6.522  1.00  0.00     0.205 HD
BRANCH  13  15
HETATM   15  N3  UNL     1     -64.321  46.825   6.208  1.00  0.00    -0.262 N 
ATOM     16  H3  UNL     1     -63.622  46.222   5.775  1.00  0.00     0.190 HD
BRANCH  15  17
HETATM   17  C8  UNL     1     -63.946  47.743   7.210  1.00  0.00     0.186 C 
HETATM   18  S1  UNL     1     -64.304  47.434   8.769  1.00  0.00    -0.040 SA
BRANCH  17  19
HETATM   19  N4  UNL     1     -63.258  48.930   6.851  1.00  0.00    -0.370 N 
HETATM   20  C9  UNL     1     -62.832  49.104   5.482  1.00  0.00     0.148 C 
ATOM     21  H4  UNL     1     -63.067  49.650   7.549  1.00  0.00     0.161 HD
ENDBRANCH  17  19
ENDBRANCH  15  17
ENDBRANCH  13  15
ENDBRANCH   8  13
BRANCH   9  22
HETATM   22  C10 UNL     1     -67.518  44.931   4.473  1.00  0.00     0.143 C 
HETATM   23  C11 UNL     1     -68.796  45.154   5.192  1.00  0.00     0.027 C 
ENDBRANCH   9  22
BRANCH  10  24
HETATM   24  C12 UNL     1     -65.279  49.648   1.404  1.00  0.00     0.129 C 
HETATM   25  C13 UNL     1     -63.813  49.299   1.475  1.00  0.00     0.027 C 
ENDBRANCH  10  24
BRANCH   1  26
HETATM   26  C2  UNL     1     -68.486  46.571  -0.717  1.00  0.00     0.041 C 
HETATM   27  C1  UNL     1     -67.610  45.705  -1.594  1.00  0.00     0.010 C 
ENDBRANCH   1  26
TORSDOF 7
ENDMDL
MODEL 2
REMARK VINA RESULT: -7.382608773      2.972      3.849
REMARK  7 active torsions:
REMARK  status: ('A' for Active; 'I' for Inactive)
REMARK    1  A    between atoms: C2_2  and  C3_3 
REMARK    2  A    between atoms: C7_10  and  N2_11 
REMARK    3  A    between atoms: N2_11  and  N3_13 
REMARK    4  A    between atoms: N3_13  and  C8_15 
REMARK    5  A    between atoms: C8_15  and  N4_17 
REMARK    6  A    between atoms: N5_20  and  C10_21 
REMARK    7  A    between atoms: N6_23  and  C12_24 
ROOT
HETATM    1  C3  UNL     1     -67.274  47.710   1.525  1.00  0.00     0.034 A 
HETATM    2  C4  UNL     1     -66.542  47.695   2.700  1.00  0.00     0.077 A 
HETATM    3 CL1  UNL     1     -67.167  46.857   4.108  1.00  0.00    -0.081 Cl
HETATM    4  C5  UNL     1     -65.319  48.353   2.784  1.00  0.00     0.119 A 
HETATM    5  C6  UNL     1     -64.912  49.008   1.613  1.00  0.00     0.155 A 
HETATM    6  N1  UNL     1     -63.726  49.566   1.939  1.00  0.00    -0.172 N 
ATOM      7  H1  UNL     1     -63.151  50.123   1.309  1.00  0.00     0.186 HD
HETATM    8  C7  UNL     1     -63.419  49.284   3.199  1.00  0.00     0.701 A 
HETATM    9  N5  UNL     1     -64.398  48.531   3.734  1.00  0.00    -0.177 N 
HETATM   10  N6  UNL     1     -65.631  49.018   0.475  1.00  0.00    -0.298 N 
HETATM   11  C14 UNL     1     -66.808  48.375   0.421  1.00  0.00     0.257 A 
HETATM   12  O1  UNL     1     -67.530  48.345  -0.617  1.00  0.00    -0.267 OA
ENDROOT
BRANCH   8  13
HETATM   13  N2  UNL     1     -62.375  49.650   3.828  1.00  0.00    -0.130 N 
ATOM     14  H2  UNL     1     -62.333  49.509   4.837  1.00  0.00     0.205 HD
BRANCH  13  15
HETATM   15  N3  UNL     1     -61.292  50.232   3.188  1.00  0.00    -0.262 N 
ATOM     16  H3  UNL     1     -61.179  50.137   2.179  1.00  0.00     0.190 HD
BRANCH  15  17
HETATM   17  C8  UNL     1     -60.348  50.956   3.944  1.00  0.00     0.186 C 
HETATM   18  S1  UNL     1     -60.567  51.147   5.547  1.00  0.00    -0.040 SA
BRANCH  17  19
HETATM   19  N4  UNL     1     -59.212  51.512   3.301  1.00  0.00    -0.370 N 
HETATM   20  C9  UNL     1     -59.092  52.949   3.214  1.00  0.00     0.148 C 
ATOM     21  H4  UNL     1     -58.492  50.906   2.906  1.00  0.00     0.161 HD
ENDBRANCH  17  19
ENDBRANCH  15  17
ENDBRANCH  13  15
ENDBRANCH   8  13
BRANCH   9  22
HETATM   22  C10 UNL     1     -64.441  47.979   5.070  1.00  0.00     0.143 C 
HETATM   23  C11 UNL     1     -64.972  48.886   6.116  1.00  0.00     0.027 C 
ENDBRANCH   9  22
BRANCH  10  24
HETATM   24  C12 UNL     1     -65.135  49.722  -0.689  1.00  0.00     0.129 C 
HETATM   25  C13 UNL     1     -64.896  48.808  -1.864  1.00  0.00     0.027 C 
ENDBRANCH  10  24
BRANCH   1  26
HETATM   26  C2  UNL     1     -68.572  46.983   1.533  1.00  0.00     0.041 C 
HETATM   27  C1  UNL     1     -68.303  45.566   1.079  1.00  0.00     0.010 C 
ENDBRANCH   1  26
TORSDOF 7
ENDMDL
MODEL 3
REMARK VINA RESULT: -7.344922884      3.310      4.582
REMARK  7 active torsions:
REMARK  status: ('A' for Active; 'I' for Inactive)
REMARK    1  A    between atoms: C2_2  and  C3_3 
REMARK    2  A    between atoms: C7_10  and  N2_11 
REMARK    3  A    between atoms: N2_11  and  N3_13 
REMARK    4  A    between atoms: N3_13  and  C8_15 
REMARK    5  A    between atoms: C8_15  and  N4_17 
REMARK    6  A    between atoms: N5_20  and  C10_21 
REMARK    7  A    between atoms: N6_23  and  C12_24 
ROOT
HETATM    1  C3  UNL     1     -66.902  48.260   3.082  1.00  0.00     0.034 A 
HETATM    2  C4  UNL     1     -66.088  48.403   4.193  1.00  0.00     0.077 A 
HETATM    3 CL1  UNL     1     -66.739  48.119   5.796  1.00  0.00    -0.081 Cl
HETATM    4  C5  UNL     1     -64.758  48.786   4.054  1.00  0.00     0.119 A 
HETATM    5  C6  UNL     1     -64.334  49.007   2.736  1.00  0.00     0.155 A 
HETATM    6  N1  UNL     1     -63.039  49.369   2.859  1.00  0.00    -0.172 N 
ATOM      7  H1  UNL     1     -62.423  49.605   2.081  1.00  0.00     0.186 HD
HETATM    8  C7  UNL     1     -62.685  49.372   4.137  1.00  0.00     0.701 A 
HETATM    9  N5  UNL     1     -63.740  49.012   4.890  1.00  0.00    -0.177 N 
HETATM   10  N6  UNL     1     -65.133  48.866   1.662  1.00  0.00    -0.298 N 
HETATM   11  C14 UNL     1     -66.413  48.495   1.824  1.00  0.00     0.257 A 
HETATM   12  O1  UNL     1     -67.215  48.344   0.857  1.00  0.00    -0.267 OA
ENDROOT
BRANCH   8  13
HETATM   13  N2  UNL     1     -61.538  49.663   4.608  1.00  0.00    -0.130 N 
ATOM     14  H2  UNL     1     -61.374  49.551   5.608  1.00  0.00     0.205 HD
BRANCH  13  15
HETATM   15  N3  UNL     1     -60.506  50.127   3.809  1.00  0.00    -0.262 N 
ATOM     16  H3  UNL     1     -60.150  49.554   3.044  1.00  0.00     0.190 HD
BRANCH  15  17
HETATM   17  C8  UNL     1     -59.951  51.399   4.061  1.00  0.00     0.186 C 
HETATM   18  S1  UNL     1     -60.197  52.119   5.502  1.00  0.00    -0.040 SA
BRANCH  17  19
HETATM   19  N4  UNL     1     -59.182  52.040   3.057  1.00  0.00    -0.370 N 
HETATM   20  C9  UNL     1     -59.285  53.473   2.907  1.00  0.00     0.148 C 
ATOM     21  H4  UNL     1     -58.567  51.498   2.450  1.00  0.00     0.161 HD
ENDBRANCH  17  19
ENDBRANCH  15  17
ENDBRANCH  13  15
ENDBRANCH   8  13
BRANCH   9  22
HETATM   22  C10 UNL     1     -63.774  48.856   6.327  1.00  0.00     0.143 C 
HETATM   23  C11 UNL     1     -64.033  50.097   7.096  1.00  0.00     0.027 C 
ENDBRANCH   9  22
BRANCH  10  24
HETATM   24  C12 UNL     1     -64.613  49.116   0.334  1.00  0.00     0.129 C 
HETATM   25  C13 UNL     1     -64.706  50.568  -0.064  1.00  0.00     0.027 C 
ENDBRANCH  10  24
BRANCH   1  26
HETATM   26  C2  UNL     1     -68.311  47.852   3.331  1.00  0.00     0.041 C 
HETATM   27  C1  UNL     1     -68.370  46.344   3.245  1.00  0.00     0.010 C 
ENDBRANCH   1  26
TORSDOF 7
ENDMDL
MODEL 4
REMARK VINA RESULT: -7.320461108      0.924      1.224
REMARK  7 active torsions:
REMARK  status: ('A' for Active; 'I' for Inactive)
REMARK    1  A    between atoms: C2_2  and  C3_3 
REMARK    2  A    between atoms: C7_10  and  N2_11 
REMARK    3  A    between atoms: N2_11  and  N3_13 
REMARK    4  A    between atoms: N3_13  and  C8_15 
REMARK    5  A    between atoms: C8_15  and  N4_17 
REMARK    6  A    between atoms: N5_20  and  C10_21 
REMARK    7  A    between atoms: N6_23  and  C12_24 
ROOT
HETATM    1  C3  UNL     1     -67.679  47.003   0.444  1.00  0.00     0.034 A 
HETATM    2  C4  UNL     1     -67.770  46.255   1.606  1.00  0.00     0.077 A 
HETATM    3 CL1  UNL     1     -68.820  44.852   1.662  1.00  0.00    -0.081 Cl
HETATM    4  C5  UNL     1     -67.047  46.614   2.739  1.00  0.00     0.119 A 
HETATM    5  C6  UNL     1     -66.250  47.759   2.602  1.00  0.00     0.155 A 
HETATM    6  N1  UNL     1     -65.666  47.905   3.811  1.00  0.00    -0.172 N 
ATOM      7  H1  UNL     1     -65.016  48.650   4.059  1.00  0.00     0.186 HD
HETATM    8  C7  UNL     1     -66.061  46.938   4.629  1.00  0.00     0.701 A 
HETATM    9  N5  UNL     1     -66.916  46.129   3.977  1.00  0.00    -0.177 N 
HETATM   10  N6  UNL     1     -66.169  48.480   1.469  1.00  0.00    -0.298 N 
HETATM   11  C14 UNL     1     -66.877  48.112   0.388  1.00  0.00     0.257 A 
HETATM   12  O1  UNL     1     -66.844  48.746  -0.706  1.00  0.00    -0.267 OA
ENDROOT
BRANCH   8  13
HETATM   13  N2  UNL     1     -65.705  46.773   5.840  1.00  0.00    -0.130 N 
ATOM     14  H2  UNL     1     -66.422  46.620   6.548  1.00  0.00     0.205 HD
BRANCH  13  15
HETATM   15  N3  UNL     1     -64.375  46.793   6.229  1.00  0.00    -0.262 N 
ATOM     16  H3  UNL     1     -63.767  46.000   6.026  1.00  0.00     0.190 HD
BRANCH  15  17
HETATM   17  C8  UNL     1     -63.869  47.920   6.909  1.00  0.00     0.186 C 
HETATM   18  S1  UNL     1     -63.275  49.179   6.063  1.00  0.00    -0.040 SA
BRANCH  17  19
HETATM   19  N4  UNL     1     -63.882  47.948   8.327  1.00  0.00    -0.370 N 
HETATM   20  C9  UNL     1     -63.749  46.705   9.051  1.00  0.00     0.148 C 
ATOM     21  H4  UNL     1     -63.983  48.831   8.827  1.00  0.00     0.161 HD
ENDBRANCH  17  19
ENDBRANCH  15  17
ENDBRANCH  13  15
ENDBRANCH   8  13
BRANCH   9  22
HETATM   22  C10 UNL     1     -67.552  44.937   4.491  1.00  0.00     0.143 C 
HETATM   23  C11 UNL     1     -68.835  45.156   5.203  1.00  0.00     0.027 C 
ENDBRANCH   9  22
BRANCH  10  24
HETATM   24  C12 UNL     1     -65.321  49.652   1.415  1.00  0.00     0.129 C 
HETATM   25  C13 UNL     1     -63.854  49.314   1.514  1.00  0.00     0.027 C 
ENDBRANCH  10  24
BRANCH   1  26
HETATM   26  C2  UNL     1     -68.493  46.545  -0.714  1.00  0.00     0.041 C 
HETATM   27  C1  UNL     1     -67.602  45.690  -1.587  1.00  0.00     0.010 C 
ENDBRANCH   1  26
TORSDOF 7
ENDMDL
MODEL 5
REMARK VINA RESULT: -7.273779227      2.113      3.659
REMARK  7 active torsions:
REMARK  status: ('A' for Active; 'I' for Inactive)
REMARK    1  A    between atoms: C2_2  and  C3_3 
REMARK    2  A    between atoms: C7_10  and  N2_11 
REMARK    3  A    between atoms: N2_11  and  N3_13 
REMARK    4  A    between atoms: N3_13  and  C8_15 
REMARK    5  A    between atoms: C8_15  and  N4_17 
REMARK    6  A    between atoms: N5_20  and  C10_21 
REMARK    7  A    between atoms: N6_23  and  C12_24 
ROOT
HETATM    1  C3  UNL     1     -67.721  47.047  -0.536  1.00  0.00     0.034 A 
HETATM    2  C4  UNL     1     -66.936  47.852   0.272  1.00  0.00     0.077 A 
HETATM    3 CL1  UNL     1     -66.104  49.234  -0.415  1.00  0.00    -0.081 Cl
HETATM    4  C5  UNL     1     -66.785  47.568   1.626  1.00  0.00     0.119 A 
HETATM    5  C6  UNL     1     -67.474  46.434   2.078  1.00  0.00     0.155 A 
HETATM    6  N1  UNL     1     -67.172  46.363   3.392  1.00  0.00    -0.172 N 
ATOM      7  H1  UNL     1     -67.513  45.646   4.031  1.00  0.00     0.186 HD
HETATM    8  C7  UNL     1     -66.369  47.363   3.731  1.00  0.00     0.701 A 
HETATM    9  N5  UNL     1     -66.122  48.119   2.645  1.00  0.00    -0.177 N 
HETATM   10  N6  UNL     1     -68.235  45.657   1.284  1.00  0.00    -0.298 N 
HETATM   11  C14 UNL     1     -68.364  45.953  -0.019  1.00  0.00     0.257 A 
HETATM   12  O1  UNL     1     -69.063  45.265  -0.816  1.00  0.00    -0.267 OA
ENDROOT
BRANCH   8  13
HETATM   13  N2  UNL     1     -65.892  47.598   4.888  1.00  0.00    -0.130 N 
ATOM     14  H2  UNL     1     -66.361  48.279   5.484  1.00  0.00     0.205 HD
BRANCH  13  15
HETATM   15  N3  UNL     1     -64.758  46.959   5.364  1.00  0.00    -0.262 N 
ATOM     16  H3  UNL     1     -64.513  46.029   5.027  1.00  0.00     0.190 HD
BRANCH  15  17
HETATM   17  C8  UNL     1     -63.948  47.606   6.319  1.00  0.00     0.186 C 
HETATM   18  S1  UNL     1     -63.289  49.056   5.975  1.00  0.00    -0.040 SA
BRANCH  17  19
HETATM   19  N4  UNL     1     -63.713  46.988   7.574  1.00  0.00    -0.370 N 
HETATM   20  C9  UNL     1     -64.486  47.414   8.718  1.00  0.00     0.148 C 
ATOM     21  H4  UNL     1     -63.010  46.255   7.667  1.00  0.00     0.161 HD
ENDBRANCH  17  19
ENDBRANCH  15  17
ENDBRANCH  13  15
ENDBRANCH   8  13
BRANCH   9  22
HETATM   22  C10 UNL     1     -65.323  49.322   2.584  1.00  0.00     0.143 C 
HETATM   23  C11 UNL     1     -63.884  49.118   2.288  1.00  0.00     0.027 C 
ENDBRANCH   9  22
BRANCH  10  24
HETATM   24  C12 UNL     1     -68.911  44.502   1.835  1.00  0.00     0.129 C 
HETATM   25  C13 UNL     1     -69.982  44.874   2.830  1.00  0.00     0.027 C 
ENDBRANCH  10  24
BRANCH   1  26
HETATM   26  C2  UNL     1     -67.816  47.428  -1.972  1.00  0.00     0.041 C 
HETATM   27  C1  UNL     1     -66.714  46.702  -2.709  1.00  0.00     0.010 C 
ENDBRANCH   1  26
TORSDOF 7
ENDMDL
