MODEL 1
REMARK VINA RESULT: -7.404405409      0.000      0.000
REMARK  5 active torsions:
REMARK  status: ('A' for Active; 'I' for Inactive)
REMARK    1  A    between atoms: C3_5  and  N2_6 
REMARK    2  A    between atoms: C4_11  and  N4_12 
REMARK    3  A    between atoms: N4_12  and  N5_14 
REMARK    4  A    between atoms: N5_14  and  S1_16 
REMARK    5  A    between atoms: S1_16  and  C5_19 
ROOT
HETATM    1  C1  UNL     1     -65.375  47.634  -3.659  1.00  0.00     0.070 C 
HETATM    2  C2  UNL     1     -66.349  47.126  -2.681  1.00  0.00     0.044 A 
HETATM    3  N1  UNL     1     -67.167  46.076  -2.937  1.00  0.00    -0.195 N 
ATOM      4  H1  UNL     1     -67.134  45.592  -3.835  1.00  0.00     0.184 HD
HETATM    5  C3  UNL     1     -68.022  45.689  -1.978  1.00  0.00     0.677 A 
HETATM    6  N3  UNL     1     -68.106  46.286  -0.783  1.00  0.00    -0.174 N 
ATOM      7  H3  UNL     1     -68.780  45.937  -0.102  1.00  0.00     0.186 HD
HETATM    8  C4  UNL     1     -67.311  47.355  -0.448  1.00  0.00     0.155 A 
HETATM    9  C9  UNL     1     -66.437  47.743  -1.442  1.00  0.00     0.079 A 
HETATM   10 BR1  UNL     1     -65.258  49.229  -1.116  1.00  0.00    -0.045 Br
ENDROOT
BRANCH   8  11
HETATM   11  N4  UNL     1     -67.424  47.893   0.701  1.00  0.00    -0.274 N 
ATOM     12  H4  UNL     1     -67.326  48.908   0.702  1.00  0.00     0.189 HD
BRANCH  11  13
HETATM   13  N5  UNL     1     -67.654  47.348   1.930  1.00  0.00    -0.221 N 
ATOM     14  H5  UNL     1     -68.002  46.390   1.972  1.00  0.00     0.200 HD
BRANCH  13  15
HETATM   15  S1  UNL     1     -67.389  48.186   3.423  1.00  0.00     0.282 S 
HETATM   16  O1  UNL     1     -67.736  47.271   4.540  1.00  0.00    -0.198 OA
HETATM   17  O2  UNL     1     -68.168  49.447   3.452  1.00  0.00    -0.198 OA
BRANCH  15  18
HETATM   18  C5  UNL     1     -65.665  48.586   3.565  1.00  0.00     0.121 A 
HETATM   19  C6  UNL     1     -64.861  49.164   2.628  1.00  0.00     0.033 A 
HETATM   20  C7  UNL     1     -63.568  49.374   2.967  1.00  0.00     0.009 A 
HETATM   21  C8  UNL     1     -63.182  48.990   4.216  1.00  0.00     0.051 A 
HETATM   22  S2  UNL     1     -64.609  48.352   4.885  1.00  0.00    -0.088 SA
ENDBRANCH  15  18
ENDBRANCH  13  15
ENDBRANCH  11  13
ENDBRANCH   8  11
BRANCH   5  23
HETATM   23  N2  UNL     1     -68.820  44.681  -2.201  1.00  0.00    -0.234 N 
ATOM     24  H22 UNL     1     -69.823  44.855  -2.137  1.00  0.00     0.174 HD
ATOM     25  H21 UNL     1     -68.423  43.769  -2.427  1.00  0.00     0.174 HD
ENDBRANCH   5  23
TORSDOF 5
ENDMDL
MODEL 2
REMARK VINA RESULT: -7.351268253      3.891      6.959
REMARK  5 active torsions:
REMARK  status: ('A' for Active; 'I' for Inactive)
REMARK    1  A    between atoms: C3_5  and  N2_6 
REMARK    2  A    between atoms: C4_11  and  N4_12 
REMARK    3  A    between atoms: N4_12  and  N5_14 
REMARK    4  A    between atoms: N5_14  and  S1_16 
REMARK    5  A    between atoms: S1_16  and  C5_19 
ROOT
HETATM    1  C1  UNL     1     -65.318  48.563   5.373  1.00  0.00     0.070 C 
HETATM    2  C2  UNL     1     -64.490  48.995   4.237  1.00  0.00     0.044 A 
HETATM    3  N1  UNL     1     -63.195  49.371   4.373  1.00  0.00    -0.195 N 
ATOM      4  H1  UNL     1     -62.741  49.367   5.287  1.00  0.00     0.184 HD
HETATM    5  C3  UNL     1     -62.525  49.749   3.274  1.00  0.00     0.677 A 
HETATM    6  N3  UNL     1     -63.070  49.772   2.052  1.00  0.00    -0.174 N 
ATOM      7  H3  UNL     1     -62.500  50.071   1.261  1.00  0.00     0.186 HD
HETATM    8  C4  UNL     1     -64.376  49.405   1.832  1.00  0.00     0.155 A 
HETATM    9  C9  UNL     1     -65.053  49.018   2.970  1.00  0.00     0.079 A 
HETATM   10 BR1  UNL     1     -66.894  48.476   2.817  1.00  0.00    -0.045 Br
ENDROOT
BRANCH   8  11
HETATM   11  N4  UNL     1     -64.854  49.441   0.652  1.00  0.00    -0.274 N 
ATOM     12  H4  UNL     1     -65.529  50.190   0.495  1.00  0.00     0.189 HD
BRANCH  11  13
HETATM   13  N5  UNL     1     -64.621  48.654  -0.437  1.00  0.00    -0.221 N 
ATOM     14  H5  UNL     1     -63.817  48.026  -0.412  1.00  0.00     0.200 HD
BRANCH  13  15
HETATM   15  S1  UNL     1     -65.609  48.657  -1.860  1.00  0.00     0.282 S 
HETATM   16  O1  UNL     1     -64.728  48.473  -3.041  1.00  0.00    -0.198 OA
HETATM   17  O2  UNL     1     -66.410  49.903  -1.930  1.00  0.00    -0.198 OA
BRANCH  15  18
HETATM   18  C5  UNL     1     -66.723  47.276  -1.795  1.00  0.00     0.121 A 
HETATM   19  C6  UNL     1     -67.092  46.450  -2.815  1.00  0.00     0.033 A 
HETATM   20  C7  UNL     1     -67.962  45.457  -2.524  1.00  0.00     0.009 A 
HETATM   21  C8  UNL     1     -68.395  45.367  -1.234  1.00  0.00     0.051 A 
HETATM   22  S2  UNL     1     -67.591  46.653  -0.464  1.00  0.00    -0.088 SA
ENDBRANCH  15  18
ENDBRANCH  13  15
ENDBRANCH  11  13
ENDBRANCH   8  11
BRANCH   5  23
HETATM   23  N2  UNL     1     -61.277  50.116   3.379  1.00  0.00    -0.234 N 
ATOM     24  H22 UNL     1     -61.036  51.053   3.057  1.00  0.00     0.174 HD
ATOM     25  H21 UNL     1     -60.597  49.466   3.773  1.00  0.00     0.174 HD
ENDBRANCH   5  23
TORSDOF 5
ENDMDL
MODEL 3
REMARK VINA RESULT: -7.279794864      1.988      2.642
REMARK  5 active torsions:
REMARK  status: ('A' for Active; 'I' for Inactive)
REMARK    1  A    between atoms: C3_5  and  N2_6 
REMARK    2  A    between atoms: C4_11  and  N4_12 
REMARK    3  A    between atoms: N4_12  and  N5_14 
REMARK    4  A    between atoms: N5_14  and  S1_16 
REMARK    5  A    between atoms: S1_16  and  C5_19 
ROOT
HETATM    1  C1  UNL     1     -68.730  44.511  -2.282  1.00  0.00     0.070 C 
HETATM    2  C2  UNL     1     -68.194  45.619  -1.476  1.00  0.00     0.044 A 
HETATM    3  N1  UNL     1     -67.285  46.503  -1.955  1.00  0.00    -0.195 N 
ATOM      4  H1  UNL     1     -66.935  46.429  -2.911  1.00  0.00     0.184 HD
HETATM    5  C3  UNL     1     -66.858  47.479  -1.139  1.00  0.00     0.677 A 
HETATM    6  N3  UNL     1     -67.285  47.623   0.121  1.00  0.00    -0.174 N 
ATOM      7  H3  UNL     1     -66.915  48.389   0.683  1.00  0.00     0.186 HD
HETATM    8  C4  UNL     1     -68.205  46.769   0.678  1.00  0.00     0.155 A 
HETATM    9  C9  UNL     1     -68.636  45.770  -0.170  1.00  0.00     0.079 A 
HETATM   10 BR1  UNL     1     -69.927  44.496   0.473  1.00  0.00    -0.045 Br
ENDROOT
BRANCH   8  11
HETATM   11  N4  UNL     1     -68.583  46.943   1.881  1.00  0.00    -0.274 N 
ATOM     12  H4  UNL     1     -69.589  47.076   1.991  1.00  0.00     0.189 HD
BRANCH  11  13
HETATM   13  N5  UNL     1     -67.879  46.983   3.049  1.00  0.00    -0.221 N 
ATOM     14  H5  UNL     1     -67.618  46.097   3.482  1.00  0.00     0.200 HD
BRANCH  13  15
HETATM   15  S1  UNL     1     -67.399  48.448   3.839  1.00  0.00     0.282 S 
HETATM   16  O1  UNL     1     -67.350  48.197   5.301  1.00  0.00    -0.198 OA
HETATM   17  O2  UNL     1     -68.320  49.554   3.478  1.00  0.00    -0.198 OA
BRANCH  15  18
HETATM   18  C5  UNL     1     -65.762  48.884   3.308  1.00  0.00     0.121 A 
HETATM   19  C6  UNL     1     -65.381  49.384   2.098  1.00  0.00     0.033 A 
HETATM   20  C7  UNL     1     -64.065  49.642   1.922  1.00  0.00     0.009 A 
HETATM   21  C8  UNL     1     -63.234  49.382   2.971  1.00  0.00     0.051 A 
HETATM   22  S2  UNL     1     -64.289  48.788   4.165  1.00  0.00    -0.088 SA
ENDBRANCH  15  18
ENDBRANCH  13  15
ENDBRANCH  11  13
ENDBRANCH   8  11
BRANCH   5  23
HETATM   23  N2  UNL     1     -65.982  48.342  -1.578  1.00  0.00    -0.234 N 
ATOM     24  H22 UNL     1     -65.869  48.421  -2.588  1.00  0.00     0.174 HD
ATOM     25  H21 UNL     1     -65.451  48.898  -0.908  1.00  0.00     0.174 HD
ENDBRANCH   5  23
TORSDOF 5
ENDMDL
MODEL 4
REMARK VINA RESULT: -7.095420989      2.847      3.707
REMARK  5 active torsions:
REMARK  status: ('A' for Active; 'I' for Inactive)
REMARK    1  A    between atoms: C3_5  and  N2_6 
REMARK    2  A    between atoms: C4_11  and  N4_12 
REMARK    3  A    between atoms: N4_12  and  N5_14 
REMARK    4  A    between atoms: N5_14  and  S1_16 
REMARK    5  A    between atoms: S1_16  and  C5_19 
ROOT
HETATM    1  C1  UNL     1     -70.558  43.680   1.079  1.00  0.00     0.070 C 
HETATM    2  C2  UNL     1     -69.497  44.698   1.021  1.00  0.00     0.044 A 
HETATM    3  N1  UNL     1     -69.218  45.404  -0.101  1.00  0.00    -0.195 N 
ATOM      4  H1  UNL     1     -69.746  45.252  -0.961  1.00  0.00     0.184 HD
HETATM    5  C3  UNL     1     -68.230  46.310  -0.051  1.00  0.00     0.677 A 
HETATM    6  N3  UNL     1     -67.508  46.552   1.050  1.00  0.00    -0.174 N 
ATOM      7  H3  UNL     1     -66.772  47.256   1.014  1.00  0.00     0.186 HD
HETATM    8  C4  UNL     1     -67.731  45.878   2.226  1.00  0.00     0.155 A 
HETATM    9  C9  UNL     1     -68.749  44.949   2.162  1.00  0.00     0.079 A 
HETATM   10 BR1  UNL     1     -69.176  43.927   3.735  1.00  0.00    -0.045 Br
ENDROOT
BRANCH   8  11
HETATM   11  N4  UNL     1     -67.020  46.139   3.250  1.00  0.00    -0.274 N 
ATOM     12  H4  UNL     1     -66.136  45.632   3.289  1.00  0.00     0.189 HD
BRANCH  11  13
HETATM   13  N5  UNL     1     -67.236  46.980   4.302  1.00  0.00    -0.221 N 
ATOM     14  H5  UNL     1     -67.546  46.574   5.185  1.00  0.00     0.200 HD
BRANCH  13  15
HETATM   15  S1  UNL     1     -67.013  48.697   4.228  1.00  0.00     0.282 S 
HETATM   16  O1  UNL     1     -66.677  49.183   5.590  1.00  0.00    -0.198 OA
HETATM   17  O2  UNL     1     -68.221  49.350   3.667  1.00  0.00    -0.198 OA
BRANCH  15  18
HETATM   18  C5  UNL     1     -65.636  49.057   3.168  1.00  0.00     0.121 A 
HETATM   19  C6  UNL     1     -65.664  49.424   1.856  1.00  0.00     0.033 A 
HETATM   20  C7  UNL     1     -64.476  49.649   1.249  1.00  0.00     0.009 A 
HETATM   21  C8  UNL     1     -63.352  49.490   2.005  1.00  0.00     0.051 A 
HETATM   22  S2  UNL     1     -63.966  49.036   3.524  1.00  0.00    -0.088 SA
ENDBRANCH  15  18
ENDBRANCH  13  15
ENDBRANCH  11  13
ENDBRANCH   8  11
BRANCH   5  23
HETATM   23  N2  UNL     1     -67.942  47.003  -1.120  1.00  0.00    -0.234 N 
ATOM     24  H22 UNL     1     -68.718  47.434  -1.620  1.00  0.00     0.174 HD
ATOM     25  H21 UNL     1     -66.969  47.088  -1.413  1.00  0.00     0.174 HD
ENDBRANCH   5  23
TORSDOF 5
ENDMDL
MODEL 5
REMARK VINA RESULT: -7.094055867      1.966      2.383
REMARK  5 active torsions:
REMARK  status: ('A' for Active; 'I' for Inactive)
REMARK    1  A    between atoms: C3_5  and  N2_6 
REMARK    2  A    between atoms: C4_11  and  N4_12 
REMARK    3  A    between atoms: N4_12  and  N5_14 
REMARK    4  A    between atoms: N5_14  and  S1_16 
REMARK    5  A    between atoms: S1_16  and  C5_19 
ROOT
HETATM    1  C1  UNL     1     -68.241  45.230  -2.652  1.00  0.00     0.070 C 
HETATM    2  C2  UNL     1     -68.705  45.230  -1.256  1.00  0.00     0.044 A 
HETATM    3  N1  UNL     1     -69.499  44.258  -0.746  1.00  0.00    -0.195 N 
ATOM      4  H1  UNL     1     -69.808  43.476  -1.325  1.00  0.00     0.184 HD
HETATM    5  C3  UNL     1     -69.868  44.350   0.540  1.00  0.00     0.677 A 
HETATM    6  N3  UNL     1     -69.491  45.351   1.344  1.00  0.00    -0.174 N 
ATOM      7  H3  UNL     1     -69.810  45.355   2.312  1.00  0.00     0.186 HD
HETATM    8  C4  UNL     1     -68.686  46.373   0.902  1.00  0.00     0.155 A 
HETATM    9  C9  UNL     1     -68.314  46.267  -0.422  1.00  0.00     0.079 A 
HETATM   10 BR1  UNL     1     -67.186  47.628  -1.182  1.00  0.00    -0.045 Br
ENDROOT
BRANCH   8  11
HETATM   11  N4  UNL     1     -68.351  47.306   1.701  1.00  0.00    -0.274 N 
ATOM     12  H4  UNL     1     -68.474  48.246   1.326  1.00  0.00     0.189 HD
BRANCH  11  13
HETATM   13  N5  UNL     1     -67.856  47.266   2.972  1.00  0.00    -0.221 N 
ATOM     14  H5  UNL     1     -67.889  46.378   3.472  1.00  0.00     0.200 HD
BRANCH  13  15
HETATM   15  S1  UNL     1     -67.176  48.636   3.787  1.00  0.00     0.282 S 
HETATM   16  O1  UNL     1     -66.915  48.258   5.198  1.00  0.00    -0.198 OA
HETATM   17  O2  UNL     1     -68.075  49.809   3.664  1.00  0.00    -0.198 OA
BRANCH  15  18
HETATM   18  C5  UNL     1     -65.618  49.041   3.037  1.00  0.00     0.121 A 
HETATM   19  C6  UNL     1     -65.393  49.507   1.776  1.00  0.00     0.033 A 
HETATM   20  C7  UNL     1     -64.109  49.747   1.425  1.00  0.00     0.009 A 
HETATM   21  C8  UNL     1     -63.151  49.502   2.363  1.00  0.00     0.051 A 
HETATM   22  S2  UNL     1     -64.047  48.949   3.698  1.00  0.00    -0.088 SA
ENDBRANCH  15  18
ENDBRANCH  13  15
ENDBRANCH  11  13
ENDBRANCH   8  11
BRANCH   5  23
HETATM   23  N2  UNL     1     -70.633  43.425   1.054  1.00  0.00    -0.234 N 
ATOM     24  H22 UNL     1     -71.043  42.747   0.412  1.00  0.00     0.174 HD
ATOM     25  H21 UNL     1     -70.793  43.412   2.061  1.00  0.00     0.174 HD
ENDBRANCH   5  23
TORSDOF 5
ENDMDL
