MODEL 1
REMARK VINA RESULT: -7.034536270      0.000      0.000
REMARK  6 active torsions:
REMARK  status: ('A' for Active; 'I' for Inactive)
REMARK    1  A    between atoms: C2_2  and  C3_3 
REMARK    2  A    between atoms: C4_4  and  C5_5 
REMARK    3  A    between atoms: C5_5  and  N1_6 
REMARK       I    between atoms: N1_6  and  C6_8 
REMARK       I    between atoms: C6_8  and  N2_10 
REMARK    4  A    between atoms: N2_10  and  C7_12 
REMARK    5  A    between atoms: C7_12  and  C8_13 
REMARK    6  A    between atoms: C8_13  and  N3_14 
REMARK       I    between atoms: N3_14  and  C9_16 
REMARK       I    between atoms: C9_16  and  N6_21 
REMARK       I    between atoms: N6_21  and  C11_23 
ROOT
HETATM    1  N3  UNL     1      44.110  71.138  85.538  1.00  0.00    -0.224 N 
ATOM      2  H3  UNL     1      43.566  71.863  86.008  1.00  0.00     0.177 HD
HETATM    3  C9  UNL     1      44.569  71.332  84.211  1.00  0.00     0.689 C 
HETATM    4  N4  UNL     1      45.293  72.283  83.787  1.00  0.00    -0.126 N 
ATOM      5  H4  UNL     1      45.539  72.280  82.797  1.00  0.00     0.197 HD
HETATM    6  C10 UNL     1      45.771  73.315  84.557  1.00  0.00     0.196 C 
HETATM    7  N5  UNL     1      46.168  74.207  85.197  1.00  0.00    -0.171 NA
HETATM    8  N6  UNL     1      44.158  70.339  83.247  1.00  0.00    -0.163 N 
ATOM      9  H6  UNL     1      44.760  69.550  83.009  1.00  0.00     0.187 HD
HETATM   10  C11 UNL     1      42.902  70.497  82.651  1.00  0.00     0.202 C 
HETATM   11  N7  UNL     1      41.901  71.269  83.299  1.00  0.00    -0.063 NA
HETATM   12  N8  UNL     1      42.601  69.971  81.527  1.00  0.00    -0.368 N 
ATOM     13  H8  UNL     1      41.666  70.129  81.152  1.00  0.00     0.161 HD
HETATM   14  C12 UNL     1      43.512  69.172  80.771  1.00  0.00     0.148 C 
ENDROOT
BRANCH   1  15
HETATM   15  C8  UNL     1      44.422  69.901  86.214  1.00  0.00     0.157 C 
BRANCH  15  16
HETATM   16  C7  UNL     1      43.223  69.312  86.909  1.00  0.00     0.144 C 
BRANCH  16  17
HETATM   17  N2  UNL     1      42.032  69.710  86.189  1.00  0.00    -0.342 N 
HETATM   18  C6  UNL     1      40.930  68.806  86.161  1.00  0.00     0.316 C 
HETATM   19  N1  UNL     1      39.741  69.124  85.469  1.00  0.00    -0.333 N 
HETATM   20  O1  UNL     1      41.003  67.710  86.755  1.00  0.00    -0.247 OA
ATOM     21  H1  UNL     1      39.675  70.016  84.978  1.00  0.00     0.165 HD
ATOM     22  H2  UNL     1      41.983  70.612  85.716  1.00  0.00     0.164 HD
BRANCH  19  23
HETATM   23  C5  UNL     1      38.635  68.233  85.439  1.00  0.00     0.218 C 
BRANCH  23  24
HETATM   24  C4  UNL     1      37.411  69.048  85.642  1.00  0.00    -0.087 C 
HETATM   25  C3  UNL     1      36.405  69.689  85.807  1.00  0.00    -0.105 C 
BRANCH  25  26
HETATM   26  C2  UNL     1      35.154  70.452  86.011  1.00  0.00     0.089 C 
HETATM   27  C1  UNL     1      34.358  69.849  87.171  1.00  0.00     0.018 C 
ENDBRANCH  25  26
ENDBRANCH  23  24
ENDBRANCH  19  23
ENDBRANCH  16  17
ENDBRANCH  15  16
ENDBRANCH   1  15
TORSDOF 6
ENDMDL
MODEL 2
REMARK VINA RESULT: -6.935210222      1.139      1.139
REMARK  6 active torsions:
REMARK  status: ('A' for Active; 'I' for Inactive)
REMARK    1  A    between atoms: C2_2  and  C3_3 
REMARK    2  A    between atoms: C4_4  and  C5_5 
REMARK    3  A    between atoms: C5_5  and  N1_6 
REMARK       I    between atoms: N1_6  and  C6_8 
REMARK       I    between atoms: C6_8  and  N2_10 
REMARK    4  A    between atoms: N2_10  and  C7_12 
REMARK    5  A    between atoms: C7_12  and  C8_13 
REMARK    6  A    between atoms: C8_13  and  N3_14 
REMARK       I    between atoms: N3_14  and  C9_16 
REMARK       I    between atoms: C9_16  and  N6_21 
REMARK       I    between atoms: N6_21  and  C11_23 
ROOT
HETATM    1  N3  UNL     1      44.313  71.370  84.667  1.00  0.00    -0.224 N 
ATOM      2  H3  UNL     1      43.867  72.282  84.778  1.00  0.00     0.177 HD
HETATM    3  C9  UNL     1      44.617  70.872  83.376  1.00  0.00     0.689 C 
HETATM    4  N4  UNL     1      45.330  71.433  82.490  1.00  0.00    -0.126 N 
ATOM      5  H4  UNL     1      45.453  70.942  81.605  1.00  0.00     0.197 HD
HETATM    6  C10 UNL     1      45.948  72.652  82.631  1.00  0.00     0.196 C 
HETATM    7  N5  UNL     1      46.465  73.694  82.732  1.00  0.00    -0.171 NA
HETATM    8  N6  UNL     1      44.042  69.589  83.040  1.00  0.00    -0.163 N 
ATOM      9  H6  UNL     1      44.571  68.725  83.158  1.00  0.00     0.187 HD
HETATM   10  C11 UNL     1      42.732  69.577  82.548  1.00  0.00     0.202 C 
HETATM   11  N7  UNL     1      41.857  70.659  82.830  1.00  0.00    -0.063 NA
HETATM   12  N8  UNL     1      42.272  68.619  81.841  1.00  0.00    -0.368 N 
ATOM     13  H8  UNL     1      41.307  68.676  81.515  1.00  0.00     0.161 HD
HETATM   14  C12 UNL     1      43.043  67.470  81.485  1.00  0.00     0.148 C 
ENDROOT
BRANCH   1  15
HETATM   15  C8  UNL     1      44.643  70.570  85.823  1.00  0.00     0.157 C 
BRANCH  15  16
HETATM   16  C7  UNL     1      43.456  70.352  86.724  1.00  0.00     0.144 C 
BRANCH  16  17
HETATM   17  N2  UNL     1      42.254  70.389  85.919  1.00  0.00    -0.342 N 
HETATM   18  C6  UNL     1      41.266  69.386  86.141  1.00  0.00     0.316 C 
HETATM   19  N1  UNL     1      40.074  69.355  85.384  1.00  0.00    -0.333 N 
HETATM   20  O1  UNL     1      41.443  68.513  87.016  1.00  0.00    -0.247 OA
ATOM     21  H1  UNL     1      39.923  70.062  84.665  1.00  0.00     0.165 HD
ATOM     22  H2  UNL     1      42.118  71.113  85.214  1.00  0.00     0.164 HD
BRANCH  19  23
HETATM   23  C5  UNL     1      39.080  68.362  85.601  1.00  0.00     0.218 C 
BRANCH  23  24
HETATM   24  C4  UNL     1      37.770  69.059  85.650  1.00  0.00    -0.087 C 
HETATM   25  C3  UNL     1      36.719  69.646  85.696  1.00  0.00    -0.105 C 
BRANCH  25  26
HETATM   26  C2  UNL     1      35.443  70.390  85.758  1.00  0.00     0.089 C 
HETATM   27  C1  UNL     1      34.638  69.945  86.981  1.00  0.00     0.018 C 
ENDBRANCH  25  26
ENDBRANCH  23  24
ENDBRANCH  19  23
ENDBRANCH  16  17
ENDBRANCH  15  16
ENDBRANCH   1  15
TORSDOF 6
ENDMDL
MODEL 3
REMARK VINA RESULT: -6.654789365      2.148      3.441
REMARK  6 active torsions:
REMARK  status: ('A' for Active; 'I' for Inactive)
REMARK    1  A    between atoms: C2_2  and  C3_3 
REMARK    2  A    between atoms: C4_4  and  C5_5 
REMARK    3  A    between atoms: C5_5  and  N1_6 
REMARK       I    between atoms: N1_6  and  C6_8 
REMARK       I    between atoms: C6_8  and  N2_10 
REMARK    4  A    between atoms: N2_10  and  C7_12 
REMARK    5  A    between atoms: C7_12  and  C8_13 
REMARK    6  A    between atoms: C8_13  and  N3_14 
REMARK       I    between atoms: N3_14  and  C9_16 
REMARK       I    between atoms: C9_16  and  N6_21 
REMARK       I    between atoms: N6_21  and  C11_23 
ROOT
HETATM    1  N3  UNL     1      44.302  70.428  81.971  1.00  0.00    -0.224 N 
ATOM      2  H3  UNL     1      43.806  71.203  81.531  1.00  0.00     0.177 HD
HETATM    3  C9  UNL     1      44.392  69.171  81.323  1.00  0.00     0.689 C 
HETATM    4  N4  UNL     1      44.864  68.940  80.170  1.00  0.00    -0.126 N 
ATOM      5  H4  UNL     1      44.856  67.974  79.843  1.00  0.00     0.197 HD
HETATM    6  C10 UNL     1      45.385  69.891  79.326  1.00  0.00     0.196 C 
HETATM    7  N5  UNL     1      45.815  70.692  78.593  1.00  0.00    -0.171 NA
HETATM    8  N6  UNL     1      43.881  68.040  82.063  1.00  0.00    -0.163 N 
ATOM      9  H6  UNL     1      44.499  67.448  82.619  1.00  0.00     0.187 HD
HETATM   10  C11 UNL     1      42.507  67.785  81.988  1.00  0.00     0.202 C 
HETATM   11  N7  UNL     1      41.610  68.831  81.642  1.00  0.00    -0.063 NA
HETATM   12  N8  UNL     1      42.006  66.635  82.222  1.00  0.00    -0.368 N 
ATOM     13  H8  UNL     1      40.995  66.522  82.149  1.00  0.00     0.161 HD
HETATM   14  C12 UNL     1      42.794  65.498  82.581  1.00  0.00     0.148 C 
ENDROOT
BRANCH   1  15
HETATM   15  C8  UNL     1      44.922  70.596  83.265  1.00  0.00     0.157 C 
BRANCH  15  16
HETATM   16  C7  UNL     1      44.003  71.256  84.258  1.00  0.00     0.144 C 
BRANCH  16  17
HETATM   17  N2  UNL     1      42.644  70.852  83.967  1.00  0.00    -0.342 N 
HETATM   18  C6  UNL     1      41.960  70.052  84.928  1.00  0.00     0.316 C 
HETATM   19  N1  UNL     1      40.637  69.613  84.704  1.00  0.00    -0.333 N 
HETATM   20  O1  UNL     1      42.528  69.726  85.991  1.00  0.00    -0.247 OA
ATOM     21  H1  UNL     1      40.167  69.872  83.836  1.00  0.00     0.165 HD
ATOM     22  H2  UNL     1      42.189  71.133  83.098  1.00  0.00     0.164 HD
BRANCH  19  23
HETATM   23  C5  UNL     1      39.944  68.819  85.658  1.00  0.00     0.218 C 
BRANCH  23  24
HETATM   24  C4  UNL     1      38.493  69.009  85.412  1.00  0.00    -0.087 C 
HETATM   25  C3  UNL     1      37.318  69.187  85.211  1.00  0.00    -0.105 C 
BRANCH  25  26
HETATM   26  C2  UNL     1      35.881  69.434  84.963  1.00  0.00     0.089 C 
HETATM   27  C1  UNL     1      35.293  70.280  86.095  1.00  0.00     0.018 C 
ENDBRANCH  25  26
ENDBRANCH  23  24
ENDBRANCH  19  23
ENDBRANCH  16  17
ENDBRANCH  15  16
ENDBRANCH   1  15
TORSDOF 6
ENDMDL
MODEL 4
REMARK VINA RESULT: -6.596009694      8.039     10.710
REMARK  6 active torsions:
REMARK  status: ('A' for Active; 'I' for Inactive)
REMARK    1  A    between atoms: C2_2  and  C3_3 
REMARK    2  A    between atoms: C4_4  and  C5_5 
REMARK    3  A    between atoms: C5_5  and  N1_6 
REMARK       I    between atoms: N1_6  and  C6_8 
REMARK       I    between atoms: C6_8  and  N2_10 
REMARK    4  A    between atoms: N2_10  and  C7_12 
REMARK    5  A    between atoms: C7_12  and  C8_13 
REMARK    6  A    between atoms: C8_13  and  N3_14 
REMARK       I    between atoms: N3_14  and  C9_16 
REMARK       I    between atoms: C9_16  and  N6_21 
REMARK       I    between atoms: N6_21  and  C11_23 
ROOT
HETATM    1  N3  UNL     1      35.998  63.872  79.233  1.00  0.00    -0.224 N 
ATOM      2  H3  UNL     1      36.310  64.463  78.461  1.00  0.00     0.177 HD
HETATM    3  C9  UNL     1      35.654  62.517  79.007  1.00  0.00     0.689 C 
HETATM    4  N4  UNL     1      36.386  61.619  78.492  1.00  0.00    -0.126 N 
ATOM      5  H4  UNL     1      35.988  60.685  78.396  1.00  0.00     0.197 HD
HETATM    6  C10 UNL     1      37.675  61.808  78.054  1.00  0.00     0.196 C 
HETATM    7  N5  UNL     1      38.764  61.960  77.663  1.00  0.00    -0.171 NA
HETATM    8  N6  UNL     1      34.319  62.128  79.402  1.00  0.00    -0.163 N 
ATOM      9  H6  UNL     1      34.140  61.699  80.310  1.00  0.00     0.187 HD
HETATM   10  C11 UNL     1      33.281  62.364  78.494  1.00  0.00     0.202 C 
HETATM   11  N7  UNL     1      33.429  63.358  77.489  1.00  0.00    -0.063 NA
HETATM   12  N8  UNL     1      32.181  61.718  78.522  1.00  0.00    -0.368 N 
ATOM     13  H8  UNL     1      31.468  61.942  77.828  1.00  0.00     0.161 HD
HETATM   14  C12 UNL     1      31.901  60.694  79.480  1.00  0.00     0.148 C 
ENDROOT
BRANCH   1  15
HETATM   15  C8  UNL     1      35.903  64.406  80.572  1.00  0.00     0.157 C 
BRANCH  15  16
HETATM   16  C7  UNL     1      36.803  63.685  81.540  1.00  0.00     0.144 C 
BRANCH  16  17
HETATM   17  N2  UNL     1      37.319  64.644  82.491  1.00  0.00    -0.342 N 
HETATM   18  C6  UNL     1      36.650  64.776  83.744  1.00  0.00     0.316 C 
HETATM   19  N1  UNL     1      37.093  65.701  84.715  1.00  0.00    -0.333 N 
HETATM   20  O1  UNL     1      35.654  64.068  84.000  1.00  0.00    -0.247 OA
ATOM     21  H1  UNL     1      37.903  66.286  84.511  1.00  0.00     0.165 HD
ATOM     22  H2  UNL     1      38.139  65.211  82.272  1.00  0.00     0.164 HD
BRANCH  19  23
HETATM   23  C5  UNL     1      36.437  65.836  85.968  1.00  0.00     0.218 C 
BRANCH  23  24
HETATM   24  C4  UNL     1      36.000  67.250  86.083  1.00  0.00    -0.087 C 
HETATM   25  C3  UNL     1      35.666  68.402  86.191  1.00  0.00    -0.105 C 
BRANCH  25  26
HETATM   26  C2  UNL     1      35.279  69.822  86.338  1.00  0.00     0.089 C 
HETATM   27  C1  UNL     1      34.147  69.951  87.360  1.00  0.00     0.018 C 
ENDBRANCH  25  26
ENDBRANCH  23  24
ENDBRANCH  19  23
ENDBRANCH  16  17
ENDBRANCH  15  16
ENDBRANCH   1  15
TORSDOF 6
ENDMDL
MODEL 5
REMARK VINA RESULT: -6.580964674      2.167      3.769
REMARK  6 active torsions:
REMARK  status: ('A' for Active; 'I' for Inactive)
REMARK    1  A    between atoms: C2_2  and  C3_3 
REMARK    2  A    between atoms: C4_4  and  C5_5 
REMARK    3  A    between atoms: C5_5  and  N1_6 
REMARK       I    between atoms: N1_6  and  C6_8 
REMARK       I    between atoms: C6_8  and  N2_10 
REMARK    4  A    between atoms: N2_10  and  C7_12 
REMARK    5  A    between atoms: C7_12  and  C8_13 
REMARK    6  A    between atoms: C8_13  and  N3_14 
REMARK       I    between atoms: N3_14  and  C9_16 
REMARK       I    between atoms: C9_16  and  N6_21 
REMARK       I    between atoms: N6_21  and  C11_23 
ROOT
HETATM    1  N3  UNL     1      43.273  70.007  83.502  1.00  0.00    -0.224 N 
ATOM      2  H3  UNL     1      43.465  69.029  83.282  1.00  0.00     0.177 HD
HETATM    3  C9  UNL     1      44.337  70.924  83.686  1.00  0.00     0.689 C 
HETATM    4  N4  UNL     1      45.263  71.193  82.863  1.00  0.00    -0.126 N 
ATOM      5  H4  UNL     1      45.960  71.881  83.148  1.00  0.00     0.197 HD
HETATM    6  C10 UNL     1      45.398  70.630  81.617  1.00  0.00     0.196 C 
HETATM    7  N5  UNL     1      45.534  70.146  80.563  1.00  0.00    -0.171 NA
HETATM    8  N6  UNL     1      44.365  71.616  84.955  1.00  0.00    -0.163 N 
ATOM      9  H6  UNL     1      43.958  72.546  85.060  1.00  0.00     0.187 HD
HETATM   10  C11 UNL     1      44.970  70.963  86.034  1.00  0.00     0.202 C 
HETATM   11  N7  UNL     1      45.091  69.548  86.030  1.00  0.00    -0.063 NA
HETATM   12  N8  UNL     1      45.430  71.588  87.047  1.00  0.00    -0.368 N 
ATOM     13  H8  UNL     1      45.859  71.048  87.798  1.00  0.00     0.161 HD
HETATM   14  C12 UNL     1      45.373  73.010  87.179  1.00  0.00     0.148 C 
ENDROOT
BRANCH   1  15
HETATM   15  C8  UNL     1      41.913  70.476  83.631  1.00  0.00     0.157 C 
BRANCH  15  16
HETATM   16  C7  UNL     1      40.910  69.455  83.163  1.00  0.00     0.144 C 
BRANCH  16  17
HETATM   17  N2  UNL     1      40.067  69.091  84.281  1.00  0.00    -0.342 N 
HETATM   18  C6  UNL     1      38.965  68.220  84.037  1.00  0.00     0.316 C 
HETATM   19  N1  UNL     1      38.095  67.833  85.079  1.00  0.00    -0.333 N 
HETATM   20  O1  UNL     1      38.754  67.784  82.886  1.00  0.00    -0.247 OA
ATOM     21  H1  UNL     1      38.259  68.188  86.022  1.00  0.00     0.165 HD
ATOM     22  H2  UNL     1      40.257  69.448  85.218  1.00  0.00     0.164 HD
BRANCH  19  23
HETATM   23  C5  UNL     1      36.998  66.960  84.848  1.00  0.00     0.218 C 
BRANCH  23  24
HETATM   24  C4  UNL     1      35.799  67.598  85.447  1.00  0.00    -0.087 C 
HETATM   25  C3  UNL     1      34.835  68.111  85.956  1.00  0.00    -0.105 C 
BRANCH  25  26
HETATM   26  C2  UNL     1      33.664  68.737  86.606  1.00  0.00     0.089 C 
HETATM   27  C1  UNL     1      34.097  69.994  87.364  1.00  0.00     0.018 C 
ENDBRANCH  25  26
ENDBRANCH  23  24
ENDBRANCH  19  23
ENDBRANCH  16  17
ENDBRANCH  15  16
ENDBRANCH   1  15
TORSDOF 6
ENDMDL
