MODEL 1
REMARK VINA RESULT: -9.225873389      0.000      0.000
REMARK  4 active torsions:
REMARK  status: ('A' for Active; 'I' for Inactive)
REMARK    1  A    between atoms: C2_2  and  C3_3 
REMARK    2  A    between atoms: C10_14  and  O1_15 
REMARK    3  A    between atoms: O1_15  and  S1_16 
REMARK    4  A    between atoms: S1_16  and  C11_19 
ROOT
HETATM    1  C3  UNL     1     -17.603 -32.936   3.408  1.00  0.00     0.060 C 
HETATM    2  C4  UNL     1     -17.257 -31.688   2.676  1.00  0.00     0.071 C 
HETATM    3  N1  UNL     1     -16.716 -31.908   1.395  1.00  0.00    -0.357 N 
ATOM      4  H1  UNL     1     -16.061 -31.212   1.035  1.00  0.00     0.166 HD
HETATM    5  C5  UNL     1     -16.978 -32.902   0.652  1.00  0.00     0.128 C 
HETATM    6  N2  UNL     1     -16.413 -33.073  -0.647  1.00  0.00    -0.082 NA
HETATM    7  C6  UNL     1     -17.798 -33.984   1.210  1.00  0.00     0.037 A 
HETATM    8  C7  UNL     1     -18.283 -34.991   0.410  1.00  0.00     0.056 A 
HETATM    9 CL1  UNL     1     -17.726 -35.099  -1.254  1.00  0.00    -0.083 Cl
HETATM   10  C8  UNL     1     -19.198 -35.925   0.867  1.00  0.00    -0.016 A 
HETATM   11  C9  UNL     1     -19.629 -35.836   2.169  1.00  0.00     0.030 A 
HETATM   12  C10 UNL     1     -19.177 -34.852   3.024  1.00  0.00     0.110 A 
HETATM   13  C13 UNL     1     -18.249 -33.926   2.523  1.00  0.00     0.002 A 
HETATM   14  C14 UNL     1     -20.605 -36.931   2.336  1.00  0.00     0.017 C 
HETATM   15  N3  UNL     1     -20.999 -37.550   3.338  1.00  0.00    -0.402 N 
ATOM     16  H31 UNL     1     -21.674 -38.306   3.453  1.00  0.00     0.156 HD
ATOM     17  H32 UNL     1     -20.643 -37.334   4.269  1.00  0.00     0.156 HD
HETATM   18  C15 UNL     1     -21.134 -37.250   0.952  1.00  0.00     0.066 C 
HETATM   19  C16 UNL     1     -19.846 -37.090   0.166  1.00  0.00     0.023 C 
HETATM   20  C17 UNL     1     -20.222 -36.733  -1.250  1.00  0.00     0.015 C 
ENDROOT
BRANCH  12  21
HETATM   21  O1  UNL     1     -19.634 -34.810   4.287  1.00  0.00    -0.231 OA
BRANCH  21  22
HETATM   22  S1  UNL     1     -19.295 -35.615   5.681  1.00  0.00     0.270 S 
HETATM   23  O2  UNL     1     -19.032 -34.628   6.800  1.00  0.00    -0.198 OA
HETATM   24  O3  UNL     1     -20.490 -36.422   6.206  1.00  0.00    -0.198 OA
BRANCH  22  25
HETATM   25  C11 UNL     1     -17.956 -36.775   5.604  1.00  0.00     0.166 C 
HETATM   26  C12 UNL     1     -16.914 -36.292   6.623  1.00  0.00     0.023 C 
ENDBRANCH  22  25
ENDBRANCH  21  22
ENDBRANCH  12  21
BRANCH   1  27
HETATM   27  C2  UNL     1     -16.277 -33.482   3.947  1.00  0.00     0.010 C 
HETATM   28  C1  UNL     1     -16.192 -33.131   5.395  1.00  0.00     0.006 C 
ENDBRANCH   1  27
TORSDOF 4
ENDMDL
MODEL 2
REMARK VINA RESULT: -9.160914902      0.860      1.040
REMARK  4 active torsions:
REMARK  status: ('A' for Active; 'I' for Inactive)
REMARK    1  A    between atoms: C2_2  and  C3_3 
REMARK    2  A    between atoms: C10_14  and  O1_15 
REMARK    3  A    between atoms: O1_15  and  S1_16 
REMARK    4  A    between atoms: S1_16  and  C11_19 
ROOT
HETATM    1  C3  UNL     1     -17.492 -33.016   3.487  1.00  0.00     0.060 C 
HETATM    2  C4  UNL     1     -17.200 -31.733   2.793  1.00  0.00     0.071 C 
HETATM    3  N1  UNL     1     -16.703 -31.890   1.485  1.00  0.00    -0.357 N 
ATOM      4  H1  UNL     1     -16.077 -31.166   1.130  1.00  0.00     0.166 HD
HETATM    5  C5  UNL     1     -16.972 -32.860   0.713  1.00  0.00     0.128 C 
HETATM    6  N2  UNL     1     -16.453 -32.967  -0.612  1.00  0.00    -0.082 NA
HETATM    7  C6  UNL     1     -17.747 -33.981   1.258  1.00  0.00     0.037 A 
HETATM    8  C7  UNL     1     -18.241 -34.966   0.436  1.00  0.00     0.056 A 
HETATM    9 CL1  UNL     1     -17.745 -34.996  -1.250  1.00  0.00    -0.083 Cl
HETATM   10  C8  UNL     1     -19.118 -35.939   0.890  1.00  0.00    -0.016 A 
HETATM   11  C9  UNL     1     -19.502 -35.910   2.209  1.00  0.00     0.030 A 
HETATM   12  C10 UNL     1     -19.039 -34.950   3.086  1.00  0.00     0.110 A 
HETATM   13  C13 UNL     1     -18.150 -33.984   2.587  1.00  0.00     0.002 A 
HETATM   14  C14 UNL     1     -20.448 -37.032   2.368  1.00  0.00     0.017 C 
HETATM   15  N3  UNL     1     -20.791 -37.698   3.358  1.00  0.00    -0.402 N 
ATOM     16  H31 UNL     1     -21.445 -38.474   3.467  1.00  0.00     0.156 HD
ATOM     17  H32 UNL     1     -20.405 -37.511   4.283  1.00  0.00     0.156 HD
HETATM   18  C15 UNL     1     -21.022 -37.309   0.993  1.00  0.00     0.066 C 
HETATM   19  C16 UNL     1     -19.768 -37.089   0.166  1.00  0.00     0.023 C 
HETATM   20  C17 UNL     1     -20.205 -36.685  -1.219  1.00  0.00     0.015 C 
ENDROOT
BRANCH  12  21
HETATM   21  O1  UNL     1     -19.449 -34.968   4.365  1.00  0.00    -0.231 OA
BRANCH  21  22
HETATM   22  S1  UNL     1     -18.972 -35.742   5.736  1.00  0.00     0.270 S 
HETATM   23  O2  UNL     1     -19.875 -36.928   6.005  1.00  0.00    -0.198 OA
HETATM   24  O3  UNL     1     -17.586 -36.388   5.601  1.00  0.00    -0.198 OA
BRANCH  22  25
HETATM   25  C11 UNL     1     -18.872 -34.745   7.199  1.00  0.00     0.166 C 
HETATM   26  C12 UNL     1     -17.706 -35.311   8.022  1.00  0.00     0.023 C 
ENDBRANCH  22  25
ENDBRANCH  21  22
ENDBRANCH  12  21
BRANCH   1  27
HETATM   27  C2  UNL     1     -16.136 -33.553   3.955  1.00  0.00     0.010 C 
HETATM   28  C1  UNL     1     -15.999 -33.248   5.410  1.00  0.00     0.006 C 
ENDBRANCH   1  27
TORSDOF 4
ENDMDL
MODEL 3
REMARK VINA RESULT: -8.933735199      1.030      1.270
REMARK  4 active torsions:
REMARK  status: ('A' for Active; 'I' for Inactive)
REMARK    1  A    between atoms: C2_2  and  C3_3 
REMARK    2  A    between atoms: C10_14  and  O1_15 
REMARK    3  A    between atoms: O1_15  and  S1_16 
REMARK    4  A    between atoms: S1_16  and  C11_19 
ROOT
HETATM    1  C3  UNL     1     -17.521 -33.105   3.574  1.00  0.00     0.060 C 
HETATM    2  C4  UNL     1     -17.246 -31.798   2.918  1.00  0.00     0.071 C 
HETATM    3  N1  UNL     1     -16.744 -31.911   1.607  1.00  0.00    -0.357 N 
ATOM      4  H1  UNL     1     -16.127 -31.169   1.274  1.00  0.00     0.166 HD
HETATM    5  C5  UNL     1     -16.997 -32.862   0.807  1.00  0.00     0.128 C 
HETATM    6  N2  UNL     1     -16.475 -32.924  -0.519  1.00  0.00    -0.082 NA
HETATM    7  C6  UNL     1     -17.758 -34.009   1.317  1.00  0.00     0.037 A 
HETATM    8  C7  UNL     1     -18.236 -34.977   0.467  1.00  0.00     0.056 A 
HETATM    9 CL1  UNL     1     -17.737 -34.952  -1.218  1.00  0.00    -0.083 Cl
HETATM   10  C8  UNL     1     -19.101 -35.974   0.890  1.00  0.00    -0.016 A 
HETATM   11  C9  UNL     1     -19.487 -35.989   2.209  1.00  0.00     0.030 A 
HETATM   12  C10 UNL     1     -19.040 -35.048   3.114  1.00  0.00     0.110 A 
HETATM   13  C13 UNL     1     -18.163 -34.056   2.645  1.00  0.00     0.002 A 
HETATM   14  C14 UNL     1     -20.418 -37.128   2.334  1.00  0.00     0.017 C 
HETATM   15  N3  UNL     1     -20.753 -37.827   3.303  1.00  0.00    -0.402 N 
ATOM     16  H31 UNL     1     -21.396 -38.614   3.389  1.00  0.00     0.156 HD
ATOM     17  H32 UNL     1     -20.371 -37.661   4.234  1.00  0.00     0.156 HD
HETATM   18  C15 UNL     1     -20.986 -37.373   0.950  1.00  0.00     0.066 C 
HETATM   19  C16 UNL     1     -19.733 -37.112   0.133  1.00  0.00     0.023 C 
HETATM   20  C17 UNL     1     -20.173 -36.675  -1.242  1.00  0.00     0.015 C 
ENDROOT
BRANCH  12  21
HETATM   21  O1  UNL     1     -19.451 -35.108   4.391  1.00  0.00    -0.231 OA
BRANCH  21  22
HETATM   22  S1  UNL     1     -18.899 -35.822   5.766  1.00  0.00     0.270 S 
HETATM   23  O2  UNL     1     -17.564 -36.490   5.505  1.00  0.00    -0.198 OA
HETATM   24  O3  UNL     1     -18.567 -34.807   6.869  1.00  0.00    -0.198 OA
BRANCH  22  25
HETATM   25  C11 UNL     1     -19.993 -36.990   6.531  1.00  0.00     0.166 C 
HETATM   26  C12 UNL     1     -21.391 -36.357   6.486  1.00  0.00     0.023 C 
ENDBRANCH  22  25
ENDBRANCH  21  22
ENDBRANCH  12  21
BRANCH   1  27
HETATM   27  C2  UNL     1     -16.158 -33.635   4.029  1.00  0.00     0.010 C 
HETATM   28  C1  UNL     1     -15.974 -33.257   5.462  1.00  0.00     0.006 C 
ENDBRANCH   1  27
TORSDOF 4
ENDMDL
MODEL 4
REMARK VINA RESULT: -8.910558660      1.479      2.034
REMARK  4 active torsions:
REMARK  status: ('A' for Active; 'I' for Inactive)
REMARK    1  A    between atoms: C2_2  and  C3_3 
REMARK    2  A    between atoms: C10_14  and  O1_15 
REMARK    3  A    between atoms: O1_15  and  S1_16 
REMARK    4  A    between atoms: S1_16  and  C11_19 
ROOT
HETATM    1  C3  UNL     1     -17.746 -33.256   1.945  1.00  0.00     0.060 C 
HETATM    2  C4  UNL     1     -17.632 -32.616   0.607  1.00  0.00     0.071 C 
HETATM    3  N1  UNL     1     -17.552 -33.531  -0.460  1.00  0.00    -0.357 N 
ATOM      4  H1  UNL     1     -17.037 -33.239  -1.292  1.00  0.00     0.166 HD
HETATM    5  C5  UNL     1     -18.069 -34.689  -0.470  1.00  0.00     0.128 C 
HETATM    6  N2  UNL     1     -17.972 -35.575  -1.583  1.00  0.00    -0.082 NA
HETATM    7  C6  UNL     1     -18.684 -35.181   0.769  1.00  0.00     0.037 A 
HETATM    8  C7  UNL     1     -19.431 -36.335   0.781  1.00  0.00     0.056 A 
HETATM    9 CL1  UNL     1     -19.460 -37.343  -0.659  1.00  0.00    -0.083 Cl
HETATM   10  C8  UNL     1     -20.164 -36.732   1.887  1.00  0.00    -0.016 A 
HETATM   11  C9  UNL     1     -20.137 -35.939   3.009  1.00  0.00     0.030 A 
HETATM   12  C10 UNL     1     -19.404 -34.771   3.063  1.00  0.00     0.110 A 
HETATM   13  C13 UNL     1     -18.672 -34.406   1.922  1.00  0.00     0.002 A 
HETATM   14  C14 UNL     1     -21.029 -36.602   3.981  1.00  0.00     0.017 C 
HETATM   15  N3  UNL     1     -21.083 -36.566   5.221  1.00  0.00    -0.402 N 
ATOM     16  H31 UNL     1     -21.699 -37.025   5.892  1.00  0.00     0.156 HD
ATOM     17  H32 UNL     1     -20.433 -35.998   5.764  1.00  0.00     0.156 HD
HETATM   18  C15 UNL     1     -21.995 -37.446   3.173  1.00  0.00     0.066 C 
HETATM   19  C16 UNL     1     -21.037 -37.941   2.104  1.00  0.00     0.023 C 
HETATM   20  C17 UNL     1     -21.853 -38.252   0.875  1.00  0.00     0.015 C 
ENDROOT
BRANCH  12  21
HETATM   21  O1  UNL     1     -19.414 -34.033   4.186  1.00  0.00    -0.231 OA
BRANCH  21  22
HETATM   22  S1  UNL     1     -18.574 -34.042   5.600  1.00  0.00     0.270 S 
HETATM   23  O2  UNL     1     -18.242 -32.624   6.017  1.00  0.00    -0.198 OA
HETATM   24  O3  UNL     1     -19.404 -34.564   6.780  1.00  0.00    -0.198 OA
BRANCH  22  25
HETATM   25  C11 UNL     1     -17.091 -35.014   5.618  1.00  0.00     0.166 C 
HETATM   26  C12 UNL     1     -17.536 -36.467   5.836  1.00  0.00     0.023 C 
ENDBRANCH  22  25
ENDBRANCH  21  22
ENDBRANCH  12  21
BRANCH   1  27
HETATM   27  C2  UNL     1     -16.329 -33.715   2.307  1.00  0.00     0.010 C 
HETATM   28  C1  UNL     1     -15.726 -32.680   3.197  1.00  0.00     0.006 C 
ENDBRANCH   1  27
TORSDOF 4
ENDMDL
MODEL 5
REMARK VINA RESULT: -8.532752625      2.703      4.464
REMARK  4 active torsions:
REMARK  status: ('A' for Active; 'I' for Inactive)
REMARK    1  A    between atoms: C2_2  and  C3_3 
REMARK    2  A    between atoms: C10_14  and  O1_15 
REMARK    3  A    between atoms: O1_15  and  S1_16 
REMARK    4  A    between atoms: S1_16  and  C11_19 
ROOT
HETATM    1  C3  UNL     1     -19.299 -34.472   1.315  1.00  0.00     0.060 C 
HETATM    2  C4  UNL     1     -19.851 -34.555  -0.064  1.00  0.00     0.071 C 
HETATM    3  N1  UNL     1     -20.206 -35.859  -0.461  1.00  0.00    -0.357 N 
ATOM      4  H1  UNL     1     -20.148 -36.079  -1.455  1.00  0.00     0.166 HD
HETATM    5  C5  UNL     1     -20.592 -36.780   0.321  1.00  0.00     0.128 C 
HETATM    6  N2  UNL     1     -20.954 -38.084  -0.132  1.00  0.00    -0.082 NA
HETATM    7  C6  UNL     1     -20.538 -36.528   1.766  1.00  0.00     0.037 A 
HETATM    8  C7  UNL     1     -21.119 -37.396   2.659  1.00  0.00     0.056 A 
HETATM    9 CL1  UNL     1     -21.734 -38.935   2.073  1.00  0.00    -0.083 Cl
HETATM   10  C8  UNL     1     -21.238 -37.102   4.008  1.00  0.00    -0.016 A 
HETATM   11  C9  UNL     1     -20.755 -35.898   4.460  1.00  0.00     0.030 A 
HETATM   12  C10 UNL     1     -20.158 -34.984   3.616  1.00  0.00     0.110 A 
HETATM   13  C13 UNL     1     -20.054 -35.322   2.257  1.00  0.00     0.002 A 
HETATM   14  C14 UNL     1     -21.058 -35.870   5.905  1.00  0.00     0.017 C 
HETATM   15  N3  UNL     1     -20.543 -35.255   6.852  1.00  0.00    -0.402 N 
ATOM     16  H31 UNL     1     -20.753 -35.236   7.850  1.00  0.00     0.156 HD
ATOM     17  H32 UNL     1     -19.757 -34.621   6.709  1.00  0.00     0.156 HD
HETATM   18  C15 UNL     1     -22.228 -36.811   6.118  1.00  0.00     0.066 C 
HETATM   19  C16 UNL     1     -21.832 -37.902   5.138  1.00  0.00     0.023 C 
HETATM   20  C17 UNL     1     -23.096 -38.601   4.706  1.00  0.00     0.015 C 
ENDROOT
BRANCH  12  21
HETATM   21  O1  UNL     1     -19.705 -33.821   4.112  1.00  0.00    -0.231 OA
BRANCH  21  22
HETATM   22  S1  UNL     1     -18.281 -33.294   4.745  1.00  0.00     0.270 S 
HETATM   23  O2  UNL     1     -18.470 -32.903   6.196  1.00  0.00    -0.198 OA
HETATM   24  O3  UNL     1     -17.220 -34.400   4.821  1.00  0.00    -0.198 OA
BRANCH  22  25
HETATM   25  C11 UNL     1     -17.492 -31.960   3.882  1.00  0.00     0.166 C 
HETATM   26  C12 UNL     1     -16.087 -32.461   3.517  1.00  0.00     0.023 C 
ENDBRANCH  22  25
ENDBRANCH  21  22
ENDBRANCH  12  21
BRANCH   1  27
HETATM   27  C2  UNL     1     -17.846 -34.947   1.209  1.00  0.00     0.010 C 
HETATM   28  C1  UNL     1     -17.148 -34.070   0.224  1.00  0.00     0.006 C 
ENDBRANCH   1  27
TORSDOF 4
ENDMDL
