MODEL 1
REMARK VINA RESULT: -8.397496646      0.000      0.000
REMARK  5 active torsions:
REMARK  status: ('A' for Active; 'I' for Inactive)
REMARK    1  A    between atoms: C2_2  and  C4_4 
REMARK    2  A    between atoms: C7_7  and  O1_8 
REMARK    3  A    between atoms: N1_12  and  O2_13 
REMARK    4  A    between atoms: C10_17  and  C11_18 
REMARK    5  A    between atoms: N3_24  and  O3_25 
ROOT
HETATM    1  C4  UNL     1      14.102 -37.155  14.313  1.00  0.00     0.002 A 
HETATM    2  C5  UNL     1      12.827 -37.313  14.907  1.00  0.00     0.017 A 
HETATM    3  C6  UNL     1      12.496 -36.555  15.998  1.00  0.00     0.040 A 
HETATM    4  C7  UNL     1      13.387 -35.643  16.525  1.00  0.00     0.097 A 
HETATM    5  C8  UNL     1      14.617 -35.511  15.928  1.00  0.00     0.129 A 
HETATM    6  C9  UNL     1      15.002 -36.257  14.817  1.00  0.00     0.124 A 
HETATM    7  N1  UNL     1      16.220 -36.050  14.309  1.00  0.00    -0.159 N 
HETATM    8  N2  UNL     1      17.070 -35.173  14.817  1.00  0.00    -0.256 N 
ATOM      9  H2  UNL     1      17.989 -35.059  14.389  1.00  0.00     0.191 HD
HETATM   10  C10 UNL     1      16.737 -34.421  15.903  1.00  0.00     0.160 A 
HETATM   11  N3  UNL     1      15.538 -34.615  16.414  1.00  0.00    -0.201 N 
ENDROOT
BRANCH  10  12
HETATM   12  C11 UNL     1      17.719 -33.475  16.410  1.00  0.00     0.012 A 
HETATM   13  C12 UNL     1      18.933 -34.003  16.881  1.00  0.00     0.015 A 
HETATM   14  C13 UNL     1      19.954 -33.239  17.388  1.00  0.00     0.001 A 
HETATM   15  C14 UNL     1      19.764 -31.870  17.431  1.00  0.00     0.000 A 
HETATM   16  C15 UNL     1      18.596 -31.320  16.980  1.00  0.00     0.001 A 
HETATM   17  C16 UNL     1      17.587 -32.127  16.475  1.00  0.00     0.015 A 
ENDBRANCH  10  12
BRANCH  11  18
HETATM   18  O3  UNL     1      15.094 -33.910  17.512  1.00  0.00    -0.281 OA
ATOM     19  H3  UNL     1      15.795 -33.522  18.022  1.00  0.00     0.245 HD
ENDBRANCH  11  18
BRANCH   7  20
HETATM   20  O2  UNL     1      16.602 -36.788  13.201  1.00  0.00    -0.267 OA
ATOM     21  H2  UNL     1      16.297 -36.506  12.347  1.00  0.00     0.247 HD
ENDBRANCH   7  20
BRANCH   4  22
HETATM   22  O1  UNL     1      13.078 -34.871  17.619  1.00  0.00    -0.358 OA
ATOM     23  H1  UNL     1      12.330 -34.285  17.628  1.00  0.00     0.217 HD
ENDBRANCH   4  22
BRANCH   1  24
HETATM   24  C2  UNL     1      14.415 -37.976  13.159  1.00  0.00    -0.059 C 
HETATM   25  C1  UNL     1      14.247 -37.567  11.918  1.00  0.00     0.019 C 
HETATM   26  C3  UNL     1      14.900 -39.367  13.393  1.00  0.00     0.048 C 
ENDBRANCH   1  24
TORSDOF 5
ENDMDL
MODEL 2
REMARK VINA RESULT: -8.356369550      2.255      7.047
REMARK  5 active torsions:
REMARK  status: ('A' for Active; 'I' for Inactive)
REMARK    1  A    between atoms: C2_2  and  C4_4 
REMARK    2  A    between atoms: C7_7  and  O1_8 
REMARK    3  A    between atoms: N1_12  and  O2_13 
REMARK    4  A    between atoms: C10_17  and  C11_18 
REMARK    5  A    between atoms: N3_24  and  O3_25 
ROOT
HETATM    1  C4  UNL     1      17.195 -30.444  17.006  1.00  0.00     0.002 A 
HETATM    2  C5  UNL     1      18.581 -30.619  17.236  1.00  0.00     0.017 A 
HETATM    3  C6  UNL     1      19.129 -31.868  17.117  1.00  0.00     0.040 A 
HETATM    4  C7  UNL     1      18.351 -32.955  16.778  1.00  0.00     0.097 A 
HETATM    5  C8  UNL     1      17.009 -32.755  16.561  1.00  0.00     0.129 A 
HETATM    6  C9  UNL     1      16.404 -31.507  16.669  1.00  0.00     0.124 A 
HETATM    7  N1  UNL     1      15.091 -31.419  16.435  1.00  0.00    -0.159 N 
HETATM    8  N2  UNL     1      14.349 -32.464  16.108  1.00  0.00    -0.256 N 
ATOM      9  H2  UNL     1      13.351 -32.339  15.943  1.00  0.00     0.191 HD
HETATM   10  C10 UNL     1      14.898 -33.706  15.991  1.00  0.00     0.160 A 
HETATM   11  N3  UNL     1      16.192 -33.806  16.219  1.00  0.00    -0.201 N 
ENDROOT
BRANCH  10  12
HETATM   12  C11 UNL     1      14.025 -34.811  15.628  1.00  0.00     0.012 A 
HETATM   13  C12 UNL     1      13.587 -34.871  14.294  1.00  0.00     0.015 A 
HETATM   14  C13 UNL     1      12.762 -35.851  13.803  1.00  0.00     0.001 A 
HETATM   15  C14 UNL     1      12.344 -36.831  14.683  1.00  0.00     0.000 A 
HETATM   16  C15 UNL     1      12.749 -36.806  15.989  1.00  0.00     0.001 A 
HETATM   17  C16 UNL     1      13.584 -35.797  16.447  1.00  0.00     0.015 A 
ENDBRANCH  10  12
BRANCH  11  18
HETATM   18  O3  UNL     1      16.854 -35.012  16.130  1.00  0.00    -0.281 OA
ATOM     19  H3  UNL     1      16.744 -35.562  16.896  1.00  0.00     0.245 HD
ENDBRANCH  11  18
BRANCH   7  20
HETATM   20  O2  UNL     1      14.489 -30.176  16.537  1.00  0.00    -0.267 OA
ATOM     21  H2  UNL     1      14.567 -29.578  15.804  1.00  0.00     0.247 HD
ENDBRANCH   7  20
BRANCH   4  22
HETATM   22  O1  UNL     1      18.877 -34.218  16.652  1.00  0.00    -0.358 OA
ATOM     23  H1  UNL     1      18.470 -34.883  16.109  1.00  0.00     0.217 HD
ENDBRANCH   4  22
BRANCH   1  24
HETATM   24  C2  UNL     1      16.653 -29.106  17.143  1.00  0.00    -0.059 C 
HETATM   25  C1  UNL     1      16.540 -28.269  16.131  1.00  0.00     0.019 C 
HETATM   26  C3  UNL     1      16.255 -28.641  18.503  1.00  0.00     0.048 C 
ENDBRANCH   1  24
TORSDOF 5
ENDMDL
MODEL 3
REMARK VINA RESULT: -8.237729372      5.744      8.506
REMARK  5 active torsions:
REMARK  status: ('A' for Active; 'I' for Inactive)
REMARK    1  A    between atoms: C2_2  and  C4_4 
REMARK    2  A    between atoms: C7_7  and  O1_8 
REMARK    3  A    between atoms: N1_12  and  O2_13 
REMARK    4  A    between atoms: C10_17  and  C11_18 
REMARK    5  A    between atoms: N3_24  and  O3_25 
ROOT
HETATM    1  C4  UNL     1      17.521 -31.145  18.134  1.00  0.00     0.002 A 
HETATM    2  C5  UNL     1      18.085 -31.116  16.835  1.00  0.00     0.017 A 
HETATM    3  C6  UNL     1      17.865 -30.029  16.033  1.00  0.00     0.040 A 
HETATM    4  C7  UNL     1      17.103 -28.966  16.471  1.00  0.00     0.097 A 
HETATM    5  C8  UNL     1      16.569 -29.022  17.735  1.00  0.00     0.129 A 
HETATM    6  C9  UNL     1      16.762 -30.103  18.590  1.00  0.00     0.124 A 
HETATM    7  N1  UNL     1      16.202 -30.059  19.802  1.00  0.00    -0.159 N 
HETATM    8  N2  UNL     1      15.473 -29.036  20.219  1.00  0.00    -0.256 N 
ATOM      9  H2  UNL     1      15.067 -29.057  21.154  1.00  0.00     0.191 HD
HETATM   10  C10 UNL     1      15.257 -27.956  19.416  1.00  0.00     0.160 A 
HETATM   11  N3  UNL     1      15.805 -27.987  18.218  1.00  0.00    -0.201 N 
ENDROOT
BRANCH  10  12
HETATM   12  C11 UNL     1      14.446 -26.866  19.938  1.00  0.00     0.012 A 
HETATM   13  C12 UNL     1      15.097 -25.910  20.736  1.00  0.00     0.015 A 
HETATM   14  C13 UNL     1      14.467 -24.828  21.298  1.00  0.00     0.001 A 
HETATM   15  C14 UNL     1      13.114 -24.680  21.055  1.00  0.00     0.000 A 
HETATM   16  C15 UNL     1      12.448 -25.591  20.283  1.00  0.00     0.001 A 
HETATM   17  C16 UNL     1      13.120 -26.673  19.733  1.00  0.00     0.015 A 
ENDBRANCH  10  12
BRANCH  11  18
HETATM   18  O3  UNL     1      15.652 -26.951  17.323  1.00  0.00    -0.281 OA
ATOM     19  H3  UNL     1      14.752 -26.662  17.226  1.00  0.00     0.245 HD
ENDBRANCH  11  18
BRANCH   7  20
HETATM   20  O2  UNL     1      16.398 -31.132  20.655  1.00  0.00    -0.267 OA
ATOM     21  H2  UNL     1      17.059 -31.773  20.424  1.00  0.00     0.247 HD
ENDBRANCH   7  20
BRANCH   4  22
HETATM   22  O1  UNL     1      16.868 -27.864  15.684  1.00  0.00    -0.358 OA
ATOM     23  H1  UNL     1      16.123 -27.291  15.827  1.00  0.00     0.217 HD
ENDBRANCH   4  22
BRANCH   1  24
HETATM   24  C2  UNL     1      17.776 -32.314  18.953  1.00  0.00    -0.059 C 
HETATM   25  C1  UNL     1      18.825 -32.424  19.744  1.00  0.00     0.019 C 
HETATM   26  C3  UNL     1      16.834 -33.466  18.853  1.00  0.00     0.048 C 
ENDBRANCH   1  24
TORSDOF 5
ENDMDL
MODEL 4
REMARK VINA RESULT: -8.162308654      2.609      6.915
REMARK  5 active torsions:
REMARK  status: ('A' for Active; 'I' for Inactive)
REMARK    1  A    between atoms: C2_2  and  C4_4 
REMARK    2  A    between atoms: C7_7  and  O1_8 
REMARK    3  A    between atoms: N1_12  and  O2_13 
REMARK    4  A    between atoms: C10_17  and  C11_18 
REMARK    5  A    between atoms: N3_24  and  O3_25 
ROOT
HETATM    1  C4  UNL     1      17.687 -30.855  17.982  1.00  0.00     0.002 A 
HETATM    2  C5  UNL     1      17.575 -29.475  17.684  1.00  0.00     0.017 A 
HETATM    3  C6  UNL     1      16.613 -29.054  16.806  1.00  0.00     0.040 A 
HETATM    4  C7  UNL     1      15.754 -29.953  16.210  1.00  0.00     0.097 A 
HETATM    5  C8  UNL     1      15.885 -31.285  16.518  1.00  0.00     0.129 A 
HETATM    6  C9  UNL     1      16.846 -31.765  17.404  1.00  0.00     0.124 A 
HETATM    7  N1  UNL     1      16.889 -33.080  17.638  1.00  0.00    -0.159 N 
HETATM    8  N2  UNL     1      16.062 -33.938  17.066  1.00  0.00    -0.256 N 
ATOM      9  H2  UNL     1      16.141 -34.931  17.280  1.00  0.00     0.191 HD
HETATM   10  C10 UNL     1      15.105 -33.514  16.193  1.00  0.00     0.160 A 
HETATM   11  N3  UNL     1      15.052 -32.220  15.952  1.00  0.00    -0.201 N 
ENDROOT
BRANCH  10  12
HETATM   12  C11 UNL     1      14.228 -34.512  15.599  1.00  0.00     0.012 A 
HETATM   13  C12 UNL     1      13.739 -35.521  16.447  1.00  0.00     0.015 A 
HETATM   14  C13 UNL     1      12.905 -36.528  16.034  1.00  0.00     0.001 A 
HETATM   15  C14 UNL     1      12.530 -36.540  14.703  1.00  0.00     0.000 A 
HETATM   16  C15 UNL     1      12.985 -35.575  13.849  1.00  0.00     0.001 A 
HETATM   17  C16 UNL     1      13.828 -34.572  14.305  1.00  0.00     0.015 A 
ENDBRANCH  10  12
BRANCH  11  18
HETATM   18  O3  UNL     1      14.125 -31.679  15.087  1.00  0.00    -0.281 OA
ATOM     19  H3  UNL     1      13.501 -32.314  14.755  1.00  0.00     0.245 HD
ENDBRANCH  11  18
BRANCH   7  20
HETATM   20  O2  UNL     1      17.841 -33.556  18.523  1.00  0.00    -0.267 OA
ATOM     21  H2  UNL     1      17.690 -33.438  19.453  1.00  0.00     0.247 HD
ENDBRANCH   7  20
BRANCH   4  22
HETATM   22  O1  UNL     1      14.779 -29.555  15.326  1.00  0.00    -0.358 OA
ATOM     23  H1  UNL     1      14.785 -29.824  14.414  1.00  0.00     0.217 HD
ENDBRANCH   4  22
BRANCH   1  24
HETATM   24  C2  UNL     1      18.719 -31.261  18.916  1.00  0.00    -0.059 C 
HETATM   25  C1  UNL     1      18.569 -31.204  20.224  1.00  0.00     0.019 C 
HETATM   26  C3  UNL     1      20.030 -31.714  18.366  1.00  0.00     0.048 C 
ENDBRANCH   1  24
TORSDOF 5
ENDMDL
MODEL 5
REMARK VINA RESULT: -8.085584804      2.049      2.401
REMARK  5 active torsions:
REMARK  status: ('A' for Active; 'I' for Inactive)
REMARK    1  A    between atoms: C2_2  and  C4_4 
REMARK    2  A    between atoms: C7_7  and  O1_8 
REMARK    3  A    between atoms: N1_12  and  O2_13 
REMARK    4  A    between atoms: C10_17  and  C11_18 
REMARK    5  A    between atoms: N3_24  and  O3_25 
ROOT
HETATM    1  C4  UNL     1      14.758 -37.621  14.056  1.00  0.00     0.002 A 
HETATM    2  C5  UNL     1      14.034 -37.091  12.961  1.00  0.00     0.017 A 
HETATM    3  C6  UNL     1      14.101 -35.750  12.697  1.00  0.00     0.040 A 
HETATM    4  C7  UNL     1      14.862 -34.909  13.483  1.00  0.00     0.097 A 
HETATM    5  C8  UNL     1      15.554 -35.451  14.538  1.00  0.00     0.129 A 
HETATM    6  C9  UNL     1      15.520 -36.808  14.848  1.00  0.00     0.124 A 
HETATM    7  N1  UNL     1      16.232 -37.235  15.895  1.00  0.00    -0.159 N 
HETATM    8  N2  UNL     1      16.962 -36.426  16.644  1.00  0.00    -0.256 N 
ATOM      9  H2  UNL     1      17.484 -36.806  17.433  1.00  0.00     0.191 HD
HETATM   10  C10 UNL     1      17.026 -35.090  16.379  1.00  0.00     0.160 A 
HETATM   11  N3  UNL     1      16.328 -34.656  15.349  1.00  0.00    -0.201 N 
ENDROOT
BRANCH  10  12
HETATM   12  C11 UNL     1      17.849 -34.258  17.243  1.00  0.00     0.012 A 
HETATM   13  C12 UNL     1      19.183 -34.052  16.853  1.00  0.00     0.015 A 
HETATM   14  C13 UNL     1      20.078 -33.293  17.563  1.00  0.00     0.001 A 
HETATM   15  C14 UNL     1      19.629 -32.701  18.728  1.00  0.00     0.000 A 
HETATM   16  C15 UNL     1      18.337 -32.878  19.139  1.00  0.00     0.001 A 
HETATM   17  C16 UNL     1      17.461 -33.654  18.393  1.00  0.00     0.015 A 
ENDBRANCH  10  12
BRANCH  11  18
HETATM   18  O3  UNL     1      16.318 -33.326  14.987  1.00  0.00    -0.281 OA
ATOM     19  H3  UNL     1      17.159 -32.898  15.095  1.00  0.00     0.245 HD
ENDBRANCH  11  18
BRANCH   7  20
HETATM   20  O2  UNL     1      16.202 -38.585  16.201  1.00  0.00    -0.267 OA
ATOM     21  H2  UNL     1      15.359 -38.988  16.370  1.00  0.00     0.247 HD
ENDBRANCH   7  20
BRANCH   4  22
HETATM   22  O1  UNL     1      14.945 -33.560  13.239  1.00  0.00    -0.358 OA
ATOM     23  H1  UNL     1      15.664 -33.031  13.566  1.00  0.00     0.217 HD
ENDBRANCH   4  22
BRANCH   1  24
HETATM   24  C2  UNL     1      14.661 -39.047  14.302  1.00  0.00    -0.059 C 
HETATM   25  C1  UNL     1      15.483 -39.927  13.767  1.00  0.00     0.019 C 
HETATM   26  C3  UNL     1      13.544 -39.540  15.159  1.00  0.00     0.048 C 
ENDBRANCH   1  24
TORSDOF 5
ENDMDL
