MODEL 1
REMARK VINA RESULT: -8.422947615      0.000      0.000
REMARK  2 active torsions:
REMARK  status: ('A' for Active; 'I' for Inactive)
REMARK    1  A    between atoms: C5_7  and  N2_8 
REMARK       I    between atoms: N2_8  and  C6_10 
REMARK       I    between atoms: C6_10  and  N4_14 
REMARK    2  A    between atoms: C10_18  and  C11_19 
ROOT
HETATM    1  N2  UNL     1      16.817 -35.866  15.104  1.00  0.00    -0.022 N 
ATOM      2  H2  UNL     1      17.295 -36.710  15.420  1.00  0.00     0.203 HD
HETATM    3  C6  UNL     1      15.844 -36.003  14.089  1.00  0.00     0.697 C 
HETATM    4  N3  UNL     1      16.070 -35.507  12.927  1.00  0.00    -0.234 N 
ATOM      5  H31 UNL     1      15.368 -35.607  12.194  1.00  0.00     0.174 HD
ATOM      6  H32 UNL     1      16.950 -35.042  12.707  1.00  0.00     0.174 HD
HETATM    7  N4  UNL     1      14.619 -36.652  14.396  1.00  0.00    -0.157 N 
HETATM    8  C7  UNL     1      13.551 -35.899  14.869  1.00  0.00     0.115 A 
HETATM    9  C8  UNL     1      12.476 -36.709  15.099  1.00  0.00     0.020 A 
HETATM   10  C9  UNL     1      12.904 -37.961  14.761  1.00  0.00     0.033 A 
HETATM   11  C10 UNL     1      14.254 -37.915  14.321  1.00  0.00     0.068 A 
ENDROOT
BRANCH   1  12
HETATM   12  C5  UNL     1      17.143 -34.752  15.658  1.00  0.00     0.696 A 
HETATM   13  N1  UNL     1      16.346 -33.690  15.751  1.00  0.00    -0.201 N 
HETATM   14  C4  UNL     1      16.740 -32.552  16.342  1.00  0.00     0.108 A 
ATOM     15  H1  UNL     1      15.405 -33.743  15.360  1.00  0.00     0.183 HD
HETATM   16  C3  UNL     1      17.993 -32.462  16.868  1.00  0.00     0.042 A 
HETATM   17  C2  UNL     1      18.839 -33.558  16.781  1.00  0.00     0.024 A 
HETATM   18  C1  UNL     1      20.205 -33.456  17.358  1.00  0.00     0.068 C 
HETATM   19  N6  UNL     1      18.381 -34.669  16.177  1.00  0.00    -0.195 N 
ATOM     20  H6  UNL     1      18.997 -35.480  16.108  1.00  0.00     0.184 HD
ENDBRANCH   1  12
BRANCH  11  21
HETATM   21  C11 UNL     1      14.974 -39.100  13.893  1.00  0.00     0.007 A 
HETATM   22  C12 UNL     1      15.699 -39.847  14.819  1.00  0.00     0.016 A 
HETATM   23  C13 UNL     1      16.406 -40.992  14.439  1.00  0.00     0.018 A 
HETATM   24  C14 UNL     1      16.405 -41.413  13.132  1.00  0.00     0.087 A 
HETATM   25  N5  UNL     1      15.712 -40.693  12.257  1.00  0.00    -0.374 N 
HETATM   26  C15 UNL     1      15.008 -39.557  12.624  1.00  0.00     0.101 A 
ATOM     27  H5  UNL     1      15.698 -40.987  11.280  1.00  0.00     0.164 HD
ENDBRANCH  11  21
TORSDOF 2
ENDMDL
MODEL 2
REMARK VINA RESULT: -8.390679590      4.084      9.176
REMARK  2 active torsions:
REMARK  status: ('A' for Active; 'I' for Inactive)
REMARK    1  A    between atoms: C5_7  and  N2_8 
REMARK       I    between atoms: N2_8  and  C6_10 
REMARK       I    between atoms: C6_10  and  N4_14 
REMARK    2  A    between atoms: C10_18  and  C11_19 
ROOT
HETATM    1  N2  UNL     1      14.477 -31.630  16.646  1.00  0.00    -0.022 N 
ATOM      2  H2  UNL     1      14.119 -31.700  17.599  1.00  0.00     0.203 HD
HETATM    3  C6  UNL     1      15.248 -30.493  16.318  1.00  0.00     0.697 C 
HETATM    4  N3  UNL     1      14.779 -29.629  15.492  1.00  0.00    -0.234 N 
ATOM      5  H31 UNL     1      15.335 -28.808  15.255  1.00  0.00     0.174 HD
ATOM      6  H32 UNL     1      13.846 -29.726  15.091  1.00  0.00     0.174 HD
HETATM    7  N4  UNL     1      16.546 -30.358  16.877  1.00  0.00    -0.157 N 
HETATM    8  C7  UNL     1      17.637 -30.893  16.203  1.00  0.00     0.115 A 
HETATM    9  C8  UNL     1      18.782 -30.653  16.906  1.00  0.00     0.020 A 
HETATM   10  C9  UNL     1      18.374 -29.969  18.015  1.00  0.00     0.033 A 
HETATM   11  C10 UNL     1      16.965 -29.789  17.989  1.00  0.00     0.068 A 
ENDROOT
BRANCH   1  12
HETATM   12  C5  UNL     1      14.195 -32.583  15.831  1.00  0.00     0.696 A 
HETATM   13  N1  UNL     1      14.198 -32.471  14.504  1.00  0.00    -0.201 N 
HETATM   14  C4  UNL     1      13.895 -33.502  13.700  1.00  0.00     0.108 A 
ATOM     15  H1  UNL     1      14.438 -31.572  14.085  1.00  0.00     0.183 HD
HETATM   16  C3  UNL     1      13.571 -34.709  14.242  1.00  0.00     0.042 A 
HETATM   17  C2  UNL     1      13.563 -34.846  15.622  1.00  0.00     0.024 A 
HETATM   18  C1  UNL     1      13.209 -36.165  16.209  1.00  0.00     0.068 C 
HETATM   19  N6  UNL     1      13.877 -33.773  16.371  1.00  0.00    -0.195 N 
ATOM     20  H6  UNL     1      13.873 -33.865  17.387  1.00  0.00     0.184 HD
ENDBRANCH   1  12
BRANCH  11  21
HETATM   21  C11 UNL     1      16.250 -29.091  19.040  1.00  0.00     0.007 A 
HETATM   22  C12 UNL     1      16.106 -29.680  20.294  1.00  0.00     0.016 A 
HETATM   23  C13 UNL     1      15.420 -29.034  21.329  1.00  0.00     0.018 A 
HETATM   24  C14 UNL     1      14.865 -27.794  21.132  1.00  0.00     0.087 A 
HETATM   25  N5  UNL     1      15.007 -27.242  19.933  1.00  0.00    -0.374 N 
HETATM   26  C15 UNL     1      15.685 -27.872  18.902  1.00  0.00     0.101 A 
ATOM     27  H5  UNL     1      14.603 -26.320  19.765  1.00  0.00     0.164 HD
ENDBRANCH  11  21
TORSDOF 2
ENDMDL
MODEL 3
REMARK VINA RESULT: -8.304499273      1.322      2.079
REMARK  2 active torsions:
REMARK  status: ('A' for Active; 'I' for Inactive)
REMARK    1  A    between atoms: C5_7  and  N2_8 
REMARK       I    between atoms: N2_8  and  C6_10 
REMARK       I    between atoms: C6_10  and  N4_14 
REMARK    2  A    between atoms: C10_18  and  C11_19 
ROOT
HETATM    1  N2  UNL     1      16.859 -35.933  15.405  1.00  0.00    -0.022 N 
ATOM      2  H2  UNL     1      16.700 -36.797  15.926  1.00  0.00     0.203 HD
HETATM    3  C6  UNL     1      16.234 -35.802  14.145  1.00  0.00     0.697 C 
HETATM    4  N3  UNL     1      16.953 -35.789  13.082  1.00  0.00    -0.234 N 
ATOM      5  H31 UNL     1      16.502 -35.695  12.172  1.00  0.00     0.174 HD
ATOM      6  H32 UNL     1      17.966 -35.904  13.121  1.00  0.00     0.174 HD
HETATM    7  N4  UNL     1      14.824 -35.643  14.092  1.00  0.00    -0.157 N 
HETATM    8  C7  UNL     1      14.281 -34.365  14.133  1.00  0.00     0.115 A 
HETATM    9  C8  UNL     1      12.919 -34.435  14.067  1.00  0.00     0.020 A 
HETATM   10  C9  UNL     1      12.642 -35.769  13.988  1.00  0.00     0.033 A 
HETATM   11  C10 UNL     1      13.847 -36.522  14.004  1.00  0.00     0.068 A 
ENDROOT
BRANCH   1  12
HETATM   12  C5  UNL     1      17.613 -35.042  15.943  1.00  0.00     0.696 A 
HETATM   13  N1  UNL     1      18.826 -35.275  16.441  1.00  0.00    -0.201 N 
HETATM   14  C4  UNL     1      19.570 -34.304  16.992  1.00  0.00     0.108 A 
ATOM     15  H1  UNL     1      19.201 -36.223  16.402  1.00  0.00     0.183 HD
HETATM   16  C3  UNL     1      19.084 -33.033  17.053  1.00  0.00     0.042 A 
HETATM   17  C2  UNL     1      17.823 -32.770  16.540  1.00  0.00     0.024 A 
HETATM   18  C1  UNL     1      17.297 -31.381  16.610  1.00  0.00     0.068 C 
HETATM   19  N6  UNL     1      17.129 -33.788  16.001  1.00  0.00    -0.195 N 
ATOM     20  H6  UNL     1      16.200 -33.603  15.622  1.00  0.00     0.184 HD
ENDBRANCH   1  12
BRANCH  11  21
HETATM   21  C11 UNL     1      13.861 -37.971  13.929  1.00  0.00     0.007 A 
HETATM   22  C12 UNL     1      13.357 -38.728  14.984  1.00  0.00     0.016 A 
HETATM   23  C13 UNL     1      13.358 -40.126  14.944  1.00  0.00     0.018 A 
HETATM   24  C14 UNL     1      13.861 -40.794  13.854  1.00  0.00     0.087 A 
HETATM   25  N5  UNL     1      14.339 -40.063  12.854  1.00  0.00    -0.374 N 
HETATM   26  C15 UNL     1      14.342 -38.677  12.885  1.00  0.00     0.101 A 
ATOM     27  H5  UNL     1      14.718 -40.538  12.035  1.00  0.00     0.164 HD
ENDBRANCH  11  21
TORSDOF 2
ENDMDL
MODEL 4
REMARK VINA RESULT: -8.231810919      4.012      9.103
REMARK  2 active torsions:
REMARK  status: ('A' for Active; 'I' for Inactive)
REMARK    1  A    between atoms: C5_7  and  N2_8 
REMARK       I    between atoms: N2_8  and  C6_10 
REMARK       I    between atoms: C6_10  and  N4_14 
REMARK    2  A    between atoms: C10_18  and  C11_19 
ROOT
HETATM    1  N2  UNL     1      14.799 -31.518  16.431  1.00  0.00    -0.022 N 
ATOM      2  H2  UNL     1      14.401 -31.714  17.351  1.00  0.00     0.203 HD
HETATM    3  C6  UNL     1      15.438 -30.273  16.244  1.00  0.00     0.697 C 
HETATM    4  N3  UNL     1      14.909 -29.403  15.462  1.00  0.00    -0.234 N 
ATOM      5  H31 UNL     1      15.370 -28.503  15.327  1.00  0.00     0.174 HD
ATOM      6  H32 UNL     1      14.019 -29.576  14.995  1.00  0.00     0.174 HD
HETATM    7  N4  UNL     1      16.677 -30.032  16.895  1.00  0.00    -0.157 N 
HETATM    8  C7  UNL     1      17.861 -30.370  16.251  1.00  0.00     0.115 A 
HETATM    9  C8  UNL     1      18.927 -30.056  17.044  1.00  0.00     0.020 A 
HETATM   10  C9  UNL     1      18.378 -29.526  18.175  1.00  0.00     0.033 A 
HETATM   11  C10 UNL     1      16.960 -29.515  18.073  1.00  0.00     0.068 A 
ENDROOT
BRANCH   1  12
HETATM   12  C5  UNL     1      14.683 -32.424  15.526  1.00  0.00     0.696 A 
HETATM   13  N1  UNL     1      13.836 -32.366  14.500  1.00  0.00    -0.201 N 
HETATM   14  C4  UNL     1      13.759 -33.343  13.583  1.00  0.00     0.108 A 
ATOM     15  H1  UNL     1      13.227 -31.554  14.409  1.00  0.00     0.183 HD
HETATM   16  C3  UNL     1      14.564 -34.436  13.690  1.00  0.00     0.042 A 
HETATM   17  C2  UNL     1      15.454 -34.515  14.752  1.00  0.00     0.024 A 
HETATM   18  C1  UNL     1      16.331 -35.709  14.864  1.00  0.00     0.068 C 
HETATM   19  N6  UNL     1      15.481 -33.501  15.636  1.00  0.00    -0.195 N 
ATOM     20  H6  UNL     1      16.132 -33.551  16.420  1.00  0.00     0.184 HD
ENDBRANCH   1  12
BRANCH  11  21
HETATM   21  C11 UNL     1      16.107 -29.002  19.129  1.00  0.00     0.007 A 
HETATM   22  C12 UNL     1      16.104 -29.614  20.380  1.00  0.00     0.016 A 
HETATM   23  C13 UNL     1      15.292 -29.146  21.418  1.00  0.00     0.018 A 
HETATM   24  C14 UNL     1      14.469 -28.063  21.229  1.00  0.00     0.087 A 
HETATM   25  N5  UNL     1      14.480 -27.488  20.032  1.00  0.00    -0.374 N 
HETATM   26  C15 UNL     1      15.281 -27.943  18.997  1.00  0.00     0.101 A 
ATOM     27  H5  UNL     1      13.876 -26.681  19.869  1.00  0.00     0.164 HD
ENDBRANCH  11  21
TORSDOF 2
ENDMDL
MODEL 5
REMARK VINA RESULT: -8.210410969      0.662      1.038
REMARK  2 active torsions:
REMARK  status: ('A' for Active; 'I' for Inactive)
REMARK    1  A    between atoms: C5_7  and  N2_8 
REMARK       I    between atoms: N2_8  and  C6_10 
REMARK       I    between atoms: C6_10  and  N4_14 
REMARK    2  A    between atoms: C10_18  and  C11_19 
ROOT
HETATM    1  N2  UNL     1      16.845 -35.801  15.235  1.00  0.00    -0.022 N 
ATOM      2  H2  UNL     1      17.261 -36.620  15.679  1.00  0.00     0.203 HD
HETATM    3  C6  UNL     1      15.985 -36.016  14.136  1.00  0.00     0.697 C 
HETATM    4  N3  UNL     1      16.351 -35.637  12.965  1.00  0.00    -0.234 N 
ATOM      5  H31 UNL     1      15.730 -35.792  12.170  1.00  0.00     0.174 HD
ATOM      6  H32 UNL     1      17.264 -35.212  12.802  1.00  0.00     0.174 HD
HETATM    7  N4  UNL     1      14.715 -36.608  14.363  1.00  0.00    -0.157 N 
HETATM    8  C7  UNL     1      13.625 -35.793  14.643  1.00  0.00     0.115 A 
HETATM    9  C8  UNL     1      12.508 -36.557  14.825  1.00  0.00     0.020 A 
HETATM   10  C9  UNL     1      12.932 -37.843  14.655  1.00  0.00     0.033 A 
HETATM   11  C10 UNL     1      14.324 -37.865  14.365  1.00  0.00     0.068 A 
ENDROOT
BRANCH   1  12
HETATM   12  C5  UNL     1      17.142 -34.646  15.717  1.00  0.00     0.696 A 
HETATM   13  N1  UNL     1      16.327 -33.593  15.719  1.00  0.00    -0.201 N 
HETATM   14  C4  UNL     1      16.691 -32.410  16.237  1.00  0.00     0.108 A 
ATOM     15  H1  UNL     1      15.396 -33.690  15.314  1.00  0.00     0.183 HD
HETATM   16  C3  UNL     1      17.931 -32.263  16.781  1.00  0.00     0.042 A 
HETATM   17  C2  UNL     1      18.795 -33.348  16.788  1.00  0.00     0.024 A 
HETATM   18  C1  UNL     1      20.146 -33.183  17.384  1.00  0.00     0.068 C 
HETATM   19  N6  UNL     1      18.368 -34.506  16.253  1.00  0.00    -0.195 N 
ATOM     20  H6  UNL     1      18.997 -35.309  16.255  1.00  0.00     0.184 HD
ENDBRANCH   1  12
BRANCH  11  21
HETATM   21  C11 UNL     1      15.050 -39.099  14.131  1.00  0.00     0.007 A 
HETATM   22  C12 UNL     1      14.977 -39.727  12.890  1.00  0.00     0.016 A 
HETATM   23  C13 UNL     1      15.663 -40.918  12.633  1.00  0.00     0.018 A 
HETATM   24  C14 UNL     1      16.432 -41.506  13.607  1.00  0.00     0.087 A 
HETATM   25  N5  UNL     1      16.495 -40.899  14.787  1.00  0.00    -0.374 N 
HETATM   26  C15 UNL     1      15.819 -39.719  15.051  1.00  0.00     0.101 A 
ATOM     27  H5  UNL     1      17.061 -41.318  15.526  1.00  0.00     0.164 HD
ENDBRANCH  11  21
TORSDOF 2
ENDMDL
