MODEL 1
REMARK VINA RESULT: -9.080905905      0.000      0.000
REMARK  4 active torsions:
REMARK  status: ('A' for Active; 'I' for Inactive)
REMARK    1  A    between atoms: C2_2  and  C3_3 
REMARK    2  A    between atoms: C3_3  and  C4_4 
REMARK    3  A    between atoms: C4_4  and  N1_5 
REMARK    4  A    between atoms: N1_5  and  C5_8 
ROOT
HETATM    1  N1  UNL     1      65.727  45.956  30.016  1.00  0.00    -0.066 N 
ATOM      2  H11 UNL     1      65.285  45.142  30.442  1.00  0.00     0.278 HD
ATOM      3  H12 UNL     1      66.409  45.480  29.426  1.00  0.00     0.278 HD
ENDROOT
BRANCH   1   4
HETATM    4  C4  UNL     1      66.376  46.777  31.008  1.00  0.00     0.237 C 
BRANCH   4   5
HETATM    5  C3  UNL     1      66.095  46.271  32.411  1.00  0.00     0.061 C 
BRANCH   5   6
HETATM    6  C2  UNL     1      65.485  47.356  33.250  1.00  0.00    -0.078 C 
HETATM    7  C1  UNL     1      66.111  47.782  34.329  1.00  0.00    -0.023 C 
HETATM    8  C20 UNL     1      65.584  48.853  35.222  1.00  0.00     0.032 C 
HETATM    9  C19 UNL     1      64.312  49.471  34.695  1.00  0.00    -0.011 C 
HETATM   10  C18 UNL     1      63.106  48.596  34.978  1.00  0.00     0.005 C 
HETATM   11  C21 UNL     1      64.294  49.468  33.164  1.00  0.00     0.014 C 
HETATM   12  C17 UNL     1      63.138  47.547  33.903  1.00  0.00     0.009 C 
HETATM   13  C16 UNL     1      64.182  47.974  32.899  1.00  0.00     0.014 C 
ENDBRANCH   5   6
ENDBRANCH   4   5
ENDBRANCH   1   4
BRANCH   1  14
HETATM   14  C5  UNL     1      64.780  46.711  29.219  1.00  0.00     0.126 C 
HETATM   15  C6  UNL     1      64.486  45.862  27.991  1.00  0.00     0.039 C 
HETATM   16  C7  UNL     1      64.099  46.660  26.794  1.00  0.00     0.007 C 
HETATM   17  C8  UNL     1      63.136  47.773  27.036  1.00  0.00    -0.014 C 
HETATM   18  C9  UNL     1      62.171  47.553  28.144  1.00  0.00     0.009 C 
HETATM   19  C13 UNL     1      63.918  49.059  27.159  1.00  0.00     0.009 C 
HETATM   20  C10 UNL     1      62.643  47.984  29.489  1.00  0.00    -0.012 C 
HETATM   21  C11 UNL     1      63.397  49.271  29.514  1.00  0.00     0.009 C 
HETATM   22  C15 UNL     1      63.537  46.899  30.053  1.00  0.00     0.043 C 
HETATM   23  C12 UNL     1      64.534  49.133  28.525  1.00  0.00    -0.012 C 
HETATM   24  C14 UNL     1      65.451  48.008  28.838  1.00  0.00     0.043 C 
ENDBRANCH   1  14
TORSDOF 4
ENDMDL
MODEL 2
REMARK VINA RESULT: -9.045954553      1.091      1.787
REMARK  4 active torsions:
REMARK  status: ('A' for Active; 'I' for Inactive)
REMARK    1  A    between atoms: C2_2  and  C3_3 
REMARK    2  A    between atoms: C3_3  and  C4_4 
REMARK    3  A    between atoms: C4_4  and  N1_5 
REMARK    4  A    between atoms: N1_5  and  C5_8 
ROOT
HETATM    1  N1  UNL     1      66.416  47.433  29.638  1.00  0.00    -0.066 N 
ATOM      2  H11 UNL     1      67.158  47.165  28.992  1.00  0.00     0.278 HD
ATOM      3  H12 UNL     1      66.836  48.278  30.026  1.00  0.00     0.278 HD
ENDROOT
BRANCH   1   4
HETATM    4  C4  UNL     1      66.224  46.430  30.658  1.00  0.00     0.237 C 
BRANCH   4   5
HETATM    5  C3  UNL     1      67.204  46.614  31.802  1.00  0.00     0.061 C 
BRANCH   5   6
HETATM    6  C2  UNL     1      66.481  47.016  33.055  1.00  0.00    -0.078 C 
HETATM    7  C1  UNL     1      66.719  46.379  34.183  1.00  0.00    -0.023 C 
HETATM    8  C20 UNL     1      66.052  46.706  35.475  1.00  0.00     0.032 C 
HETATM    9  C19 UNL     1      65.157  47.917  35.372  1.00  0.00    -0.011 C 
HETATM   10  C18 UNL     1      63.825  47.576  34.732  1.00  0.00     0.005 C 
HETATM   11  C21 UNL     1      65.700  48.916  34.347  1.00  0.00     0.014 C 
HETATM   12  C17 UNL     1      64.106  47.557  33.256  1.00  0.00     0.009 C 
HETATM   13  C16 UNL     1      65.493  48.124  33.064  1.00  0.00     0.014 C 
ENDBRANCH   5   6
ENDBRANCH   4   5
ENDBRANCH   1   4
BRANCH   1  14
HETATM   14  C5  UNL     1      65.187  47.734  28.931  1.00  0.00     0.126 C 
HETATM   15  C6  UNL     1      65.591  48.513  27.688  1.00  0.00     0.039 C 
HETATM   16  C7  UNL     1      64.537  49.444  27.200  1.00  0.00     0.007 C 
HETATM   17  C8  UNL     1      63.148  48.903  27.180  1.00  0.00    -0.014 C 
HETATM   18  C9  UNL     1      63.036  47.440  26.943  1.00  0.00     0.009 C 
HETATM   19  C13 UNL     1      62.437  49.372  28.427  1.00  0.00     0.009 C 
HETATM   20  C10 UNL     1      63.095  46.595  28.168  1.00  0.00    -0.012 C 
HETATM   21  C11 UNL     1      62.355  47.133  29.346  1.00  0.00     0.009 C 
HETATM   22  C15 UNL     1      64.548  46.420  28.558  1.00  0.00     0.043 C 
HETATM   23  C12 UNL     1      62.877  48.533  29.591  1.00  0.00    -0.012 C 
HETATM   24  C14 UNL     1      64.338  48.577  29.852  1.00  0.00     0.043 C 
ENDBRANCH   1  14
TORSDOF 4
ENDMDL
MODEL 3
REMARK VINA RESULT: -9.012544667      1.405      3.371
REMARK  4 active torsions:
REMARK  status: ('A' for Active; 'I' for Inactive)
REMARK    1  A    between atoms: C2_2  and  C3_3 
REMARK    2  A    between atoms: C3_3  and  C4_4 
REMARK    3  A    between atoms: C4_4  and  N1_5 
REMARK    4  A    between atoms: N1_5  and  C5_8 
ROOT
HETATM    1  N1  UNL     1      62.962  47.588  31.306  1.00  0.00    -0.066 N 
ATOM      2  H11 UNL     1      62.008  47.818  31.583  1.00  0.00     0.278 HD
ATOM      3  H12 UNL     1      62.952  46.587  31.504  1.00  0.00     0.278 HD
ENDROOT
BRANCH   1   4
HETATM    4  C4  UNL     1      63.926  48.274  32.132  1.00  0.00     0.237 C 
BRANCH   4   5
HETATM    5  C3  UNL     1      64.378  47.401  33.289  1.00  0.00     0.061 C 
BRANCH   5   6
HETATM    6  C2  UNL     1      65.779  46.911  33.062  1.00  0.00    -0.078 C 
HETATM    7  C1  UNL     1      66.802  47.648  33.445  1.00  0.00    -0.023 C 
HETATM    8  C20 UNL     1      68.226  47.245  33.263  1.00  0.00     0.032 C 
HETATM    9  C19 UNL     1      68.364  45.855  32.692  1.00  0.00    -0.011 C 
HETATM   10  C18 UNL     1      68.133  45.839  31.194  1.00  0.00     0.005 C 
HETATM   11  C21 UNL     1      67.213  44.956  33.152  1.00  0.00     0.014 C 
HETATM   12  C17 UNL     1      66.638  45.842  31.040  1.00  0.00     0.009 C 
HETATM   13  C16 UNL     1      66.053  45.606  32.412  1.00  0.00     0.014 C 
ENDBRANCH   5   6
ENDBRANCH   4   5
ENDBRANCH   1   4
BRANCH   1  14
HETATM   14  C5  UNL     1      63.176  47.841  29.895  1.00  0.00     0.126 C 
HETATM   15  C6  UNL     1      61.799  48.068  29.290  1.00  0.00     0.039 C 
HETATM   16  C7  UNL     1      61.713  47.702  27.849  1.00  0.00     0.007 C 
HETATM   17  C8  UNL     1      62.855  48.139  26.997  1.00  0.00    -0.014 C 
HETATM   18  C9  UNL     1      63.523  49.397  27.419  1.00  0.00     0.009 C 
HETATM   19  C13 UNL     1      63.802  46.973  26.836  1.00  0.00     0.009 C 
HETATM   20  C10 UNL     1      64.629  49.226  28.402  1.00  0.00    -0.012 C 
HETATM   21  C11 UNL     1      65.519  48.054  28.158  1.00  0.00     0.009 C 
HETATM   22  C15 UNL     1      64.025  49.084  29.784  1.00  0.00     0.043 C 
HETATM   23  C12 UNL     1      64.627  46.833  28.082  1.00  0.00    -0.012 C 
HETATM   24  C14 UNL     1      63.831  46.611  29.315  1.00  0.00     0.043 C 
ENDBRANCH   1  14
TORSDOF 4
ENDMDL
MODEL 4
REMARK VINA RESULT: -9.004636497      1.702      6.022
REMARK  4 active torsions:
REMARK  status: ('A' for Active; 'I' for Inactive)
REMARK    1  A    between atoms: C2_2  and  C3_3 
REMARK    2  A    between atoms: C3_3  and  C4_4 
REMARK    3  A    between atoms: C4_4  and  N1_5 
REMARK    4  A    between atoms: N1_5  and  C5_8 
ROOT
HETATM    1  N1  UNL     1      64.781  48.257  33.077  1.00  0.00    -0.066 N 
ATOM      2  H11 UNL     1      64.399  48.280  34.022  1.00  0.00     0.278 HD
ATOM      3  H12 UNL     1      65.235  49.170  33.063  1.00  0.00     0.278 HD
ENDROOT
BRANCH   1   4
HETATM    4  C4  UNL     1      63.732  48.180  32.089  1.00  0.00     0.237 C 
BRANCH   4   5
HETATM    5  C3  UNL     1      63.867  49.283  31.057  1.00  0.00     0.061 C 
BRANCH   5   6
HETATM    6  C2  UNL     1      63.510  48.773  29.691  1.00  0.00    -0.078 C 
HETATM    7  C1  UNL     1      62.343  48.195  29.490  1.00  0.00    -0.023 C 
HETATM    8  C20 UNL     1      61.901  47.658  28.171  1.00  0.00     0.032 C 
HETATM    9  C19 UNL     1      62.890  47.948  27.069  1.00  0.00    -0.011 C 
HETATM   10  C18 UNL     1      64.064  46.988  27.105  1.00  0.00     0.005 C 
HETATM   11  C21 UNL     1      63.618  49.272  27.319  1.00  0.00     0.014 C 
HETATM   12  C17 UNL     1      64.970  47.533  28.172  1.00  0.00     0.009 C 
HETATM   13  C16 UNL     1      64.442  48.899  28.542  1.00  0.00     0.014 C 
ENDBRANCH   5   6
ENDBRANCH   4   5
ENDBRANCH   1   4
BRANCH   1  14
HETATM   14  C5  UNL     1      65.749  47.188  32.928  1.00  0.00     0.126 C 
HETATM   15  C6  UNL     1      65.541  46.258  34.114  1.00  0.00     0.039 C 
HETATM   16  C7  UNL     1      66.770  45.517  34.512  1.00  0.00     0.007 C 
HETATM   17  C8  UNL     1      67.576  44.944  33.397  1.00  0.00    -0.014 C 
HETATM   18  C9  UNL     1      66.804  44.539  32.193  1.00  0.00     0.009 C 
HETATM   19  C13 UNL     1      68.714  45.891  33.098  1.00  0.00     0.009 C 
HETATM   20  C10 UNL     1      66.601  45.613  31.181  1.00  0.00    -0.012 C 
HETATM   21  C11 UNL     1      67.782  46.493  30.944  1.00  0.00     0.009 C 
HETATM   22  C15 UNL     1      65.445  46.482  31.630  1.00  0.00     0.043 C 
HETATM   23  C12 UNL     1      68.195  47.046  32.292  1.00  0.00    -0.012 C 
HETATM   24  C14 UNL     1      67.120  47.819  32.962  1.00  0.00     0.043 C 
ENDBRANCH   1  14
TORSDOF 4
ENDMDL
MODEL 5
REMARK VINA RESULT: -8.924763791      1.399      3.307
REMARK  4 active torsions:
REMARK  status: ('A' for Active; 'I' for Inactive)
REMARK    1  A    between atoms: C2_2  and  C3_3 
REMARK    2  A    between atoms: C3_3  and  C4_4 
REMARK    3  A    between atoms: C4_4  and  N1_5 
REMARK    4  A    between atoms: N1_5  and  C5_8 
ROOT
HETATM    1  N1  UNL     1      63.200  47.736  31.419  1.00  0.00    -0.066 N 
ATOM      2  H11 UNL     1      62.236  47.858  31.727  1.00  0.00     0.278 HD
ATOM      3  H12 UNL     1      63.335  46.762  31.690  1.00  0.00     0.278 HD
ENDROOT
BRANCH   1   4
HETATM    4  C4  UNL     1      64.095  48.608  32.140  1.00  0.00     0.237 C 
BRANCH   4   5
HETATM    5  C3  UNL     1      64.463  48.021  33.491  1.00  0.00     0.061 C 
BRANCH   5   6
HETATM    6  C2  UNL     1      65.567  47.013  33.343  1.00  0.00    -0.078 C 
HETATM    7  C1  UNL     1      65.755  46.105  34.279  1.00  0.00    -0.023 C 
HETATM    8  C20 UNL     1      66.822  45.066  34.220  1.00  0.00     0.032 C 
HETATM    9  C19 UNL     1      67.591  45.100  32.922  1.00  0.00    -0.011 C 
HETATM   10  C18 UNL     1      68.624  46.210  32.913  1.00  0.00     0.005 C 
HETATM   11  C21 UNL     1      66.696  45.556  31.766  1.00  0.00     0.014 C 
HETATM   12  C17 UNL     1      67.846  47.451  32.580  1.00  0.00     0.009 C 
HETATM   13  C16 UNL     1      66.465  47.007  32.162  1.00  0.00     0.014 C 
ENDBRANCH   5   6
ENDBRANCH   4   5
ENDBRANCH   1   4
BRANCH   1  14
HETATM   14  C5  UNL     1      63.318  47.902  29.983  1.00  0.00     0.126 C 
HETATM   15  C6  UNL     1      61.897  47.997  29.448  1.00  0.00     0.039 C 
HETATM   16  C7  UNL     1      61.756  47.525  28.043  1.00  0.00     0.007 C 
HETATM   17  C8  UNL     1      62.817  47.972  27.096  1.00  0.00    -0.014 C 
HETATM   18  C9  UNL     1      63.421  49.297  27.393  1.00  0.00     0.009 C 
HETATM   19  C13 UNL     1      63.830  46.861  26.958  1.00  0.00     0.009 C 
HETATM   20  C10 UNL     1      64.589  49.267  28.317  1.00  0.00    -0.012 C 
HETATM   21  C11 UNL     1      65.541  48.141  28.099  1.00  0.00     0.009 C 
HETATM   22  C15 UNL     1      64.072  49.185  29.738  1.00  0.00     0.043 C 
HETATM   23  C12 UNL     1      64.731  46.863  28.158  1.00  0.00    -0.012 C 
HETATM   24  C14 UNL     1      64.022  46.678  29.449  1.00  0.00     0.043 C 
ENDBRANCH   1  14
TORSDOF 4
ENDMDL
