MODEL 1
REMARK VINA RESULT: -6.980510009      0.000      0.000
REMARK  7 active torsions:
REMARK  status: ('A' for Active; 'I' for Inactive)
REMARK       I    between atoms: C1_4  and  N3_6 
REMARK    1  A    between atoms: N3_6  and  C2_8 
REMARK    2  A    between atoms: C2_8  and  O2_13 
REMARK    3  A    between atoms: N4_9  and  O1_11 
REMARK    4  A    between atoms: O2_13  and  C3_14 
REMARK    5  A    between atoms: C6_17  and  O3_18 
REMARK    6  A    between atoms: C7_21  and  C8_22 
REMARK    7  A    between atoms: C8_22  and  O5_23 
ROOT
HETATM    1  C2  UNL     1       3.607   2.454  35.726  1.00  0.00     0.246 C 
HETATM    2  N4  UNL     1       3.504   1.203  35.592  1.00  0.00    -0.232 N 
ATOM      3  H4  UNL     1       2.764   0.810  36.174  1.00  0.00     0.198 HD
ENDROOT
BRANCH   1   4
HETATM    4  N3  UNL     1       2.710   3.148  36.641  1.00  0.00    -0.295 N 
HETATM    5  C1  UNL     1       3.169   4.286  37.338  1.00  0.00     0.189 C 
HETATM    6  N1  UNL     1       4.092   4.124  38.219  1.00  0.00    -0.373 N 
HETATM    7  N2  UNL     1       2.590   5.542  37.030  1.00  0.00    -0.064 NA
ATOM      8  H12 UNL     1       4.424   4.946  38.723  1.00  0.00     0.158 HD
ATOM      9  H11 UNL     1       4.508   3.219  38.440  1.00  0.00     0.158 HD
ATOM     10  H3  UNL     1       1.756   2.813  36.777  1.00  0.00     0.172 HD
ENDBRANCH   1   4
BRANCH   1  11
HETATM   11  O2  UNL     1       4.548   3.155  35.022  1.00  0.00    -0.308 OA
BRANCH  11  12
HETATM   12  C3  UNL     1       5.916   2.877  35.123  1.00  0.00     0.186 C 
HETATM   13  C4  UNL     1       6.433   2.654  33.722  1.00  0.00     0.009 C 
HETATM   14  C5  UNL     1       7.770   2.658  33.619  1.00  0.00     0.031 C 
HETATM   15  C6  UNL     1       8.470   2.888  34.936  1.00  0.00     0.281 C 
HETATM   16  O4  UNL     1       8.002   4.096  35.398  1.00  0.00    -0.348 OA
HETATM   17  C7  UNL     1       6.672   4.065  35.714  1.00  0.00     0.181 C 
BRANCH  15  18
HETATM   18  O3  UNL     1       9.829   2.920  34.638  1.00  0.00    -0.368 OA
ATOM     19  H3  UNL     1      10.179   3.659  35.121  1.00  0.00     0.213 HD
ENDBRANCH  15  18
BRANCH  17  20
HETATM   20  C8  UNL     1       5.959   5.351  35.357  1.00  0.00     0.199 C 
BRANCH  20  21
HETATM   21  O5  UNL     1       5.716   6.156  36.452  1.00  0.00    -0.398 OA
ATOM     22  H5  UNL     1       4.792   6.237  36.656  1.00  0.00     0.209 HD
ENDBRANCH  20  21
ENDBRANCH  17  20
ENDBRANCH  11  12
ENDBRANCH   1  11
BRANCH   2  23
HETATM   23  O1  UNL     1       4.127   0.284  34.879  1.00  0.00    -0.287 OA
ATOM     24  H1  UNL     1       4.091  -0.664  34.823  1.00  0.00     0.244 HD
ENDBRANCH   2  23
TORSDOF 7
ENDMDL
MODEL 2
REMARK VINA RESULT: -6.869213705      1.214      2.746
REMARK  7 active torsions:
REMARK  status: ('A' for Active; 'I' for Inactive)
REMARK       I    between atoms: C1_4  and  N3_6 
REMARK    1  A    between atoms: N3_6  and  C2_8 
REMARK    2  A    between atoms: C2_8  and  O2_13 
REMARK    3  A    between atoms: N4_9  and  O1_11 
REMARK    4  A    between atoms: O2_13  and  C3_14 
REMARK    5  A    between atoms: C6_17  and  O3_18 
REMARK    6  A    between atoms: C7_21  and  C8_22 
REMARK    7  A    between atoms: C8_22  and  O5_23 
ROOT
HETATM    1  C2  UNL     1       3.426   3.139  36.272  1.00  0.00     0.246 C 
HETATM    2  N4  UNL     1       3.016   3.768  37.287  1.00  0.00    -0.232 N 
ATOM      3  H4  UNL     1       2.311   3.247  37.809  1.00  0.00     0.198 HD
ENDROOT
BRANCH   1   4
HETATM    4  N3  UNL     1       2.875   1.821  35.983  1.00  0.00    -0.295 N 
HETATM    5  C1  UNL     1       3.168   1.198  34.750  1.00  0.00     0.189 C 
HETATM    6  N1  UNL     1       2.699   1.732  33.677  1.00  0.00    -0.373 N 
HETATM    7  N2  UNL     1       3.961   0.024  34.761  1.00  0.00    -0.064 NA
ATOM      8  H12 UNL     1       2.911   1.283  32.786  1.00  0.00     0.158 HD
ATOM      9  H11 UNL     1       2.129   2.578  33.670  1.00  0.00     0.158 HD
ATOM     10  H3  UNL     1       2.282   1.350  36.666  1.00  0.00     0.172 HD
ENDBRANCH   1   4
BRANCH   1  11
HETATM   11  O2  UNL     1       4.375   3.683  35.451  1.00  0.00    -0.308 OA
BRANCH  11  12
HETATM   12  C3  UNL     1       5.718   3.291  35.502  1.00  0.00     0.186 C 
HETATM   13  C4  UNL     1       6.118   2.881  34.104  1.00  0.00     0.009 C 
HETATM   14  C5  UNL     1       7.440   2.751  33.924  1.00  0.00     0.031 C 
HETATM   15  C6  UNL     1       8.245   3.047  35.166  1.00  0.00     0.281 C 
HETATM   16  O4  UNL     1       7.915   4.334  35.523  1.00  0.00    -0.348 OA
HETATM   17  C7  UNL     1       6.611   4.458  35.918  1.00  0.00     0.181 C 
BRANCH  15  18
HETATM   18  O3  UNL     1       9.578   2.924  34.788  1.00  0.00    -0.368 OA
ATOM     19  H3  UNL     1      10.077   2.948  35.596  1.00  0.00     0.213 HD
ENDBRANCH  15  18
BRANCH  17  20
HETATM   20  C8  UNL     1       5.989   5.762  35.467  1.00  0.00     0.199 C 
BRANCH  20  21
HETATM   21  O5  UNL     1       5.120   6.296  36.398  1.00  0.00    -0.398 OA
ATOM     22  H5  UNL     1       5.410   7.132  36.740  1.00  0.00     0.209 HD
ENDBRANCH  20  21
ENDBRANCH  17  20
ENDBRANCH  11  12
ENDBRANCH   1  11
BRANCH   2  23
HETATM   23  O1  UNL     1       3.285   4.939  37.833  1.00  0.00    -0.287 OA
ATOM     24  H1  UNL     1       2.777   5.712  38.050  1.00  0.00     0.244 HD
ENDBRANCH   2  23
TORSDOF 7
ENDMDL
MODEL 3
REMARK VINA RESULT: -6.481963300      3.520      5.369
REMARK  7 active torsions:
REMARK  status: ('A' for Active; 'I' for Inactive)
REMARK       I    between atoms: C1_4  and  N3_6 
REMARK    1  A    between atoms: N3_6  and  C2_8 
REMARK    2  A    between atoms: C2_8  and  O2_13 
REMARK    3  A    between atoms: N4_9  and  O1_11 
REMARK    4  A    between atoms: O2_13  and  C3_14 
REMARK    5  A    between atoms: C6_17  and  O3_18 
REMARK    6  A    between atoms: C7_21  and  C8_22 
REMARK    7  A    between atoms: C8_22  and  O5_23 
ROOT
HETATM    1  C2  UNL     1       7.211   2.117  32.426  1.00  0.00     0.246 C 
HETATM    2  N4  UNL     1       8.407   2.133  32.021  1.00  0.00    -0.232 N 
ATOM      3  H4  UNL     1       8.473   2.150  31.004  1.00  0.00     0.198 HD
ENDROOT
BRANCH   1   4
HETATM    4  N3  UNL     1       6.130   2.124  31.450  1.00  0.00    -0.295 N 
HETATM    5  C1  UNL     1       5.877   0.968  30.681  1.00  0.00     0.189 C 
HETATM    6  N1  UNL     1       6.770   0.602  29.829  1.00  0.00    -0.373 N 
HETATM    7  N2  UNL     1       4.660   0.274  30.889  1.00  0.00    -0.064 NA
ATOM      8  H12 UNL     1       6.587  -0.234  29.273  1.00  0.00     0.158 HD
ATOM      9  H11 UNL     1       7.646   1.102  29.679  1.00  0.00     0.158 HD
ATOM     10  H3  UNL     1       5.558   2.960  31.322  1.00  0.00     0.172 HD
ENDBRANCH   1   4
BRANCH   1  11
HETATM   11  O2  UNL     1       6.929   2.095  33.765  1.00  0.00    -0.308 OA
BRANCH  11  12
HETATM   12  C3  UNL     1       6.123   3.064  34.374  1.00  0.00     0.186 C 
HETATM   13  C4  UNL     1       5.102   2.335  35.214  1.00  0.00     0.009 C 
HETATM   14  C5  UNL     1       4.440   3.115  36.079  1.00  0.00     0.031 C 
HETATM   15  C6  UNL     1       4.864   4.563  36.025  1.00  0.00     0.281 C 
HETATM   16  O4  UNL     1       6.214   4.563  36.287  1.00  0.00    -0.348 OA
HETATM   17  C7  UNL     1       6.946   3.951  35.307  1.00  0.00     0.181 C 
BRANCH  15  18
HETATM   18  O3  UNL     1       4.128   5.206  37.014  1.00  0.00    -0.368 OA
ATOM     19  H3  UNL     1       3.837   6.023  36.627  1.00  0.00     0.213 HD
ENDBRANCH  15  18
BRANCH  17  20
HETATM   20  C8  UNL     1       8.114   3.163  35.859  1.00  0.00     0.199 C 
BRANCH  20  21
HETATM   21  O5  UNL     1       9.234   3.222  35.054  1.00  0.00    -0.398 OA
ATOM     22  H5  UNL     1       9.300   2.487  34.455  1.00  0.00     0.209 HD
ENDBRANCH  20  21
ENDBRANCH  17  20
ENDBRANCH  11  12
ENDBRANCH   1  11
BRANCH   2  23
HETATM   23  O1  UNL     1       9.591   2.133  32.603  1.00  0.00    -0.287 OA
ATOM     24  H1  UNL     1      10.268   1.483  32.752  1.00  0.00     0.244 HD
ENDBRANCH   2  23
TORSDOF 7
ENDMDL
MODEL 4
REMARK VINA RESULT: -6.454105010      1.699      3.228
REMARK  7 active torsions:
REMARK  status: ('A' for Active; 'I' for Inactive)
REMARK       I    between atoms: C1_4  and  N3_6 
REMARK    1  A    between atoms: N3_6  and  C2_8 
REMARK    2  A    between atoms: C2_8  and  O2_13 
REMARK    3  A    between atoms: N4_9  and  O1_11 
REMARK    4  A    between atoms: O2_13  and  C3_14 
REMARK    5  A    between atoms: C6_17  and  O3_18 
REMARK    6  A    between atoms: C7_21  and  C8_22 
REMARK    7  A    between atoms: C8_22  and  O5_23 
ROOT
HETATM    1  C2  UNL     1       5.136   4.778  36.114  1.00  0.00     0.246 C 
HETATM    2  N4  UNL     1       5.439   5.968  36.407  1.00  0.00    -0.232 N 
ATOM      3  H4  UNL     1       5.143   6.224  37.349  1.00  0.00     0.198 HD
ENDROOT
BRANCH   1   4
HETATM    4  N3  UNL     1       4.440   3.959  37.098  1.00  0.00    -0.295 N 
HETATM    5  C1  UNL     1       3.554   4.569  38.011  1.00  0.00     0.189 C 
HETATM    6  N1  UNL     1       4.046   5.370  38.889  1.00  0.00    -0.373 N 
HETATM    7  N2  UNL     1       2.172   4.268  37.911  1.00  0.00    -0.064 NA
ATOM      8  H12 UNL     1       3.406   5.811  39.549  1.00  0.00     0.158 HD
ATOM      9  H11 UNL     1       5.041   5.586  38.961  1.00  0.00     0.158 HD
ATOM     10  H3  UNL     1       4.593   2.951  37.127  1.00  0.00     0.172 HD
ENDBRANCH   1   4
BRANCH   1  11
HETATM   11  O2  UNL     1       5.455   4.259  34.889  1.00  0.00    -0.308 OA
BRANCH  11  12
HETATM   12  C3  UNL     1       6.765   3.900  34.550  1.00  0.00     0.186 C 
HETATM   13  C4  UNL     1       7.483   3.558  35.834  1.00  0.00     0.009 C 
HETATM   14  C5  UNL     1       8.652   2.926  35.662  1.00  0.00     0.031 C 
HETATM   15  C6  UNL     1       8.997   2.691  34.211  1.00  0.00     0.281 C 
HETATM   16  O4  UNL     1       7.953   1.957  33.697  1.00  0.00    -0.348 OA
HETATM   17  C7  UNL     1       6.778   2.655  33.665  1.00  0.00     0.181 C 
BRANCH  15  18
HETATM   18  O3  UNL     1      10.194   1.982  34.221  1.00  0.00    -0.368 OA
ATOM     19  H3  UNL     1      10.482   1.953  33.316  1.00  0.00     0.213 HD
ENDBRANCH  15  18
BRANCH  17  20
HETATM   20  C8  UNL     1       5.578   1.790  33.985  1.00  0.00     0.199 C 
BRANCH  20  21
HETATM   21  O5  UNL     1       5.031   1.190  32.868  1.00  0.00    -0.398 OA
ATOM     22  H5  UNL     1       4.307   1.682  32.499  1.00  0.00     0.209 HD
ENDBRANCH  20  21
ENDBRANCH  17  20
ENDBRANCH  11  12
ENDBRANCH   1  11
BRANCH   2  23
HETATM   23  O1  UNL     1       6.047   6.959  35.783  1.00  0.00    -0.287 OA
ATOM     24  H1  UNL     1       6.862   7.433  35.905  1.00  0.00     0.244 HD
ENDBRANCH   2  23
TORSDOF 7
ENDMDL
MODEL 5
REMARK VINA RESULT: -6.374131604      1.798      3.286
REMARK  7 active torsions:
REMARK  status: ('A' for Active; 'I' for Inactive)
REMARK       I    between atoms: C1_4  and  N3_6 
REMARK    1  A    between atoms: N3_6  and  C2_8 
REMARK    2  A    between atoms: C2_8  and  O2_13 
REMARK    3  A    between atoms: N4_9  and  O1_11 
REMARK    4  A    between atoms: O2_13  and  C3_14 
REMARK    5  A    between atoms: C6_17  and  O3_18 
REMARK    6  A    between atoms: C7_21  and  C8_22 
REMARK    7  A    between atoms: C8_22  and  O5_23 
ROOT
HETATM    1  C2  UNL     1       5.476   4.522  36.417  1.00  0.00     0.246 C 
HETATM    2  N4  UNL     1       5.360   5.748  36.136  1.00  0.00    -0.232 N 
ATOM      3  H4  UNL     1       4.512   6.158  36.527  1.00  0.00     0.198 HD
ENDROOT
BRANCH   1   4
HETATM    4  N3  UNL     1       4.445   3.877  37.219  1.00  0.00    -0.295 N 
HETATM    5  C1  UNL     1       3.539   4.668  37.958  1.00  0.00     0.189 C 
HETATM    6  N1  UNL     1       4.002   5.359  38.940  1.00  0.00    -0.373 N 
HETATM    7  N2  UNL     1       2.174   4.660  37.579  1.00  0.00    -0.064 NA
ATOM      8  H12 UNL     1       3.348   5.931  39.474  1.00  0.00     0.158 HD
ATOM      9  H11 UNL     1       4.985   5.364  39.213  1.00  0.00     0.158 HD
ATOM     10  H3  UNL     1       4.378   2.859  37.247  1.00  0.00     0.172 HD
ENDBRANCH   1   4
BRANCH   1  11
HETATM   11  O2  UNL     1       6.555   3.805  35.977  1.00  0.00    -0.308 OA
BRANCH  11  12
HETATM   12  C3  UNL     1       6.750   3.508  34.623  1.00  0.00     0.186 C 
HETATM   13  C4  UNL     1       8.114   2.870  34.497  1.00  0.00     0.009 C 
HETATM   14  C5  UNL     1       8.337   2.271  33.319  1.00  0.00     0.031 C 
HETATM   15  C6  UNL     1       7.167   2.365  32.369  1.00  0.00     0.281 C 
HETATM   16  O4  UNL     1       6.108   1.787  33.030  1.00  0.00    -0.348 OA
HETATM   17  C7  UNL     1       5.717   2.496  34.132  1.00  0.00     0.181 C 
BRANCH  15  18
HETATM   18  O3  UNL     1       7.545   1.650  31.237  1.00  0.00    -0.368 OA
ATOM     19  H3  UNL     1       8.222   1.050  31.527  1.00  0.00     0.213 HD
ENDBRANCH  15  18
BRANCH  17  20
HETATM   20  C8  UNL     1       5.293   1.604  35.278  1.00  0.00     0.199 C 
BRANCH  20  21
HETATM   21  O5  UNL     1       3.922   1.487  35.392  1.00  0.00    -0.398 OA
ATOM     22  H5  UNL     1       3.536   2.158  35.942  1.00  0.00     0.209 HD
ENDBRANCH  20  21
ENDBRANCH  17  20
ENDBRANCH  11  12
ENDBRANCH   1  11
BRANCH   2  23
HETATM   23  O1  UNL     1       6.076   6.623  35.456  1.00  0.00    -0.287 OA
ATOM     24  H1  UNL     1       6.463   6.648  34.589  1.00  0.00     0.244 HD
ENDBRANCH   2  23
TORSDOF 7
ENDMDL
