MODEL 1
REMARK VINA RESULT: -6.940550592      0.000      0.000
REMARK  9 active torsions:
REMARK  status: ('A' for Active; 'I' for Inactive)
REMARK    1  A    between atoms: C2_2  and  C3_3 
REMARK    2  A    between atoms: C3_3  and  C5_5 
REMARK    3  A    between atoms: C5_5  and  C6_6 
REMARK    4  A    between atoms: C6_6  and  C7_7 
REMARK    5  A    between atoms: C7_7  and  N1_8 
REMARK    6  A    between atoms: C7_7  and  C12_19 
REMARK       I    between atoms: N1_8  and  C8_10 
REMARK    7  A    between atoms: C8_10  and  C9_12 
REMARK    8  A    between atoms: C9_12  and  N2_15 
REMARK    9  A    between atoms: C18_28  and  C19_29 
ROOT
HETATM    1  C7  UNL     1      29.430 -25.331   3.919  1.00  0.00     0.100 C 
ENDROOT
BRANCH   1   2
HETATM    2  C6  UNL     1      29.710 -26.587   4.702  1.00  0.00     0.026 C 
BRANCH   2   3
HETATM    3  C5  UNL     1      28.968 -26.700   5.991  1.00  0.00     0.006 C 
BRANCH   3   4
HETATM    4  C3  UNL     1      29.431 -27.832   6.869  1.00  0.00    -0.019 C 
HETATM    5  C4  UNL     1      30.816 -27.565   7.414  1.00  0.00     0.010 C 
BRANCH   4   6
HETATM    6  C2  UNL     1      28.506 -28.141   8.004  1.00  0.00    -0.000 C 
HETATM    7  C1  UNL     1      27.099 -28.452   7.488  1.00  0.00     0.005 C 
ENDBRANCH   4   6
ENDBRANCH   3   4
ENDBRANCH   2   3
ENDBRANCH   1   2
BRANCH   1   8
HETATM    8  N1  UNL     1      28.910 -25.525   2.604  1.00  0.00    -0.353 N 
HETATM    9  C8  UNL     1      29.402 -26.367   1.591  1.00  0.00     0.253 C 
HETATM   10  O1  UNL     1      30.425 -27.094   1.726  1.00  0.00    -0.271 OA
ATOM     11  H1  UNL     1      28.076 -24.986   2.370  1.00  0.00     0.163 HD
BRANCH   9  12
HETATM   12  C9  UNL     1      28.724 -26.446   0.270  1.00  0.00     0.196 C 
HETATM   13  C10 UNL     1      28.250 -25.071  -0.177  1.00  0.00     0.056 C 
HETATM   14  C11 UNL     1      29.592 -27.051  -0.803  1.00  0.00     0.056 C 
BRANCH  12  15
HETATM   15  N2  UNL     1      27.534 -27.255   0.397  1.00  0.00    -0.062 N 
ATOM     16  H23 UNL     1      27.749 -28.231   0.600  1.00  0.00     0.275 HD
ATOM     17  H22 UNL     1      27.010 -27.043   1.246  1.00  0.00     0.275 HD
ATOM     18  H21 UNL     1      26.968 -27.150  -0.445  1.00  0.00     0.275 HD
ENDBRANCH  12  15
ENDBRANCH   9  12
ENDBRANCH   1   8
BRANCH   1  19
HETATM   19  C12 UNL     1      30.653 -24.469   3.972  1.00  0.00     0.134 C 
HETATM   20  C13 UNL     1      30.670 -23.202   3.229  1.00  0.00     0.230 C 
HETATM   21  O2  UNL     1      30.154 -22.702   2.192  1.00  0.00    -0.273 OA
HETATM   22  N3  UNL     1      31.562 -22.747   4.230  1.00  0.00    -0.321 N 
HETATM   23  C14 UNL     1      30.665 -23.473   5.136  1.00  0.00     0.166 C 
HETATM   24  C18 UNL     1      32.641 -22.117   4.834  1.00  0.00     0.207 C 
HETATM   25  S1  UNL     1      31.735 -23.981   6.506  1.00  0.00    -0.131 SA
HETATM   26  C15 UNL     1      32.937 -22.621   6.199  1.00  0.00     0.033 C 
HETATM   27  C16 UNL     1      34.318 -23.200   6.368  1.00  0.00     0.029 C 
HETATM   28  C17 UNL     1      32.701 -21.602   7.301  1.00  0.00     0.029 C 
BRANCH  24  29
HETATM   29  C19 UNL     1      32.421 -20.658   4.914  1.00  0.00     0.198 C 
HETATM   30  O3  UNL     1      33.392 -19.890   4.884  1.00  0.00    -0.646 OA
HETATM   31  O4  UNL     1      31.148 -20.159   5.019  1.00  0.00    -0.646 OA
ENDBRANCH  24  29
ENDBRANCH   1  19
TORSDOF 9
ENDMDL
MODEL 2
REMARK VINA RESULT: -6.790786556      0.583      1.197
REMARK  9 active torsions:
REMARK  status: ('A' for Active; 'I' for Inactive)
REMARK    1  A    between atoms: C2_2  and  C3_3 
REMARK    2  A    between atoms: C3_3  and  C5_5 
REMARK    3  A    between atoms: C5_5  and  C6_6 
REMARK    4  A    between atoms: C6_6  and  C7_7 
REMARK    5  A    between atoms: C7_7  and  N1_8 
REMARK    6  A    between atoms: C7_7  and  C12_19 
REMARK       I    between atoms: N1_8  and  C8_10 
REMARK    7  A    between atoms: C8_10  and  C9_12 
REMARK    8  A    between atoms: C9_12  and  N2_15 
REMARK    9  A    between atoms: C18_28  and  C19_29 
ROOT
HETATM    1  C7  UNL     1      29.126 -25.060   3.390  1.00  0.00     0.100 C 
ENDROOT
BRANCH   1   2
HETATM    2  C6  UNL     1      29.224 -26.333   4.189  1.00  0.00     0.026 C 
BRANCH   2   3
HETATM    3  C5  UNL     1      28.217 -26.467   5.280  1.00  0.00     0.006 C 
BRANCH   3   4
HETATM    4  C3  UNL     1      28.798 -26.885   6.605  1.00  0.00    -0.019 C 
HETATM    5  C4  UNL     1      27.771 -27.612   7.443  1.00  0.00     0.010 C 
BRANCH   4   6
HETATM    6  C2  UNL     1      30.028 -27.729   6.491  1.00  0.00    -0.000 C 
HETATM    7  C1  UNL     1      31.000 -27.428   7.635  1.00  0.00     0.005 C 
ENDBRANCH   4   6
ENDBRANCH   3   4
ENDBRANCH   2   3
ENDBRANCH   1   2
BRANCH   1   8
HETATM    8  N1  UNL     1      28.711 -25.212   2.033  1.00  0.00    -0.353 N 
HETATM    9  C8  UNL     1      29.117 -26.187   1.104  1.00  0.00     0.253 C 
HETATM   10  O1  UNL     1      29.948 -27.099   1.371  1.00  0.00    -0.271 OA
ATOM     11  H1  UNL     1      28.035 -24.527   1.693  1.00  0.00     0.163 HD
BRANCH   9  12
HETATM   12  C9  UNL     1      28.573 -26.194  -0.279  1.00  0.00     0.196 C 
HETATM   13  C10 UNL     1      28.465 -24.778  -0.825  1.00  0.00     0.056 C 
HETATM   14  C11 UNL     1      29.386 -27.036  -1.228  1.00  0.00     0.056 C 
BRANCH  12  15
HETATM   15  N2  UNL     1      27.226 -26.716  -0.255  1.00  0.00    -0.062 N 
ATOM     16  H23 UNL     1      26.975 -27.181  -1.128  1.00  0.00     0.275 HD
ATOM     17  H22 UNL     1      27.132 -27.518   0.367  1.00  0.00     0.275 HD
ATOM     18  H21 UNL     1      26.581 -25.963  -0.017  1.00  0.00     0.275 HD
ENDBRANCH  12  15
ENDBRANCH   9  12
ENDBRANCH   1   8
BRANCH   1  19
HETATM   19  C12 UNL     1      30.410 -24.308   3.557  1.00  0.00     0.134 C 
HETATM   20  C13 UNL     1      30.575 -23.013   2.883  1.00  0.00     0.230 C 
HETATM   21  O2  UNL     1      30.165 -22.424   1.845  1.00  0.00    -0.273 OA
HETATM   22  N3  UNL     1      31.439 -22.682   3.954  1.00  0.00    -0.321 N 
HETATM   23  C14 UNL     1      30.432 -23.372   4.770  1.00  0.00     0.166 C 
HETATM   24  C18 UNL     1      32.527 -22.175   4.650  1.00  0.00     0.207 C 
HETATM   25  S1  UNL     1      31.371 -24.033   6.169  1.00  0.00    -0.131 SA
HETATM   26  C15 UNL     1      32.697 -22.766   6.003  1.00  0.00     0.033 C 
HETATM   27  C16 UNL     1      34.013 -23.466   6.220  1.00  0.00     0.029 C 
HETATM   28  C17 UNL     1      32.479 -21.783   7.141  1.00  0.00     0.029 C 
BRANCH  24  29
HETATM   29  C19 UNL     1      32.422 -20.707   4.793  1.00  0.00     0.198 C 
HETATM   30  O3  UNL     1      33.453 -20.024   4.859  1.00  0.00    -0.646 OA
HETATM   31  O4  UNL     1      31.189 -20.109   4.852  1.00  0.00    -0.646 OA
ENDBRANCH  24  29
ENDBRANCH   1  19
TORSDOF 9
ENDMDL
MODEL 3
REMARK VINA RESULT: -6.585119625      2.262      3.123
REMARK  9 active torsions:
REMARK  status: ('A' for Active; 'I' for Inactive)
REMARK    1  A    between atoms: C2_2  and  C3_3 
REMARK    2  A    between atoms: C3_3  and  C5_5 
REMARK    3  A    between atoms: C5_5  and  C6_6 
REMARK    4  A    between atoms: C6_6  and  C7_7 
REMARK    5  A    between atoms: C7_7  and  N1_8 
REMARK    6  A    between atoms: C7_7  and  C12_19 
REMARK       I    between atoms: N1_8  and  C8_10 
REMARK    7  A    between atoms: C8_10  and  C9_12 
REMARK    8  A    between atoms: C9_12  and  N2_15 
REMARK    9  A    between atoms: C18_28  and  C19_29 
ROOT
HETATM    1  C7  UNL     1      31.120 -25.165   6.569  1.00  0.00     0.100 C 
ENDROOT
BRANCH   1   2
HETATM    2  C6  UNL     1      30.797 -26.094   7.709  1.00  0.00     0.026 C 
BRANCH   2   3
HETATM    3  C5  UNL     1      30.095 -27.349   7.314  1.00  0.00     0.006 C 
BRANCH   3   4
HETATM    4  C3  UNL     1      28.639 -27.386   7.695  1.00  0.00    -0.019 C 
HETATM    5  C4  UNL     1      27.772 -26.853   6.577  1.00  0.00     0.010 C 
BRANCH   4   6
HETATM    6  C2  UNL     1      28.148 -28.741   8.096  1.00  0.00    -0.000 C 
HETATM    7  C1  UNL     1      26.685 -28.931   7.685  1.00  0.00     0.005 C 
ENDBRANCH   4   6
ENDBRANCH   3   4
ENDBRANCH   2   3
ENDBRANCH   1   2
BRANCH   1   8
HETATM    8  N1  UNL     1      30.756 -25.629   5.269  1.00  0.00    -0.353 N 
HETATM    9  C8  UNL     1      30.020 -24.953   4.280  1.00  0.00     0.253 C 
HETATM   10  O1  UNL     1      29.562 -23.787   4.429  1.00  0.00    -0.271 OA
ATOM     11  H1  UNL     1      31.068 -26.570   5.028  1.00  0.00     0.163 HD
BRANCH   9  12
HETATM   12  C9  UNL     1      29.734 -25.597   2.970  1.00  0.00     0.196 C 
HETATM   13  C10 UNL     1      29.538 -24.549   1.885  1.00  0.00     0.056 C 
HETATM   14  C11 UNL     1      30.805 -26.567   2.544  1.00  0.00     0.056 C 
BRANCH  12  15
HETATM   15  N2  UNL     1      28.484 -26.316   3.060  1.00  0.00    -0.062 N 
ATOM     16  H23 UNL     1      28.502 -27.035   3.783  1.00  0.00     0.275 HD
ATOM     17  H22 UNL     1      27.734 -25.743   3.445  1.00  0.00     0.275 HD
ATOM     18  H21 UNL     1      28.251 -26.694   2.142  1.00  0.00     0.275 HD
ENDBRANCH  12  15
ENDBRANCH   9  12
ENDBRANCH   1   8
BRANCH   1  19
HETATM   19  C12 UNL     1      32.557 -24.761   6.693  1.00  0.00     0.134 C 
HETATM   20  C13 UNL     1      33.256 -24.228   5.516  1.00  0.00     0.230 C 
HETATM   21  O2  UNL     1      33.217 -24.334   4.259  1.00  0.00    -0.273 OA
HETATM   22  N3  UNL     1      34.041 -23.498   6.441  1.00  0.00    -0.321 N 
HETATM   23  C14 UNL     1      32.761 -23.308   7.134  1.00  0.00     0.166 C 
HETATM   24  C18 UNL     1      35.143 -22.913   7.049  1.00  0.00     0.207 C 
HETATM   25  S1  UNL     1      33.220 -23.144   8.878  1.00  0.00    -0.131 SA
HETATM   26  C15 UNL     1      34.921 -22.564   8.476  1.00  0.00     0.033 C 
HETATM   27  C16 UNL     1      35.862 -23.239   9.440  1.00  0.00     0.029 C 
HETATM   28  C17 UNL     1      34.928 -21.071   8.758  1.00  0.00     0.029 C 
BRANCH  24  29
HETATM   29  C19 UNL     1      35.552 -21.689   6.328  1.00  0.00     0.198 C 
HETATM   30  O3  UNL     1      36.744 -21.351   6.325  1.00  0.00    -0.646 OA
HETATM   31  O4  UNL     1      34.617 -20.935   5.668  1.00  0.00    -0.646 OA
ENDBRANCH  24  29
ENDBRANCH   1  19
TORSDOF 9
ENDMDL
MODEL 4
REMARK VINA RESULT: -6.546961546      1.522      1.954
REMARK  9 active torsions:
REMARK  status: ('A' for Active; 'I' for Inactive)
REMARK    1  A    between atoms: C2_2  and  C3_3 
REMARK    2  A    between atoms: C3_3  and  C5_5 
REMARK    3  A    between atoms: C5_5  and  C6_6 
REMARK    4  A    between atoms: C6_6  and  C7_7 
REMARK    5  A    between atoms: C7_7  and  N1_8 
REMARK    6  A    between atoms: C7_7  and  C12_19 
REMARK       I    between atoms: N1_8  and  C8_10 
REMARK    7  A    between atoms: C8_10  and  C9_12 
REMARK    8  A    between atoms: C9_12  and  N2_15 
REMARK    9  A    between atoms: C18_28  and  C19_29 
ROOT
HETATM    1  C7  UNL     1      29.649 -24.866   2.943  1.00  0.00     0.100 C 
ENDROOT
BRANCH   1   2
HETATM    2  C6  UNL     1      30.581 -25.985   3.326  1.00  0.00     0.026 C 
BRANCH   2   3
HETATM    3  C5  UNL     1      30.076 -26.880   4.406  1.00  0.00     0.006 C 
BRANCH   3   4
HETATM    4  C3  UNL     1      29.326 -26.163   5.497  1.00  0.00    -0.019 C 
HETATM    5  C4  UNL     1      27.870 -26.576   5.517  1.00  0.00     0.010 C 
BRANCH   4   6
HETATM    6  C2  UNL     1      29.908 -26.350   6.863  1.00  0.00    -0.000 C 
HETATM    7  C1  UNL     1      30.623 -27.700   6.967  1.00  0.00     0.005 C 
ENDBRANCH   4   6
ENDBRANCH   3   4
ENDBRANCH   2   3
ENDBRANCH   1   2
BRANCH   1   8
HETATM    8  N1  UNL     1      28.968 -25.027   1.699  1.00  0.00    -0.353 N 
HETATM    9  C8  UNL     1      29.056 -26.099   0.793  1.00  0.00     0.253 C 
HETATM   10  O1  UNL     1      29.792 -27.108   0.978  1.00  0.00    -0.271 OA
ATOM     11  H1  UNL     1      28.339 -24.269   1.434  1.00  0.00     0.163 HD
BRANCH   9  12
HETATM   12  C9  UNL     1      28.263 -26.100  -0.465  1.00  0.00     0.196 C 
HETATM   13  C10 UNL     1      28.021 -24.679  -0.952  1.00  0.00     0.056 C 
HETATM   14  C11 UNL     1      28.905 -26.904  -1.565  1.00  0.00     0.056 C 
BRANCH  12  15
HETATM   15  N2  UNL     1      26.958 -26.658  -0.201  1.00  0.00    -0.062 N 
ATOM     16  H23 UNL     1      26.785 -26.785   0.796  1.00  0.00     0.275 HD
ATOM     17  H22 UNL     1      26.207 -25.996  -0.394  1.00  0.00     0.275 HD
ATOM     18  H21 UNL     1      26.854 -27.526  -0.726  1.00  0.00     0.275 HD
ENDBRANCH  12  15
ENDBRANCH   9  12
ENDBRANCH   1   8
BRANCH   1  19
HETATM   19  C12 UNL     1      30.398 -23.575   3.068  1.00  0.00     0.134 C 
HETATM   20  C13 UNL     1      29.853 -22.367   2.435  1.00  0.00     0.230 C 
HETATM   21  O2  UNL     1      29.138 -22.053   1.445  1.00  0.00    -0.273 OA
HETATM   22  N3  UNL     1      30.508 -21.656   3.470  1.00  0.00    -0.321 N 
HETATM   23  C14 UNL     1      30.033 -22.760   4.313  1.00  0.00     0.166 C 
HETATM   24  C18 UNL     1      31.243 -20.678   4.125  1.00  0.00     0.207 C 
HETATM   25  S1  UNL     1      31.266 -22.873   5.633  1.00  0.00    -0.131 SA
HETATM   26  C15 UNL     1      31.773 -21.114   5.443  1.00  0.00     0.033 C 
HETATM   27  C16 UNL     1      33.275 -21.066   5.561  1.00  0.00     0.029 C 
HETATM   28  C17 UNL     1      31.171 -20.377   6.628  1.00  0.00     0.029 C 
BRANCH  24  29
HETATM   29  C19 UNL     1      30.433 -19.459   4.329  1.00  0.00     0.198 C 
HETATM   30  O3  UNL     1      30.989 -18.352   4.353  1.00  0.00    -0.646 OA
HETATM   31  O4  UNL     1      29.075 -19.555   4.489  1.00  0.00    -0.646 OA
ENDBRANCH  24  29
ENDBRANCH   1  19
TORSDOF 9
ENDMDL
MODEL 5
REMARK VINA RESULT: -6.499136528      2.019      2.649
REMARK  9 active torsions:
REMARK  status: ('A' for Active; 'I' for Inactive)
REMARK    1  A    between atoms: C2_2  and  C3_3 
REMARK    2  A    between atoms: C3_3  and  C5_5 
REMARK    3  A    between atoms: C5_5  and  C6_6 
REMARK    4  A    between atoms: C6_6  and  C7_7 
REMARK    5  A    between atoms: C7_7  and  N1_8 
REMARK    6  A    between atoms: C7_7  and  C12_19 
REMARK       I    between atoms: N1_8  and  C8_10 
REMARK    7  A    between atoms: C8_10  and  C9_12 
REMARK    8  A    between atoms: C9_12  and  N2_15 
REMARK    9  A    between atoms: C18_28  and  C19_29 
ROOT
HETATM    1  C7  UNL     1      30.666 -25.423   5.917  1.00  0.00     0.100 C 
ENDROOT
BRANCH   1   2
HETATM    2  C6  UNL     1      30.869 -26.472   6.979  1.00  0.00     0.026 C 
BRANCH   2   3
HETATM    3  C5  UNL     1      29.987 -27.667   6.856  1.00  0.00     0.006 C 
BRANCH   3   4
HETATM    4  C3  UNL     1      28.632 -27.499   7.490  1.00  0.00    -0.019 C 
HETATM    5  C4  UNL     1      27.626 -26.975   6.490  1.00  0.00     0.010 C 
BRANCH   4   6
HETATM    6  C2  UNL     1      28.095 -28.745   8.121  1.00  0.00    -0.000 C 
HETATM    7  C1  UNL     1      26.642 -28.983   7.702  1.00  0.00     0.005 C 
ENDBRANCH   4   6
ENDBRANCH   3   4
ENDBRANCH   2   3
ENDBRANCH   1   2
BRANCH   1   8
HETATM    8  N1  UNL     1      30.472 -25.916   4.591  1.00  0.00    -0.353 N 
HETATM    9  C8  UNL     1      29.515 -25.508   3.644  1.00  0.00     0.253 C 
HETATM   10  O1  UNL     1      28.660 -24.606   3.864  1.00  0.00    -0.271 OA
ATOM     11  H1  UNL     1      31.107 -26.657   4.293  1.00  0.00     0.163 HD
BRANCH   9  12
HETATM   12  C9  UNL     1      29.461 -26.135   2.298  1.00  0.00     0.196 C 
HETATM   13  C10 UNL     1      29.228 -25.085   1.221  1.00  0.00     0.056 C 
HETATM   14  C11 UNL     1      30.699 -26.927   1.966  1.00  0.00     0.056 C 
BRANCH  12  15
HETATM   15  N2  UNL     1      28.326 -27.026   2.237  1.00  0.00    -0.062 N 
ATOM     16  H23 UNL     1      28.397 -27.791   2.909  1.00  0.00     0.275 HD
ATOM     17  H22 UNL     1      27.475 -26.596   2.600  1.00  0.00     0.275 HD
ATOM     18  H21 UNL     1      28.214 -27.360   1.280  1.00  0.00     0.275 HD
ENDBRANCH  12  15
ENDBRANCH   9  12
ENDBRANCH   1   8
BRANCH   1  19
HETATM   19  C12 UNL     1      31.769 -24.418   6.040  1.00  0.00     0.134 C 
HETATM   20  C13 UNL     1      31.443 -22.986   5.978  1.00  0.00     0.230 C 
HETATM   21  O2  UNL     1      30.581 -22.230   5.453  1.00  0.00    -0.273 OA
HETATM   22  N3  UNL     1      32.574 -22.800   6.810  1.00  0.00    -0.321 N 
HETATM   23  C14 UNL     1      32.080 -24.006   7.483  1.00  0.00     0.166 C 
HETATM   24  C18 UNL     1      33.738 -22.256   7.335  1.00  0.00     0.207 C 
HETATM   25  S1  UNL     1      33.573 -24.787   8.146  1.00  0.00    -0.131 SA
HETATM   26  C15 UNL     1      34.500 -23.198   8.195  1.00  0.00     0.033 C 
HETATM   27  C16 UNL     1      35.902 -23.484   7.723  1.00  0.00     0.029 C 
HETATM   28  C17 UNL     1      34.556 -22.794   9.659  1.00  0.00     0.029 C 
BRANCH  24  29
HETATM   29  C19 UNL     1      33.441 -21.041   8.123  1.00  0.00     0.198 C 
HETATM   30  O3  UNL     1      34.315 -20.173   8.260  1.00  0.00    -0.646 OA
HETATM   31  O4  UNL     1      32.207 -20.878   8.697  1.00  0.00    -0.646 OA
ENDBRANCH  24  29
ENDBRANCH   1  19
TORSDOF 9
ENDMDL
