MODEL 1
REMARK VINA RESULT: -4.549502973      0.000      0.000
REMARK  1 active torsions:
REMARK  status: ('A' for Active; 'I' for Inactive)
REMARK    1  A    between atoms: C5_5  and  N1_6 
ROOT
HETATM    1  C1  UNL     1       0.590   3.601 -13.383  1.00  0.00     0.040 C 
HETATM    2  C2  UNL     1       0.487   4.005 -11.912  1.00  0.00     0.050 C 
HETATM    3  C3  UNL     1      -0.240   2.964 -11.112  1.00  0.00     0.040 C 
HETATM    4  C4  UNL     1       1.880   4.215 -11.338  1.00  0.00     0.077 C 
HETATM    5  C5  UNL     1       2.530   5.210 -12.313  1.00  0.00     0.268 C 
HETATM    6  S1  UNL     1       1.120   6.392 -12.440  1.00  0.00    -0.009 SA
HETATM    7  N2  UNL     1      -0.126   5.303 -11.843  1.00  0.00    -0.247 N 
HETATM    8  C6  UNL     1      -1.398   5.587 -11.405  1.00  0.00     0.191 C 
HETATM    9  N3  UNL     1      -2.467   5.835 -11.024  1.00  0.00    -0.171 NA
ENDROOT
BRANCH   5  10
HETATM   10  N1  UNL     1       3.670   5.831 -11.711  1.00  0.00    -0.065 N 
ATOM     11  H13 UNL     1       3.678   5.709 -10.698  1.00  0.00     0.275 HD
ATOM     12  H12 UNL     1       4.532   5.333 -11.931  1.00  0.00     0.275 HD
ATOM     13  H11 UNL     1       3.722   6.814 -11.975  1.00  0.00     0.275 HD
ENDBRANCH   5  10
TORSDOF 1
ENDMDL
MODEL 2
REMARK VINA RESULT: -3.346643501      1.930      3.794
REMARK  1 active torsions:
REMARK  status: ('A' for Active; 'I' for Inactive)
REMARK    1  A    between atoms: C5_5  and  N1_6 
ROOT
HETATM    1  C1  UNL     1       1.205   6.022 -13.543  1.00  0.00     0.040 C 
HETATM    2  C2  UNL     1       1.443   5.745 -12.060  1.00  0.00     0.050 C 
HETATM    3  C3  UNL     1       2.875   5.997 -11.682  1.00  0.00     0.040 C 
HETATM    4  C4  UNL     1       0.528   6.622 -11.219  1.00  0.00     0.077 C 
HETATM    5  C5  UNL     1      -0.872   6.337 -11.787  1.00  0.00     0.268 C 
HETATM    6  S1  UNL     1      -0.744   4.499 -11.858  1.00  0.00    -0.009 SA
HETATM    7  N2  UNL     1       1.011   4.404 -11.776  1.00  0.00    -0.247 N 
HETATM    8  C6  UNL     1       1.816   3.322 -11.508  1.00  0.00     0.191 C 
HETATM    9  N3  UNL     1       2.489   2.407 -11.268  1.00  0.00    -0.171 NA
ENDROOT
BRANCH   5  10
HETATM   10  N1  UNL     1      -1.883   6.748 -10.863  1.00  0.00    -0.065 N 
ATOM     11  H13 UNL     1      -1.531   7.439 -10.200  1.00  0.00     0.275 HD
ATOM     12  H12 UNL     1      -2.597   7.319 -11.312  1.00  0.00     0.275 HD
ATOM     13  H11 UNL     1      -2.286   5.939 -10.390  1.00  0.00     0.275 HD
ENDBRANCH   5  10
TORSDOF 1
ENDMDL
MODEL 3
REMARK VINA RESULT: -3.205050871      2.384      3.211
REMARK  1 active torsions:
REMARK  status: ('A' for Active; 'I' for Inactive)
REMARK    1  A    between atoms: C5_5  and  N1_6 
ROOT
HETATM    1  C1  UNL     1       0.146   3.440 -13.174  1.00  0.00     0.040 C 
HETATM    2  C2  UNL     1       0.307   3.513 -11.656  1.00  0.00     0.050 C 
HETATM    3  C3  UNL     1       1.492   2.716 -11.195  1.00  0.00     0.040 C 
HETATM    4  C4  UNL     1       0.463   4.963 -11.225  1.00  0.00     0.077 C 
HETATM    5  C5  UNL     1      -0.752   5.664 -11.854  1.00  0.00     0.268 C 
HETATM    6  S1  UNL     1      -2.031   4.426 -11.373  1.00  0.00    -0.009 SA
HETATM    7  N2  UNL     1      -0.927   3.094 -11.052  1.00  0.00    -0.247 N 
HETATM    8  C6  UNL     1      -1.155   1.912 -10.385  1.00  0.00     0.191 C 
HETATM    9  N3  UNL     1      -1.349   0.923  -9.809  1.00  0.00    -0.171 NA
ENDROOT
BRANCH   5  10
HETATM   10  N1  UNL     1      -0.989   6.924 -11.220  1.00  0.00    -0.065 N 
ATOM     11  H13 UNL     1      -1.729   6.862 -10.520  1.00  0.00     0.275 HD
ATOM     12  H12 UNL     1      -0.221   7.189 -10.605  1.00  0.00     0.275 HD
ATOM     13  H11 UNL     1      -1.184   7.643 -11.915  1.00  0.00     0.275 HD
ENDBRANCH   5  10
TORSDOF 1
ENDMDL
MODEL 4
REMARK VINA RESULT: -2.985750601      2.033      2.714
REMARK  1 active torsions:
REMARK  status: ('A' for Active; 'I' for Inactive)
REMARK    1  A    between atoms: C5_5  and  N1_6 
ROOT
HETATM    1  C1  UNL     1       2.514   5.982 -10.668  1.00  0.00     0.040 C 
HETATM    2  C2  UNL     1       1.665   5.920 -11.937  1.00  0.00     0.050 C 
HETATM    3  C3  UNL     1       1.373   7.295 -12.465  1.00  0.00     0.040 C 
HETATM    4  C4  UNL     1       2.386   5.104 -12.999  1.00  0.00     0.077 C 
HETATM    5  C5  UNL     1       2.710   3.782 -12.286  1.00  0.00     0.268 C 
HETATM    6  S1  UNL     1       1.059   3.506 -11.511  1.00  0.00    -0.009 SA
HETATM    7  N2  UNL     1       0.479   5.161 -11.650  1.00  0.00    -0.247 N 
HETATM    8  C6  UNL     1      -0.798   5.653 -11.520  1.00  0.00     0.191 C 
HETATM    9  N3  UNL     1      -1.882   6.059 -11.422  1.00  0.00    -0.171 NA
ENDROOT
BRANCH   5  10
HETATM   10  N1  UNL     1       3.009   2.757 -13.238  1.00  0.00    -0.065 N 
ATOM     11  H13 UNL     1       2.525   1.886 -13.022  1.00  0.00     0.275 HD
ATOM     12  H12 UNL     1       2.583   2.947 -14.145  1.00  0.00     0.275 HD
ATOM     13  H11 UNL     1       4.017   2.623 -13.313  1.00  0.00     0.275 HD
ENDBRANCH   5  10
TORSDOF 1
ENDMDL
MODEL 5
REMARK VINA RESULT: -2.952738884      7.115      9.090
REMARK  1 active torsions:
REMARK  status: ('A' for Active; 'I' for Inactive)
REMARK    1  A    between atoms: C5_5  and  N1_6 
ROOT
HETATM    1  C1  UNL     1      -4.768   5.136  -5.614  1.00  0.00     0.040 C 
HETATM    2  C2  UNL     1      -5.008   3.680  -6.012  1.00  0.00     0.050 C 
HETATM    3  C3  UNL     1      -3.815   2.825  -5.692  1.00  0.00     0.040 C 
HETATM    4  C4  UNL     1      -6.233   3.144  -5.287  1.00  0.00     0.077 C 
HETATM    5  C5  UNL     1      -7.330   4.169  -5.618  1.00  0.00     0.268 C 
HETATM    6  S1  UNL     1      -7.002   4.310  -7.427  1.00  0.00    -0.009 SA
HETATM    7  N2  UNL     1      -5.373   3.646  -7.401  1.00  0.00    -0.247 N 
HETATM    8  C6  UNL     1      -4.598   3.192  -8.442  1.00  0.00     0.191 C 
HETATM    9  N3  UNL     1      -3.954   2.797  -9.324  1.00  0.00    -0.171 NA
ENDROOT
BRANCH   5  10
HETATM   10  N1  UNL     1      -8.625   3.616  -5.371  1.00  0.00    -0.065 N 
ATOM     11  H13 UNL     1      -9.078   3.312  -6.232  1.00  0.00     0.275 HD
ATOM     12  H12 UNL     1      -8.568   2.712  -4.903  1.00  0.00     0.275 HD
ATOM     13  H11 UNL     1      -9.203   4.276  -4.851  1.00  0.00     0.275 HD
ENDBRANCH   5  10
TORSDOF 1
ENDMDL
