MODEL 1
REMARK VINA RESULT: -7.553819873      0.000      0.000
REMARK  2 active torsions:
REMARK  status: ('A' for Active; 'I' for Inactive)
REMARK    1  A    between atoms: C2_2  and  O1_3 
REMARK    2  A    between atoms: N1_13  and  O3_15 
ROOT
HETATM    1  C1  UNL     1      22.605  32.925  45.084  1.00  0.00     0.081 C 
HETATM    2  C2  UNL     1      23.188  33.899  46.081  1.00  0.00     0.179 C 
HETATM    3  C3  UNL     1      23.581  35.161  45.347  1.00  0.00     0.237 C 
HETATM    4  O2  UNL     1      24.645  34.895  44.500  1.00  0.00    -0.367 OA
HETATM    5  C4  UNL     1      25.784  34.539  45.249  1.00  0.00     0.122 C 
HETATM    6  C5  UNL     1      26.863  34.182  44.271  1.00  0.00     0.047 C 
HETATM    7  C6  UNL     1      27.652  35.331  43.747  1.00  0.00     0.004 C 
HETATM    8  C7  UNL     1      27.928  36.427  44.709  1.00  0.00     0.006 C 
HETATM    9  C8  UNL     1      26.760  36.839  45.555  1.00  0.00     0.058 C 
HETATM   10  C9  UNL     1      26.174  35.630  46.153  1.00  0.00     0.046 C 
HETATM   11  N1  UNL     1      26.006  35.522  47.407  1.00  0.00    -0.274 N 
ATOM     12  H1  UNL     1      25.593  34.653  47.748  1.00  0.00     0.193 HD
HETATM   13  C10 UNL     1      25.411  33.276  46.000  1.00  0.00     0.215 C 
HETATM   14  O4  UNL     1      24.274  33.411  46.758  1.00  0.00    -0.350 OA
ENDROOT
BRANCH  11  15
HETATM   15  O3  UNL     1      26.328  36.463  48.335  1.00  0.00    -0.290 OA
ATOM     16  H3  UNL     1      26.709  37.315  48.152  1.00  0.00     0.244 HD
ENDBRANCH  11  15
BRANCH   2  17
HETATM   17  O1  UNL     1      22.196  34.214  47.016  1.00  0.00    -0.364 OA
ATOM     18  H1  UNL     1      21.353  33.992  46.639  1.00  0.00     0.213 HD
ENDBRANCH   2  17
TORSDOF 2
ENDMDL
MODEL 2
REMARK VINA RESULT: -6.840339332      2.449      3.187
REMARK  2 active torsions:
REMARK  status: ('A' for Active; 'I' for Inactive)
REMARK    1  A    between atoms: C2_2  and  O1_3 
REMARK    2  A    between atoms: N1_13  and  O3_15 
ROOT
HETATM    1  C1  UNL     1      20.955  31.664  47.903  1.00  0.00     0.081 C 
HETATM    2  C2  UNL     1      21.279  33.005  47.284  1.00  0.00     0.179 C 
HETATM    3  C3  UNL     1      21.573  32.798  45.815  1.00  0.00     0.237 C 
HETATM    4  O2  UNL     1      22.754  32.086  45.672  1.00  0.00    -0.367 OA
HETATM    5  C4  UNL     1      23.838  32.842  46.159  1.00  0.00     0.122 C 
HETATM    6  C5  UNL     1      25.061  31.981  46.054  1.00  0.00     0.047 C 
HETATM    7  C6  UNL     1      25.737  31.994  44.727  1.00  0.00     0.004 C 
HETATM    8  C7  UNL     1      25.746  33.294  44.012  1.00  0.00     0.006 C 
HETATM    9  C8  UNL     1      24.443  34.037  44.029  1.00  0.00     0.058 C 
HETATM   10  C9  UNL     1      23.967  34.104  45.418  1.00  0.00     0.046 C 
HETATM   11  N1  UNL     1      23.673  35.210  45.969  1.00  0.00    -0.274 N 
ATOM     12  H1  UNL     1      23.350  35.178  46.936  1.00  0.00     0.193 HD
HETATM   13  C10 UNL     1      23.562  33.067  47.633  1.00  0.00     0.215 C 
HETATM   14  O4  UNL     1      22.338  33.641  47.874  1.00  0.00    -0.350 OA
ENDROOT
BRANCH  11  15
HETATM   15  O3  UNL     1      23.753  36.435  45.381  1.00  0.00    -0.290 OA
ATOM     16  H3  UNL     1      24.550  36.850  45.069  1.00  0.00     0.244 HD
ENDBRANCH  11  15
BRANCH   2  17
HETATM   17  O1  UNL     1      20.153  33.825  47.406  1.00  0.00    -0.364 OA
ATOM     18  H1  UNL     1      19.738  33.888  46.553  1.00  0.00     0.213 HD
ENDBRANCH   2  17
TORSDOF 2
ENDMDL
MODEL 3
REMARK VINA RESULT: -6.737583574      2.086      2.598
REMARK  2 active torsions:
REMARK  status: ('A' for Active; 'I' for Inactive)
REMARK    1  A    between atoms: C2_2  and  O1_3 
REMARK    2  A    between atoms: N1_13  and  O3_15 
ROOT
HETATM    1  C1  UNL     1      21.085  32.849  45.867  1.00  0.00     0.081 C 
HETATM    2  C2  UNL     1      22.292  32.415  46.667  1.00  0.00     0.179 C 
HETATM    3  C3  UNL     1      22.756  33.583  47.508  1.00  0.00     0.237 C 
HETATM    4  O2  UNL     1      23.260  34.578  46.685  1.00  0.00    -0.367 OA
HETATM    5  C4  UNL     1      24.416  34.121  46.024  1.00  0.00     0.122 C 
HETATM    6  C5  UNL     1      24.853  35.211  45.091  1.00  0.00     0.047 C 
HETATM    7  C6  UNL     1      25.704  36.269  45.702  1.00  0.00     0.004 C 
HETATM    8  C7  UNL     1      26.671  35.815  46.733  1.00  0.00     0.006 C 
HETATM    9  C8  UNL     1      26.124  34.835  47.728  1.00  0.00     0.058 C 
HETATM   10  C9  UNL     1      25.458  33.751  46.992  1.00  0.00     0.046 C 
HETATM   11  N1  UNL     1      25.763  32.533  47.179  1.00  0.00    -0.274 N 
ATOM     12  H1  UNL     1      25.257  31.836  46.632  1.00  0.00     0.193 HD
HETATM   13  C10 UNL     1      23.976  32.943  45.177  1.00  0.00     0.215 C 
HETATM   14  O4  UNL     1      23.332  31.968  45.898  1.00  0.00    -0.350 OA
ENDROOT
BRANCH  11  15
HETATM   15  O3  UNL     1      26.707  32.075  48.047  1.00  0.00    -0.290 OA
ATOM     16  H3  UNL     1      27.069  31.197  48.059  1.00  0.00     0.244 HD
ENDBRANCH  11  15
BRANCH   2  17
HETATM   17  O1  UNL     1      21.900  31.376  47.519  1.00  0.00    -0.364 OA
ATOM     18  H1  UNL     1      20.956  31.287  47.463  1.00  0.00     0.213 HD
ENDBRANCH   2  17
TORSDOF 2
ENDMDL
MODEL 4
REMARK VINA RESULT: -6.685726675      1.943      2.595
REMARK  2 active torsions:
REMARK  status: ('A' for Active; 'I' for Inactive)
REMARK    1  A    between atoms: C2_2  and  O1_3 
REMARK    2  A    between atoms: N1_13  and  O3_15 
ROOT
HETATM    1  C1  UNL     1      21.698  31.772  47.526  1.00  0.00     0.081 C 
HETATM    2  C2  UNL     1      22.105  33.088  46.902  1.00  0.00     0.179 C 
HETATM    3  C3  UNL     1      22.754  32.806  45.566  1.00  0.00     0.237 C 
HETATM    4  O2  UNL     1      23.964  32.159  45.764  1.00  0.00    -0.367 OA
HETATM    5  C4  UNL     1      24.864  33.008  46.436  1.00  0.00     0.122 C 
HETATM    6  C5  UNL     1      26.112  32.217  46.692  1.00  0.00     0.047 C 
HETATM    7  C6  UNL     1      27.088  32.187  45.567  1.00  0.00     0.004 C 
HETATM    8  C7  UNL     1      27.214  33.437  44.778  1.00  0.00     0.006 C 
HETATM    9  C8  UNL     1      25.915  34.099  44.426  1.00  0.00     0.058 C 
HETATM   10  C9  UNL     1      25.114  34.226  45.652  1.00  0.00     0.046 C 
HETATM   11  N1  UNL     1      24.648  35.345  46.031  1.00  0.00    -0.274 N 
ATOM     12  H1  UNL     1      24.102  35.355  46.892  1.00  0.00     0.193 HD
HETATM   13  C10 UNL     1      24.230  33.310  47.779  1.00  0.00     0.215 C 
HETATM   14  O4  UNL     1      22.960  33.823  47.677  1.00  0.00    -0.350 OA
ENDROOT
BRANCH  11  15
HETATM   15  O3  UNL     1      24.815  36.533  45.387  1.00  0.00    -0.290 OA
ATOM     16  H3  UNL     1      24.534  37.382  45.708  1.00  0.00     0.244 HD
ENDBRANCH  11  15
BRANCH   2  17
HETATM   17  O1  UNL     1      20.948  33.845  46.688  1.00  0.00    -0.364 OA
ATOM     18  H1  UNL     1      21.122  34.737  46.963  1.00  0.00     0.213 HD
ENDBRANCH   2  17
TORSDOF 2
ENDMDL
MODEL 5
REMARK VINA RESULT: -6.679537839      2.088      3.239
REMARK  2 active torsions:
REMARK  status: ('A' for Active; 'I' for Inactive)
REMARK    1  A    between atoms: C2_2  and  O1_3 
REMARK    2  A    between atoms: N1_13  and  O3_15 
ROOT
HETATM    1  C1  UNL     1      20.798  33.482  47.283  1.00  0.00     0.081 C 
HETATM    2  C2  UNL     1      21.948  32.530  47.048  1.00  0.00     0.179 C 
HETATM    3  C3  UNL     1      23.152  33.032  47.813  1.00  0.00     0.237 C 
HETATM    4  O2  UNL     1      23.599  34.218  47.252  1.00  0.00    -0.367 OA
HETATM    5  C4  UNL     1      24.067  33.988  45.943  1.00  0.00     0.122 C 
HETATM    6  C5  UNL     1      24.450  35.320  45.371  1.00  0.00     0.047 C 
HETATM    7  C6  UNL     1      25.824  35.786  45.706  1.00  0.00     0.004 C 
HETATM    8  C7  UNL     1      26.871  34.737  45.772  1.00  0.00     0.006 C 
HETATM    9  C8  UNL     1      26.471  33.484  46.493  1.00  0.00     0.058 C 
HETATM   10  C9  UNL     1      25.182  33.031  45.950  1.00  0.00     0.046 C 
HETATM   11  N1  UNL     1      25.026  31.854  45.499  1.00  0.00    -0.274 N 
ATOM     12  H1  UNL     1      24.102  31.612  45.139  1.00  0.00     0.193 HD
HETATM   13  C10 UNL     1      22.876  33.478  45.157  1.00  0.00     0.215 C 
HETATM   14  O4  UNL     1      22.279  32.381  45.729  1.00  0.00    -0.350 OA
ENDROOT
BRANCH  11  15
HETATM   15  O3  UNL     1      25.983  30.887  45.456  1.00  0.00    -0.290 OA
ATOM     16  H3  UNL     1      26.582  30.732  44.734  1.00  0.00     0.244 HD
ENDBRANCH  11  15
BRANCH   2  17
HETATM   17  O1  UNL     1      21.586  31.276  47.553  1.00  0.00    -0.364 OA
ATOM     18  H1  UNL     1      21.245  31.397  48.431  1.00  0.00     0.213 HD
ENDBRANCH   2  17
TORSDOF 2
ENDMDL
