MODEL 1
REMARK VINA RESULT: -6.974259471      0.000      0.000
REMARK  6 active torsions:
REMARK  status: ('A' for Active; 'I' for Inactive)
REMARK    1  A    between atoms: C2_2  and  C4_4 
REMARK    2  A    between atoms: C5_9  and  S1_10 
REMARK    3  A    between atoms: S1_10  and  C6_11 
REMARK    4  A    between atoms: C6_11  and  C7_12 
REMARK       I    between atoms: C7_12  and  N3_14 
REMARK    5  A    between atoms: N3_14  and  C8_16 
REMARK    6  A    between atoms: N4_21  and  C13_22 
ROOT
HETATM    1  C4  UNL     1      -3.846  34.352  79.340  1.00  0.00     0.104 A 
HETATM    2  N1  UNL     1      -4.129  33.925  78.081  1.00  0.00    -0.286 N 
ATOM      3  H1  UNL     1      -3.532  33.364  77.475  1.00  0.00     0.188 HD
HETATM    4  N2  UNL     1      -5.326  34.381  77.804  1.00  0.00    -0.278 N 
ATOM      5  H2  UNL     1      -5.820  34.227  76.925  1.00  0.00     0.189 HD
HETATM    6  C5  UNL     1      -5.806  35.075  78.836  1.00  0.00     0.163 A 
HETATM    7  N4  UNL     1      -4.876  35.062  79.814  1.00  0.00    -0.310 N 
ENDROOT
BRANCH   6   8
HETATM    8  S1  UNL     1      -7.392  35.872  78.917  1.00  0.00    -0.083 SA
BRANCH   8   9
HETATM    9  C6  UNL     1      -8.787  34.776  78.999  1.00  0.00     0.185 C 
BRANCH   9  10
HETATM   10  C7  UNL     1      -8.910  33.798  77.902  1.00  0.00     0.227 C 
HETATM   11  O1  UNL     1      -7.970  33.712  77.021  1.00  0.00    -0.273 OA
HETATM   12  N3  UNL     1     -10.000  32.915  77.724  1.00  0.00    -0.356 N 
ATOM     13  H3  UNL     1     -10.779  32.919  78.383  1.00  0.00     0.162 HD
BRANCH  12  14
HETATM   14  C8  UNL     1     -10.002  32.001  76.592  1.00  0.00     0.084 C 
HETATM   15  C9  UNL     1      -9.661  30.588  76.995  1.00  0.00     0.025 C 
HETATM   16  C10 UNL     1     -10.119  29.805  75.765  1.00  0.00     0.002 C 
HETATM   17  C11 UNL     1     -11.406  30.493  75.358  1.00  0.00     0.002 C 
HETATM   18  C12 UNL     1     -11.441  31.809  76.084  1.00  0.00     0.025 C 
ENDBRANCH  12  14
ENDBRANCH   9  10
ENDBRANCH   8   9
ENDBRANCH   6   8
BRANCH   7  19
HETATM   19  C13 UNL     1      -5.014  35.689  81.080  1.00  0.00     0.093 A 
HETATM   20  C14 UNL     1      -6.297  35.905  81.775  1.00  0.00     0.028 A 
HETATM   21  C15 UNL     1      -5.434  34.734  82.228  1.00  0.00     0.028 A 
ENDBRANCH   7  19
BRANCH   1  22
HETATM   22  C2  UNL     1      -2.566  34.054  80.048  1.00  0.00     0.047 C 
HETATM   23  C1  UNL     1      -2.634  32.690  80.697  1.00  0.00     0.017 C 
HETATM   24  C3  UNL     1      -1.480  33.989  78.966  1.00  0.00     0.017 C 
ENDBRANCH   1  22
TORSDOF 6
ENDMDL
MODEL 2
REMARK VINA RESULT: -6.847753422      1.550      2.199
REMARK  6 active torsions:
REMARK  status: ('A' for Active; 'I' for Inactive)
REMARK    1  A    between atoms: C2_2  and  C4_4 
REMARK    2  A    between atoms: C5_9  and  S1_10 
REMARK    3  A    between atoms: S1_10  and  C6_11 
REMARK    4  A    between atoms: C6_11  and  C7_12 
REMARK       I    between atoms: C7_12  and  N3_14 
REMARK    5  A    between atoms: N3_14  and  C8_16 
REMARK    6  A    between atoms: N4_21  and  C13_22 
ROOT
HETATM    1  C4  UNL     1      -3.023  34.345  78.471  1.00  0.00     0.104 A 
HETATM    2  N1  UNL     1      -3.358  35.344  77.613  1.00  0.00    -0.286 N 
ATOM      3  H1  UNL     1      -2.910  35.565  76.724  1.00  0.00     0.188 HD
HETATM    4  N2  UNL     1      -4.373  35.966  78.158  1.00  0.00    -0.278 N 
ATOM      5  H2  UNL     1      -4.853  36.769  77.751  1.00  0.00     0.189 HD
HETATM    6  C5  UNL     1      -4.691  35.400  79.322  1.00  0.00     0.163 A 
HETATM    7  N4  UNL     1      -3.841  34.372  79.529  1.00  0.00    -0.310 N 
ENDROOT
BRANCH   6   8
HETATM    8  S1  UNL     1      -6.004  35.901  80.409  1.00  0.00    -0.083 SA
BRANCH   8   9
HETATM    9  C6  UNL     1      -7.641  35.756  79.736  1.00  0.00     0.185 C 
BRANCH   9  10
HETATM   10  C7  UNL     1      -7.812  34.779  78.646  1.00  0.00     0.227 C 
HETATM   11  O1  UNL     1      -6.805  34.492  77.889  1.00  0.00    -0.273 OA
HETATM   12  N3  UNL     1      -9.017  34.104  78.345  1.00  0.00    -0.356 N 
ATOM     13  H3  UNL     1      -9.855  34.274  78.902  1.00  0.00     0.162 HD
BRANCH  12  14
HETATM   14  C8  UNL     1      -9.054  33.167  77.234  1.00  0.00     0.084 C 
HETATM   15  C9  UNL     1     -10.033  32.042  77.463  1.00  0.00     0.025 C 
HETATM   16  C10 UNL     1     -10.173  31.471  76.052  1.00  0.00     0.002 C 
HETATM   17  C11 UNL     1     -10.181  32.699  75.164  1.00  0.00     0.002 C 
HETATM   18  C12 UNL     1      -9.685  33.843  76.005  1.00  0.00     0.025 C 
ENDBRANCH  12  14
ENDBRANCH   9  10
ENDBRANCH   8   9
ENDBRANCH   6   8
BRANCH   7  19
HETATM   19  C13 UNL     1      -3.857  33.514  80.661  1.00  0.00     0.093 A 
HETATM   20  C14 UNL     1      -2.660  32.904  81.269  1.00  0.00     0.028 A 
HETATM   21  C15 UNL     1      -3.249  34.136  81.946  1.00  0.00     0.028 A 
ENDBRANCH   7  19
BRANCH   1  22
HETATM   22  C2  UNL     1      -1.903  33.388  78.233  1.00  0.00     0.047 C 
HETATM   23  C1  UNL     1      -2.192  32.538  77.016  1.00  0.00     0.017 C 
HETATM   24  C3  UNL     1      -0.669  34.241  77.908  1.00  0.00     0.017 C 
ENDBRANCH   1  22
TORSDOF 6
ENDMDL
MODEL 3
REMARK VINA RESULT: -6.668652267      1.067      1.289
REMARK  6 active torsions:
REMARK  status: ('A' for Active; 'I' for Inactive)
REMARK    1  A    between atoms: C2_2  and  C4_4 
REMARK    2  A    between atoms: C5_9  and  S1_10 
REMARK    3  A    between atoms: S1_10  and  C6_11 
REMARK    4  A    between atoms: C6_11  and  C7_12 
REMARK       I    between atoms: C7_12  and  N3_14 
REMARK    5  A    between atoms: N3_14  and  C8_16 
REMARK    6  A    between atoms: N4_21  and  C13_22 
ROOT
HETATM    1  C4  UNL     1      -4.134  34.548  80.102  1.00  0.00     0.104 A 
HETATM    2  N1  UNL     1      -4.110  34.142  78.805  1.00  0.00    -0.286 N 
ATOM      3  H1  UNL     1      -3.365  33.626  78.338  1.00  0.00     0.188 HD
HETATM    4  N2  UNL     1      -5.237  34.549  78.278  1.00  0.00    -0.278 N 
ATOM      5  H2  UNL     1      -5.516  34.396  77.308  1.00  0.00     0.189 HD
HETATM    6  C5  UNL     1      -5.969  35.192  79.188  1.00  0.00     0.163 A 
HETATM    7  N4  UNL     1      -5.278  35.196  80.347  1.00  0.00    -0.310 N 
ENDROOT
BRANCH   6   8
HETATM    8  S1  UNL     1      -7.572  35.912  78.928  1.00  0.00    -0.083 SA
BRANCH   8   9
HETATM    9  C6  UNL     1      -8.915  34.754  78.836  1.00  0.00     0.185 C 
BRANCH   9  10
HETATM   10  C7  UNL     1      -8.891  33.818  77.698  1.00  0.00     0.227 C 
HETATM   11  O1  UNL     1      -7.765  33.540  77.130  1.00  0.00    -0.273 OA
HETATM   12  N3  UNL     1     -10.027  33.175  77.154  1.00  0.00    -0.356 N 
ATOM     13  H3  UNL     1     -10.951  33.339  77.553  1.00  0.00     0.162 HD
BRANCH  12  14
HETATM   14  C8  UNL     1      -9.866  32.277  76.021  1.00  0.00     0.084 C 
HETATM   15  C9  UNL     1     -11.165  31.623  75.619  1.00  0.00     0.025 C 
HETATM   16  C10 UNL     1     -10.816  31.090  74.229  1.00  0.00     0.002 C 
HETATM   17  C11 UNL     1      -9.968  32.190  73.623  1.00  0.00     0.002 C 
HETATM   18  C12 UNL     1      -9.557  33.091  74.754  1.00  0.00     0.025 C 
ENDBRANCH  12  14
ENDBRANCH   9  10
ENDBRANCH   8   9
ENDBRANCH   6   8
BRANCH   7  19
HETATM   19  C13 UNL     1      -5.724  35.782  81.561  1.00  0.00     0.093 A 
HETATM   20  C14 UNL     1      -7.131  35.830  82.003  1.00  0.00     0.028 A 
HETATM   21  C15 UNL     1      -6.231  34.765  82.617  1.00  0.00     0.028 A 
ENDBRANCH   7  19
BRANCH   1  22
HETATM   22  C2  UNL     1      -3.028  34.291  81.072  1.00  0.00     0.047 C 
HETATM   23  C1  UNL     1      -3.280  33.003  81.823  1.00  0.00     0.017 C 
HETATM   24  C3  UNL     1      -1.759  34.088  80.234  1.00  0.00     0.017 C 
ENDBRANCH   1  22
TORSDOF 6
ENDMDL
MODEL 4
REMARK VINA RESULT: -6.469650574      1.934      2.631
REMARK  6 active torsions:
REMARK  status: ('A' for Active; 'I' for Inactive)
REMARK    1  A    between atoms: C2_2  and  C4_4 
REMARK    2  A    between atoms: C5_9  and  S1_10 
REMARK    3  A    between atoms: S1_10  and  C6_11 
REMARK    4  A    between atoms: C6_11  and  C7_12 
REMARK       I    between atoms: C7_12  and  N3_14 
REMARK    5  A    between atoms: N3_14  and  C8_16 
REMARK    6  A    between atoms: N4_21  and  C13_22 
ROOT
HETATM    1  C4  UNL     1      -5.919  35.382  79.908  1.00  0.00     0.104 A 
HETATM    2  N1  UNL     1      -5.395  34.959  78.728  1.00  0.00    -0.286 N 
ATOM      3  H1  UNL     1      -4.407  34.904  78.480  1.00  0.00     0.188 HD
HETATM    4  N2  UNL     1      -6.415  34.635  77.973  1.00  0.00    -0.278 N 
ATOM      5  H2  UNL     1      -6.345  34.280  77.019  1.00  0.00     0.189 HD
HETATM    6  C5  UNL     1      -7.558  34.836  78.629  1.00  0.00     0.163 A 
HETATM    7  N4  UNL     1      -7.254  35.309  79.856  1.00  0.00    -0.310 N 
ENDROOT
BRANCH   6   8
HETATM    8  S1  UNL     1      -9.193  34.531  78.006  1.00  0.00    -0.083 SA
BRANCH   8   9
HETATM    9  C6  UNL     1      -9.262  33.785  76.395  1.00  0.00     0.185 C 
BRANCH   9  10
HETATM   10  C7  UNL     1      -9.853  32.436  76.329  1.00  0.00     0.227 C 
HETATM   11  O1  UNL     1      -9.239  31.507  75.674  1.00  0.00    -0.273 OA
HETATM   12  N3  UNL     1     -11.071  32.054  76.937  1.00  0.00    -0.356 N 
ATOM     13  H3  UNL     1     -11.610  32.731  77.477  1.00  0.00     0.162 HD
BRANCH  12  14
HETATM   14  C8  UNL     1     -11.548  30.688  76.788  1.00  0.00     0.084 C 
HETATM   15  C9  UNL     1     -11.330  29.865  78.034  1.00  0.00     0.025 C 
HETATM   16  C10 UNL     1     -12.246  28.670  77.769  1.00  0.00     0.002 C 
HETATM   17  C11 UNL     1     -13.470  29.288  77.126  1.00  0.00     0.002 C 
HETATM   18  C12 UNL     1     -13.083  30.681  76.711  1.00  0.00     0.025 C 
ENDBRANCH  12  14
ENDBRANCH   9  10
ENDBRANCH   8   9
ENDBRANCH   6   8
BRANCH   7  19
HETATM   19  C13 UNL     1      -8.201  35.643  80.859  1.00  0.00     0.093 A 
HETATM   20  C14 UNL     1      -9.254  34.737  81.356  1.00  0.00     0.028 A 
HETATM   21  C15 UNL     1      -8.000  34.899  82.206  1.00  0.00     0.028 A 
ENDBRANCH   7  19
BRANCH   1  22
HETATM   22  C2  UNL     1      -5.096  35.852  81.060  1.00  0.00     0.047 C 
HETATM   23  C1  UNL     1      -4.076  34.800  81.438  1.00  0.00     0.017 C 
HETATM   24  C3  UNL     1      -4.319  37.079  80.563  1.00  0.00     0.017 C 
ENDBRANCH   1  22
TORSDOF 6
ENDMDL
MODEL 5
REMARK VINA RESULT: -6.343043709      3.264      7.956
REMARK  6 active torsions:
REMARK  status: ('A' for Active; 'I' for Inactive)
REMARK    1  A    between atoms: C2_2  and  C4_4 
REMARK    2  A    between atoms: C5_9  and  S1_10 
REMARK    3  A    between atoms: S1_10  and  C6_11 
REMARK    4  A    between atoms: C6_11  and  C7_12 
REMARK       I    between atoms: C7_12  and  N3_14 
REMARK    5  A    between atoms: N3_14  and  C8_16 
REMARK    6  A    between atoms: N4_21  and  C13_22 
ROOT
HETATM    1  C4  UNL     1     -10.297  31.720  73.917  1.00  0.00     0.104 A 
HETATM    2  N1  UNL     1      -9.592  32.818  73.536  1.00  0.00    -0.286 N 
ATOM      3  H1  UNL     1      -9.387  33.114  72.582  1.00  0.00     0.188 HD
HETATM    4  N2  UNL     1      -9.230  33.418  74.642  1.00  0.00    -0.278 N 
ATOM      5  H2  UNL     1      -8.683  34.278  74.687  1.00  0.00     0.189 HD
HETATM    6  C5  UNL     1      -9.677  32.745  75.702  1.00  0.00     0.163 A 
HETATM    7  N4  UNL     1     -10.355  31.667  75.253  1.00  0.00    -0.310 N 
ENDROOT
BRANCH   6   8
HETATM    8  S1  UNL     1      -9.434  33.186  77.405  1.00  0.00    -0.083 SA
BRANCH   8   9
HETATM    9  C6  UNL     1      -8.668  34.766  77.676  1.00  0.00     0.185 C 
BRANCH   9  10
HETATM   10  C7  UNL     1      -8.707  35.279  79.057  1.00  0.00     0.227 C 
HETATM   11  O1  UNL     1      -9.178  36.461  79.280  1.00  0.00    -0.273 OA
HETATM   12  N3  UNL     1      -8.262  34.571  80.197  1.00  0.00    -0.356 N 
ATOM     13  H3  UNL     1      -7.884  33.629  80.102  1.00  0.00     0.162 HD
BRANCH  12  14
HETATM   14  C8  UNL     1      -8.350  35.197  81.507  1.00  0.00     0.084 C 
HETATM   15  C9  UNL     1      -9.296  34.469  82.429  1.00  0.00     0.025 C 
HETATM   16  C10 UNL     1      -8.903  35.053  83.786  1.00  0.00     0.002 C 
HETATM   17  C11 UNL     1      -7.393  35.159  83.710  1.00  0.00     0.002 C 
HETATM   18  C12 UNL     1      -7.023  35.010  82.260  1.00  0.00     0.025 C 
ENDBRANCH  12  14
ENDBRANCH   9  10
ENDBRANCH   8   9
ENDBRANCH   6   8
BRANCH   7  19
HETATM   19  C13 UNL     1     -10.991  30.701  76.076  1.00  0.00     0.093 A 
HETATM   20  C14 UNL     1     -11.144  29.274  75.733  1.00  0.00     0.028 A 
HETATM   21  C15 UNL     1     -10.028  29.655  76.698  1.00  0.00     0.028 A 
ENDBRANCH   7  19
BRANCH   1  22
HETATM   22  C2  UNL     1     -10.895  30.745  72.959  1.00  0.00     0.047 C 
HETATM   23  C1  UNL     1     -11.514  31.476  71.788  1.00  0.00     0.017 C 
HETATM   24  C3  UNL     1      -9.731  29.910  72.409  1.00  0.00     0.017 C 
ENDBRANCH   1  22
TORSDOF 6
ENDMDL
