MODEL 1
REMARK VINA RESULT: -6.431137369      0.000      0.000
REMARK  10 active torsions:
REMARK  status: ('A' for Active; 'I' for Inactive)
REMARK    1  A    between atoms: C2_2  and  C3_3 
REMARK    2  A    between atoms: C3_3  and  N2_10 
REMARK    3  A    between atoms: N1_4  and  C4_6 
REMARK    4  A    between atoms: C4_6  and  C6_8 
REMARK    5  A    between atoms: N2_10  and  C8_12 
REMARK    6  A    between atoms: C13_19  and  O3_20 
REMARK    7  A    between atoms: C20_29  and  C21_30 
REMARK    8  A    between atoms: C21_30  and  C23_32 
REMARK    9  A    between atoms: C23_32  and  C24_33 
REMARK       I    between atoms: C24_33  and  N3_35 
REMARK   10  A    between atoms: C30_41  and  O6_42 
ROOT
HETATM    1  C8  UNL     1      29.610  35.457  11.519  1.00  0.00     0.127 C 
HETATM    2  C9  UNL     1      30.765  35.009  12.373  1.00  0.00     0.032 C 
HETATM    3  C10 UNL     1      30.956  33.526  12.450  1.00  0.00     0.044 C 
HETATM    4  C11 UNL     1      30.014  32.807  13.389  1.00  0.00     0.100 C 
HETATM    5  O1  UNL     1      29.450  33.903  14.157  1.00  0.00    -0.305 OA
HETATM    6  C12 UNL     1      28.588  34.833  13.594  1.00  0.00     0.296 C 
HETATM    7  O2  UNL     1      27.987  35.555  14.451  1.00  0.00    -0.262 OA
HETATM    8  C13 UNL     1      28.278  35.095  12.141  1.00  0.00     0.165 C 
HETATM    9  C14 UNL     1      27.629  33.921  11.527  1.00  0.00     0.051 C 
HETATM   10  C15 UNL     1      28.450  32.667  11.399  1.00  0.00     0.011 C 
HETATM   11  C16 UNL     1      28.877  32.103  12.741  1.00  0.00     0.029 C 
HETATM   12  C17 UNL     1      28.911  30.629  12.692  1.00  0.00     0.008 C 
HETATM   13  C18 UNL     1      28.684  29.947  11.401  1.00  0.00     0.084 C 
HETATM   14  C19 UNL     1      29.419  28.637  11.595  1.00  0.00     0.132 C 
HETATM   15  O4  UNL     1      29.611  27.868  10.688  1.00  0.00    -0.298 OA
HETATM   16  C20 UNL     1      29.809  28.545  13.036  1.00  0.00     0.068 C 
HETATM   17  C27 UNL     1      30.190  29.972  13.195  1.00  0.00    -0.026 C 
HETATM   18  C28 UNL     1      31.352  30.160  12.208  1.00  0.00     0.016 C 
HETATM   19  C29 UNL     1      30.480  30.552  14.490  1.00  0.00     0.045 C 
HETATM   20  C30 UNL     1      30.809  32.015  14.354  1.00  0.00     0.154 C 
ENDROOT
BRANCH   1  21
HETATM   21  N2  UNL     1      29.704  36.908  11.422  1.00  0.00    -0.372 N 
ATOM     22  H2  UNL     1      29.862  37.445  12.274  1.00  0.00     0.161 HD
BRANCH  21  23
HETATM   23  C3  UNL     1      29.585  37.606  10.187  1.00  0.00     0.073 C 
HETATM   24  N1  UNL     1      28.492  37.437   9.533  1.00  0.00    -0.376 N 
ATOM     25  H1  UNL     1      27.803  36.815   9.955  1.00  0.00     0.161 HD
BRANCH  23  26
HETATM   26  C2  UNL     1      30.666  38.486   9.681  1.00  0.00     0.071 C 
HETATM   27  C1  UNL     1      31.800  37.577   9.251  1.00  0.00     0.013 C 
ENDBRANCH  23  26
BRANCH  24  28
HETATM   28  C4  UNL     1      28.136  38.022   8.282  1.00  0.00     0.078 C 
HETATM   29  C5  UNL     1      28.567  37.178   7.100  1.00  0.00     0.032 C 
BRANCH  28  30
HETATM   30  C6  UNL     1      26.615  38.232   8.243  1.00  0.00     0.020 C 
HETATM   31  C7  UNL     1      25.962  37.130   9.045  1.00  0.00     0.007 C 
ENDBRANCH  28  30
ENDBRANCH  24  28
ENDBRANCH  21  23
ENDBRANCH   1  21
BRANCH   8  32
HETATM   32  O3  UNL     1      27.428  36.170  12.090  1.00  0.00    -0.377 OA
ATOM     33  H3  UNL     1      27.031  36.312  12.941  1.00  0.00     0.211 HD
ENDBRANCH   8  32
BRANCH  20  34
HETATM   34  O6  UNL     1      30.748  32.519  15.682  1.00  0.00    -0.392 OA
ATOM     35  H6  UNL     1      31.340  32.077  16.279  1.00  0.00     0.210 HD
ENDBRANCH  20  34
BRANCH  16  36
HETATM   36  C21 UNL     1      28.764  27.913  13.801  1.00  0.00     0.002 C 
HETATM   37  C22 UNL     1      28.823  28.096  15.303  1.00  0.00     0.011 C 
BRANCH  36  38
HETATM   38  C23 UNL     1      28.955  26.391  13.625  1.00  0.00     0.108 C 
BRANCH  38  39
HETATM   39  C24 UNL     1      27.709  25.752  13.198  1.00  0.00     0.219 C 
HETATM   40  O5  UNL     1      27.282  25.908  12.037  1.00  0.00    -0.273 OA
HETATM   41  N3  UNL     1      26.960  24.942  14.091  1.00  0.00    -0.361 N 
HETATM   42  C25 UNL     1      25.719  24.310  13.650  1.00  0.00     0.152 C 
HETATM   43  C26 UNL     1      27.420  24.729  15.468  1.00  0.00     0.152 C 
ENDBRANCH  38  39
ENDBRANCH  36  38
ENDBRANCH  16  36
TORSDOF 10
ENDMDL
MODEL 2
REMARK VINA RESULT: -6.347943509      2.289      9.572
REMARK  10 active torsions:
REMARK  status: ('A' for Active; 'I' for Inactive)
REMARK    1  A    between atoms: C2_2  and  C3_3 
REMARK    2  A    between atoms: C3_3  and  N2_10 
REMARK    3  A    between atoms: N1_4  and  C4_6 
REMARK    4  A    between atoms: C4_6  and  C6_8 
REMARK    5  A    between atoms: N2_10  and  C8_12 
REMARK    6  A    between atoms: C13_19  and  O3_20 
REMARK    7  A    between atoms: C20_29  and  C21_30 
REMARK    8  A    between atoms: C21_30  and  C23_32 
REMARK    9  A    between atoms: C23_32  and  C24_33 
REMARK       I    between atoms: C24_33  and  N3_35 
REMARK   10  A    between atoms: C30_41  and  O6_42 
ROOT
HETATM    1  C8  UNL     1      28.685  30.239  14.965  1.00  0.00     0.127 C 
HETATM    2  C9  UNL     1      29.336  31.392  15.681  1.00  0.00     0.032 C 
HETATM    3  C10 UNL     1      29.132  32.730  15.041  1.00  0.00     0.044 C 
HETATM    4  C11 UNL     1      30.012  33.008  13.843  1.00  0.00     0.100 C 
HETATM    5  O1  UNL     1      31.010  31.959  13.945  1.00  0.00    -0.305 OA
HETATM    6  C12 UNL     1      30.703  30.623  13.732  1.00  0.00     0.296 C 
HETATM    7  O2  UNL     1      31.726  29.879  13.600  1.00  0.00    -0.262 OA
HETATM    8  C13 UNL     1      29.354  29.954  13.637  1.00  0.00     0.165 C 
HETATM    9  C14 UNL     1      28.605  30.454  12.469  1.00  0.00     0.051 C 
HETATM   10  C15 UNL     1      28.182  31.897  12.486  1.00  0.00     0.011 C 
HETATM   11  C16 UNL     1      29.358  32.855  12.518  1.00  0.00     0.029 C 
HETATM   12  C17 UNL     1      29.046  34.078  11.753  1.00  0.00     0.008 C 
HETATM   13  C18 UNL     1      27.682  34.262  11.217  1.00  0.00     0.084 C 
HETATM   14  C19 UNL     1      27.572  35.770  11.126  1.00  0.00     0.132 C 
HETATM   15  O4  UNL     1      26.530  36.325  10.890  1.00  0.00    -0.298 OA
HETATM   16  C20 UNL     1      28.932  36.339  11.380  1.00  0.00     0.068 C 
HETATM   17  C27 UNL     1      29.304  35.398  12.467  1.00  0.00    -0.026 C 
HETATM   18  C28 UNL     1      28.263  35.665  13.565  1.00  0.00     0.016 C 
HETATM   19  C29 UNL     1      30.649  35.332  13.001  1.00  0.00     0.045 C 
HETATM   20  C30 UNL     1      30.744  34.275  14.069  1.00  0.00     0.154 C 
ENDROOT
BRANCH   1  21
HETATM   21  N2  UNL     1      28.837  29.076  15.828  1.00  0.00    -0.372 N 
ATOM     22  H2  UNL     1      29.728  28.578  15.824  1.00  0.00     0.161 HD
BRANCH  21  23
HETATM   23  C3  UNL     1      27.796  28.604  16.676  1.00  0.00     0.073 C 
HETATM   24  N1  UNL     1      27.281  27.465  16.377  1.00  0.00    -0.376 N 
ATOM     25  H1  UNL     1      27.663  26.997  15.555  1.00  0.00     0.161 HD
BRANCH  23  26
HETATM   26  C2  UNL     1      27.329  29.385  17.846  1.00  0.00     0.071 C 
HETATM   27  C1  UNL     1      28.485  29.432  18.826  1.00  0.00     0.013 C 
ENDBRANCH  23  26
BRANCH  24  28
HETATM   28  C4  UNL     1      26.234  26.785  17.066  1.00  0.00     0.078 C 
HETATM   29  C5  UNL     1      25.295  26.057  16.126  1.00  0.00     0.032 C 
BRANCH  28  30
HETATM   30  C6  UNL     1      26.854  25.787  18.055  1.00  0.00     0.020 C 
HETATM   31  C7  UNL     1      26.304  26.081  19.433  1.00  0.00     0.007 C 
ENDBRANCH  28  30
ENDBRANCH  24  28
ENDBRANCH  21  23
ENDBRANCH   1  21
BRANCH   8  32
HETATM   32  O3  UNL     1      29.572  28.607  13.502  1.00  0.00    -0.377 OA
ATOM     33  H3  UNL     1      30.502  28.421  13.552  1.00  0.00     0.211 HD
ENDBRANCH   8  32
BRANCH  20  34
HETATM   34  O6  UNL     1      32.140  34.091  14.266  1.00  0.00    -0.392 OA
ATOM     35  H6  UNL     1      32.664  34.808  13.929  1.00  0.00     0.210 HD
ENDBRANCH  20  34
BRANCH  16  36
HETATM   36  C21 UNL     1      29.666  36.457  10.146  1.00  0.00     0.002 C 
HETATM   37  C22 UNL     1      31.105  36.916  10.258  1.00  0.00     0.011 C 
BRANCH  36  38
HETATM   38  C23 UNL     1      28.996  37.595   9.346  1.00  0.00     0.108 C 
BRANCH  38  39
HETATM   39  C24 UNL     1      28.757  37.192   7.960  1.00  0.00     0.219 C 
HETATM   40  O5  UNL     1      27.962  36.268   7.696  1.00  0.00    -0.273 OA
HETATM   41  N3  UNL     1      29.421  37.840   6.885  1.00  0.00    -0.361 N 
HETATM   42  C25 UNL     1      29.171  37.427   5.506  1.00  0.00     0.152 C 
HETATM   43  C26 UNL     1      30.367  38.932   7.145  1.00  0.00     0.152 C 
ENDBRANCH  38  39
ENDBRANCH  36  38
ENDBRANCH  16  36
TORSDOF 10
ENDMDL
MODEL 3
REMARK VINA RESULT: -6.172842438      4.138      6.165
REMARK  10 active torsions:
REMARK  status: ('A' for Active; 'I' for Inactive)
REMARK    1  A    between atoms: C2_2  and  C3_3 
REMARK    2  A    between atoms: C3_3  and  N2_10 
REMARK    3  A    between atoms: N1_4  and  C4_6 
REMARK    4  A    between atoms: C4_6  and  C6_8 
REMARK    5  A    between atoms: N2_10  and  C8_12 
REMARK    6  A    between atoms: C13_19  and  O3_20 
REMARK    7  A    between atoms: C20_29  and  C21_30 
REMARK    8  A    between atoms: C21_30  and  C23_32 
REMARK    9  A    between atoms: C23_32  and  C24_33 
REMARK       I    between atoms: C24_33  and  N3_35 
REMARK   10  A    between atoms: C30_41  and  O6_42 
ROOT
HETATM    1  C8  UNL     1      28.957  35.372  11.222  1.00  0.00     0.127 C 
HETATM    2  C9  UNL     1      27.983  34.972  12.297  1.00  0.00     0.032 C 
HETATM    3  C10 UNL     1      28.566  34.874  13.673  1.00  0.00     0.044 C 
HETATM    4  C11 UNL     1      29.353  33.612  13.947  1.00  0.00     0.100 C 
HETATM    5  O1  UNL     1      28.971  32.764  12.832  1.00  0.00    -0.305 OA
HETATM    6  C12 UNL     1      29.365  33.032  11.530  1.00  0.00     0.296 C 
HETATM    7  O2  UNL     1      29.173  32.063  10.729  1.00  0.00    -0.262 OA
HETATM    8  C13 UNL     1      29.976  34.286  10.953  1.00  0.00     0.165 C 
HETATM    9  C14 UNL     1      31.299  34.544  11.552  1.00  0.00     0.051 C 
HETATM   10  C15 UNL     1      31.340  34.881  13.017  1.00  0.00     0.011 C 
HETATM   11  C16 UNL     1      30.831  33.754  13.895  1.00  0.00     0.029 C 
HETATM   12  C17 UNL     1      31.577  33.716  15.168  1.00  0.00     0.008 C 
HETATM   13  C18 UNL     1      32.549  34.789  15.463  1.00  0.00     0.084 C 
HETATM   14  C19 UNL     1      32.575  34.793  16.977  1.00  0.00     0.132 C 
HETATM   15  O4  UNL     1      33.131  35.656  17.608  1.00  0.00    -0.298 OA
HETATM   16  C20 UNL     1      31.819  33.590  17.447  1.00  0.00     0.068 C 
HETATM   17  C27 UNL     1      30.734  33.674  16.436  1.00  0.00    -0.026 C 
HETATM   18  C28 UNL     1      30.063  35.027  16.720  1.00  0.00     0.016 C 
HETATM   19  C29 UNL     1      29.762  32.614  16.260  1.00  0.00     0.045 C 
HETATM   20  C30 UNL     1      28.800  32.955  15.153  1.00  0.00     0.154 C 
ENDROOT
BRANCH   1  21
HETATM   21  N2  UNL     1      28.172  35.591  10.013  1.00  0.00    -0.372 N 
ATOM     22  H2  UNL     1      27.812  34.779   9.512  1.00  0.00     0.161 HD
BRANCH  21  23
HETATM   23  C3  UNL     1      27.889  36.889   9.503  1.00  0.00     0.073 C 
HETATM   24  N1  UNL     1      26.665  37.132   9.194  1.00  0.00    -0.376 N 
ATOM     25  H1  UNL     1      26.002  36.372   9.341  1.00  0.00     0.161 HD
BRANCH  23  26
HETATM   26  C2  UNL     1      28.950  37.911   9.338  1.00  0.00     0.071 C 
HETATM   27  C1  UNL     1      29.868  37.411   8.241  1.00  0.00     0.013 C 
ENDBRANCH  23  26
BRANCH  24  28
HETATM   28  C4  UNL     1      26.133  38.346   8.670  1.00  0.00     0.078 C 
HETATM   29  C5  UNL     1      26.228  38.420   7.160  1.00  0.00     0.032 C 
BRANCH  28  30
HETATM   30  C6  UNL     1      24.666  38.479   9.105  1.00  0.00     0.020 C 
HETATM   31  C7  UNL     1      24.366  37.386  10.105  1.00  0.00     0.007 C 
ENDBRANCH  28  30
ENDBRANCH  24  28
ENDBRANCH  21  23
ENDBRANCH   1  21
BRANCH   8  32
HETATM   32  O3  UNL     1      30.111  34.093   9.602  1.00  0.00    -0.377 OA
ATOM     33  H3  UNL     1      29.277  34.229   9.169  1.00  0.00     0.211 HD
ENDBRANCH   8  32
BRANCH  20  34
HETATM   34  O6  UNL     1      28.133  31.731  14.871  1.00  0.00    -0.392 OA
ATOM     35  H6  UNL     1      27.795  31.301  15.648  1.00  0.00     0.210 HD
ENDBRANCH  20  34
BRANCH  16  36
HETATM   36  C21 UNL     1      32.701  32.458  17.572  1.00  0.00     0.002 C 
HETATM   37  C22 UNL     1      32.053  31.131  17.904  1.00  0.00     0.011 C 
BRANCH  36  38
HETATM   38  C23 UNL     1      33.591  32.732  18.804  1.00  0.00     0.108 C 
BRANCH  38  39
HETATM   39  C24 UNL     1      34.991  32.414  18.521  1.00  0.00     0.219 C 
HETATM   40  O5  UNL     1      35.609  33.015  17.620  1.00  0.00    -0.273 OA
HETATM   41  N3  UNL     1      35.678  31.418  19.264  1.00  0.00    -0.361 N 
HETATM   42  C25 UNL     1      37.077  31.113  18.971  1.00  0.00     0.152 C 
HETATM   43  C26 UNL     1      34.994  30.682  20.334  1.00  0.00     0.152 C 
ENDBRANCH  38  39
ENDBRANCH  36  38
ENDBRANCH  16  36
TORSDOF 10
ENDMDL
MODEL 4
REMARK VINA RESULT: -6.158970612      2.416      9.539
REMARK  10 active torsions:
REMARK  status: ('A' for Active; 'I' for Inactive)
REMARK    1  A    between atoms: C2_2  and  C3_3 
REMARK    2  A    between atoms: C3_3  and  N2_10 
REMARK    3  A    between atoms: N1_4  and  C4_6 
REMARK    4  A    between atoms: C4_6  and  C6_8 
REMARK    5  A    between atoms: N2_10  and  C8_12 
REMARK    6  A    between atoms: C13_19  and  O3_20 
REMARK    7  A    between atoms: C20_29  and  C21_30 
REMARK    8  A    between atoms: C21_30  and  C23_32 
REMARK    9  A    between atoms: C23_32  and  C24_33 
REMARK       I    between atoms: C24_33  and  N3_35 
REMARK   10  A    between atoms: C30_41  and  O6_42 
ROOT
HETATM    1  C8  UNL     1      28.979  29.882  14.670  1.00  0.00     0.127 C 
HETATM    2  C9  UNL     1      29.679  31.001  15.393  1.00  0.00     0.032 C 
HETATM    3  C10 UNL     1      29.407  32.370  14.853  1.00  0.00     0.044 C 
HETATM    4  C11 UNL     1      30.175  32.730  13.601  1.00  0.00     0.100 C 
HETATM    5  O1  UNL     1      31.188  31.691  13.554  1.00  0.00    -0.305 OA
HETATM    6  C12 UNL     1      30.876  30.366  13.290  1.00  0.00     0.296 C 
HETATM    7  O2  UNL     1      31.891  29.646  13.026  1.00  0.00    -0.262 OA
HETATM    8  C13 UNL     1      29.531  29.683  13.274  1.00  0.00     0.165 C 
HETATM    9  C14 UNL     1      28.677  30.239  12.207  1.00  0.00     0.051 C 
HETATM   10  C15 UNL     1      28.244  31.672  12.346  1.00  0.00     0.011 C 
HETATM   11  C16 UNL     1      29.409  32.644  12.331  1.00  0.00     0.029 C 
HETATM   12  C17 UNL     1      29.019  33.903  11.669  1.00  0.00     0.008 C 
HETATM   13  C18 UNL     1      27.611  34.098  11.266  1.00  0.00     0.084 C 
HETATM   14  C19 UNL     1      27.478  35.607  11.274  1.00  0.00     0.132 C 
HETATM   15  O4  UNL     1      26.414  36.159  11.162  1.00  0.00    -0.298 OA
HETATM   16  C20 UNL     1      28.850  36.181  11.441  1.00  0.00     0.068 C 
HETATM   17  C27 UNL     1      29.326  35.184  12.434  1.00  0.00    -0.026 C 
HETATM   18  C28 UNL     1      28.382  35.372  13.632  1.00  0.00     0.016 C 
HETATM   19  C29 UNL     1      30.713  35.107  12.844  1.00  0.00     0.045 C 
HETATM   20  C30 UNL     1      30.911  33.992  13.836  1.00  0.00     0.154 C 
ENDROOT
BRANCH   1  21
HETATM   21  N2  UNL     1      29.218  28.673  15.447  1.00  0.00    -0.372 N 
ATOM     22  H2  UNL     1      30.056  28.125  15.252  1.00  0.00     0.161 HD
BRANCH  21  23
HETATM   23  C3  UNL     1      28.331  28.224  16.465  1.00  0.00     0.073 C 
HETATM   24  N1  UNL     1      28.622  28.560  17.672  1.00  0.00    -0.376 N 
ATOM     25  H1  UNL     1      29.466  29.119  17.795  1.00  0.00     0.161 HD
BRANCH  23  26
HETATM   26  C2  UNL     1      27.130  27.413  16.153  1.00  0.00     0.071 C 
HETATM   27  C1  UNL     1      27.600  26.254  15.297  1.00  0.00     0.013 C 
ENDBRANCH  23  26
BRANCH  24  28
HETATM   28  C4  UNL     1      27.897  28.238  18.856  1.00  0.00     0.078 C 
HETATM   29  C5  UNL     1      28.468  27.036  19.580  1.00  0.00     0.032 C 
BRANCH  28  30
HETATM   30  C6  UNL     1      27.897  29.456  19.790  1.00  0.00     0.020 C 
HETATM   31  C7  UNL     1      29.156  30.253  19.532  1.00  0.00     0.007 C 
ENDBRANCH  28  30
ENDBRANCH  24  28
ENDBRANCH  21  23
ENDBRANCH   1  21
BRANCH   8  32
HETATM   32  O3  UNL     1      29.750  28.350  13.042  1.00  0.00    -0.377 OA
ATOM     33  H3  UNL     1      30.229  28.235  12.230  1.00  0.00     0.211 HD
ENDBRANCH   8  32
BRANCH  20  34
HETATM   34  O6  UNL     1      32.321  33.818  13.899  1.00  0.00    -0.392 OA
ATOM     35  H6  UNL     1      32.741  34.383  14.537  1.00  0.00     0.210 HD
ENDBRANCH  20  34
BRANCH  16  36
HETATM   36  C21 UNL     1      29.472  36.380  10.156  1.00  0.00     0.002 C 
HETATM   37  C22 UNL     1      30.918  36.830  10.169  1.00  0.00     0.011 C 
BRANCH  36  38
HETATM   38  C23 UNL     1      28.741  37.569   9.497  1.00  0.00     0.108 C 
BRANCH  38  39
HETATM   39  C24 UNL     1      28.435  37.286   8.094  1.00  0.00     0.219 C 
HETATM   40  O5  UNL     1      27.629  36.384   7.791  1.00  0.00    -0.273 OA
HETATM   41  N3  UNL     1      29.046  38.027   7.049  1.00  0.00    -0.361 N 
HETATM   42  C25 UNL     1      28.730  37.733   5.653  1.00  0.00     0.152 C 
HETATM   43  C26 UNL     1      30.003  39.097   7.355  1.00  0.00     0.152 C 
ENDBRANCH  38  39
ENDBRANCH  36  38
ENDBRANCH  16  36
TORSDOF 10
ENDMDL
MODEL 5
REMARK VINA RESULT: -5.904528302      3.556     10.599
REMARK  10 active torsions:
REMARK  status: ('A' for Active; 'I' for Inactive)
REMARK    1  A    between atoms: C2_2  and  C3_3 
REMARK    2  A    between atoms: C3_3  and  N2_10 
REMARK    3  A    between atoms: N1_4  and  C4_6 
REMARK    4  A    between atoms: C4_6  and  C6_8 
REMARK    5  A    between atoms: N2_10  and  C8_12 
REMARK    6  A    between atoms: C13_19  and  O3_20 
REMARK    7  A    between atoms: C20_29  and  C21_30 
REMARK    8  A    between atoms: C21_30  and  C23_32 
REMARK    9  A    between atoms: C23_32  and  C24_33 
REMARK       I    between atoms: C24_33  and  N3_35 
REMARK   10  A    between atoms: C30_41  and  O6_42 
ROOT
HETATM    1  C8  UNL     1      29.135  33.903  12.072  1.00  0.00     0.127 C 
HETATM    2  C9  UNL     1      29.094  33.560  10.608  1.00  0.00     0.032 C 
HETATM    3  C10 UNL     1      30.059  34.322   9.753  1.00  0.00     0.044 C 
HETATM    4  C11 UNL     1      29.635  35.732   9.410  1.00  0.00     0.100 C 
HETATM    5  O1  UNL     1      28.232  35.730   9.782  1.00  0.00    -0.305 OA
HETATM    6  C12 UNL     1      27.817  35.653  11.104  1.00  0.00     0.296 C 
HETATM    7  O2  UNL     1      26.586  35.927  11.269  1.00  0.00    -0.262 OA
HETATM    8  C13 UNL     1      28.611  35.298  12.338  1.00  0.00     0.165 C 
HETATM    9  C14 UNL     1      29.666  36.299  12.584  1.00  0.00     0.051 C 
HETATM   10  C15 UNL     1      30.777  36.393  11.575  1.00  0.00     0.011 C 
HETATM   11  C16 UNL     1      30.289  36.808  10.199  1.00  0.00     0.029 C 
HETATM   12  C17 UNL     1      31.301  37.645   9.526  1.00  0.00     0.008 C 
HETATM   13  C18 UNL     1      32.618  37.837  10.168  1.00  0.00     0.084 C 
HETATM   14  C19 UNL     1      33.516  38.124   8.982  1.00  0.00     0.132 C 
HETATM   15  O4  UNL     1      34.715  38.169   9.080  1.00  0.00    -0.298 OA
HETATM   16  C20 UNL     1      32.638  38.315   7.785  1.00  0.00     0.068 C 
HETATM   17  C27 UNL     1      31.678  37.229   8.110  1.00  0.00    -0.026 C 
HETATM   18  C28 UNL     1      32.538  35.956   8.100  1.00  0.00     0.016 C 
HETATM   19  C29 UNL     1      30.440  37.052   7.379  1.00  0.00     0.045 C 
HETATM   20  C30 UNL     1      29.655  35.895   7.939  1.00  0.00     0.154 C 
ENDROOT
BRANCH   1  21
HETATM   21  N2  UNL     1      28.275  32.940  12.748  1.00  0.00    -0.372 N 
ATOM     22  H2  UNL     1      27.265  33.016  12.622  1.00  0.00     0.161 HD
BRANCH  21  23
HETATM   23  C3  UNL     1      28.783  31.900  13.575  1.00  0.00     0.073 C 
HETATM   24  N1  UNL     1      28.565  32.010  14.837  1.00  0.00    -0.376 N 
ATOM     25  H1  UNL     1      28.046  32.835  15.138  1.00  0.00     0.161 HD
BRANCH  23  26
HETATM   26  C2  UNL     1      29.526  30.747  13.012  1.00  0.00     0.071 C 
HETATM   27  C1  UNL     1      28.639  30.140  11.943  1.00  0.00     0.013 C 
ENDBRANCH  23  26
BRANCH  24  28
HETATM   28  C4  UNL     1      28.969  31.106  15.863  1.00  0.00     0.078 C 
HETATM   29  C5  UNL     1      29.420  31.817  17.122  1.00  0.00     0.032 C 
BRANCH  28  30
HETATM   30  C6  UNL     1      27.800  30.165  16.190  1.00  0.00     0.020 C 
HETATM   31  C7  UNL     1      27.750  29.969  17.688  1.00  0.00     0.007 C 
ENDBRANCH  28  30
ENDBRANCH  24  28
ENDBRANCH  21  23
ENDBRANCH   1  21
BRANCH   8  32
HETATM   32  O3  UNL     1      27.738  35.278  13.395  1.00  0.00    -0.377 OA
ATOM     33  H3  UNL     1      27.144  36.017  13.341  1.00  0.00     0.211 HD
ENDBRANCH   8  32
BRANCH  20  34
HETATM   34  O6  UNL     1      28.359  36.036   7.371  1.00  0.00    -0.392 OA
ATOM     35  H6  UNL     1      27.785  36.596   7.879  1.00  0.00     0.210 HD
ENDBRANCH  20  34
BRANCH  16  36
HETATM   36  C21 UNL     1      32.257  39.699   7.656  1.00  0.00     0.002 C 
HETATM   37  C22 UNL     1      31.900  40.173   6.263  1.00  0.00     0.011 C 
BRANCH  36  38
HETATM   38  C23 UNL     1      33.511  40.531   8.000  1.00  0.00     0.108 C 
BRANCH  38  39
HETATM   39  C24 UNL     1      33.171  41.659   8.867  1.00  0.00     0.219 C 
HETATM   40  O5  UNL     1      32.726  41.466  10.015  1.00  0.00    -0.273 OA
HETATM   41  N3  UNL     1      33.341  42.998   8.424  1.00  0.00    -0.361 N 
HETATM   42  C25 UNL     1      32.998  44.114   9.302  1.00  0.00     0.152 C 
HETATM   43  C26 UNL     1      33.861  43.278   7.081  1.00  0.00     0.152 C 
ENDBRANCH  38  39
ENDBRANCH  36  38
ENDBRANCH  16  36
TORSDOF 10
ENDMDL
