MODEL 1
REMARK VINA RESULT: -8.813466944      0.000      0.000
REMARK  15 active torsions:
REMARK  status: ('A' for Active; 'I' for Inactive)
REMARK    1  A    between atoms: C2_2  and  C3_3 
REMARK    2  A    between atoms: C2_2  and  C10_10 
REMARK    3  A    between atoms: C4_4  and  C5_5 
REMARK    4  A    between atoms: C10_10  and  N1_11 
REMARK    5  A    between atoms: C11_12  and  O1_13 
REMARK    6  A    between atoms: C13_17  and  N2_18 
REMARK    7  A    between atoms: N2_18  and  C14_20 
REMARK    8  A    between atoms: C14_20  and  C15_21 
REMARK    9  A    between atoms: C15_21  and  O2_22 
REMARK   10  A    between atoms: O2_22  and  C16_23 
REMARK   11  A    between atoms: C17_25  and  C18_26 
REMARK   12  A    between atoms: C18_26  and  O4_27 
REMARK   13  A    between atoms: C19_29  and  O5_30 
REMARK   14  A    between atoms: C20_32  and  O6_33 
REMARK   15  A    between atoms: C21_35  and  O7_36 
ROOT
HETATM    1  N2  UNL     1      14.510 -36.754   2.226  1.00  0.00    -0.368 N 
ATOM      2  H2  UNL     1      13.491 -36.734   2.260  1.00  0.00     0.161 HD
ENDROOT
BRANCH   1   3
HETATM    3  C13 UNL     1      14.817 -36.478   1.037  1.00  0.00     0.148 A 
HETATM    4  N1  UNL     1      14.227 -36.573  -0.157  1.00  0.00    -0.307 N 
HETATM    5  C11 UNL     1      14.924 -36.276  -1.238  1.00  0.00     0.150 A 
HETATM    6  C12 UNL     1      16.216 -35.877  -1.096  1.00  0.00     0.109 A 
HETATM    7  S1  UNL     1      16.431 -35.930   0.570  1.00  0.00    -0.062 SA
BRANCH   4   8
HETATM    8  C10 UNL     1      12.804 -36.994  -0.272  1.00  0.00     0.141 C 
BRANCH   8   9
HETATM    9  C2  UNL     1      11.801 -35.940  -0.096  1.00  0.00     0.022 C 
HETATM   10  C1  UNL     1      10.678 -35.867  -1.107  1.00  0.00     0.016 C 
BRANCH   9  11
HETATM   11  C3  UNL     1      11.129 -35.865   1.230  1.00  0.00    -0.020 C 
HETATM   12  C4  UNL     1      10.719 -36.982   1.836  1.00  0.00     0.003 C 
BRANCH  12  13
HETATM   13  C5  UNL     1      10.064 -36.910   3.128  1.00  0.00    -0.062 C 
HETATM   14  C6  UNL     1      10.129 -35.898   3.978  1.00  0.00    -0.020 C 
HETATM   15  C7  UNL     1       9.331 -36.174   5.198  1.00  0.00     0.028 C 
HETATM   16  C8  UNL     1       9.253 -37.684   5.204  1.00  0.00     0.008 C 
HETATM   17  C9  UNL     1       9.208 -37.977   3.701  1.00  0.00     0.038 C 
ENDBRANCH  12  13
ENDBRANCH   9  11
ENDBRANCH   8   9
ENDBRANCH   4   8
BRANCH   5  18
HETATM   18  O1  UNL     1      14.397 -36.358  -2.576  1.00  0.00    -0.346 OA
ATOM     19  H1  UNL     1      14.725 -36.958  -3.236  1.00  0.00     0.219 HD
ENDBRANCH   5  18
ENDBRANCH   1   3
BRANCH   1  20
HETATM   20  C14 UNL     1      14.914 -37.068   3.488  1.00  0.00     0.148 C 
BRANCH  20  21
HETATM   21  C15 UNL     1      16.083 -38.093   3.499  1.00  0.00     0.190 C 
BRANCH  21  22
HETATM   22  O2  UNL     1      17.173 -37.682   4.164  1.00  0.00    -0.357 OA
BRANCH  22  23
HETATM   23  C16 UNL     1      18.425 -37.951   3.643  1.00  0.00     0.291 C 
HETATM   24  O3  UNL     1      18.885 -39.115   4.077  1.00  0.00    -0.348 OA
HETATM   25  C17 UNL     1      19.714 -39.187   5.132  1.00  0.00     0.179 C 
HETATM   26  C19 UNL     1      20.667 -38.012   5.302  1.00  0.00     0.180 C 
HETATM   27  C20 UNL     1      20.758 -37.286   3.948  1.00  0.00     0.183 C 
HETATM   28  C21 UNL     1      19.359 -36.818   3.633  1.00  0.00     0.204 C 
BRANCH  25  29
HETATM   29  C18 UNL     1      18.963 -39.364   6.420  1.00  0.00     0.198 C 
BRANCH  29  30
HETATM   30  O4  UNL     1      19.745 -39.726   7.492  1.00  0.00    -0.398 OA
ATOM     31  H4  UNL     1      20.370 -39.065   7.764  1.00  0.00     0.209 HD
ENDBRANCH  29  30
ENDBRANCH  25  29
BRANCH  26  32
HETATM   32  O5  UNL     1      21.926 -38.520   5.583  1.00  0.00    -0.390 OA
ATOM     33  H5  UNL     1      22.427 -38.525   4.775  1.00  0.00     0.210 HD
ENDBRANCH  26  32
BRANCH  27  34
HETATM   34  O6  UNL     1      21.181 -38.252   3.033  1.00  0.00    -0.390 OA
ATOM     35  H6  UNL     1      20.564 -38.969   3.116  1.00  0.00     0.210 HD
ENDBRANCH  27  34
BRANCH  28  36
HETATM   36  O7  UNL     1      19.064 -35.852   4.631  1.00  0.00    -0.388 OA
ATOM     37  H7  UNL     1      19.673 -35.123   4.628  1.00  0.00     0.210 HD
ENDBRANCH  28  36
ENDBRANCH  22  23
ENDBRANCH  21  22
ENDBRANCH  20  21
ENDBRANCH   1  20
TORSDOF 15
ENDMDL
MODEL 2
REMARK VINA RESULT: -8.718758668      1.302      1.624
REMARK  15 active torsions:
REMARK  status: ('A' for Active; 'I' for Inactive)
REMARK    1  A    between atoms: C2_2  and  C3_3 
REMARK    2  A    between atoms: C2_2  and  C10_10 
REMARK    3  A    between atoms: C4_4  and  C5_5 
REMARK    4  A    between atoms: C10_10  and  N1_11 
REMARK    5  A    between atoms: C11_12  and  O1_13 
REMARK    6  A    between atoms: C13_17  and  N2_18 
REMARK    7  A    between atoms: N2_18  and  C14_20 
REMARK    8  A    between atoms: C14_20  and  C15_21 
REMARK    9  A    between atoms: C15_21  and  O2_22 
REMARK   10  A    between atoms: O2_22  and  C16_23 
REMARK   11  A    between atoms: C17_25  and  C18_26 
REMARK   12  A    between atoms: C18_26  and  O4_27 
REMARK   13  A    between atoms: C19_29  and  O5_30 
REMARK   14  A    between atoms: C20_32  and  O6_33 
REMARK   15  A    between atoms: C21_35  and  O7_36 
ROOT
HETATM    1  N2  UNL     1      14.548 -37.598   0.843  1.00  0.00    -0.368 N 
ATOM      2  H2  UNL     1      15.184 -38.387   0.724  1.00  0.00     0.161 HD
ENDROOT
BRANCH   1   3
HETATM    3  C13 UNL     1      14.643 -36.922  -0.214  1.00  0.00     0.148 A 
HETATM    4  N1  UNL     1      13.828 -36.580  -1.215  1.00  0.00    -0.307 N 
HETATM    5  C11 UNL     1      14.326 -35.927  -2.249  1.00  0.00     0.150 A 
HETATM    6  C12 UNL     1      15.651 -35.621  -2.255  1.00  0.00     0.109 A 
HETATM    7  S1  UNL     1      16.177 -36.265  -0.793  1.00  0.00    -0.062 SA
BRANCH   4   8
HETATM    8  C10 UNL     1      12.378 -36.913  -1.165  1.00  0.00     0.141 C 
BRANCH   8   9
HETATM    9  C2  UNL     1      11.486 -35.855  -0.685  1.00  0.00     0.022 C 
HETATM   10  C1  UNL     1      10.171 -35.665  -1.409  1.00  0.00     0.016 C 
BRANCH   9  11
HETATM   11  C3  UNL     1      11.128 -35.880   0.760  1.00  0.00    -0.020 C 
HETATM   12  C4  UNL     1      10.540 -36.958   1.285  1.00  0.00     0.003 C 
BRANCH  12  13
HETATM   13  C5  UNL     1      10.190 -36.984   2.692  1.00  0.00    -0.062 C 
HETATM   14  C6  UNL     1       9.364 -37.839   3.273  1.00  0.00    -0.020 C 
HETATM   15  C7  UNL     1       9.248 -37.564   4.726  1.00  0.00     0.028 C 
HETATM   16  C8  UNL     1       9.661 -36.112   4.820  1.00  0.00     0.008 C 
HETATM   17  C9  UNL     1      10.714 -36.040   3.708  1.00  0.00     0.038 C 
ENDBRANCH  12  13
ENDBRANCH   9  11
ENDBRANCH   8   9
ENDBRANCH   4   8
BRANCH   5  18
HETATM   18  O1  UNL     1      13.546 -35.522  -3.390  1.00  0.00    -0.346 OA
ATOM     19  H1  UNL     1      12.599 -35.445  -3.380  1.00  0.00     0.219 HD
ENDBRANCH   5  18
ENDBRANCH   1   3
BRANCH   1  20
HETATM   20  C14 UNL     1      13.986 -37.761   2.072  1.00  0.00     0.148 C 
BRANCH  20  21
HETATM   21  C15 UNL     1      14.455 -36.679   3.086  1.00  0.00     0.190 C 
BRANCH  21  22
HETATM   22  O2  UNL     1      15.492 -37.051   3.851  1.00  0.00    -0.357 OA
BRANCH  22  23
HETATM   23  C16 UNL     1      16.757 -37.106   3.295  1.00  0.00     0.291 C 
HETATM   24  O3  UNL     1      17.268 -38.325   3.384  1.00  0.00    -0.348 OA
HETATM   25  C17 UNL     1      18.095 -38.662   4.388  1.00  0.00     0.179 C 
HETATM   26  C19 UNL     1      18.994 -37.545   4.902  1.00  0.00     0.180 C 
HETATM   27  C20 UNL     1      19.056 -36.458   3.815  1.00  0.00     0.183 C 
HETATM   28  C21 UNL     1      17.639 -35.979   3.625  1.00  0.00     0.204 C 
BRANCH  25  29
HETATM   29  C18 UNL     1      17.349 -39.233   5.559  1.00  0.00     0.198 C 
BRANCH  29  30
HETATM   30  O4  UNL     1      18.145 -39.605   6.617  1.00  0.00    -0.398 OA
ATOM     31  H4  UNL     1      18.850 -38.999   6.811  1.00  0.00     0.209 HD
ENDBRANCH  29  30
ENDBRANCH  25  29
BRANCH  26  32
HETATM   32  O5  UNL     1      20.274 -38.059   5.046  1.00  0.00    -0.390 OA
ATOM     33  H5  UNL     1      20.738 -37.923   4.228  1.00  0.00     0.210 HD
ENDBRANCH  26  32
BRANCH  27  34
HETATM   34  O6  UNL     1      19.526 -37.102   2.668  1.00  0.00    -0.390 OA
ATOM     35  H6  UNL     1      20.471 -37.122   2.757  1.00  0.00     0.210 HD
ENDBRANCH  27  34
BRANCH  28  36
HETATM   36  O7  UNL     1      17.298 -35.354   4.853  1.00  0.00    -0.388 OA
ATOM     37  H7  UNL     1      17.051 -34.443   4.746  1.00  0.00     0.210 HD
ENDBRANCH  28  36
ENDBRANCH  22  23
ENDBRANCH  21  22
ENDBRANCH  20  21
ENDBRANCH   1  20
TORSDOF 15
ENDMDL
MODEL 3
REMARK VINA RESULT: -8.687305370      3.464      7.786
REMARK  15 active torsions:
REMARK  status: ('A' for Active; 'I' for Inactive)
REMARK    1  A    between atoms: C2_2  and  C3_3 
REMARK    2  A    between atoms: C2_2  and  C10_10 
REMARK    3  A    between atoms: C4_4  and  C5_5 
REMARK    4  A    between atoms: C10_10  and  N1_11 
REMARK    5  A    between atoms: C11_12  and  O1_13 
REMARK    6  A    between atoms: C13_17  and  N2_18 
REMARK    7  A    between atoms: N2_18  and  C14_20 
REMARK    8  A    between atoms: C14_20  and  C15_21 
REMARK    9  A    between atoms: C15_21  and  O2_22 
REMARK   10  A    between atoms: O2_22  and  C16_23 
REMARK   11  A    between atoms: C17_25  and  C18_26 
REMARK   12  A    between atoms: C18_26  and  O4_27 
REMARK   13  A    between atoms: C19_29  and  O5_30 
REMARK   14  A    between atoms: C20_32  and  O6_33 
REMARK   15  A    between atoms: C21_35  and  O7_36 
ROOT
HETATM    1  N2  UNL     1      12.274 -36.167  -1.637  1.00  0.00    -0.368 N 
ATOM      2  H2  UNL     1      12.099 -36.923  -2.298  1.00  0.00     0.161 HD
ENDROOT
BRANCH   1   3
HETATM    3  C13 UNL     1      13.526 -36.093  -1.527  1.00  0.00     0.148 A 
HETATM    4  N1  UNL     1      14.405 -36.087  -0.522  1.00  0.00    -0.307 N 
HETATM    5  C11 UNL     1      15.680 -35.875  -0.792  1.00  0.00     0.150 A 
HETATM    6  C12 UNL     1      16.053 -35.677  -2.085  1.00  0.00     0.109 A 
HETATM    7  S1  UNL     1      14.590 -35.791  -2.904  1.00  0.00    -0.062 SA
BRANCH   4   8
HETATM    8  C10 UNL     1      13.964 -36.329   0.879  1.00  0.00     0.141 C 
BRANCH   8   9
HETATM    9  C2  UNL     1      13.898 -37.729   1.305  1.00  0.00     0.022 C 
HETATM   10  C1  UNL     1      13.440 -38.750   0.287  1.00  0.00     0.016 C 
BRANCH   9  11
HETATM   11  C3  UNL     1      15.131 -38.310   1.903  1.00  0.00    -0.020 C 
HETATM   12  C4  UNL     1      15.709 -37.717   2.951  1.00  0.00     0.003 C 
BRANCH  12  13
HETATM   13  C5  UNL     1      16.911 -38.282   3.534  1.00  0.00    -0.062 C 
HETATM   14  C6  UNL     1      17.064 -39.530   3.948  1.00  0.00    -0.020 C 
HETATM   15  C7  UNL     1      18.428 -39.750   4.486  1.00  0.00     0.028 C 
HETATM   16  C8  UNL     1      18.866 -38.350   4.854  1.00  0.00     0.008 C 
HETATM   17  C9  UNL     1      18.172 -37.534   3.759  1.00  0.00     0.038 C 
ENDBRANCH  12  13
ENDBRANCH   9  11
ENDBRANCH   8   9
ENDBRANCH   4   8
BRANCH   5  18
HETATM   18  O1  UNL     1      16.713 -35.832   0.211  1.00  0.00    -0.346 OA
ATOM     19  H1  UNL     1      17.534 -35.367   0.102  1.00  0.00     0.219 HD
ENDBRANCH   5  18
ENDBRANCH   1   3
BRANCH   1  20
HETATM   20  C14 UNL     1      11.047 -35.700  -1.278  1.00  0.00     0.148 C 
BRANCH  20  21
HETATM   21  C15 UNL     1      10.141 -36.812  -0.677  1.00  0.00     0.190 C 
BRANCH  21  22
HETATM   22  O2  UNL     1       9.678 -36.545   0.553  1.00  0.00    -0.357 OA
BRANCH  22  23
HETATM   23  C16 UNL     1      10.564 -36.501   1.613  1.00  0.00     0.291 C 
HETATM   24  O3  UNL     1      10.426 -37.559   2.398  1.00  0.00    -0.348 OA
HETATM   25  C17 UNL     1       9.667 -37.510   3.507  1.00  0.00     0.179 C 
HETATM   26  C19 UNL     1       9.635 -36.167   4.223  1.00  0.00     0.180 C 
HETATM   27  C20 UNL     1      10.859 -35.360   3.755  1.00  0.00     0.183 C 
HETATM   28  C21 UNL     1      10.702 -35.192   2.265  1.00  0.00     0.204 C 
BRANCH  25  29
HETATM   29  C18 UNL     1       8.250 -37.924   3.233  1.00  0.00     0.198 C 
BRANCH  29  30
HETATM   30  O4  UNL     1       7.355 -37.583   4.219  1.00  0.00    -0.398 OA
ATOM     31  H4  UNL     1       6.552 -37.187   3.903  1.00  0.00     0.209 HD
ENDBRANCH  29  30
ENDBRANCH  25  29
BRANCH  26  32
HETATM   32  O5  UNL     1       9.789 -36.402   5.580  1.00  0.00    -0.390 OA
ATOM     33  H5  UNL     1       9.149 -37.053   5.840  1.00  0.00     0.210 HD
ENDBRANCH  26  32
BRANCH  27  34
HETATM   34  O6  UNL     1      11.967 -36.154   4.057  1.00  0.00    -0.390 OA
ATOM     35  H6  UNL     1      11.898 -36.913   3.490  1.00  0.00     0.210 HD
ENDBRANCH  27  34
BRANCH  28  36
HETATM   36  O7  UNL     1       9.551 -34.376   2.109  1.00  0.00    -0.388 OA
ATOM     37  H7  UNL     1       9.278 -33.966   2.922  1.00  0.00     0.210 HD
ENDBRANCH  28  36
ENDBRANCH  22  23
ENDBRANCH  21  22
ENDBRANCH  20  21
ENDBRANCH   1  20
TORSDOF 15
ENDMDL
MODEL 4
REMARK VINA RESULT: -8.625755430      0.961      2.064
REMARK  15 active torsions:
REMARK  status: ('A' for Active; 'I' for Inactive)
REMARK    1  A    between atoms: C2_2  and  C3_3 
REMARK    2  A    between atoms: C2_2  and  C10_10 
REMARK    3  A    between atoms: C4_4  and  C5_5 
REMARK    4  A    between atoms: C10_10  and  N1_11 
REMARK    5  A    between atoms: C11_12  and  O1_13 
REMARK    6  A    between atoms: C13_17  and  N2_18 
REMARK    7  A    between atoms: N2_18  and  C14_20 
REMARK    8  A    between atoms: C14_20  and  C15_21 
REMARK    9  A    between atoms: C15_21  and  O2_22 
REMARK   10  A    between atoms: O2_22  and  C16_23 
REMARK   11  A    between atoms: C17_25  and  C18_26 
REMARK   12  A    between atoms: C18_26  and  O4_27 
REMARK   13  A    between atoms: C19_29  and  O5_30 
REMARK   14  A    between atoms: C20_32  and  O6_33 
REMARK   15  A    between atoms: C21_35  and  O7_36 
ROOT
HETATM    1  N2  UNL     1      14.680 -37.069   1.714  1.00  0.00    -0.368 N 
ATOM      2  H2  UNL     1      14.490 -38.065   1.597  1.00  0.00     0.161 HD
ENDROOT
BRANCH   1   3
HETATM    3  C13 UNL     1      14.841 -36.614   0.552  1.00  0.00     0.148 A 
HETATM    4  N1  UNL     1      14.108 -36.537  -0.562  1.00  0.00    -0.307 N 
HETATM    5  C11 UNL     1      14.669 -36.073  -1.663  1.00  0.00     0.150 A 
HETATM    6  C12 UNL     1      15.971 -35.684  -1.623  1.00  0.00     0.109 A 
HETATM    7  S1  UNL     1      16.388 -35.982  -0.022  1.00  0.00    -0.062 SA
BRANCH   4   8
HETATM    8  C10 UNL     1      12.679 -36.953  -0.564  1.00  0.00     0.141 C 
BRANCH   8   9
HETATM    9  C2  UNL     1      11.700 -35.912  -0.236  1.00  0.00     0.022 C 
HETATM   10  C1  UNL     1      10.461 -35.819  -1.098  1.00  0.00     0.016 C 
BRANCH   9  11
HETATM   11  C3  UNL     1      11.197 -35.879   1.165  1.00  0.00    -0.020 C 
HETATM   12  C4  UNL     1      10.469 -36.894   1.638  1.00  0.00     0.003 C 
BRANCH  12  13
HETATM   13  C5  UNL     1       9.978 -36.862   3.002  1.00  0.00    -0.062 C 
HETATM   14  C6  UNL     1      10.099 -35.854   3.850  1.00  0.00    -0.020 C 
HETATM   15  C7  UNL     1       9.474 -36.176   5.156  1.00  0.00     0.028 C 
HETATM   16  C8  UNL     1       9.472 -37.689   5.154  1.00  0.00     0.008 C 
HETATM   17  C9  UNL     1       9.254 -37.974   3.664  1.00  0.00     0.038 C 
ENDBRANCH  12  13
ENDBRANCH   9  11
ENDBRANCH   8   9
ENDBRANCH   4   8
BRANCH   5  18
HETATM   18  O1  UNL     1      13.981 -35.960  -2.923  1.00  0.00    -0.346 OA
ATOM     19  H1  UNL     1      14.327 -36.288  -3.745  1.00  0.00     0.219 HD
ENDBRANCH   5  18
ENDBRANCH   1   3
BRANCH   1  20
HETATM   20  C14 UNL     1      14.644 -36.843   3.056  1.00  0.00     0.148 C 
BRANCH  20  21
HETATM   21  C15 UNL     1      15.980 -36.257   3.595  1.00  0.00     0.190 C 
BRANCH  21  22
HETATM   22  O2  UNL     1      17.019 -37.103   3.535  1.00  0.00    -0.357 OA
BRANCH  22  23
HETATM   23  C16 UNL     1      17.446 -37.731   4.690  1.00  0.00     0.291 C 
HETATM   24  O3  UNL     1      18.658 -37.323   5.039  1.00  0.00    -0.348 OA
HETATM   25  C17 UNL     1      19.754 -38.019   4.692  1.00  0.00     0.179 C 
HETATM   26  C19 UNL     1      19.578 -39.529   4.619  1.00  0.00     0.180 C 
HETATM   27  C20 UNL     1      18.320 -39.893   5.427  1.00  0.00     0.183 C 
HETATM   28  C21 UNL     1      17.176 -39.173   4.759  1.00  0.00     0.204 C 
BRANCH  25  29
HETATM   29  C18 UNL     1      20.320 -37.553   3.382  1.00  0.00     0.198 C 
BRANCH  29  30
HETATM   30  O4  UNL     1      21.509 -38.149   3.030  1.00  0.00    -0.398 OA
ATOM     31  H4  UNL     1      21.777 -37.992   2.133  1.00  0.00     0.209 HD
ENDBRANCH  29  30
ENDBRANCH  25  29
BRANCH  26  32
HETATM   32  O5  UNL     1      20.661 -40.118   5.254  1.00  0.00    -0.390 OA
ATOM     33  H5  UNL     1      20.793 -40.978   4.874  1.00  0.00     0.210 HD
ENDBRANCH  26  32
BRANCH  27  34
HETATM   34  O6  UNL     1      18.545 -39.394   6.712  1.00  0.00    -0.390 OA
ATOM     35  H6  UNL     1      18.065 -39.969   7.295  1.00  0.00     0.210 HD
ENDBRANCH  27  34
BRANCH  28  36
HETATM   36  O7  UNL     1      17.064 -39.775   3.478  1.00  0.00    -0.388 OA
ATOM     37  H7  UNL     1      16.376 -40.429   3.437  1.00  0.00     0.210 HD
ENDBRANCH  28  36
ENDBRANCH  22  23
ENDBRANCH  21  22
ENDBRANCH  20  21
ENDBRANCH   1  20
TORSDOF 15
ENDMDL
MODEL 5
REMARK VINA RESULT: -8.521295175      1.733      2.264
REMARK  15 active torsions:
REMARK  status: ('A' for Active; 'I' for Inactive)
REMARK    1  A    between atoms: C2_2  and  C3_3 
REMARK    2  A    between atoms: C2_2  and  C10_10 
REMARK    3  A    between atoms: C4_4  and  C5_5 
REMARK    4  A    between atoms: C10_10  and  N1_11 
REMARK    5  A    between atoms: C11_12  and  O1_13 
REMARK    6  A    between atoms: C13_17  and  N2_18 
REMARK    7  A    between atoms: N2_18  and  C14_20 
REMARK    8  A    between atoms: C14_20  and  C15_21 
REMARK    9  A    between atoms: C15_21  and  O2_22 
REMARK   10  A    between atoms: O2_22  and  C16_23 
REMARK   11  A    between atoms: C17_25  and  C18_26 
REMARK   12  A    between atoms: C18_26  and  O4_27 
REMARK   13  A    between atoms: C19_29  and  O5_30 
REMARK   14  A    between atoms: C20_32  and  O6_33 
REMARK   15  A    between atoms: C21_35  and  O7_36 
ROOT
HETATM    1  N2  UNL     1      17.001 -35.936   1.958  1.00  0.00    -0.368 N 
ATOM      2  H2  UNL     1      17.786 -35.704   1.348  1.00  0.00     0.161 HD
ENDROOT
BRANCH   1   3
HETATM    3  C13 UNL     1      16.079 -36.323   1.194  1.00  0.00     0.148 A 
HETATM    4  N1  UNL     1      14.982 -37.074   1.313  1.00  0.00    -0.307 N 
HETATM    5  C11 UNL     1      14.287 -37.366   0.229  1.00  0.00     0.150 A 
HETATM    6  C12 UNL     1      14.710 -36.885  -0.970  1.00  0.00     0.109 A 
HETATM    7  S1  UNL     1      16.092 -36.025  -0.548  1.00  0.00    -0.062 SA
BRANCH   4   8
HETATM    8  C10 UNL     1      14.536 -37.567   2.646  1.00  0.00     0.141 C 
BRANCH   8   9
HETATM    9  C2  UNL     1      13.685 -36.660   3.420  1.00  0.00     0.022 C 
HETATM   10  C1  UNL     1      13.416 -35.287   2.843  1.00  0.00     0.016 C 
BRANCH   9  11
HETATM   11  C3  UNL     1      12.349 -37.173   3.828  1.00  0.00    -0.020 C 
HETATM   12  C4  UNL     1      11.268 -36.399   3.702  1.00  0.00     0.003 C 
BRANCH  12  13
HETATM   13  C5  UNL     1       9.966 -36.898   4.099  1.00  0.00    -0.062 C 
HETATM   14  C6  UNL     1       9.329 -36.604   5.222  1.00  0.00    -0.020 C 
HETATM   15  C7  UNL     1       8.019 -37.297   5.289  1.00  0.00     0.028 C 
HETATM   16  C8  UNL     1       8.214 -38.460   4.342  1.00  0.00     0.008 C 
HETATM   17  C9  UNL     1       9.137 -37.827   3.295  1.00  0.00     0.038 C 
ENDBRANCH  12  13
ENDBRANCH   9  11
ENDBRANCH   8   9
ENDBRANCH   4   8
BRANCH   5  18
HETATM   18  O1  UNL     1      13.099 -38.180   0.236  1.00  0.00    -0.346 OA
ATOM     19  H1  UNL     1      12.716 -38.560  -0.546  1.00  0.00     0.219 HD
ENDBRANCH   5  18
ENDBRANCH   1   3
BRANCH   1  20
HETATM   20  C14 UNL     1      17.433 -35.684   3.224  1.00  0.00     0.148 C 
BRANCH  20  21
HETATM   21  C15 UNL     1      17.908 -36.971   3.955  1.00  0.00     0.190 C 
BRANCH  21  22
HETATM   22  O2  UNL     1      19.148 -36.893   4.462  1.00  0.00    -0.357 OA
BRANCH  22  23
HETATM   23  C16 UNL     1      20.172 -37.595   3.855  1.00  0.00     0.291 C 
HETATM   24  O3  UNL     1      20.144 -38.876   4.195  1.00  0.00    -0.348 OA
HETATM   25  C17 UNL     1      20.907 -39.348   5.195  1.00  0.00     0.179 C 
HETATM   26  C19 UNL     1      22.255 -38.661   5.374  1.00  0.00     0.180 C 
HETATM   27  C20 UNL     1      22.585 -37.932   4.060  1.00  0.00     0.183 C 
HETATM   28  C21 UNL     1      21.479 -36.927   3.854  1.00  0.00     0.204 C 
BRANCH  25  29
HETATM   29  C18 UNL     1      20.189 -39.309   6.513  1.00  0.00     0.198 C 
BRANCH  29  30
HETATM   30  O4  UNL     1      18.817 -39.341   6.416  1.00  0.00    -0.398 OA
ATOM     31  H4  UNL     1      18.418 -40.137   6.745  1.00  0.00     0.209 HD
ENDBRANCH  29  30
ENDBRANCH  25  29
BRANCH  26  32
HETATM   32  O5  UNL     1      23.216 -39.645   5.552  1.00  0.00    -0.390 OA
ATOM     33  H5  UNL     1      24.068 -39.226   5.548  1.00  0.00     0.210 HD
ENDBRANCH  26  32
BRANCH  27  34
HETATM   34  O6  UNL     1      22.559 -38.916   3.069  1.00  0.00    -0.390 OA
ATOM     35  H6  UNL     1      21.665 -38.932   2.750  1.00  0.00     0.210 HD
ENDBRANCH  27  34
BRANCH  28  36
HETATM   36  O7  UNL     1      21.625 -36.001   4.919  1.00  0.00    -0.388 OA
ATOM     37  H7  UNL     1      22.091 -35.213   4.661  1.00  0.00     0.210 HD
ENDBRANCH  28  36
ENDBRANCH  22  23
ENDBRANCH  21  22
ENDBRANCH  20  21
ENDBRANCH   1  20
TORSDOF 15
ENDMDL
