MODEL 1
REMARK VINA RESULT: -6.298441257      0.000      0.000
REMARK  5 active torsions:
REMARK  status: ('A' for Active; 'I' for Inactive)
REMARK    1  A    between atoms: C2_2  and  C3_3 
REMARK    2  A    between atoms: C3_3  and  N1_4 
REMARK    3  A    between atoms: C8_17  and  S1_18 
REMARK    4  A    between atoms: N5_20  and  C10_21 
REMARK    5  A    between atoms: C10_21  and  O1_22 
ROOT
HETATM    1  N1  UNL     1      -5.171   1.949  14.866  1.00  0.00    -0.350 N 
ATOM      2  H1  UNL     1      -4.998   0.959  14.690  1.00  0.00     0.166 HD
HETATM    3  C4  UNL     1      -4.479   2.654  14.115  1.00  0.00     0.141 A 
HETATM    4  N2  UNL     1      -3.635   2.037  13.217  1.00  0.00    -0.323 N 
ATOM      5  H2  UNL     1      -3.598   1.018  13.190  1.00  0.00     0.169 HD
HETATM    6  C5  UNL     1      -2.862   2.744  12.379  1.00  0.00     0.158 A 
HETATM    7  C6  UNL     1      -2.890   4.121  12.394  1.00  0.00     0.153 A 
HETATM    8  N3  UNL     1      -3.691   4.734  13.246  1.00  0.00    -0.330 N 
ATOM      9  H3  UNL     1      -3.722   5.754  13.268  1.00  0.00     0.168 HD
HETATM   10  C7  UNL     1      -4.475   4.017  14.096  1.00  0.00     0.126 A 
HETATM   11 BR1  UNL     1      -5.583   5.010  15.273  1.00  0.00    -0.027 Br
HETATM   12  N4  UNL     1      -2.031   4.568  11.466  1.00  0.00    -0.320 N 
ATOM     13  H4  UNL     1      -1.844   5.548  11.254  1.00  0.00     0.169 HD
HETATM   14  C8  UNL     1      -1.457   3.515  10.863  1.00  0.00     0.151 A 
HETATM   15  N5  UNL     1      -1.963   2.413  11.419  1.00  0.00    -0.288 N 
ENDROOT
BRANCH   1  16
HETATM   16  C3  UNL     1      -6.114   2.111  15.876  1.00  0.00     0.089 C 
BRANCH  16  17
HETATM   17  C2  UNL     1      -5.588   1.693  17.231  1.00  0.00     0.007 C 
HETATM   18  C1  UNL     1      -5.982   2.339  18.303  1.00  0.00     0.012 C 
ENDBRANCH  16  17
ENDBRANCH   1  16
BRANCH  15  19
HETATM   19  C10 UNL     1      -1.628   1.023  11.076  1.00  0.00     0.301 C 
BRANCH  19  20
HETATM   20  O1  UNL     1      -2.744   0.427  10.474  1.00  0.00    -0.376 OA
HETATM   21  C11 UNL     1      -2.903  -0.848  10.958  1.00  0.00     0.203 C 
ENDBRANCH  19  20
ENDBRANCH  15  19
BRANCH  14  22
HETATM   22  S1  UNL     1      -0.242   3.568   9.558  1.00  0.00    -0.098 SA
HETATM   23  C9  UNL     1       1.406   3.870  10.229  1.00  0.00     0.099 C 
ENDBRANCH  14  22
TORSDOF 5
ENDMDL
MODEL 2
REMARK VINA RESULT: -6.041077399      1.524      1.870
REMARK  5 active torsions:
REMARK  status: ('A' for Active; 'I' for Inactive)
REMARK    1  A    between atoms: C2_2  and  C3_3 
REMARK    2  A    between atoms: C3_3  and  N1_4 
REMARK    3  A    between atoms: C8_17  and  S1_18 
REMARK    4  A    between atoms: N5_20  and  C10_21 
REMARK    5  A    between atoms: C10_21  and  O1_22 
ROOT
HETATM    1  N1  UNL     1      -4.270   2.109  15.614  1.00  0.00    -0.350 N 
ATOM      2  H1  UNL     1      -3.635   1.331  15.441  1.00  0.00     0.166 HD
HETATM    3  C4  UNL     1      -4.196   2.947  14.702  1.00  0.00     0.141 A 
HETATM    4  N2  UNL     1      -3.324   2.716  13.660  1.00  0.00    -0.323 N 
ATOM      5  H2  UNL     1      -2.760   1.866  13.662  1.00  0.00     0.169 HD
HETATM    6  C5  UNL     1      -3.198   3.583  12.643  1.00  0.00     0.158 A 
HETATM    7  C6  UNL     1      -3.946   4.740  12.614  1.00  0.00     0.153 A 
HETATM    8  N3  UNL     1      -4.788   4.982  13.602  1.00  0.00    -0.330 N 
ATOM      9  H3  UNL     1      -5.348   5.835  13.592  1.00  0.00     0.168 HD
HETATM   10  C7  UNL     1      -4.915   4.103  14.632  1.00  0.00     0.126 A 
HETATM   11 BR1  UNL     1      -6.158   4.560  15.991  1.00  0.00    -0.027 Br
HETATM   12  N4  UNL     1      -3.627   5.417  11.500  1.00  0.00    -0.320 N 
ATOM     13  H4  UNL     1      -4.025   6.311  11.215  1.00  0.00     0.169 HD
HETATM   14  C8  UNL     1      -2.698   4.723  10.822  1.00  0.00     0.151 A 
HETATM   15  N5  UNL     1      -2.442   3.614  11.518  1.00  0.00    -0.288 N 
ENDROOT
BRANCH   1  16
HETATM   16  C3  UNL     1      -4.966   1.921  16.805  1.00  0.00     0.089 C 
BRANCH  16  17
HETATM   17  C2  UNL     1      -5.931   0.758  16.732  1.00  0.00     0.007 C 
HETATM   18  C1  UNL     1      -7.214   0.974  16.910  1.00  0.00     0.012 C 
ENDBRANCH  16  17
ENDBRANCH   1  16
BRANCH  15  19
HETATM   19  C10 UNL     1      -1.489   2.553  11.161  1.00  0.00     0.301 C 
BRANCH  19  20
HETATM   20  O1  UNL     1      -1.984   1.328  11.629  1.00  0.00    -0.376 OA
HETATM   21  C11 UNL     1      -1.564   0.315  10.803  1.00  0.00     0.203 C 
ENDBRANCH  19  20
ENDBRANCH  15  19
BRANCH  14  22
HETATM   22  S1  UNL     1      -1.940   5.189   9.276  1.00  0.00    -0.098 SA
HETATM   23  C9  UNL     1      -3.160   5.209   7.946  1.00  0.00     0.099 C 
ENDBRANCH  14  22
TORSDOF 5
ENDMDL
MODEL 3
REMARK VINA RESULT: -5.835512731      1.760      2.432
REMARK  5 active torsions:
REMARK  status: ('A' for Active; 'I' for Inactive)
REMARK    1  A    between atoms: C2_2  and  C3_3 
REMARK    2  A    between atoms: C3_3  and  N1_4 
REMARK    3  A    between atoms: C8_17  and  S1_18 
REMARK    4  A    between atoms: N5_20  and  C10_21 
REMARK    5  A    between atoms: C10_21  and  O1_22 
ROOT
HETATM    1  N1  UNL     1      -3.989   2.167  15.324  1.00  0.00    -0.350 N 
ATOM      2  H1  UNL     1      -3.313   1.428  15.133  1.00  0.00     0.166 HD
HETATM    3  C4  UNL     1      -3.989   3.008  14.411  1.00  0.00     0.141 A 
HETATM    4  N2  UNL     1      -3.132   2.830  13.347  1.00  0.00    -0.323 N 
ATOM      5  H2  UNL     1      -2.518   2.015  13.333  1.00  0.00     0.169 HD
HETATM    6  C5  UNL     1      -3.084   3.702  12.328  1.00  0.00     0.158 A 
HETATM    7  C6  UNL     1      -3.901   4.812  12.320  1.00  0.00     0.153 A 
HETATM    8  N3  UNL     1      -4.730   5.003  13.330  1.00  0.00    -0.330 N 
ATOM      9  H3  UNL     1      -5.340   5.822  13.336  1.00  0.00     0.168 HD
HETATM   10  C7  UNL     1      -4.778   4.118  14.361  1.00  0.00     0.126 A 
HETATM   11 BR1  UNL     1      -6.009   4.501  15.753  1.00  0.00    -0.027 Br
HETATM   12  N4  UNL     1      -3.651   5.507  11.199  1.00  0.00    -0.320 N 
ATOM     13  H4  UNL     1      -4.110   6.376  10.926  1.00  0.00     0.169 HD
HETATM   14  C8  UNL     1      -2.701   4.870  10.497  1.00  0.00     0.151 A 
HETATM   15  N5  UNL     1      -2.361   3.779  11.184  1.00  0.00    -0.288 N 
ENDROOT
BRANCH   1  16
HETATM   16  C3  UNL     1      -4.641   1.937  16.532  1.00  0.00     0.089 C 
BRANCH  16  17
HETATM   17  C2  UNL     1      -5.575   0.749  16.468  1.00  0.00     0.007 C 
HETATM   18  C1  UNL     1      -6.805   0.872  16.910  1.00  0.00     0.012 C 
ENDBRANCH  16  17
ENDBRANCH   1  16
BRANCH  15  19
HETATM   19  C10 UNL     1      -1.356   2.776  10.801  1.00  0.00     0.301 C 
BRANCH  19  20
HETATM   20  O1  UNL     1      -0.273   2.863  11.685  1.00  0.00    -0.376 OA
HETATM   21  C11 UNL     1       0.701   3.665  11.143  1.00  0.00     0.203 C 
ENDBRANCH  19  20
ENDBRANCH  15  19
BRANCH  14  22
HETATM   22  S1  UNL     1      -2.013   5.380   8.932  1.00  0.00    -0.098 SA
HETATM   23  C9  UNL     1      -3.215   5.163   7.603  1.00  0.00     0.099 C 
ENDBRANCH  14  22
TORSDOF 5
ENDMDL
MODEL 4
REMARK VINA RESULT: -5.816990649      2.627      3.647
REMARK  5 active torsions:
REMARK  status: ('A' for Active; 'I' for Inactive)
REMARK    1  A    between atoms: C2_2  and  C3_3 
REMARK    2  A    between atoms: C3_3  and  N1_4 
REMARK    3  A    between atoms: C8_17  and  S1_18 
REMARK    4  A    between atoms: N5_20  and  C10_21 
REMARK    5  A    between atoms: C10_21  and  O1_22 
ROOT
HETATM    1  N1  UNL     1      -5.904   3.187  15.180  1.00  0.00    -0.350 N 
ATOM      2  H1  UNL     1      -6.423   4.064  15.127  1.00  0.00     0.166 HD
HETATM    3  C4  UNL     1      -5.030   3.141  14.300  1.00  0.00     0.141 A 
HETATM    4  N2  UNL     1      -4.899   4.210  13.440  1.00  0.00    -0.323 N 
ATOM      5  H2  UNL     1      -5.522   5.011  13.543  1.00  0.00     0.169 HD
HETATM    6  C5  UNL     1      -3.973   4.222  12.469  1.00  0.00     0.158 A 
HETATM    7  C6  UNL     1      -3.118   3.154  12.304  1.00  0.00     0.153 A 
HETATM    8  N3  UNL     1      -3.225   2.119  13.117  1.00  0.00    -0.330 N 
ATOM      9  H3  UNL     1      -2.599   1.321  13.007  1.00  0.00     0.168 HD
HETATM   10  C7  UNL     1      -4.164   2.108  14.102  1.00  0.00     0.126 A 
HETATM   11 BR1  UNL     1      -4.219   0.566  15.206  1.00  0.00    -0.027 Br
HETATM   12  N4  UNL     1      -2.304   3.424  11.273  1.00  0.00    -0.320 N 
ATOM     13  H4  UNL     1      -1.567   2.812  10.923  1.00  0.00     0.169 HD
HETATM   14  C8  UNL     1      -2.616   4.633  10.778  1.00  0.00     0.151 A 
HETATM   15  N5  UNL     1      -3.627   5.111  11.505  1.00  0.00    -0.288 N 
ENDROOT
BRANCH   1  16
HETATM   16  C3  UNL     1      -6.384   2.394  16.217  1.00  0.00     0.089 C 
BRANCH  16  17
HETATM   17  C2  UNL     1      -6.234   3.056  17.569  1.00  0.00     0.007 C 
HETATM   18  C1  UNL     1      -5.977   2.317  18.623  1.00  0.00     0.012 C 
ENDBRANCH  16  17
ENDBRANCH   1  16
BRANCH  15  19
HETATM   19  C10 UNL     1      -4.302   6.406  11.328  1.00  0.00     0.301 C 
BRANCH  19  20
HETATM   20  O1  UNL     1      -5.677   6.227  11.525  1.00  0.00    -0.376 OA
HETATM   21  C11 UNL     1      -6.351   7.354  11.123  1.00  0.00     0.203 C 
ENDBRANCH  19  20
ENDBRANCH  15  19
BRANCH  14  22
HETATM   22  S1  UNL     1      -1.831   5.456   9.404  1.00  0.00    -0.098 SA
HETATM   23  C9  UNL     1      -2.802   5.252   7.896  1.00  0.00     0.099 C 
ENDBRANCH  14  22
TORSDOF 5
ENDMDL
MODEL 5
REMARK VINA RESULT: -5.760497670      1.067      1.108
REMARK  5 active torsions:
REMARK  status: ('A' for Active; 'I' for Inactive)
REMARK    1  A    between atoms: C2_2  and  C3_3 
REMARK    2  A    between atoms: C3_3  and  N1_4 
REMARK    3  A    between atoms: C8_17  and  S1_18 
REMARK    4  A    between atoms: N5_20  and  C10_21 
REMARK    5  A    between atoms: C10_21  and  O1_22 
ROOT
HETATM    1  N1  UNL     1      -4.991   2.137  14.830  1.00  0.00    -0.350 N 
ATOM      2  H1  UNL     1      -4.674   1.201  14.575  1.00  0.00     0.166 HD
HETATM    3  C4  UNL     1      -4.391   2.999  14.169  1.00  0.00     0.141 A 
HETATM    4  N2  UNL     1      -3.449   2.590  13.249  1.00  0.00    -0.323 N 
ATOM      5  H2  UNL     1      -3.265   1.594  13.134  1.00  0.00     0.169 HD
HETATM    6  C5  UNL     1      -2.767   3.473  12.502  1.00  0.00     0.158 A 
HETATM    7  C6  UNL     1      -2.993   4.826  12.638  1.00  0.00     0.153 A 
HETATM    8  N3  UNL     1      -3.892   5.239  13.512  1.00  0.00    -0.330 N 
ATOM      9  H3  UNL     1      -4.069   6.238  13.622  1.00  0.00     0.168 HD
HETATM   10  C7  UNL     1      -4.583   4.344  14.268  1.00  0.00     0.126 A 
HETATM   11 BR1  UNL     1      -5.846   5.060  15.489  1.00  0.00    -0.027 Br
HETATM   12  N4  UNL     1      -2.187   5.472  11.782  1.00  0.00    -0.320 N 
ATOM     13  H4  UNL     1      -2.138   6.484  11.663  1.00  0.00     0.169 HD
HETATM   14  C8  UNL     1      -1.455   4.570  11.109  1.00  0.00     0.151 A 
HETATM   15  N5  UNL     1      -1.810   3.361  11.549  1.00  0.00    -0.288 N 
ENDROOT
BRANCH   1  16
HETATM   16  C3  UNL     1      -5.969   2.072  15.818  1.00  0.00     0.089 C 
BRANCH  16  17
HETATM   17  C2  UNL     1      -5.401   1.699  17.170  1.00  0.00     0.007 C 
HETATM   18  C1  UNL     1      -5.935   2.209  18.255  1.00  0.00     0.012 C 
ENDBRANCH  16  17
ENDBRANCH   1  16
BRANCH  15  19
HETATM   19  C10 UNL     1      -1.272   2.069  11.097  1.00  0.00     0.301 C 
BRANCH  19  20
HETATM   20  O1  UNL     1      -2.342   1.205  10.833  1.00  0.00    -0.376 OA
HETATM   21  C11 UNL     1      -1.931  -0.097  10.981  1.00  0.00     0.203 C 
ENDBRANCH  19  20
ENDBRANCH  15  19
BRANCH  14  22
HETATM   22  S1  UNL     1      -0.233   4.912   9.855  1.00  0.00    -0.098 SA
HETATM   23  C9  UNL     1      -0.992   5.693   8.417  1.00  0.00     0.099 C 
ENDBRANCH  14  22
TORSDOF 5
ENDMDL
