MODEL 1
REMARK VINA RESULT: -6.936474528      0.000      0.000
REMARK  9 active torsions:
REMARK  status: ('A' for Active; 'I' for Inactive)
REMARK    1  A    between atoms: C2_2  and  O1_3 
REMARK    2  A    between atoms: O1_3  and  C3_4 
REMARK    3  A    between atoms: C3_4  and  C4_6 
REMARK    4  A    between atoms: C4_6  and  C5_7 
REMARK    5  A    between atoms: C4_6  and  N1_12 
REMARK    6  A    between atoms: C5_7  and  O3_8 
REMARK    7  A    between atoms: O3_8  and  C6_9 
REMARK    8  A    between atoms: N1_12  and  C8_14 
REMARK    9  A    between atoms: C8_14  and  C10_19 
ROOT
HETATM    1  C8  UNL     1      -2.592   3.674  12.482  1.00  0.00     0.092 C 
HETATM    2  N2  UNL     1      -1.701   2.984  11.997  1.00  0.00    -0.283 N 
ATOM      3  H2  UNL     1      -1.437   2.228  12.628  1.00  0.00     0.179 HD
HETATM    4  C9  UNL     1      -0.968   2.949  10.849  1.00  0.00     0.183 C 
HETATM    5  N3  UNL     1      -0.341   2.892   9.881  1.00  0.00    -0.172 NA
ENDROOT
BRANCH   1   6
HETATM    6  N1  UNL     1      -3.075   3.292  13.803  1.00  0.00    -0.363 N 
ATOM      7  H1  UNL     1      -3.029   3.989  14.547  1.00  0.00     0.161 HD
BRANCH   6   8
HETATM    8  C4  UNL     1      -3.603   2.018  14.124  1.00  0.00     0.207 C 
BRANCH   8   9
HETATM    9  C3  UNL     1      -3.915   1.836  15.558  1.00  0.00     0.283 C 
HETATM   10  O2  UNL     1      -3.318   0.930  16.186  1.00  0.00    -0.263 OA
BRANCH   9  11
HETATM   11  O1  UNL     1      -4.829   2.604  16.258  1.00  0.00    -0.320 OA
BRANCH  11  12
HETATM   12  C2  UNL     1      -5.574   2.017  17.312  1.00  0.00     0.174 C 
HETATM   13  C1  UNL     1      -6.800   1.315  16.829  1.00  0.00     0.034 C 
ENDBRANCH  11  12
ENDBRANCH   9  11
ENDBRANCH   8   9
BRANCH   8  14
HETATM   14  C5  UNL     1      -4.778   1.587  13.259  1.00  0.00     0.214 C 
BRANCH  14  15
HETATM   15  O3  UNL     1      -4.464   0.377  12.617  1.00  0.00    -0.319 OA
BRANCH  15  16
HETATM   16  C6  UNL     1      -3.889   0.357  11.360  1.00  0.00     0.254 C 
HETATM   17  C7  UNL     1      -2.993  -0.706  10.873  1.00  0.00     0.126 C 
HETATM   18  O4  UNL     1      -4.160   1.322  10.595  1.00  0.00    -0.266 OA
ENDBRANCH  15  16
ENDBRANCH  14  15
ENDBRANCH   8  14
ENDBRANCH   6   8
ENDBRANCH   1   6
BRANCH   1  19
HETATM   19  C10 UNL     1      -3.241   4.820  11.885  1.00  0.00     0.066 C 
HETATM   20  C11 UNL     1      -4.466   5.279  12.707  1.00  0.00     0.041 C 
HETATM   21  C12 UNL     1      -4.737   6.574  11.988  1.00  0.00    -0.006 C 
HETATM   22  C13 UNL     1      -3.602   7.070  11.519  1.00  0.00     0.012 C 
HETATM   23 CL1  UNL     1      -3.296   8.531  10.611  1.00  0.00    -0.089 Cl
HETATM   24  C14 UNL     1      -2.474   6.125  11.913  1.00  0.00     0.037 C 
HETATM   25  C15 UNL     1      -2.129   6.527  13.329  1.00  0.00     0.016 C 
ENDBRANCH   1  19
TORSDOF 9
ENDMDL
MODEL 2
REMARK VINA RESULT: -6.825774147      1.003      3.702
REMARK  9 active torsions:
REMARK  status: ('A' for Active; 'I' for Inactive)
REMARK    1  A    between atoms: C2_2  and  O1_3 
REMARK    2  A    between atoms: O1_3  and  C3_4 
REMARK    3  A    between atoms: C3_4  and  C4_6 
REMARK    4  A    between atoms: C4_6  and  C5_7 
REMARK    5  A    between atoms: C4_6  and  N1_12 
REMARK    6  A    between atoms: C5_7  and  O3_8 
REMARK    7  A    between atoms: O3_8  and  C6_9 
REMARK    8  A    between atoms: N1_12  and  C8_14 
REMARK    9  A    between atoms: C8_14  and  C10_19 
ROOT
HETATM    1  C8  UNL     1      -2.732   3.558  12.450  1.00  0.00     0.092 C 
HETATM    2  N2  UNL     1      -1.825   2.859  12.012  1.00  0.00    -0.283 N 
ATOM      3  H2  UNL     1      -1.606   2.095  12.651  1.00  0.00     0.179 HD
HETATM    4  C9  UNL     1      -1.030   2.820  10.906  1.00  0.00     0.183 C 
HETATM    5  N3  UNL     1      -0.352   2.760   9.974  1.00  0.00    -0.172 NA
ENDROOT
BRANCH   1   6
HETATM    6  N1  UNL     1      -3.293   3.175  13.741  1.00  0.00    -0.363 N 
ATOM      7  H1  UNL     1      -2.986   3.692  14.565  1.00  0.00     0.161 HD
BRANCH   6   8
HETATM    8  C4  UNL     1      -4.235   2.135  13.926  1.00  0.00     0.207 C 
BRANCH   8   9
HETATM    9  C3  UNL     1      -4.416   1.265  12.743  1.00  0.00     0.283 C 
HETATM   10  O2  UNL     1      -5.369   1.507  11.966  1.00  0.00    -0.263 OA
BRANCH   9  11
HETATM   11  O1  UNL     1      -3.598   0.192  12.437  1.00  0.00    -0.320 OA
BRANCH  11  12
HETATM   12  C2  UNL     1      -3.753  -0.473  11.194  1.00  0.00     0.174 C 
HETATM   13  C1  UNL     1      -2.944  -1.725  11.107  1.00  0.00     0.034 C 
ENDBRANCH  11  12
ENDBRANCH   9  11
ENDBRANCH   8   9
BRANCH   8  14
HETATM   14  C5  UNL     1      -4.016   1.302  15.179  1.00  0.00     0.214 C 
BRANCH  14  15
HETATM   15  O3  UNL     1      -5.203   0.622  15.499  1.00  0.00    -0.319 OA
BRANCH  15  16
HETATM   16  C6  UNL     1      -5.682   0.581  16.796  1.00  0.00     0.254 C 
HETATM   17  C7  UNL     1      -5.970   1.772  17.612  1.00  0.00     0.126 C 
HETATM   18  O4  UNL     1      -5.877  -0.561  17.294  1.00  0.00    -0.266 OA
ENDBRANCH  15  16
ENDBRANCH  14  15
ENDBRANCH   8  14
ENDBRANCH   6   8
ENDBRANCH   1   6
BRANCH   1  19
HETATM   19  C10 UNL     1      -3.331   4.716  11.826  1.00  0.00     0.066 C 
HETATM   20  C11 UNL     1      -4.520   5.262  12.649  1.00  0.00     0.041 C 
HETATM   21  C12 UNL     1      -4.735   6.546  11.894  1.00  0.00    -0.006 C 
HETATM   22  C13 UNL     1      -3.585   6.969  11.394  1.00  0.00     0.012 C 
HETATM   23 CL1  UNL     1      -3.218   8.384  10.437  1.00  0.00    -0.089 Cl
HETATM   24  C14 UNL     1      -2.500   5.981  11.803  1.00  0.00     0.037 C 
HETATM   25  C15 UNL     1      -2.114   6.409  13.202  1.00  0.00     0.016 C 
ENDBRANCH   1  19
TORSDOF 9
ENDMDL
MODEL 3
REMARK VINA RESULT: -6.750928257      1.625      4.659
REMARK  9 active torsions:
REMARK  status: ('A' for Active; 'I' for Inactive)
REMARK    1  A    between atoms: C2_2  and  O1_3 
REMARK    2  A    between atoms: O1_3  and  C3_4 
REMARK    3  A    between atoms: C3_4  and  C4_6 
REMARK    4  A    between atoms: C4_6  and  C5_7 
REMARK    5  A    between atoms: C4_6  and  N1_12 
REMARK    6  A    between atoms: C5_7  and  O3_8 
REMARK    7  A    between atoms: O3_8  and  C6_9 
REMARK    8  A    between atoms: N1_12  and  C8_14 
REMARK    9  A    between atoms: C8_14  and  C10_19 
ROOT
HETATM    1  C8  UNL     1      -3.717   3.619  13.615  1.00  0.00     0.092 C 
HETATM    2  N2  UNL     1      -4.705   3.600  14.342  1.00  0.00    -0.283 N 
ATOM      3  H2  UNL     1      -5.136   2.676  14.354  1.00  0.00     0.179 HD
HETATM    4  C9  UNL     1      -5.384   4.473  15.139  1.00  0.00     0.183 C 
HETATM    5  N3  UNL     1      -5.971   5.190  15.828  1.00  0.00    -0.172 NA
ENDROOT
BRANCH   1   6
HETATM    6  N1  UNL     1      -3.371   2.373  12.943  1.00  0.00    -0.363 N 
ATOM      7  H1  UNL     1      -2.427   2.280  12.567  1.00  0.00     0.161 HD
BRANCH   6   8
HETATM    8  C4  UNL     1      -4.257   1.281  12.778  1.00  0.00     0.207 C 
BRANCH   8   9
HETATM    9  C3  UNL     1      -4.336   0.769  11.392  1.00  0.00     0.283 C 
HETATM   10  O2  UNL     1      -4.543   1.589  10.467  1.00  0.00    -0.263 OA
BRANCH   9  11
HETATM   11  O1  UNL     1      -4.197  -0.563  11.047  1.00  0.00    -0.320 OA
BRANCH  11  12
HETATM   12  C2  UNL     1      -2.908  -1.081  10.764  1.00  0.00     0.174 C 
HETATM   13  C1  UNL     1      -2.744  -2.495  11.217  1.00  0.00     0.034 C 
ENDBRANCH  11  12
ENDBRANCH   9  11
ENDBRANCH   8   9
BRANCH   8  14
HETATM   14  C5  UNL     1      -4.043   0.140  13.761  1.00  0.00     0.214 C 
BRANCH  14  15
HETATM   15  O3  UNL     1      -4.908   0.300  14.856  1.00  0.00    -0.319 OA
BRANCH  15  16
HETATM   16  C6  UNL     1      -4.485   0.906  16.025  1.00  0.00     0.254 C 
HETATM   17  C7  UNL     1      -5.357   1.187  17.178  1.00  0.00     0.126 C 
HETATM   18  O4  UNL     1      -3.269   1.235  16.087  1.00  0.00    -0.266 OA
ENDBRANCH  15  16
ENDBRANCH  14  15
ENDBRANCH   8  14
ENDBRANCH   6   8
ENDBRANCH   1   6
BRANCH   1  19
HETATM   19  C10 UNL     1      -2.835   4.735  13.358  1.00  0.00     0.066 C 
HETATM   20  C11 UNL     1      -1.701   4.357  12.378  1.00  0.00     0.041 C 
HETATM   21  C12 UNL     1      -1.150   5.738  12.141  1.00  0.00    -0.006 C 
HETATM   22  C13 UNL     1      -2.120   6.632  12.254  1.00  0.00     0.012 C 
HETATM   23 CL1  UNL     1      -2.082   8.370  12.088  1.00  0.00    -0.089 Cl
HETATM   24  C14 UNL     1      -3.413   5.889  12.568  1.00  0.00     0.037 C 
HETATM   25  C15 UNL     1      -3.916   5.430  11.217  1.00  0.00     0.016 C 
ENDBRANCH   1  19
TORSDOF 9
ENDMDL
MODEL 4
REMARK VINA RESULT: -6.747202119      3.303      5.524
REMARK  9 active torsions:
REMARK  status: ('A' for Active; 'I' for Inactive)
REMARK    1  A    between atoms: C2_2  and  O1_3 
REMARK    2  A    between atoms: O1_3  and  C3_4 
REMARK    3  A    between atoms: C3_4  and  C4_6 
REMARK    4  A    between atoms: C4_6  and  C5_7 
REMARK    5  A    between atoms: C4_6  and  N1_12 
REMARK    6  A    between atoms: C5_7  and  O3_8 
REMARK    7  A    between atoms: O3_8  and  C6_9 
REMARK    8  A    between atoms: N1_12  and  C8_14 
REMARK    9  A    between atoms: C8_14  and  C10_19 
ROOT
HETATM    1  C8  UNL     1      -3.776   2.497  13.186  1.00  0.00     0.092 C 
HETATM    2  N2  UNL     1      -3.832   2.171  12.005  1.00  0.00    -0.283 N 
ATOM      3  H2  UNL     1      -3.283   2.802  11.422  1.00  0.00     0.179 HD
HETATM    4  C9  UNL     1      -4.425   1.198  11.258  1.00  0.00     0.183 C 
HETATM    5  N3  UNL     1      -4.908   0.378  10.605  1.00  0.00    -0.172 NA
ENDROOT
BRANCH   1   6
HETATM    6  N1  UNL     1      -2.971   3.669  13.507  1.00  0.00    -0.363 N 
ATOM      7  H1  UNL     1      -2.693   3.805  14.480  1.00  0.00     0.161 HD
BRANCH   6   8
HETATM    8  C4  UNL     1      -2.547   4.632  12.560  1.00  0.00     0.207 C 
BRANCH   8   9
HETATM    9  C3  UNL     1      -2.945   6.019  12.887  1.00  0.00     0.283 C 
HETATM   10  O2  UNL     1      -3.600   6.666  12.036  1.00  0.00    -0.263 OA
BRANCH   9  11
HETATM   11  O1  UNL     1      -2.638   6.654  14.077  1.00  0.00    -0.320 OA
BRANCH  11  12
HETATM   12  C2  UNL     1      -1.743   7.754  14.072  1.00  0.00     0.174 C 
HETATM   13  C1  UNL     1      -1.704   8.470  15.382  1.00  0.00     0.034 C 
ENDBRANCH  11  12
ENDBRANCH   9  11
ENDBRANCH   8   9
BRANCH   8  14
HETATM   14  C5  UNL     1      -1.069   4.564  12.210  1.00  0.00     0.214 C 
BRANCH  14  15
HETATM   15  O3  UNL     1      -0.698   3.224  12.012  1.00  0.00    -0.319 OA
BRANCH  15  16
HETATM   16  C6  UNL     1      -0.556   2.696  10.742  1.00  0.00     0.254 C 
HETATM   17  C7  UNL     1       0.162   3.361   9.641  1.00  0.00     0.126 C 
HETATM   18  O4  UNL     1      -1.086   1.571  10.532  1.00  0.00    -0.266 OA
ENDBRANCH  15  16
ENDBRANCH  14  15
ENDBRANCH   8  14
ENDBRANCH   6   8
ENDBRANCH   1   6
BRANCH   1  19
HETATM   19  C10 UNL     1      -4.402   1.840  14.312  1.00  0.00     0.066 C 
HETATM   20  C11 UNL     1      -3.543   1.948  15.592  1.00  0.00     0.041 C 
HETATM   21  C12 UNL     1      -4.550   1.415  16.575  1.00  0.00    -0.006 C 
HETATM   22  C13 UNL     1      -5.774   1.706  16.163  1.00  0.00     0.012 C 
HETATM   23 CL1  UNL     1      -7.325   1.348  16.883  1.00  0.00    -0.089 Cl
HETATM   24  C14 UNL     1      -5.662   2.480  14.856  1.00  0.00     0.037 C 
HETATM   25  C15 UNL     1      -5.408   3.907  15.289  1.00  0.00     0.016 C 
ENDBRANCH   1  19
TORSDOF 9
ENDMDL
MODEL 5
REMARK VINA RESULT: -6.688613018      1.943      4.572
REMARK  9 active torsions:
REMARK  status: ('A' for Active; 'I' for Inactive)
REMARK    1  A    between atoms: C2_2  and  O1_3 
REMARK    2  A    between atoms: O1_3  and  C3_4 
REMARK    3  A    between atoms: C3_4  and  C4_6 
REMARK    4  A    between atoms: C4_6  and  C5_7 
REMARK    5  A    between atoms: C4_6  and  N1_12 
REMARK    6  A    between atoms: C5_7  and  O3_8 
REMARK    7  A    between atoms: O3_8  and  C6_9 
REMARK    8  A    between atoms: N1_12  and  C8_14 
REMARK    9  A    between atoms: C8_14  and  C10_19 
ROOT
HETATM    1  C8  UNL     1      -2.291   4.275  12.795  1.00  0.00     0.092 C 
HETATM    2  N2  UNL     1      -2.644   5.280  13.403  1.00  0.00    -0.283 N 
ATOM      3  H2  UNL     1      -3.380   5.065  14.075  1.00  0.00     0.179 HD
HETATM    4  C9  UNL     1      -2.324   6.605  13.427  1.00  0.00     0.183 C 
HETATM    5  N3  UNL     1      -2.064   7.728  13.474  1.00  0.00    -0.172 NA
ENDROOT
BRANCH   1   6
HETATM    6  N1  UNL     1      -2.963   3.028  13.140  1.00  0.00    -0.363 N 
ATOM      7  H1  UNL     1      -2.394   2.268  13.515  1.00  0.00     0.161 HD
BRANCH   6   8
HETATM    8  C4  UNL     1      -4.353   2.801  12.991  1.00  0.00     0.207 C 
BRANCH   8   9
HETATM    9  C3  UNL     1      -4.688   1.563  12.254  1.00  0.00     0.283 C 
HETATM   10  O2  UNL     1      -5.436   1.652  11.252  1.00  0.00    -0.263 OA
BRANCH   9  11
HETATM   11  O1  UNL     1      -4.229   0.305  12.600  1.00  0.00    -0.320 OA
BRANCH  11  12
HETATM   12  C2  UNL     1      -4.045  -0.675  11.592  1.00  0.00     0.174 C 
HETATM   13  C1  UNL     1      -2.735  -0.539  10.890  1.00  0.00     0.034 C 
ENDBRANCH  11  12
ENDBRANCH   9  11
ENDBRANCH   8   9
BRANCH   8  14
HETATM   14  C5  UNL     1      -5.148   2.889  14.285  1.00  0.00     0.214 C 
BRANCH  14  15
HETATM   15  O3  UNL     1      -4.291   2.666  15.375  1.00  0.00    -0.319 OA
BRANCH  15  16
HETATM   16  C6  UNL     1      -4.349   1.495  16.108  1.00  0.00     0.254 C 
HETATM   17  C7  UNL     1      -5.517   1.066  16.896  1.00  0.00     0.126 C 
HETATM   18  O4  UNL     1      -3.323   0.762  16.090  1.00  0.00    -0.266 OA
ENDBRANCH  15  16
ENDBRANCH  14  15
ENDBRANCH   8  14
ENDBRANCH   6   8
ENDBRANCH   1   6
BRANCH   1  19
HETATM   19  C10 UNL     1      -1.264   4.173  11.783  1.00  0.00     0.066 C 
HETATM   20  C11 UNL     1      -1.157   2.740  11.215  1.00  0.00     0.041 C 
HETATM   21  C12 UNL     1      -0.226   3.030  10.069  1.00  0.00    -0.006 C 
HETATM   22  C13 UNL     1      -0.419   4.267   9.637  1.00  0.00     0.012 C 
HETATM   23 CL1  UNL     1       0.361   5.151   8.348  1.00  0.00    -0.089 Cl
HETATM   24  C14 UNL     1      -1.526   4.893  10.477  1.00  0.00     0.037 C 
HETATM   25  C15 UNL     1      -2.804   4.407   9.830  1.00  0.00     0.016 C 
ENDBRANCH   1  19
TORSDOF 9
ENDMDL
