MODEL 1
REMARK VINA RESULT: -6.546930282      0.000      0.000
REMARK  6 active torsions:
REMARK  status: ('A' for Active; 'I' for Inactive)
REMARK    1  A    between atoms: O1_1  and  C1_3 
REMARK    2  A    between atoms: C1_3  and  C2_4 
REMARK    3  A    between atoms: N1_12  and  C8_13 
REMARK    4  A    between atoms: C8_13  and  C9_14 
REMARK    5  A    between atoms: C9_14  and  C10_15 
REMARK    6  A    between atoms: C10_15  and  N2_16 
ROOT
HETATM    1  C1  UNL     1      12.943  -8.255  10.368  1.00  0.00     0.094 C 
HETATM    2  C6  UNL     1      13.142  -6.936   9.585  1.00  0.00     0.073 C 
HETATM    3  C7  UNL     1      11.749  -6.622   9.134  1.00  0.00     0.276 C 
HETATM    4  N1  UNL     1      11.019  -6.076  10.237  1.00  0.00     0.088 N 
HETATM    5  C13 UNL     1      11.308  -6.673  11.490  1.00  0.00     0.276 C 
HETATM    6  C14 UNL     1      12.009  -8.006  11.490  1.00  0.00     0.073 C 
ENDROOT
BRANCH   4   7
HETATM    7  C8  UNL     1      11.235  -4.643  10.203  1.00  0.00     0.274 C 
BRANCH   7   8
HETATM    8  C9  UNL     1      10.628  -3.962   9.015  1.00  0.00     0.050 C 
BRANCH   8   9
HETATM    9  C10 UNL     1      11.392  -2.647   8.753  1.00  0.00     0.132 C 
BRANCH   9  10
HETATM   10  N2  UNL     1      12.129  -2.766   7.538  1.00  0.00    -0.337 N 
HETATM   11  C11 UNL     1      12.472  -3.820   6.840  1.00  0.00     0.200 A 
HETATM   12  N3  UNL     1      13.157  -3.469   5.736  1.00  0.00    -0.295 N 
HETATM   13  N4  UNL     1      13.218  -2.122   5.796  1.00  0.00    -0.295 N 
ATOM     14  H3  UNL     1      13.543  -4.081   5.017  1.00  0.00     0.187 HD
HETATM   15  C12 UNL     1      12.601  -1.656   6.881  1.00  0.00     0.200 A 
ATOM     16  H4  UNL     1      13.677  -1.535   5.099  1.00  0.00     0.187 HD
ENDBRANCH   9  10
ENDBRANCH   8   9
ENDBRANCH   7   8
ENDBRANCH   4   7
BRANCH   1  17
HETATM   17  O1  UNL     1      14.198  -8.686  10.726  1.00  0.00    -0.384 OA
ATOM     18  H1  UNL     1      14.585  -7.985  11.239  1.00  0.00     0.211 HD
ENDBRANCH   1  17
BRANCH   1  19
HETATM   19  C2  UNL     1      12.441  -9.226   9.340  1.00  0.00     0.018 A 
HETATM   20  C3  UNL     1      12.937  -9.637   8.158  1.00  0.00     0.019 A 
HETATM   21  C4  UNL     1      12.240 -10.565   7.468  1.00  0.00     0.028 A 
HETATM   22  C5  UNL     1      11.080 -11.012   8.029  1.00  0.00     0.052 A 
HETATM   23 BR1  UNL     1       9.820 -12.295   7.334  1.00  0.00    -0.043 Br
HETATM   24  S1  UNL     1      11.007 -10.130   9.483  1.00  0.00    -0.084 SA
ENDBRANCH   1  19
TORSDOF 6
ENDMDL
MODEL 2
REMARK VINA RESULT: -6.380486668      2.494      2.836
REMARK  6 active torsions:
REMARK  status: ('A' for Active; 'I' for Inactive)
REMARK    1  A    between atoms: O1_1  and  C1_3 
REMARK    2  A    between atoms: C1_3  and  C2_4 
REMARK    3  A    between atoms: N1_12  and  C8_13 
REMARK    4  A    between atoms: C8_13  and  C9_14 
REMARK    5  A    between atoms: C9_14  and  C10_15 
REMARK    6  A    between atoms: C10_15  and  N2_16 
ROOT
HETATM    1  C1  UNL     1      12.539  -7.863  10.077  1.00  0.00     0.094 C 
HETATM    2  C6  UNL     1      12.663  -6.347  10.359  1.00  0.00     0.073 C 
HETATM    3  C7  UNL     1      12.159  -5.745   9.084  1.00  0.00     0.276 C 
HETATM    4  N1  UNL     1      10.730  -5.816   9.073  1.00  0.00     0.088 N 
HETATM    5  C13 UNL     1      10.194  -7.003   9.630  1.00  0.00     0.276 C 
HETATM    6  C14 UNL     1      11.118  -8.180   9.804  1.00  0.00     0.073 C 
ENDROOT
BRANCH   4   7
HETATM    7  C8  UNL     1      10.255  -4.601   9.706  1.00  0.00     0.274 C 
BRANCH   7   8
HETATM    8  C9  UNL     1      11.118  -3.403   9.454  1.00  0.00     0.050 C 
BRANCH   8   9
HETATM    9  C10 UNL     1      10.568  -2.645   8.228  1.00  0.00     0.132 C 
BRANCH   9  10
HETATM   10  N2  UNL     1      11.586  -2.560   7.232  1.00  0.00    -0.337 N 
HETATM   11  C11 UNL     1      12.332  -1.554   6.848  1.00  0.00     0.200 A 
HETATM   12  N3  UNL     1      13.186  -1.926   5.877  1.00  0.00    -0.295 N 
HETATM   13  N4  UNL     1      12.918  -3.235   5.681  1.00  0.00    -0.295 N 
ATOM     14  H3  UNL     1      13.878  -1.351   5.398  1.00  0.00     0.187 HD
HETATM   15  C12 UNL     1      11.948  -3.658   6.490  1.00  0.00     0.200 A 
ATOM     16  H4  UNL     1      13.398  -3.825   5.001  1.00  0.00     0.187 HD
ENDBRANCH   9  10
ENDBRANCH   8   9
ENDBRANCH   7   8
ENDBRANCH   4   7
BRANCH   1  17
HETATM   17  O1  UNL     1      13.091  -8.505  11.159  1.00  0.00    -0.384 OA
ATOM     18  H1  UNL     1      12.991  -7.917  11.900  1.00  0.00     0.211 HD
ENDBRANCH   1  17
BRANCH   1  19
HETATM   19  C2  UNL     1      13.467  -8.105   8.924  1.00  0.00     0.018 A 
HETATM   20  C3  UNL     1      13.462  -9.009   7.927  1.00  0.00     0.019 A 
HETATM   21  C4  UNL     1      14.449  -8.942   7.007  1.00  0.00     0.028 A 
HETATM   22  C5  UNL     1      15.378  -7.957   7.167  1.00  0.00     0.052 A 
HETATM   23 BR1  UNL     1      16.928  -7.574   6.086  1.00  0.00    -0.043 Br
HETATM   24  S1  UNL     1      14.845  -7.170   8.579  1.00  0.00    -0.084 SA
ENDBRANCH   1  19
TORSDOF 6
ENDMDL
MODEL 3
REMARK VINA RESULT: -6.377832193      4.512      7.540
REMARK  6 active torsions:
REMARK  status: ('A' for Active; 'I' for Inactive)
REMARK    1  A    between atoms: O1_1  and  C1_3 
REMARK    2  A    between atoms: C1_3  and  C2_4 
REMARK    3  A    between atoms: N1_12  and  C8_13 
REMARK    4  A    between atoms: C8_13  and  C9_14 
REMARK    5  A    between atoms: C9_14  and  C10_15 
REMARK    6  A    between atoms: C10_15  and  N2_16 
ROOT
HETATM    1  C1  UNL     1      14.367  -7.230   8.765  1.00  0.00     0.094 C 
HETATM    2  C6  UNL     1      13.435  -8.190   9.540  1.00  0.00     0.073 C 
HETATM    3  C7  UNL     1      12.374  -8.489   8.528  1.00  0.00     0.276 C 
HETATM    4  N1  UNL     1      12.885  -9.442   7.591  1.00  0.00     0.088 N 
HETATM    5  C13 UNL     1      14.248  -9.260   7.249  1.00  0.00     0.276 C 
HETATM    6  C14 UNL     1      14.884  -7.933   7.568  1.00  0.00     0.073 C 
ENDROOT
BRANCH   4   7
HETATM    7  C8  UNL     1      12.583 -10.752   8.133  1.00  0.00     0.274 C 
BRANCH   7   8
HETATM    8  C9  UNL     1      11.176 -11.204   7.890  1.00  0.00     0.050 C 
BRANCH   8   9
HETATM    9  C10 UNL     1      11.107 -12.735   8.074  1.00  0.00     0.132 C 
BRANCH   9  10
HETATM   10  N2  UNL     1      10.020 -13.251   7.309  1.00  0.00    -0.337 N 
HETATM   11  C11 UNL     1       9.709 -14.479   6.977  1.00  0.00     0.200 A 
HETATM   12  N3  UNL     1       8.574 -14.514   6.253  1.00  0.00    -0.295 N 
HETATM   13  N4  UNL     1       8.202 -13.221   6.156  1.00  0.00    -0.295 N 
ATOM     14  H3  UNL     1       8.103 -15.332   5.866  1.00  0.00     0.187 HD
HETATM   15  C12 UNL     1       9.058 -12.419   6.788  1.00  0.00     0.200 A 
ATOM     16  H4  UNL     1       7.370 -12.897   5.662  1.00  0.00     0.187 HD
ENDBRANCH   9  10
ENDBRANCH   8   9
ENDBRANCH   7   8
ENDBRANCH   4   7
BRANCH   1  17
HETATM   17  O1  UNL     1      15.319  -6.806   9.660  1.00  0.00    -0.384 OA
ATOM     18  H1  UNL     1      16.081  -6.565   9.146  1.00  0.00     0.211 HD
ENDBRANCH   1  17
BRANCH   1  19
HETATM   19  C2  UNL     1      13.507  -6.037   8.466  1.00  0.00     0.018 A 
HETATM   20  C3  UNL     1      13.284  -5.336   7.338  1.00  0.00     0.019 A 
HETATM   21  C4  UNL     1      12.411  -4.307   7.396  1.00  0.00     0.028 A 
HETATM   22  C5  UNL     1      11.825  -4.059   8.601  1.00  0.00     0.052 A 
HETATM   23 BR1  UNL     1      10.566  -2.675   9.069  1.00  0.00    -0.043 Br
HETATM   24  S1  UNL     1      12.505  -5.259   9.599  1.00  0.00    -0.084 SA
ENDBRANCH   1  19
TORSDOF 6
ENDMDL
MODEL 4
REMARK VINA RESULT: -6.300273573      3.986      6.835
REMARK  6 active torsions:
REMARK  status: ('A' for Active; 'I' for Inactive)
REMARK    1  A    between atoms: O1_1  and  C1_3 
REMARK    2  A    between atoms: C1_3  and  C2_4 
REMARK    3  A    between atoms: N1_12  and  C8_13 
REMARK    4  A    between atoms: C8_13  and  C9_14 
REMARK    5  A    between atoms: C9_14  and  C10_15 
REMARK    6  A    between atoms: C10_15  and  N2_16 
ROOT
HETATM    1  C1  UNL     1      14.414  -7.234   8.764  1.00  0.00     0.094 C 
HETATM    2  C6  UNL     1      13.530  -8.186   9.604  1.00  0.00     0.073 C 
HETATM    3  C7  UNL     1      12.423  -8.514   8.651  1.00  0.00     0.276 C 
HETATM    4  N1  UNL     1      12.896  -9.481   7.708  1.00  0.00     0.088 N 
HETATM    5  C13 UNL     1      14.239  -9.295   7.295  1.00  0.00     0.276 C 
HETATM    6  C14 UNL     1      14.877  -7.957   7.557  1.00  0.00     0.073 C 
ENDROOT
BRANCH   4   7
HETATM    7  C8  UNL     1      12.632 -10.782   8.290  1.00  0.00     0.274 C 
BRANCH   7   8
HETATM    8  C9  UNL     1      11.331 -10.871   9.025  1.00  0.00     0.050 C 
BRANCH   8   9
HETATM    9  C10 UNL     1      11.505 -11.820  10.229  1.00  0.00     0.132 C 
BRANCH   9  10
HETATM   10  N2  UNL     1      12.144 -11.117  11.293  1.00  0.00    -0.337 N 
HETATM   11  C11 UNL     1      13.346 -11.233  11.801  1.00  0.00     0.200 A 
HETATM   12  N3  UNL     1      13.541 -10.347  12.795  1.00  0.00    -0.295 N 
HETATM   13  N4  UNL     1      12.375  -9.672  12.873  1.00  0.00    -0.295 N 
ATOM     14  H3  UNL     1      14.379 -10.216  13.362  1.00  0.00     0.187 HD
HETATM   15  C12 UNL     1      11.498 -10.113  11.972  1.00  0.00     0.200 A 
ATOM     16  H4  UNL     1      12.188  -8.920  13.537  1.00  0.00     0.187 HD
ENDBRANCH   9  10
ENDBRANCH   8   9
ENDBRANCH   7   8
ENDBRANCH   4   7
BRANCH   1  17
HETATM   17  O1  UNL     1      15.406  -6.784   9.603  1.00  0.00    -0.384 OA
ATOM     18  H1  UNL     1      15.910  -6.151   9.105  1.00  0.00     0.211 HD
ENDBRANCH   1  17
BRANCH   1  19
HETATM   19  C2  UNL     1      13.530  -6.054   8.485  1.00  0.00     0.018 A 
HETATM   20  C3  UNL     1      13.284  -5.346   7.367  1.00  0.00     0.019 A 
HETATM   21  C4  UNL     1      12.393  -4.334   7.443  1.00  0.00     0.028 A 
HETATM   22  C5  UNL     1      11.813  -4.109   8.656  1.00  0.00     0.052 A 
HETATM   23 BR1  UNL     1      10.534  -2.753   9.149  1.00  0.00    -0.043 Br
HETATM   24  S1  UNL     1      12.525  -5.306   9.635  1.00  0.00    -0.084 SA
ENDBRANCH   1  19
TORSDOF 6
ENDMDL
MODEL 5
REMARK VINA RESULT: -6.286375744      4.152      7.184
REMARK  6 active torsions:
REMARK  status: ('A' for Active; 'I' for Inactive)
REMARK    1  A    between atoms: O1_1  and  C1_3 
REMARK    2  A    between atoms: C1_3  and  C2_4 
REMARK    3  A    between atoms: N1_12  and  C8_13 
REMARK    4  A    between atoms: C8_13  and  C9_14 
REMARK    5  A    between atoms: C9_14  and  C10_15 
REMARK    6  A    between atoms: C10_15  and  N2_16 
ROOT
HETATM    1  C1  UNL     1      14.338  -7.251   8.780  1.00  0.00     0.094 C 
HETATM    2  C6  UNL     1      13.421  -8.191   9.596  1.00  0.00     0.073 C 
HETATM    3  C7  UNL     1      12.329  -8.496   8.618  1.00  0.00     0.276 C 
HETATM    4  N1  UNL     1      12.805  -9.467   7.682  1.00  0.00     0.088 N 
HETATM    5  C13 UNL     1      14.160  -9.303   7.298  1.00  0.00     0.276 C 
HETATM    6  C14 UNL     1      14.815  -7.977   7.580  1.00  0.00     0.073 C 
ENDROOT
BRANCH   4   7
HETATM    7  C8  UNL     1      12.507 -10.766   8.252  1.00  0.00     0.274 C 
BRANCH   7   8
HETATM    8  C9  UNL     1      11.044 -11.042   8.412  1.00  0.00     0.050 C 
BRANCH   8   9
HETATM    9  C10 UNL     1      10.582 -11.954   7.256  1.00  0.00     0.132 C 
BRANCH   9  10
HETATM   10  N2  UNL     1       9.160 -12.070   7.289  1.00  0.00    -0.337 N 
HETATM   11  C11 UNL     1       8.321 -12.601   6.436  1.00  0.00     0.200 A 
HETATM   12  N3  UNL     1       7.053 -12.505   6.879  1.00  0.00    -0.295 N 
HETATM   13  N4  UNL     1       7.162 -11.876   8.068  1.00  0.00    -0.295 N 
ATOM     14  H3  UNL     1       6.203 -12.834   6.420  1.00  0.00     0.187 HD
HETATM   15  C12 UNL     1       8.433 -11.594   8.353  1.00  0.00     0.200 A 
ATOM     16  H4  UNL     1       6.373 -11.645   8.671  1.00  0.00     0.187 HD
ENDBRANCH   9  10
ENDBRANCH   8   9
ENDBRANCH   7   8
ENDBRANCH   4   7
BRANCH   1  17
HETATM   17  O1  UNL     1      15.319  -6.822   9.641  1.00  0.00    -0.384 OA
ATOM     18  H1  UNL     1      14.883  -6.296  10.302  1.00  0.00     0.211 HD
ENDBRANCH   1  17
BRANCH   1  19
HETATM   19  C2  UNL     1      13.481  -6.055   8.487  1.00  0.00     0.018 A 
HETATM   20  C3  UNL     1      13.247  -5.357   7.360  1.00  0.00     0.019 A 
HETATM   21  C4  UNL     1      12.380  -4.324   7.425  1.00  0.00     0.028 A 
HETATM   22  C5  UNL     1      11.809  -4.069   8.637  1.00  0.00     0.052 A 
HETATM   23 BR1  UNL     1      10.563  -2.678   9.114  1.00  0.00    -0.043 Br
HETATM   24  S1  UNL     1      12.496  -5.268   9.630  1.00  0.00    -0.084 SA
ENDBRANCH   1  19
TORSDOF 6
ENDMDL
