MODEL 1
REMARK VINA RESULT: -6.807381659      0.000      0.000
REMARK  5 active torsions:
REMARK  status: ('A' for Active; 'I' for Inactive)
REMARK    1  A    between atoms: O1_2  and  C2_3 
REMARK    2  A    between atoms: C2_3  and  C3_4 
REMARK    3  A    between atoms: C3_4  and  C4_5 
REMARK    4  A    between atoms: N1_9  and  C8_10 
REMARK    5  A    between atoms: C10_16  and  N4_17 
ROOT
HETATM    1  C8  UNL     1      -8.300   1.337  16.518  1.00  0.00     0.147 A 
HETATM    2  N2  UNL     1      -8.055   1.858  15.278  1.00  0.00    -0.336 N 
ATOM      3  H2  UNL     1      -7.287   1.498  14.711  1.00  0.00     0.168 HD
HETATM    4  C9  UNL     1      -8.834   2.847  14.813  1.00  0.00     0.183 A 
HETATM    5  N3  UNL     1      -9.852   3.332  15.554  1.00  0.00    -0.336 N 
ATOM      6  H3  UNL     1     -10.424   4.085  15.170  1.00  0.00     0.168 HD
HETATM    7  C10 UNL     1     -10.140   2.863  16.774  1.00  0.00     0.147 A 
HETATM    8  C16 UNL     1      -9.339   1.830  17.277  1.00  0.00     0.203 A 
HETATM    9  F1  UNL     1      -9.579   1.313  18.510  1.00  0.00    -0.198 F 
ENDROOT
BRANCH   1  10
HETATM   10  N1  UNL     1      -7.481   0.281  17.030  1.00  0.00    -0.364 N 
HETATM   11  C7  UNL     1      -6.581   0.433  18.146  1.00  0.00     0.124 C 
HETATM   12  C6  UNL     1      -6.847  -0.635  19.153  1.00  0.00     0.020 C 
HETATM   13  C5  UNL     1      -7.759  -1.738  18.671  1.00  0.00     0.008 C 
HETATM   14  C4  UNL     1      -7.349  -2.175  17.270  1.00  0.00     0.006 C 
HETATM   15  C17 UNL     1      -7.564  -1.004  16.372  1.00  0.00     0.129 C 
BRANCH  14  16
HETATM   16  C3  UNL     1      -5.951  -2.680  17.361  1.00  0.00     0.032 C 
BRANCH  16  17
HETATM   17  C2  UNL     1      -5.360  -3.153  16.071  1.00  0.00     0.167 C 
BRANCH  17  18
HETATM   18  O1  UNL     1      -6.073  -4.146  15.452  1.00  0.00    -0.396 OA
HETATM   19  C1  UNL     1      -6.062  -5.369  16.072  1.00  0.00     0.201 C 
ENDBRANCH  17  18
ENDBRANCH  16  17
ENDBRANCH  14  16
ENDBRANCH   1  10
BRANCH   7  20
HETATM   20  N4  UNL     1     -11.195   3.343  17.577  1.00  0.00    -0.361 N 
HETATM   21  C11 UNL     1     -10.992   4.579  18.323  1.00  0.00     0.143 C 
HETATM   22  C12 UNL     1     -11.242   4.214  19.783  1.00  0.00     0.134 C 
HETATM   23  N5  UNL     1     -12.571   3.711  19.971  1.00  0.00    -0.414 N 
HETATM   24  C13 UNL     1     -12.913   2.591  19.163  1.00  0.00     0.090 C 
ATOM     25  H5  UNL     1     -13.223   4.126  20.636  1.00  0.00     0.153 HD
HETATM   26  C14 UNL     1     -12.424   1.276  19.781  1.00  0.00     0.033 C 
HETATM   27  C15 UNL     1     -12.475   2.708  17.727  1.00  0.00     0.149 C 
ENDBRANCH   7  20
TORSDOF 5
ENDMDL
MODEL 2
REMARK VINA RESULT: -6.537222215      0.886      1.789
REMARK  5 active torsions:
REMARK  status: ('A' for Active; 'I' for Inactive)
REMARK    1  A    between atoms: O1_2  and  C2_3 
REMARK    2  A    between atoms: C2_3  and  C3_4 
REMARK    3  A    between atoms: C3_4  and  C4_5 
REMARK    4  A    between atoms: N1_9  and  C8_10 
REMARK    5  A    between atoms: C10_16  and  N4_17 
ROOT
HETATM    1  C8  UNL     1      -8.227   1.265  16.471  1.00  0.00     0.147 A 
HETATM    2  N2  UNL     1      -7.985   1.733  15.209  1.00  0.00    -0.336 N 
ATOM      3  H2  UNL     1      -7.243   1.323  14.641  1.00  0.00     0.168 HD
HETATM    4  C9  UNL     1      -8.732   2.737  14.723  1.00  0.00     0.183 A 
HETATM    5  N3  UNL     1      -9.716   3.289  15.464  1.00  0.00    -0.336 N 
ATOM      6  H3  UNL     1     -10.263   4.051  15.065  1.00  0.00     0.168 HD
HETATM    7  C10 UNL     1      -9.999   2.874  16.705  1.00  0.00     0.147 A 
HETATM    8  C16 UNL     1      -9.231   1.827  17.230  1.00  0.00     0.203 A 
HETATM    9  F1  UNL     1      -9.469   1.363  18.484  1.00  0.00    -0.198 F 
ENDROOT
BRANCH   1  10
HETATM   10  N1  UNL     1      -7.443   0.194  17.005  1.00  0.00    -0.364 N 
HETATM   11  C7  UNL     1      -6.589   0.324  18.159  1.00  0.00     0.124 C 
HETATM   12  C6  UNL     1      -6.908  -0.750  19.142  1.00  0.00     0.020 C 
HETATM   13  C5  UNL     1      -7.812  -1.837  18.612  1.00  0.00     0.008 C 
HETATM   14  C4  UNL     1      -7.349  -2.265  17.224  1.00  0.00     0.006 C 
HETATM   15  C17 UNL     1      -7.513  -1.082  16.331  1.00  0.00     0.129 C 
BRANCH  14  16
HETATM   16  C3  UNL     1      -5.962  -2.787  17.367  1.00  0.00     0.032 C 
BRANCH  16  17
HETATM   17  C2  UNL     1      -5.326  -3.261  16.099  1.00  0.00     0.167 C 
BRANCH  17  18
HETATM   18  O1  UNL     1      -6.049  -4.208  15.422  1.00  0.00    -0.396 OA
HETATM   19  C1  UNL     1      -6.244  -5.396  16.076  1.00  0.00     0.201 C 
ENDBRANCH  17  18
ENDBRANCH  16  17
ENDBRANCH  14  16
ENDBRANCH   1  10
BRANCH   7  20
HETATM   20  N4  UNL     1     -11.018   3.425  17.509  1.00  0.00    -0.361 N 
HETATM   21  C11 UNL     1     -12.300   2.734  17.575  1.00  0.00     0.143 C 
HETATM   22  C12 UNL     1     -13.335   3.762  17.128  1.00  0.00     0.134 C 
HETATM   23  N5  UNL     1     -13.325   4.912  17.983  1.00  0.00    -0.414 N 
HETATM   24  C13 UNL     1     -12.067   5.565  18.104  1.00  0.00     0.090 C 
ATOM     25  H5  UNL     1     -14.160   5.239  18.470  1.00  0.00     0.153 HD
HETATM   26  C14 UNL     1     -11.818   6.536  16.945  1.00  0.00     0.033 C 
HETATM   27  C15 UNL     1     -10.900   4.629  18.284  1.00  0.00     0.149 C 
ENDBRANCH   7  20
TORSDOF 5
ENDMDL
MODEL 3
REMARK VINA RESULT: -6.455254762      3.323      4.457
REMARK  5 active torsions:
REMARK  status: ('A' for Active; 'I' for Inactive)
REMARK    1  A    between atoms: O1_2  and  C2_3 
REMARK    2  A    between atoms: C2_3  and  C3_4 
REMARK    3  A    between atoms: C3_4  and  C4_5 
REMARK    4  A    between atoms: N1_9  and  C8_10 
REMARK    5  A    between atoms: C10_16  and  N4_17 
ROOT
HETATM    1  C8  UNL     1      -6.477   0.600  18.305  1.00  0.00     0.147 A 
HETATM    2  N2  UNL     1      -5.890   1.541  19.105  1.00  0.00    -0.336 N 
ATOM      3  H2  UNL     1      -5.574   1.296  20.043  1.00  0.00     0.168 HD
HETATM    4  C9  UNL     1      -5.732   2.792  18.643  1.00  0.00     0.183 A 
HETATM    5  N3  UNL     1      -6.146   3.130  17.403  1.00  0.00    -0.336 N 
ATOM      6  H3  UNL     1      -6.011   4.089  17.085  1.00  0.00     0.168 HD
HETATM    7  C10 UNL     1      -6.727   2.252  16.576  1.00  0.00     0.147 A 
HETATM    8  C16 UNL     1      -6.900   0.942  17.040  1.00  0.00     0.203 A 
HETATM    9  F1  UNL     1      -7.486   0.006  16.248  1.00  0.00    -0.198 F 
ENDROOT
BRANCH   1  10
HETATM   10  N1  UNL     1      -6.652  -0.739  18.779  1.00  0.00    -0.364 N 
HETATM   11  C7  UNL     1      -7.077  -1.066  20.117  1.00  0.00     0.124 C 
HETATM   12  C6  UNL     1      -8.238  -2.000  20.059  1.00  0.00     0.020 C 
HETATM   13  C5  UNL     1      -8.511  -2.577  18.690  1.00  0.00     0.008 C 
HETATM   14  C4  UNL     1      -7.204  -3.034  18.051  1.00  0.00     0.006 C 
HETATM   15  C17 UNL     1      -6.371  -1.814  17.855  1.00  0.00     0.129 C 
BRANCH  14  16
HETATM   16  C3  UNL     1      -6.628  -4.084  18.936  1.00  0.00     0.032 C 
BRANCH  16  17
HETATM   17  C2  UNL     1      -5.862  -5.158  18.232  1.00  0.00     0.167 C 
BRANCH  17  18
HETATM   18  O1  UNL     1      -6.314  -5.443  16.970  1.00  0.00    -0.396 OA
HETATM   19  C1  UNL     1      -5.446  -5.167  15.945  1.00  0.00     0.201 C 
ENDBRANCH  17  18
ENDBRANCH  16  17
ENDBRANCH  14  16
ENDBRANCH   1  10
BRANCH   7  20
HETATM   20  N4  UNL     1      -7.172   2.567  15.276  1.00  0.00    -0.361 N 
HETATM   21  C11 UNL     1      -8.455   3.242  15.125  1.00  0.00     0.143 C 
HETATM   22  C12 UNL     1      -9.283   2.335  14.220  1.00  0.00     0.134 C 
HETATM   23  N5  UNL     1      -8.646   2.151  12.949  1.00  0.00    -0.414 N 
HETATM   24  C13 UNL     1      -7.320   1.638  13.007  1.00  0.00     0.090 C 
ATOM     25  H5  UNL     1      -9.110   2.371  12.068  1.00  0.00     0.153 HD
HETATM   26  C14 UNL     1      -7.308   0.110  13.134  1.00  0.00     0.033 C 
HETATM   27  C15 UNL     1      -6.457   2.274  14.064  1.00  0.00     0.149 C 
ENDBRANCH   7  20
TORSDOF 5
ENDMDL
MODEL 4
REMARK VINA RESULT: -6.288243568      1.541      1.945
REMARK  5 active torsions:
REMARK  status: ('A' for Active; 'I' for Inactive)
REMARK    1  A    between atoms: O1_2  and  C2_3 
REMARK    2  A    between atoms: C2_3  and  C3_4 
REMARK    3  A    between atoms: C3_4  and  C4_5 
REMARK    4  A    between atoms: N1_9  and  C8_10 
REMARK    5  A    between atoms: C10_16  and  N4_17 
ROOT
HETATM    1  C8  UNL     1      -8.011   0.235  16.346  1.00  0.00     0.147 A 
HETATM    2  N2  UNL     1      -7.977  -0.060  15.011  1.00  0.00    -0.336 N 
ATOM      3  H2  UNL     1      -7.530  -0.917  14.684  1.00  0.00     0.168 HD
HETATM    4  C9  UNL     1      -8.538   0.788  14.134  1.00  0.00     0.183 A 
HETATM    5  N3  UNL     1      -9.131   1.925  14.554  1.00  0.00    -0.336 N 
ATOM      6  H3  UNL     1      -9.547   2.547  13.861  1.00  0.00     0.168 HD
HETATM    7  C10 UNL     1      -9.195   2.267  15.847  1.00  0.00     0.147 A 
HETATM    8  C16 UNL     1      -8.616   1.395  16.777  1.00  0.00     0.203 A 
HETATM    9  F1  UNL     1      -8.646   1.688  18.104  1.00  0.00    -0.198 F 
ENDROOT
BRANCH   1  10
HETATM   10  N1  UNL     1      -7.420  -0.658  17.296  1.00  0.00    -0.364 N 
HETATM   11  C7  UNL     1      -6.542  -0.233  18.357  1.00  0.00     0.124 C 
HETATM   12  C6  UNL     1      -7.033  -0.769  19.659  1.00  0.00     0.020 C 
HETATM   13  C5  UNL     1      -8.121  -1.810  19.538  1.00  0.00     0.008 C 
HETATM   14  C4  UNL     1      -7.757  -2.815  18.451  1.00  0.00     0.006 C 
HETATM   15  C17 UNL     1      -7.723  -2.065  17.164  1.00  0.00     0.129 C 
BRANCH  14  16
HETATM   16  C3  UNL     1      -6.482  -3.464  18.864  1.00  0.00     0.032 C 
BRANCH  16  17
HETATM   17  C2  UNL     1      -6.354  -4.908  18.495  1.00  0.00     0.167 C 
BRANCH  17  18
HETATM   18  O1  UNL     1      -5.784  -5.131  17.269  1.00  0.00    -0.396 OA
HETATM   19  C1  UNL     1      -6.628  -5.582  16.287  1.00  0.00     0.201 C 
ENDBRANCH  17  18
ENDBRANCH  16  17
ENDBRANCH  14  16
ENDBRANCH   1  10
BRANCH   7  20
HETATM   20  N4  UNL     1      -9.806   3.445  16.324  1.00  0.00    -0.361 N 
HETATM   21  C11 UNL     1      -9.043   4.687  16.287  1.00  0.00     0.143 C 
HETATM   22  C12 UNL     1      -9.019   5.187  17.728  1.00  0.00     0.134 C 
HETATM   23  N5  UNL     1     -10.345   5.412  18.221  1.00  0.00    -0.414 N 
HETATM   24  C13 UNL     1     -11.215   4.288  18.151  1.00  0.00     0.090 C 
ATOM     25  H5  UNL     1     -10.644   6.312  18.595  1.00  0.00     0.153 HD
HETATM   26  C14 UNL     1     -11.025   3.349  19.348  1.00  0.00     0.033 C 
HETATM   27  C15 UNL     1     -11.140   3.529  16.852  1.00  0.00     0.149 C 
ENDBRANCH   7  20
TORSDOF 5
ENDMDL
MODEL 5
REMARK VINA RESULT: -6.228622588      3.790      4.921
REMARK  5 active torsions:
REMARK  status: ('A' for Active; 'I' for Inactive)
REMARK    1  A    between atoms: O1_2  and  C2_3 
REMARK    2  A    between atoms: C2_3  and  C3_4 
REMARK    3  A    between atoms: C3_4  and  C4_5 
REMARK    4  A    between atoms: N1_9  and  C8_10 
REMARK    5  A    between atoms: C10_16  and  N4_17 
ROOT
HETATM    1  C8  UNL     1      -7.989   0.401  19.914  1.00  0.00     0.147 A 
HETATM    2  N2  UNL     1      -9.321   0.604  19.679  1.00  0.00    -0.336 N 
ATOM      3  H2  UNL     1      -9.843  -0.041  19.087  1.00  0.00     0.168 HD
HETATM    4  C9  UNL     1      -9.935   1.661  20.236  1.00  0.00     0.183 A 
HETATM    5  N3  UNL     1      -9.254   2.523  21.020  1.00  0.00    -0.336 N 
ATOM      6  H3  UNL     1      -9.751   3.315  21.426  1.00  0.00     0.168 HD
HETATM    7  C10 UNL     1      -7.950   2.376  21.286  1.00  0.00     0.147 A 
HETATM    8  C16 UNL     1      -7.292   1.279  20.715  1.00  0.00     0.203 A 
HETATM    9  F1  UNL     1      -5.968   1.077  20.946  1.00  0.00    -0.198 F 
ENDROOT
BRANCH   1  10
HETATM   10  N1  UNL     1      -7.318  -0.721  19.332  1.00  0.00    -0.364 N 
HETATM   11  C7  UNL     1      -6.956  -1.908  20.066  1.00  0.00     0.124 C 
HETATM   12  C6  UNL     1      -7.467  -3.113  19.352  1.00  0.00     0.020 C 
HETATM   13  C5  UNL     1      -7.976  -2.846  17.956  1.00  0.00     0.008 C 
HETATM   14  C4  UNL     1      -6.997  -1.945  17.211  1.00  0.00     0.006 C 
HETATM   15  C17 UNL     1      -6.981  -0.639  17.929  1.00  0.00     0.129 C 
BRANCH  14  16
HETATM   16  C3  UNL     1      -5.699  -2.671  17.144  1.00  0.00     0.032 C 
BRANCH  16  17
HETATM   17  C2  UNL     1      -5.272  -3.087  15.772  1.00  0.00     0.167 C 
BRANCH  17  18
HETATM   18  O1  UNL     1      -4.924  -4.408  15.663  1.00  0.00    -0.396 OA
HETATM   19  C1  UNL     1      -5.876  -5.314  16.052  1.00  0.00     0.201 C 
ENDBRANCH  17  18
ENDBRANCH  16  17
ENDBRANCH  14  16
ENDBRANCH   1  10
BRANCH   7  20
HETATM   20  N4  UNL     1      -7.206   3.254  22.101  1.00  0.00    -0.361 N 
HETATM   21  C11 UNL     1      -6.592   4.423  21.482  1.00  0.00     0.143 C 
HETATM   22  C12 UNL     1      -5.103   4.307  21.793  1.00  0.00     0.134 C 
HETATM   23  N5  UNL     1      -4.869   4.291  23.206  1.00  0.00    -0.414 N 
HETATM   24  C13 UNL     1      -5.556   3.270  23.920  1.00  0.00     0.090 C 
ATOM     25  H5  UNL     1      -4.254   4.961  23.667  1.00  0.00     0.153 HD
HETATM   26  C14 UNL     1      -4.803   1.936  23.870  1.00  0.00     0.033 C 
HETATM   27  C15 UNL     1      -6.995   3.093  23.513  1.00  0.00     0.149 C 
ENDBRANCH   7  20
TORSDOF 5
ENDMDL
