MODEL 1
REMARK VINA RESULT: -11.366653779      0.000      0.000
REMARK  8 active torsions:
REMARK  status: ('A' for Active; 'I' for Inactive)
REMARK    1  A    between atoms: C3_4  and  N2_5 
REMARK       I    between atoms: N2_5  and  C4_6 
REMARK    2  A    between atoms: C4_6  and  C5_8 
REMARK    3  A    between atoms: C7_10  and  N3_11 
REMARK       I    between atoms: N3_11  and  C8_13 
REMARK       I    between atoms: C8_13  and  N4_14 
REMARK       I    between atoms: C8_13  and  N5_18 
REMARK    4  A    between atoms: N6_23  and  C10_24 
REMARK    5  A    between atoms: C11_28  and  C12_29 
REMARK    6  A    between atoms: C16_42  and  C17_43 
REMARK       I    between atoms: C17_43  and  N12_45 
REMARK    7  A    between atoms: N12_45  and  O5_46 
REMARK    8  A    between atoms: O5_46  and  C18_47 
ROOT
HETATM    1  C5  UNL     1      17.401  50.759  -8.208  1.00  0.00     0.123 A 
HETATM    2  C6  UNL     1      17.002  51.645  -7.255  1.00  0.00     0.067 A 
HETATM    3  C7  UNL     1      16.942  50.939  -6.047  1.00  0.00     0.049 A 
HETATM    4  C9  UNL     1      17.318  49.661  -6.323  1.00  0.00     0.125 A 
HETATM    5  N6  UNL     1      17.614  49.533  -7.639  1.00  0.00    -0.299 N 
ENDROOT
BRANCH   5   6
HETATM    6  C10 UNL     1      18.061  48.340  -8.221  1.00  0.00     0.441 C 
HETATM    7  N7  UNL     1      17.481  47.209  -7.449  1.00  0.00     0.004 N 
HETATM    8  C11 UNL     1      18.771  46.611  -7.875  1.00  0.00     0.405 C 
ATOM      9  H72 UNL     1      17.160  47.268  -6.483  1.00  0.00     0.286 HD
ATOM     10  H71 UNL     1      16.564  46.797  -7.621  1.00  0.00     0.286 HD
HETATM   11  O3  UNL     1      19.307  47.811  -7.869  1.00  0.00    -0.303 OA
BRANCH   8  12
HETATM   12  C12 UNL     1      19.105  45.442  -7.085  1.00  0.00     0.184 A 
HETATM   13  N8  UNL     1      20.246  45.278  -6.360  1.00  0.00    -0.321 N 
HETATM   14  C13 UNL     1      20.441  44.190  -5.657  1.00  0.00     0.129 A 
ATOM     15  H8  UNL     1      20.956  46.011  -6.364  1.00  0.00     0.169 HD
HETATM   16  N9  UNL     1      21.459  44.097  -4.809  1.00  0.00    -0.384 N 
HETATM   17  C14 UNL     1      19.476  43.219  -5.628  1.00  0.00     0.138 A 
ATOM     18  H92 UNL     1      22.178  44.819  -4.831  1.00  0.00     0.157 HD
ATOM     19  H91 UNL     1      21.611  43.250  -4.262  1.00  0.00     0.157 HD
HETATM   20  N10 UNL     1      19.660  42.061  -4.752  1.00  0.00    -0.094 NA
HETATM   21  C15 UNL     1      18.317  43.375  -6.354  1.00  0.00     0.187 A 
HETATM   22  N11 UNL     1      17.307  42.395  -6.313  1.00  0.00    -0.072 NA
HETATM   23  O2  UNL     1      18.182  44.475  -7.072  1.00  0.00    -0.276 OA
ENDBRANCH   8  12
ENDBRANCH   5   6
BRANCH   1  24
HETATM   24  C4  UNL     1      17.332  50.818  -9.675  1.00  0.00     0.343 C 
HETATM   25  N2  UNL     1      16.931  52.071 -10.040  1.00  0.00    -0.361 NA
HETATM   26  O1  UNL     1      17.489  49.977 -10.506  1.00  0.00    -0.249 OA
BRANCH  25  27
HETATM   27  C3  UNL     1      16.493  53.262 -10.518  1.00  0.00     0.163 A 
HETATM   28  C2  UNL     1      15.127  53.544 -10.812  1.00  0.00     0.157 A 
HETATM   29  N1  UNL     1      15.084  54.838 -11.238  1.00  0.00    -0.304 N 
HETATM   30  C1  UNL     1      13.929  55.553 -11.722  1.00  0.00     0.177 C 
HETATM   31  N14 UNL     1      16.309  55.293 -11.208  1.00  0.00    -0.290 N 
HETATM   32  C16 UNL     1      17.198  54.296 -10.758  1.00  0.00     0.176 A 
ATOM     33  H14 UNL     1      16.583  56.239 -11.473  1.00  0.00     0.187 HD
BRANCH  32  34
HETATM   34  C17 UNL     1      18.708  54.627 -11.020  1.00  0.00     0.376 C 
HETATM   35  O4  UNL     1      19.034  55.658 -10.663  1.00  0.00    -0.247 OA
HETATM   36  N12 UNL     1      18.997  53.451 -11.652  1.00  0.00    -0.225 NA
BRANCH  36  37
HETATM   37  O5  UNL     1      19.281  52.368 -12.240  1.00  0.00    -0.103 OA
BRANCH  37  38
HETATM   38  C18 UNL     1      20.463  51.713 -11.866  1.00  0.00     0.405 C 
HETATM   39  N13 UNL     1      20.671  51.606 -10.453  1.00  0.00    -0.030 NA
HETATM   40  O6  UNL     1      21.200  51.320 -12.743  1.00  0.00    -0.239 OA
ENDBRANCH  37  38
ENDBRANCH  36  37
ENDBRANCH  32  34
ENDBRANCH  25  27
ENDBRANCH   1  24
BRANCH   3  41
HETATM   41  N3  UNL     1      16.674  51.524  -4.773  1.00  0.00    -0.340 N 
HETATM   42  C8  UNL     1      17.352  52.522  -4.052  1.00  0.00     0.480 C 
HETATM   43  N4  UNL     1      17.834  53.623  -4.868  1.00  0.00    -0.033 N 
HETATM   44  N5  UNL     1      16.354  53.162  -3.146  1.00  0.00    -0.033 N 
ATOM     45  H43 UNL     1      18.416  53.274  -5.630  1.00  0.00     0.278 HD
ATOM     46  H42 UNL     1      17.069  54.029  -5.407  1.00  0.00     0.278 HD
ATOM     47  H41 UNL     1      18.326  54.348  -4.345  1.00  0.00     0.278 HD
ATOM     48  H53 UNL     1      15.533  53.513  -3.638  1.00  0.00     0.278 HD
ATOM     49  H52 UNL     1      15.871  52.494  -2.546  1.00  0.00     0.278 HD
ATOM     50  H51 UNL     1      16.846  53.887  -2.623  1.00  0.00     0.278 HD
ATOM     51  H3  UNL     1      15.848  51.153  -4.304  1.00  0.00     0.163 HD
ENDBRANCH   3  41
TORSDOF 8
ENDMDL
MODEL 2
REMARK VINA RESULT: -11.348300793      2.157      2.868
REMARK  8 active torsions:
REMARK  status: ('A' for Active; 'I' for Inactive)
REMARK    1  A    between atoms: C3_4  and  N2_5 
REMARK       I    between atoms: N2_5  and  C4_6 
REMARK    2  A    between atoms: C4_6  and  C5_8 
REMARK    3  A    between atoms: C7_10  and  N3_11 
REMARK       I    between atoms: N3_11  and  C8_13 
REMARK       I    between atoms: C8_13  and  N4_14 
REMARK       I    between atoms: C8_13  and  N5_18 
REMARK    4  A    between atoms: N6_23  and  C10_24 
REMARK    5  A    between atoms: C11_28  and  C12_29 
REMARK    6  A    between atoms: C16_42  and  C17_43 
REMARK       I    between atoms: C17_43  and  N12_45 
REMARK    7  A    between atoms: N12_45  and  O5_46 
REMARK    8  A    between atoms: O5_46  and  C18_47 
ROOT
HETATM    1  C5  UNL     1      17.823  49.692  -7.552  1.00  0.00     0.123 A 
HETATM    2  C6  UNL     1      17.650  50.998  -7.207  1.00  0.00     0.067 A 
HETATM    3  C7  UNL     1      16.756  51.016  -6.129  1.00  0.00     0.049 A 
HETATM    4  C9  UNL     1      16.438  49.720  -5.863  1.00  0.00     0.125 A 
HETATM    5  N6  UNL     1      17.090  48.894  -6.717  1.00  0.00    -0.299 N 
ENDROOT
BRANCH   5   6
HETATM    6  C10 UNL     1      16.989  47.497  -6.673  1.00  0.00     0.441 C 
HETATM    7  N7  UNL     1      18.298  46.957  -6.217  1.00  0.00     0.004 N 
HETATM    8  C11 UNL     1      17.851  45.860  -7.111  1.00  0.00     0.405 C 
ATOM      9  H72 UNL     1      19.189  47.446  -6.299  1.00  0.00     0.286 HD
ATOM     10  H71 UNL     1      18.569  46.838  -5.241  1.00  0.00     0.286 HD
HETATM   11  O3  UNL     1      17.194  46.742  -7.832  1.00  0.00    -0.303 OA
BRANCH   8  12
HETATM   12  C12 UNL     1      18.951  44.992  -7.484  1.00  0.00     0.184 A 
HETATM   13  N8  UNL     1      19.757  45.160  -8.568  1.00  0.00    -0.321 N 
HETATM   14  C13 UNL     1      20.743  44.330  -8.803  1.00  0.00     0.129 A 
ATOM     15  H8  UNL     1      19.591  45.940  -9.204  1.00  0.00     0.169 HD
HETATM   16  N9  UNL     1      21.641  44.584  -9.748  1.00  0.00    -0.384 N 
HETATM   17  C14 UNL     1      20.984  43.300  -7.933  1.00  0.00     0.138 A 
ATOM     18  H92 UNL     1      21.462  45.351 -10.396  1.00  0.00     0.157 HD
ATOM     19  H91 UNL     1      22.409  43.938  -9.931  1.00  0.00     0.157 HD
HETATM   20  N10 UNL     1      22.155  42.448  -8.148  1.00  0.00    -0.094 NA
HETATM   21  C15 UNL     1      20.179  43.122  -6.832  1.00  0.00     0.187 A 
HETATM   22  N11 UNL     1      20.431  42.082  -5.918  1.00  0.00    -0.072 NA
HETATM   23  O2  UNL     1      19.178  43.966  -6.657  1.00  0.00    -0.276 OA
ENDBRANCH   8  12
ENDBRANCH   5   6
BRANCH   1  24
HETATM   24  C4  UNL     1      18.364  49.076  -8.771  1.00  0.00     0.343 C 
HETATM   25  N2  UNL     1      17.661  49.547  -9.843  1.00  0.00    -0.361 NA
HETATM   26  O1  UNL     1      19.201  48.242  -8.929  1.00  0.00    -0.249 OA
BRANCH  25  27
HETATM   27  C3  UNL     1      17.004  49.908 -10.974  1.00  0.00     0.163 A 
HETATM   28  C2  UNL     1      16.632  48.991 -11.999  1.00  0.00     0.157 A 
HETATM   29  N1  UNL     1      15.972  49.717 -12.945  1.00  0.00    -0.304 N 
HETATM   30  C1  UNL     1      15.469  49.241 -14.209  1.00  0.00     0.177 C 
HETATM   31  N14 UNL     1      15.953  50.957 -12.531  1.00  0.00    -0.290 N 
HETATM   32  C16 UNL     1      16.609  51.077 -11.289  1.00  0.00     0.176 A 
ATOM     33  H14 UNL     1      15.522  51.731 -13.037  1.00  0.00     0.187 HD
BRANCH  32  34
HETATM   34  C17 UNL     1      16.942  52.556 -10.888  1.00  0.00     0.376 C 
HETATM   35  O4  UNL     1      16.121  53.081 -10.301  1.00  0.00    -0.247 OA
HETATM   36  N12 UNL     1      18.162  52.591 -11.501  1.00  0.00    -0.225 NA
BRANCH  36  37
HETATM   37  O5  UNL     1      19.294  52.640 -12.064  1.00  0.00    -0.103 OA
BRANCH  37  38
HETATM   38  C18 UNL     1      20.319  51.838 -11.542  1.00  0.00     0.405 C 
HETATM   39  N13 UNL     1      21.183  51.253 -12.522  1.00  0.00    -0.030 NA
HETATM   40  O6  UNL     1      20.375  51.694 -10.341  1.00  0.00    -0.239 OA
ENDBRANCH  37  38
ENDBRANCH  36  37
ENDBRANCH  32  34
ENDBRANCH  25  27
ENDBRANCH   1  24
BRANCH   3  41
HETATM   41  N3  UNL     1      16.392  52.182  -5.390  1.00  0.00    -0.340 N 
HETATM   42  C8  UNL     1      17.055  53.408  -5.213  1.00  0.00     0.480 C 
HETATM   43  N4  UNL     1      17.697  53.918  -6.411  1.00  0.00    -0.033 N 
HETATM   44  N5  UNL     1      16.011  54.431  -4.908  1.00  0.00    -0.033 N 
ATOM     45  H43 UNL     1      18.334  53.221  -6.799  1.00  0.00     0.278 HD
ATOM     46  H42 UNL     1      17.025  53.983  -7.176  1.00  0.00     0.278 HD
ATOM     47  H41 UNL     1      18.178  54.809  -6.283  1.00  0.00     0.278 HD
ATOM     48  H53 UNL     1      15.274  54.473  -5.611  1.00  0.00     0.278 HD
ATOM     49  H52 UNL     1      15.421  54.176  -4.116  1.00  0.00     0.278 HD
ATOM     50  H51 UNL     1      16.492  55.321  -4.779  1.00  0.00     0.278 HD
ATOM     51  H3  UNL     1      15.496  52.113  -4.908  1.00  0.00     0.163 HD
ENDBRANCH   3  41
TORSDOF 8
ENDMDL
MODEL 3
REMARK VINA RESULT: -11.295628332      4.392      6.140
REMARK  8 active torsions:
REMARK  status: ('A' for Active; 'I' for Inactive)
REMARK    1  A    between atoms: C3_4  and  N2_5 
REMARK       I    between atoms: N2_5  and  C4_6 
REMARK    2  A    between atoms: C4_6  and  C5_8 
REMARK    3  A    between atoms: C7_10  and  N3_11 
REMARK       I    between atoms: N3_11  and  C8_13 
REMARK       I    between atoms: C8_13  and  N4_14 
REMARK       I    between atoms: C8_13  and  N5_18 
REMARK    4  A    between atoms: N6_23  and  C10_24 
REMARK    5  A    between atoms: C11_28  and  C12_29 
REMARK    6  A    between atoms: C16_42  and  C17_43 
REMARK       I    between atoms: C17_43  and  N12_45 
REMARK    7  A    between atoms: N12_45  and  O5_46 
REMARK    8  A    between atoms: O5_46  and  C18_47 
ROOT
HETATM    1  C5  UNL     1      19.968  47.456  -8.957  1.00  0.00     0.123 A 
HETATM    2  C6  UNL     1      19.298  47.191  -7.803  1.00  0.00     0.067 A 
HETATM    3  C7  UNL     1      18.560  46.022  -8.023  1.00  0.00     0.049 A 
HETATM    4  C9  UNL     1      18.827  45.627  -9.297  1.00  0.00     0.125 A 
HETATM    5  N6  UNL     1      19.696  46.486  -9.882  1.00  0.00    -0.299 N 
ENDROOT
BRANCH   5   6
HETATM    6  C10 UNL     1      20.184  46.328 -11.186  1.00  0.00     0.441 C 
HETATM    7  N7  UNL     1      20.967  45.064 -11.231  1.00  0.00     0.004 N 
HETATM    8  C11 UNL     1      21.704  45.872 -12.233  1.00  0.00     0.405 C 
ATOM      9  H72 UNL     1      21.393  44.614 -10.421  1.00  0.00     0.286 HD
ATOM     10  H71 UNL     1      20.570  44.140 -11.407  1.00  0.00     0.286 HD
HETATM   11  O3  UNL     1      21.371  46.959 -11.572  1.00  0.00    -0.303 OA
BRANCH   8  12
HETATM   12  C12 UNL     1      23.017  45.319 -12.506  1.00  0.00     0.184 A 
HETATM   13  N8  UNL     1      23.950  45.870 -13.330  1.00  0.00    -0.321 N 
HETATM   14  C13 UNL     1      25.119  45.301 -13.489  1.00  0.00     0.129 A 
ATOM     15  H8  UNL     1      23.737  46.733 -13.828  1.00  0.00     0.169 HD
HETATM   16  N9  UNL     1      26.097  45.919 -14.143  1.00  0.00    -0.384 N 
HETATM   17  C14 UNL     1      25.417  44.157 -12.798  1.00  0.00     0.138 A 
ATOM     18  H92 UNL     1      25.876  46.770 -14.659  1.00  0.00     0.157 HD
ATOM     19  H91 UNL     1      27.007  45.476 -14.267  1.00  0.00     0.157 HD
HETATM   20  N10 UNL     1      26.765  43.596 -12.901  1.00  0.00    -0.094 NA
HETATM   21  C15 UNL     1      24.483  43.594 -11.959  1.00  0.00     0.187 A 
HETATM   22  N11 UNL     1      24.786  42.432 -11.225  1.00  0.00    -0.072 NA
HETATM   23  O2  UNL     1      23.307  44.187 -11.858  1.00  0.00    -0.276 OA
ENDBRANCH   8  12
ENDBRANCH   5   6
BRANCH   1  24
HETATM   24  C4  UNL     1      20.622  48.682  -9.438  1.00  0.00     0.343 C 
HETATM   25  N2  UNL     1      19.707  49.417 -10.133  1.00  0.00    -0.361 NA
HETATM   26  O1  UNL     1      21.756  49.047  -9.375  1.00  0.00    -0.249 OA
BRANCH  25  27
HETATM   27  C3  UNL     1      18.900  50.208 -10.884  1.00  0.00     0.163 A 
HETATM   28  C2  UNL     1      17.541  49.897 -11.180  1.00  0.00     0.157 A 
HETATM   29  N1  UNL     1      17.062  50.934 -11.924  1.00  0.00    -0.304 N 
HETATM   30  C1  UNL     1      15.755  51.040 -12.524  1.00  0.00     0.177 C 
HETATM   31  N14 UNL     1      18.041  51.788 -12.067  1.00  0.00    -0.290 N 
HETATM   32  C16 UNL     1      19.202  51.327 -11.414  1.00  0.00     0.176 A 
ATOM     33  H14 UNL     1      17.974  52.667 -12.579  1.00  0.00     0.187 HD
BRANCH  32  34
HETATM   34  C17 UNL     1      20.507  52.096 -11.819  1.00  0.00     0.376 C 
HETATM   35  O4  UNL     1      21.253  51.477 -12.414  1.00  0.00    -0.247 OA
HETATM   36  N12 UNL     1      20.173  53.265 -11.198  1.00  0.00    -0.225 NA
BRANCH  36  37
HETATM   37  O5  UNL     1      19.879  54.355 -10.626  1.00  0.00    -0.103 OA
BRANCH  37  38
HETATM   38  C18 UNL     1      18.799  55.089 -11.136  1.00  0.00     0.405 C 
HETATM   39  N13 UNL     1      17.509  54.538 -10.851  1.00  0.00    -0.030 NA
HETATM   40  O6  UNL     1      19.040  56.090 -11.774  1.00  0.00    -0.239 OA
ENDBRANCH  37  38
ENDBRANCH  36  37
ENDBRANCH  32  34
ENDBRANCH  25  27
ENDBRANCH   1  24
BRANCH   3  41
HETATM   41  N3  UNL     1      17.803  45.335  -7.027  1.00  0.00    -0.340 N 
HETATM   42  C8  UNL     1      16.637  45.702  -6.334  1.00  0.00     0.480 C 
HETATM   43  N4  UNL     1      15.643  46.373  -7.153  1.00  0.00    -0.033 N 
HETATM   44  N5  UNL     1      15.959  44.440  -5.916  1.00  0.00    -0.033 N 
ATOM     45  H43 UNL     1      16.052  47.184  -7.618  1.00  0.00     0.278 HD
ATOM     46  H42 UNL     1      15.409  45.805  -7.967  1.00  0.00     0.278 HD
ATOM     47  H41 UNL     1      14.796  46.640  -6.649  1.00  0.00     0.278 HD
ATOM     48  H53 UNL     1      15.779  43.806  -6.694  1.00  0.00     0.278 HD
ATOM     49  H52 UNL     1      16.565  43.819  -5.379  1.00  0.00     0.278 HD
ATOM     50  H51 UNL     1      15.113  44.707  -5.412  1.00  0.00     0.278 HD
ATOM     51  H3  UNL     1      18.173  44.418  -6.774  1.00  0.00     0.163 HD
ENDBRANCH   3  41
TORSDOF 8
ENDMDL
MODEL 4
REMARK VINA RESULT: -11.280345235      3.160      6.395
REMARK  8 active torsions:
REMARK  status: ('A' for Active; 'I' for Inactive)
REMARK    1  A    between atoms: C3_4  and  N2_5 
REMARK       I    between atoms: N2_5  and  C4_6 
REMARK    2  A    between atoms: C4_6  and  C5_8 
REMARK    3  A    between atoms: C7_10  and  N3_11 
REMARK       I    between atoms: N3_11  and  C8_13 
REMARK       I    between atoms: C8_13  and  N4_14 
REMARK       I    between atoms: C8_13  and  N5_18 
REMARK    4  A    between atoms: N6_23  and  C10_24 
REMARK    5  A    between atoms: C11_28  and  C12_29 
REMARK    6  A    between atoms: C16_42  and  C17_43 
REMARK       I    between atoms: C17_43  and  N12_45 
REMARK    7  A    between atoms: N12_45  and  O5_46 
REMARK    8  A    between atoms: O5_46  and  C18_47 
ROOT
HETATM    1  C5  UNL     1      17.200  48.554 -11.410  1.00  0.00     0.123 A 
HETATM    2  C6  UNL     1      17.995  47.468 -11.611  1.00  0.00     0.067 A 
HETATM    3  C7  UNL     1      18.318  46.964 -10.345  1.00  0.00     0.049 A 
HETATM    4  C9  UNL     1      17.694  47.761  -9.437  1.00  0.00     0.125 A 
HETATM    5  N6  UNL     1      16.995  48.734 -10.070  1.00  0.00    -0.299 N 
ENDROOT
BRANCH   5   6
HETATM    6  C10 UNL     1      16.223  49.694  -9.402  1.00  0.00     0.441 C 
HETATM    7  N7  UNL     1      17.147  50.718  -8.845  1.00  0.00     0.004 N 
HETATM    8  C11 UNL     1      16.069  50.745  -7.825  1.00  0.00     0.405 C 
ATOM      9  H72 UNL     1      18.134  50.562  -8.643  1.00  0.00     0.286 HD
ATOM     10  H71 UNL     1      17.485  51.534  -9.355  1.00  0.00     0.286 HD
HETATM   11  O3  UNL     1      15.825  49.478  -8.079  1.00  0.00    -0.303 OA
BRANCH   8  12
HETATM   12  C12 UNL     1      16.512  51.375  -6.596  1.00  0.00     0.184 A 
HETATM   13  N8  UNL     1      16.858  52.684  -6.460  1.00  0.00    -0.321 N 
HETATM   14  C13 UNL     1      17.222  53.162  -5.296  1.00  0.00     0.129 A 
ATOM     15  H8  UNL     1      16.835  53.299  -7.273  1.00  0.00     0.169 HD
HETATM   16  N9  UNL     1      17.386  54.468  -5.113  1.00  0.00    -0.384 N 
HETATM   17  C14 UNL     1      17.225  52.343  -4.198  1.00  0.00     0.138 A 
ATOM     18  H92 UNL     1      17.384  55.077  -5.931  1.00  0.00     0.157 HD
ATOM     19  H91 UNL     1      17.669  54.840  -4.207  1.00  0.00     0.157 HD
HETATM   20  N10 UNL     1      17.526  52.917  -2.886  1.00  0.00    -0.094 NA
HETATM   21  C15 UNL     1      16.873  51.019  -4.322  1.00  0.00     0.187 A 
HETATM   22  N11 UNL     1      16.850  50.174  -3.197  1.00  0.00    -0.072 NA
HETATM   23  O2  UNL     1      16.547  50.578  -5.524  1.00  0.00    -0.276 OA
ENDBRANCH   8  12
ENDBRANCH   5   6
BRANCH   1  24
HETATM   24  C4  UNL     1      16.826  49.660 -12.304  1.00  0.00     0.343 C 
HETATM   25  N2  UNL     1      17.595  50.745 -11.996  1.00  0.00    -0.361 NA
HETATM   26  O1  UNL     1      15.971  49.751 -13.130  1.00  0.00    -0.249 OA
BRANCH  25  27
HETATM   27  C3  UNL     1      18.266  51.898 -11.748  1.00  0.00     0.163 A 
HETATM   28  C2  UNL     1      17.636  53.172 -11.642  1.00  0.00     0.157 A 
HETATM   29  N1  UNL     1      18.625  54.068 -11.362  1.00  0.00    -0.304 N 
HETATM   30  C1  UNL     1      18.489  55.498 -11.238  1.00  0.00     0.177 C 
HETATM   31  N14 UNL     1      19.746  53.398 -11.308  1.00  0.00    -0.290 N 
HETATM   32  C16 UNL     1      19.518  52.029 -11.557  1.00  0.00     0.176 A 
ATOM     33  H14 UNL     1      20.658  53.808 -11.113  1.00  0.00     0.187 HD
BRANCH  32  34
HETATM   34  C17 UNL     1      20.823  51.213 -11.860  1.00  0.00     0.376 C 
HETATM   35  O4  UNL     1      21.247  51.374 -12.903  1.00  0.00    -0.247 OA
HETATM   36  N12 UNL     1      20.870  50.579 -10.651  1.00  0.00    -0.225 NA
BRANCH  36  37
HETATM   37  O5  UNL     1      20.927  49.982  -9.538  1.00  0.00    -0.103 OA
BRANCH  37  38
HETATM   38  C18 UNL     1      21.142  48.596  -9.550  1.00  0.00     0.405 C 
HETATM   39  N13 UNL     1      21.006  47.955  -8.277  1.00  0.00    -0.030 NA
HETATM   40  O6  UNL     1      21.434  48.074 -10.602  1.00  0.00    -0.239 OA
ENDBRANCH  37  38
ENDBRANCH  36  37
ENDBRANCH  32  34
ENDBRANCH  25  27
ENDBRANCH   1  24
BRANCH   3  41
HETATM   41  N3  UNL     1      19.044  45.758 -10.108  1.00  0.00    -0.340 N 
HETATM   42  C8  UNL     1      19.820  44.961 -10.968  1.00  0.00     0.480 C 
HETATM   43  N4  UNL     1      20.650  45.714 -11.892  1.00  0.00    -0.033 N 
HETATM   44  N5  UNL     1      20.807  44.232 -10.118  1.00  0.00    -0.033 N 
ATOM     45  H43 UNL     1      20.082  46.370 -12.428  1.00  0.00     0.278 HD
ATOM     46  H42 UNL     1      21.241  46.373 -11.384  1.00  0.00     0.278 HD
ATOM     47  H41 UNL     1      21.213  45.136 -12.515  1.00  0.00     0.278 HD
ATOM     48  H53 UNL     1      21.367  44.852  -9.533  1.00  0.00     0.278 HD
ATOM     49  H52 UNL     1      20.371  43.701  -9.365  1.00  0.00     0.278 HD
ATOM     50  H51 UNL     1      21.370  43.654 -10.742  1.00  0.00     0.278 HD
ATOM     51  H3  UNL     1      18.990  45.414  -9.149  1.00  0.00     0.163 HD
ENDBRANCH   3  41
TORSDOF 8
ENDMDL
MODEL 5
REMARK VINA RESULT: -11.131446860      3.015      4.192
REMARK  8 active torsions:
REMARK  status: ('A' for Active; 'I' for Inactive)
REMARK    1  A    between atoms: C3_4  and  N2_5 
REMARK       I    between atoms: N2_5  and  C4_6 
REMARK    2  A    between atoms: C4_6  and  C5_8 
REMARK    3  A    between atoms: C7_10  and  N3_11 
REMARK       I    between atoms: N3_11  and  C8_13 
REMARK       I    between atoms: C8_13  and  N4_14 
REMARK       I    between atoms: C8_13  and  N5_18 
REMARK    4  A    between atoms: N6_23  and  C10_24 
REMARK    5  A    between atoms: C11_28  and  C12_29 
REMARK    6  A    between atoms: C16_42  and  C17_43 
REMARK       I    between atoms: C17_43  and  N12_45 
REMARK    7  A    between atoms: N12_45  and  O5_46 
REMARK    8  A    between atoms: O5_46  and  C18_47 
ROOT
HETATM    1  C5  UNL     1      17.426  49.957  -6.636  1.00  0.00     0.123 A 
HETATM    2  C6  UNL     1      16.629  49.445  -5.659  1.00  0.00     0.067 A 
HETATM    3  C7  UNL     1      16.856  48.064  -5.634  1.00  0.00     0.049 A 
HETATM    4  C9  UNL     1      17.790  47.805  -6.588  1.00  0.00     0.125 A 
HETATM    5  N6  UNL     1      18.160  48.953  -7.205  1.00  0.00    -0.299 N 
ENDROOT
BRANCH   5   6
HETATM    6  C10 UNL     1      19.129  49.013  -8.216  1.00  0.00     0.441 C 
HETATM    7  N7  UNL     1      18.943  47.830  -9.099  1.00  0.00     0.004 N 
HETATM    8  C11 UNL     1      20.412  48.015  -9.202  1.00  0.00     0.405 C 
ATOM      9  H72 UNL     1      18.485  46.962  -8.820  1.00  0.00     0.286 HD
ATOM     10  H71 UNL     1      18.305  47.793  -9.893  1.00  0.00     0.286 HD
HETATM   11  O3  UNL     1      20.415  48.514  -7.985  1.00  0.00    -0.303 OA
BRANCH   8  12
HETATM   12  C12 UNL     1      21.065  46.828  -9.719  1.00  0.00     0.184 A 
HETATM   13  N8  UNL     1      21.252  45.667  -9.034  1.00  0.00    -0.321 N 
HETATM   14  C13 UNL     1      21.835  44.641  -9.603  1.00  0.00     0.129 A 
ATOM     15  H8  UNL     1      20.935  45.595  -8.067  1.00  0.00     0.169 HD
HETATM   16  N9  UNL     1      21.860  43.453  -9.010  1.00  0.00    -0.384 N 
HETATM   17  C14 UNL     1      22.233  44.727 -10.910  1.00  0.00     0.138 A 
ATOM     18  H92 UNL     1      21.563  43.388  -8.036  1.00  0.00     0.157 HD
ATOM     19  H91 UNL     1      22.313  42.654  -9.452  1.00  0.00     0.157 HD
HETATM   20  N10 UNL     1      22.781  43.538 -11.565  1.00  0.00    -0.094 NA
HETATM   21  C15 UNL     1      22.047  45.894 -11.615  1.00  0.00     0.187 A 
HETATM   22  N11 UNL     1      22.430  45.986 -12.965  1.00  0.00    -0.072 NA
HETATM   23  O2  UNL     1      21.485  46.911 -10.986  1.00  0.00    -0.276 OA
ENDBRANCH   8  12
ENDBRANCH   5   6
BRANCH   1  24
HETATM   24  C4  UNL     1      17.392  51.248  -7.337  1.00  0.00     0.343 C 
HETATM   25  N2  UNL     1      17.055  51.024  -8.641  1.00  0.00    -0.361 NA
HETATM   26  O1  UNL     1      17.668  52.351  -6.974  1.00  0.00    -0.249 OA
BRANCH  25  27
HETATM   27  C3  UNL     1      16.776  50.919  -9.964  1.00  0.00     0.163 A 
HETATM   28  C2  UNL     1      16.331  49.716 -10.586  1.00  0.00     0.157 A 
HETATM   29  N1  UNL     1      16.132  50.013 -11.901  1.00  0.00    -0.304 N 
HETATM   30  C1  UNL     1      15.752  49.098 -12.949  1.00  0.00     0.177 C 
HETATM   31  N14 UNL     1      16.433  51.276 -12.059  1.00  0.00    -0.290 N 
HETATM   32  C16 UNL     1      16.844  51.845 -10.837  1.00  0.00     0.176 A 
ATOM     33  H14 UNL     1      16.377  51.779 -12.944  1.00  0.00     0.187 HD
BRANCH  32  34
HETATM   34  C17 UNL     1      17.551  53.236 -10.991  1.00  0.00     0.376 C 
HETATM   35  O4  UNL     1      17.022  54.094 -10.462  1.00  0.00    -0.247 OA
HETATM   36  N12 UNL     1      18.561  52.787 -11.793  1.00  0.00    -0.225 NA
BRANCH  36  37
HETATM   37  O5  UNL     1      19.502  52.387 -12.537  1.00  0.00    -0.103 OA
BRANCH  37  38
HETATM   38  C18 UNL     1      20.589  51.745 -11.927  1.00  0.00     0.405 C 
HETATM   39  N13 UNL     1      20.558  51.738 -10.495  1.00  0.00    -0.030 NA
HETATM   40  O6  UNL     1      21.451  51.281 -12.639  1.00  0.00    -0.239 OA
ENDBRANCH  37  38
ENDBRANCH  36  37
ENDBRANCH  32  34
ENDBRANCH  25  27
ENDBRANCH   1  24
BRANCH   3  41
HETATM   41  N3  UNL     1      16.302  47.163  -4.675  1.00  0.00    -0.340 N 
HETATM   42  C8  UNL     1      16.917  46.277  -3.774  1.00  0.00     0.480 C 
HETATM   43  N4  UNL     1      18.107  46.809  -3.133  1.00  0.00    -0.033 N 
HETATM   44  N5  UNL     1      15.966  46.072  -2.642  1.00  0.00    -0.033 N 
ATOM     45  H43 UNL     1      18.777  47.129  -3.833  1.00  0.00     0.278 HD
ATOM     46  H42 UNL     1      17.898  47.696  -2.675  1.00  0.00     0.278 HD
ATOM     47  H41 UNL     1      18.553  46.166  -2.479  1.00  0.00     0.278 HD
ATOM     48  H53 UNL     1      15.669  46.945  -2.205  1.00  0.00     0.278 HD
ATOM     49  H52 UNL     1      15.044  45.759  -2.946  1.00  0.00     0.278 HD
ATOM     50  H51 UNL     1      16.412  45.429  -1.988  1.00  0.00     0.278 HD
ATOM     51  H3  UNL     1      15.283  47.162  -4.638  1.00  0.00     0.163 HD
ENDBRANCH   3  41
TORSDOF 8
ENDMDL
