MODEL 1
REMARK VINA RESULT: -6.534684021      0.000      0.000
REMARK  7 active torsions:
REMARK  status: ('A' for Active; 'I' for Inactive)
REMARK    1  A    between atoms: C3_5  and  C4_6 
REMARK    2  A    between atoms: C4_6  and  C5_7 
REMARK    3  A    between atoms: C5_7  and  N2_9 
REMARK    4  A    between atoms: N2_9  and  C7_11 
REMARK    5  A    between atoms: C8_16  and  C9_17 
REMARK    6  A    between atoms: C9_17  and  C10_18 
REMARK    7  A    between atoms: C10_18  and  C11_19 
ROOT
HETATM    1  N2  UNL     1      26.632   7.061  10.586  1.00  0.00    -0.365 N 
ATOM      2  H2  UNL     1      26.737   7.869   9.972  1.00  0.00     0.162 HD
ENDROOT
BRANCH   1   3
HETATM    3  C5  UNL     1      27.358   5.833  10.326  1.00  0.00     0.086 C 
HETATM    4  C6  UNL     1      28.785   5.948  10.806  1.00  0.00     0.032 C 
BRANCH   3   5
HETATM    5  C4  UNL     1      27.272   5.569   8.844  1.00  0.00     0.103 C 
BRANCH   5   6
HETATM    6  C3  UNL     1      26.272   4.462   8.668  1.00  0.00     0.105 A 
HETATM    7  N1  UNL     1      25.387   4.002   9.582  1.00  0.00    -0.327 N 
HETATM    8  C2  UNL     1      24.667   3.006   9.044  1.00  0.00     0.144 A 
ATOM      9  H1  UNL     1      25.284   4.357  10.533  1.00  0.00     0.169 HD
HETATM   10  C1  UNL     1      23.585   2.206   9.672  1.00  0.00     0.100 C 
HETATM   11  O1  UNL     1      25.111   2.866   7.818  1.00  0.00    -0.223 OA
HETATM   12  N5  UNL     1      26.062   3.715   7.568  1.00  0.00    -0.247 N 
ATOM     13  H5  UNL     1      26.566   3.802   6.685  1.00  0.00     0.196 HD
ENDBRANCH   5   6
ENDBRANCH   3   5
ENDBRANCH   1   3
BRANCH   1  14
HETATM   14  C7  UNL     1      25.846   7.108  11.615  1.00  0.00     0.161 A 
HETATM   15  N3  UNL     1      24.928   8.034  11.913  1.00  0.00    -0.279 N 
HETATM   16  N4  UNL     1      24.250   7.902  12.980  1.00  0.00    -0.296 N 
ATOM     17  H3  UNL     1      24.775   8.831  11.295  1.00  0.00     0.189 HD
HETATM   18  C8  UNL     1      24.434   6.885  13.781  1.00  0.00     0.069 A 
ATOM     19  H4  UNL     1      23.548   8.603  13.216  1.00  0.00     0.187 HD
HETATM   20  S1  UNL     1      25.688   6.038  12.940  1.00  0.00    -0.038 SA
BRANCH  18  21
HETATM   21  C9  UNL     1      23.787   6.497  15.072  1.00  0.00     0.067 C 
BRANCH  21  22
HETATM   22  C10 UNL     1      24.318   5.139  15.445  1.00  0.00     0.017 C 
BRANCH  22  23
HETATM   23  C11 UNL     1      23.273   4.082  15.118  1.00  0.00     0.085 C 
HETATM   24 BR1  UNL     1      21.658   4.382  16.135  1.00  0.00    -0.097 Br
ENDBRANCH  22  23
ENDBRANCH  21  22
ENDBRANCH  18  21
ENDBRANCH   1  14
TORSDOF 7
ENDMDL
MODEL 2
REMARK VINA RESULT: -6.391038637      1.486      1.677
REMARK  7 active torsions:
REMARK  status: ('A' for Active; 'I' for Inactive)
REMARK    1  A    between atoms: C3_5  and  C4_6 
REMARK    2  A    between atoms: C4_6  and  C5_7 
REMARK    3  A    between atoms: C5_7  and  N2_9 
REMARK    4  A    between atoms: N2_9  and  C7_11 
REMARK    5  A    between atoms: C8_16  and  C9_17 
REMARK    6  A    between atoms: C9_17  and  C10_18 
REMARK    7  A    between atoms: C10_18  and  C11_19 
ROOT
HETATM    1  N2  UNL     1      26.803   7.902  10.620  1.00  0.00    -0.365 N 
ATOM      2  H2  UNL     1      26.793   8.599   9.875  1.00  0.00     0.162 HD
ENDROOT
BRANCH   1   3
HETATM    3  C5  UNL     1      27.771   6.822  10.611  1.00  0.00     0.086 C 
HETATM    4  C6  UNL     1      29.153   7.343  10.925  1.00  0.00     0.032 C 
BRANCH   3   5
HETATM    5  C4  UNL     1      27.700   6.170   9.253  1.00  0.00     0.103 C 
BRANCH   5   6
HETATM    6  C3  UNL     1      26.700   5.056   9.370  1.00  0.00     0.105 A 
HETATM    7  N1  UNL     1      26.093   4.389   8.361  1.00  0.00    -0.327 N 
HETATM    8  C2  UNL     1      25.267   3.463   8.872  1.00  0.00     0.144 A 
ATOM      9  H1  UNL     1      26.241   4.563   7.367  1.00  0.00     0.169 HD
HETATM   10  C1  UNL     1      24.398   2.502   8.148  1.00  0.00     0.100 C 
HETATM   11  O1  UNL     1      25.373   3.570  10.175  1.00  0.00    -0.223 OA
HETATM   12  N5  UNL     1      26.214   4.505  10.498  1.00  0.00    -0.247 N 
ATOM     13  H5  UNL     1      26.466   4.777  11.448  1.00  0.00     0.196 HD
ENDBRANCH   5   6
ENDBRANCH   3   5
ENDBRANCH   1   3
BRANCH   1  14
HETATM   14  C7  UNL     1      25.952   7.961  11.595  1.00  0.00     0.161 A 
HETATM   15  N3  UNL     1      24.742   8.531  11.604  1.00  0.00    -0.279 N 
HETATM   16  N4  UNL     1      24.051   8.483  12.669  1.00  0.00    -0.296 N 
ATOM     17  H3  UNL     1      24.381   8.995  10.770  1.00  0.00     0.189 HD
HETATM   18  C8  UNL     1      24.501   7.891  13.745  1.00  0.00     0.069 A 
ATOM     19  H4  UNL     1      23.127   8.915  12.686  1.00  0.00     0.187 HD
HETATM   20  S1  UNL     1      26.050   7.353  13.191  1.00  0.00    -0.038 SA
BRANCH  18  21
HETATM   21  C9  UNL     1      23.905   7.695  15.103  1.00  0.00     0.067 C 
BRANCH  21  22
HETATM   22  C10 UNL     1      23.202   6.364  15.091  1.00  0.00     0.017 C 
BRANCH  22  23
HETATM   23  C11 UNL     1      23.668   5.539  16.283  1.00  0.00     0.085 C 
HETATM   24 BR1  UNL     1      25.375   4.711  15.914  1.00  0.00    -0.097 Br
ENDBRANCH  22  23
ENDBRANCH  21  22
ENDBRANCH  18  21
ENDBRANCH   1  14
TORSDOF 7
ENDMDL
MODEL 3
REMARK VINA RESULT: -6.375586032      2.875      5.876
REMARK  7 active torsions:
REMARK  status: ('A' for Active; 'I' for Inactive)
REMARK    1  A    between atoms: C3_5  and  C4_6 
REMARK    2  A    between atoms: C4_6  and  C5_7 
REMARK    3  A    between atoms: C5_7  and  N2_9 
REMARK    4  A    between atoms: N2_9  and  C7_11 
REMARK    5  A    between atoms: C8_16  and  C9_17 
REMARK    6  A    between atoms: C9_17  and  C10_18 
REMARK    7  A    between atoms: C10_18  and  C11_19 
ROOT
HETATM    1  N2  UNL     1      26.689   7.067  12.449  1.00  0.00    -0.365 N 
ATOM      2  H2  UNL     1      27.515   7.271  13.013  1.00  0.00     0.162 HD
ENDROOT
BRANCH   1   3
HETATM    3  C5  UNL     1      25.364   7.410  12.925  1.00  0.00     0.086 C 
HETATM    4  C6  UNL     1      25.019   8.834  12.559  1.00  0.00     0.032 C 
BRANCH   3   5
HETATM    5  C4  UNL     1      25.352   7.184  14.416  1.00  0.00     0.103 C 
BRANCH   5   6
HETATM    6  C3  UNL     1      24.456   6.004  14.659  1.00  0.00     0.105 A 
HETATM    7  N1  UNL     1      23.410   5.930  15.514  1.00  0.00    -0.327 N 
HETATM    8  C2  UNL     1      22.862   4.707  15.443  1.00  0.00     0.144 A 
ATOM      9  H1  UNL     1      23.088   6.687  16.118  1.00  0.00     0.169 HD
HETATM   10  C1  UNL     1      21.698   4.173  16.195  1.00  0.00     0.100 C 
HETATM   11  O1  UNL     1      23.569   4.050  14.556  1.00  0.00    -0.223 OA
HETATM   12  N5  UNL     1      24.520   4.793  14.076  1.00  0.00    -0.247 N 
ATOM     13  H5  UNL     1      25.201   4.507  13.372  1.00  0.00     0.196 HD
ENDBRANCH   5   6
ENDBRANCH   3   5
ENDBRANCH   1   3
BRANCH   1  14
HETATM   14  C7  UNL     1      26.801   6.494  11.293  1.00  0.00     0.161 A 
HETATM   15  N3  UNL     1      27.649   6.790  10.301  1.00  0.00    -0.279 N 
HETATM   16  N4  UNL     1      27.603   6.105   9.231  1.00  0.00    -0.296 N 
ATOM     17  H3  UNL     1      28.320   7.552  10.402  1.00  0.00     0.189 HD
HETATM   18  C8  UNL     1      26.749   5.126   9.088  1.00  0.00     0.069 A 
ATOM     19  H4  UNL     1      28.245   6.324   8.470  1.00  0.00     0.187 HD
HETATM   20  S1  UNL     1      25.935   5.184  10.615  1.00  0.00    -0.038 SA
BRANCH  18  21
HETATM   21  C9  UNL     1      26.490   4.181   7.958  1.00  0.00     0.067 C 
BRANCH  21  22
HETATM   22  C10 UNL     1      25.875   2.940   8.549  1.00  0.00     0.017 C 
BRANCH  22  23
HETATM   23  C11 UNL     1      24.428   2.829   8.091  1.00  0.00     0.085 C 
HETATM   24 BR1  UNL     1      23.308   2.169   9.520  1.00  0.00    -0.097 Br
ENDBRANCH  22  23
ENDBRANCH  21  22
ENDBRANCH  18  21
ENDBRANCH   1  14
TORSDOF 7
ENDMDL
MODEL 4
REMARK VINA RESULT: -6.316903677      3.063      5.970
REMARK  7 active torsions:
REMARK  status: ('A' for Active; 'I' for Inactive)
REMARK    1  A    between atoms: C3_5  and  C4_6 
REMARK    2  A    between atoms: C4_6  and  C5_7 
REMARK    3  A    between atoms: C5_7  and  N2_9 
REMARK    4  A    between atoms: N2_9  and  C7_11 
REMARK    5  A    between atoms: C8_16  and  C9_17 
REMARK    6  A    between atoms: C9_17  and  C10_18 
REMARK    7  A    between atoms: C10_18  and  C11_19 
ROOT
HETATM    1  N2  UNL     1      25.870   7.837  12.277  1.00  0.00    -0.365 N 
ATOM      2  H2  UNL     1      26.651   8.482  12.160  1.00  0.00     0.162 HD
ENDROOT
BRANCH   1   3
HETATM    3  C5  UNL     1      24.867   8.065  13.298  1.00  0.00     0.086 C 
HETATM    4  C6  UNL     1      24.508   9.530  13.374  1.00  0.00     0.032 C 
BRANCH   3   5
HETATM    5  C4  UNL     1      25.426   7.545  14.598  1.00  0.00     0.103 C 
BRANCH   5   6
HETATM    6  C3  UNL     1      24.643   6.308  14.932  1.00  0.00     0.105 A 
HETATM    7  N1  UNL     1      23.388   6.241  15.433  1.00  0.00    -0.327 N 
HETATM    8  C2  UNL     1      23.040   4.955  15.594  1.00  0.00     0.144 A 
ATOM      9  H1  UNL     1      22.799   7.044  15.655  1.00  0.00     0.169 HD
HETATM   10  C1  UNL     1      21.763   4.403  16.113  1.00  0.00     0.100 C 
HETATM   11  O1  UNL     1      24.073   4.253  15.195  1.00  0.00    -0.223 OA
HETATM   12  N5  UNL     1      25.036   5.028  14.798  1.00  0.00    -0.247 N 
ATOM     13  H5  UNL     1      25.941   4.718  14.442  1.00  0.00     0.196 HD
ENDBRANCH   5   6
ENDBRANCH   3   5
ENDBRANCH   1   3
BRANCH   1  14
HETATM   14  C7  UNL     1      25.751   6.795  11.516  1.00  0.00     0.161 A 
HETATM   15  N3  UNL     1      24.659   6.057  11.288  1.00  0.00    -0.279 N 
HETATM   16  N4  UNL     1      24.745   5.063  10.501  1.00  0.00    -0.296 N 
ATOM     17  H3  UNL     1      23.772   6.289  11.737  1.00  0.00     0.189 HD
HETATM   18  C8  UNL     1      25.874   4.754   9.918  1.00  0.00     0.069 A 
ATOM     19  H4  UNL     1      23.918   4.494  10.321  1.00  0.00     0.187 HD
HETATM   20  S1  UNL     1      26.908   5.992  10.546  1.00  0.00    -0.038 SA
BRANCH  18  21
HETATM   21  C9  UNL     1      26.243   3.660   8.968  1.00  0.00     0.067 C 
BRANCH  21  22
HETATM   22  C10 UNL     1      25.245   3.695   7.841  1.00  0.00     0.017 C 
BRANCH  22  23
HETATM   23  C11 UNL     1      24.249   2.557   8.016  1.00  0.00     0.085 C 
HETATM   24 BR1  UNL     1      24.725   1.460   9.533  1.00  0.00    -0.097 Br
ENDBRANCH  22  23
ENDBRANCH  21  22
ENDBRANCH  18  21
ENDBRANCH   1  14
TORSDOF 7
ENDMDL
MODEL 5
REMARK VINA RESULT: -6.256785418      3.393      5.065
REMARK  7 active torsions:
REMARK  status: ('A' for Active; 'I' for Inactive)
REMARK    1  A    between atoms: C3_5  and  C4_6 
REMARK    2  A    between atoms: C4_6  and  C5_7 
REMARK    3  A    between atoms: C5_7  and  N2_9 
REMARK    4  A    between atoms: N2_9  and  C7_11 
REMARK    5  A    between atoms: C8_16  and  C9_17 
REMARK    6  A    between atoms: C9_17  and  C10_18 
REMARK    7  A    between atoms: C10_18  and  C11_19 
ROOT
HETATM    1  N2  UNL     1      24.924   6.799  13.651  1.00  0.00    -0.365 N 
ATOM      2  H2  UNL     1      25.038   6.981  14.649  1.00  0.00     0.162 HD
ENDROOT
BRANCH   1   3
HETATM    3  C5  UNL     1      24.437   5.517  13.183  1.00  0.00     0.086 C 
HETATM    4  C6  UNL     1      24.138   4.603  14.347  1.00  0.00     0.032 C 
BRANCH   3   5
HETATM    5  C4  UNL     1      25.488   4.947  12.264  1.00  0.00     0.103 C 
BRANCH   5   6
HETATM    6  C3  UNL     1      24.761   4.426  11.058  1.00  0.00     0.105 A 
HETATM    7  N1  UNL     1      25.292   3.780   9.995  1.00  0.00    -0.327 N 
HETATM    8  C2  UNL     1      24.316   3.476   9.125  1.00  0.00     0.144 A 
ATOM      9  H1  UNL     1      26.281   3.559   9.874  1.00  0.00     0.169 HD
HETATM   10  C1  UNL     1      24.428   2.770   7.823  1.00  0.00     0.100 C 
HETATM   11  O1  UNL     1      23.209   3.933   9.657  1.00  0.00    -0.223 OA
HETATM   12  N5  UNL     1      23.442   4.501  10.801  1.00  0.00    -0.247 N 
ATOM     13  H5  UNL     1      22.742   4.931  11.406  1.00  0.00     0.196 HD
ENDBRANCH   5   6
ENDBRANCH   3   5
ENDBRANCH   1   3
BRANCH   1  14
HETATM   14  C7  UNL     1      25.212   7.708  12.774  1.00  0.00     0.161 A 
HETATM   15  N3  UNL     1      24.378   8.366  11.961  1.00  0.00    -0.279 N 
HETATM   16  N4  UNL     1      24.858   9.231  11.162  1.00  0.00    -0.296 N 
ATOM     17  H3  UNL     1      23.376   8.177  11.981  1.00  0.00     0.189 HD
HETATM   18  C8  UNL     1      26.140   9.484  11.126  1.00  0.00     0.069 A 
ATOM     19  H4  UNL     1      24.231   9.737  10.538  1.00  0.00     0.187 HD
HETATM   20  S1  UNL     1      26.718   8.392  12.338  1.00  0.00    -0.038 SA
BRANCH  18  21
HETATM   21  C9  UNL     1      26.950  10.432  10.300  1.00  0.00     0.067 C 
BRANCH  21  22
HETATM   22  C10 UNL     1      27.505   9.648   9.140  1.00  0.00     0.017 C 
BRANCH  22  23
HETATM   23  C11 UNL     1      28.963   9.308   9.415  1.00  0.00     0.085 C 
HETATM   24 BR1  UNL     1      29.408   7.573   8.691  1.00  0.00    -0.097 Br
ENDBRANCH  22  23
ENDBRANCH  21  22
ENDBRANCH  18  21
ENDBRANCH   1  14
TORSDOF 7
ENDMDL
