MODEL 1
REMARK VINA RESULT: -3.478188301      0.000      0.000
REMARK  2 active torsions:
REMARK  status: ('A' for Active; 'I' for Inactive)
REMARK    1  A    between atoms: C7_8  and  C8_9 
REMARK    2  A    between atoms: C7_8  and  C12_15 
ROOT
HETATM    1  C8  UNL     1       7.932 -27.610  45.690  1.00  0.00     0.046 C 
HETATM    2  C9  UNL     1       6.905 -28.170  46.202  1.00  0.00     0.123 C 
HETATM    3  C10 UNL     1       6.612 -27.921  47.631  1.00  0.00     0.110 C 
HETATM    4  N2  UNL     1       6.398 -27.714  48.746  1.00  0.00    -0.191 NA
HETATM    5  C11 UNL     1       5.993 -29.030  45.566  1.00  0.00     0.110 C 
HETATM    6  N3  UNL     1       5.208 -29.762  45.066  1.00  0.00    -0.191 NA
ENDROOT
BRANCH   1   7
HETATM    7  C7  UNL     1       8.546 -27.607  44.340  1.00  0.00     0.152 C 
HETATM    8  N1  UNL     1       9.296 -26.360  44.128  1.00  0.00    -0.062 N 
HETATM    9  C1  UNL     1       9.725 -25.722  45.348  1.00  0.00     0.273 C 
HETATM   10  C2  UNL     1      10.498 -26.558  43.347  1.00  0.00     0.273 C 
HETATM   11  C3  UNL     1       8.462 -25.413  43.383  1.00  0.00     0.238 C 
HETATM   12  C4  UNL     1       8.383 -25.869  41.942  1.00  0.00     0.028 C 
HETATM   13  C5  UNL     1       7.835 -27.256  41.931  1.00  0.00     0.004 C 
HETATM   14  C6  UNL     1       7.494 -27.781  43.311  1.00  0.00     0.044 C 
BRANCH   7  15
HETATM   15  C12 UNL     1       9.610 -28.676  44.372  1.00  0.00     0.026 A 
HETATM   16  C13 UNL     1       9.290 -30.088  44.807  1.00  0.00     0.008 A 
HETATM   17  C14 UNL     1       9.780 -29.745  43.408  1.00  0.00     0.008 A 
ENDBRANCH   7  15
ENDBRANCH   1   7
TORSDOF 2
ENDMDL
MODEL 2
REMARK VINA RESULT: -2.942090023      2.003      4.801
REMARK  2 active torsions:
REMARK  status: ('A' for Active; 'I' for Inactive)
REMARK    1  A    between atoms: C7_8  and  C8_9 
REMARK    2  A    between atoms: C7_8  and  C12_15 
ROOT
HETATM    1  C8  UNL     1       9.721 -25.379  44.785  1.00  0.00     0.046 C 
HETATM    2  C9  UNL     1      10.141 -24.180  44.662  1.00  0.00     0.123 C 
HETATM    3  C10 UNL     1      10.363 -23.387  45.891  1.00  0.00     0.110 C 
HETATM    4  N2  UNL     1      10.530 -22.783  46.861  1.00  0.00    -0.191 NA
HETATM    5  C11 UNL     1      10.421 -23.489  43.470  1.00  0.00     0.110 C 
HETATM    6  N3  UNL     1      10.660 -22.874  42.487  1.00  0.00    -0.191 NA
ENDROOT
BRANCH   1   7
HETATM    7  C7  UNL     1       9.389 -26.464  43.830  1.00  0.00     0.152 C 
HETATM    8  N1  UNL     1       8.890 -27.641  44.556  1.00  0.00    -0.062 N 
HETATM    9  C1  UNL     1       8.332 -27.337  45.851  1.00  0.00     0.273 C 
HETATM   10  C2  UNL     1       7.846 -28.340  43.836  1.00  0.00     0.273 C 
HETATM   11  C3  UNL     1       9.984 -28.598  44.740  1.00  0.00     0.238 C 
HETATM   12  C4  UNL     1      10.272 -29.264  43.412  1.00  0.00     0.028 C 
HETATM   13  C5  UNL     1      10.598 -28.195  42.425  1.00  0.00     0.004 C 
HETATM   14  C6  UNL     1      10.582 -26.801  43.019  1.00  0.00     0.044 C 
BRANCH   7  15
HETATM   15  C12 UNL     1       8.190 -25.973  43.055  1.00  0.00     0.026 A 
HETATM   16  C13 UNL     1       8.353 -25.155  41.795  1.00  0.00     0.008 A 
HETATM   17  C14 UNL     1       7.690 -26.524  41.812  1.00  0.00     0.008 A 
ENDBRANCH   7  15
ENDBRANCH   1   7
TORSDOF 2
ENDMDL
MODEL 3
REMARK VINA RESULT: -2.624180716      1.498      2.210
REMARK  2 active torsions:
REMARK  status: ('A' for Active; 'I' for Inactive)
REMARK    1  A    between atoms: C7_8  and  C8_9 
REMARK    2  A    between atoms: C7_8  and  C12_15 
ROOT
HETATM    1  C8  UNL     1       7.650 -26.788  45.366  1.00  0.00     0.046 C 
HETATM    2  C9  UNL     1       7.485 -27.922  45.929  1.00  0.00     0.123 C 
HETATM    3  C10 UNL     1       6.667 -27.980  47.161  1.00  0.00     0.110 C 
HETATM    4  N2  UNL     1       6.026 -28.005  48.121  1.00  0.00    -0.191 NA
HETATM    5  C11 UNL     1       8.004 -29.164  45.523  1.00  0.00     0.110 C 
HETATM    6  N3  UNL     1       8.429 -30.225  45.214  1.00  0.00    -0.191 NA
ENDROOT
BRANCH   1   7
HETATM    7  C7  UNL     1       8.375 -26.328  44.157  1.00  0.00     0.152 C 
HETATM    8  N1  UNL     1       9.801 -26.144  44.462  1.00  0.00    -0.062 N 
HETATM    9  C1  UNL     1      10.263 -26.920  45.587  1.00  0.00     0.273 C 
HETATM   10  C2  UNL     1      10.660 -26.509  43.357  1.00  0.00     0.273 C 
HETATM   11  C3  UNL     1      10.059 -24.729  44.744  1.00  0.00     0.238 C 
HETATM   12  C4  UNL     1      10.012 -23.961  43.441  1.00  0.00     0.028 C 
HETATM   13  C5  UNL     1       8.677 -24.194  42.820  1.00  0.00     0.004 C 
HETATM   14  C6  UNL     1       7.768 -25.073  43.656  1.00  0.00     0.044 C 
BRANCH   7  15
HETATM   15  C12 UNL     1       8.351 -27.493  43.198  1.00  0.00     0.026 A 
HETATM   16  C13 UNL     1       7.251 -27.641  42.172  1.00  0.00     0.008 A 
HETATM   17  C14 UNL     1       8.713 -27.454  41.795  1.00  0.00     0.008 A 
ENDBRANCH   7  15
ENDBRANCH   1   7
TORSDOF 2
ENDMDL
MODEL 4
REMARK VINA RESULT: -2.302723470      7.181     10.510
REMARK  2 active torsions:
REMARK  status: ('A' for Active; 'I' for Inactive)
REMARK    1  A    between atoms: C7_8  and  C8_9 
REMARK    2  A    between atoms: C7_8  and  C12_15 
ROOT
HETATM    1  C8  UNL     1       1.794 -26.690  50.339  1.00  0.00     0.046 C 
HETATM    2  C9  UNL     1       2.955 -26.497  50.834  1.00  0.00     0.123 C 
HETATM    3  C10 UNL     1       4.080 -26.254  49.904  1.00  0.00     0.110 C 
HETATM    4  N2  UNL     1       4.945 -26.065  49.163  1.00  0.00    -0.191 NA
HETATM    5  C11 UNL     1       3.318 -26.496  52.192  1.00  0.00     0.110 C 
HETATM    6  N3  UNL     1       3.661 -26.494  53.326  1.00  0.00    -0.191 NA
ENDROOT
BRANCH   1   7
HETATM    7  C7  UNL     1       0.454 -26.957  50.916  1.00  0.00     0.152 C 
HETATM    8  N1  UNL     1      -0.414 -25.782  50.744  1.00  0.00    -0.062 N 
HETATM    9  C1  UNL     1      -0.021 -24.921  49.655  1.00  0.00     0.273 C 
HETATM   10  C2  UNL     1      -1.792 -26.139  50.483  1.00  0.00     0.273 C 
HETATM   11  C3  UNL     1      -0.411 -24.992  51.978  1.00  0.00     0.238 C 
HETATM   12  C4  UNL     1      -1.233 -25.720  53.019  1.00  0.00     0.028 C 
HETATM   13  C5  UNL     1      -0.643 -27.078  53.200  1.00  0.00     0.004 C 
HETATM   14  C6  UNL     1       0.586 -27.319  52.346  1.00  0.00     0.044 C 
BRANCH   7  15
HETATM   15  C12 UNL     1      -0.170 -28.008  50.031  1.00  0.00     0.026 A 
HETATM   16  C13 UNL     1       0.567 -28.562  48.833  1.00  0.00     0.008 A 
HETATM   17  C14 UNL     1       0.153 -29.420  50.020  1.00  0.00     0.008 A 
ENDBRANCH   7  15
ENDBRANCH   1   7
TORSDOF 2
ENDMDL
MODEL 5
REMARK VINA RESULT: -1.786257322      6.534      9.802
REMARK  2 active torsions:
REMARK  status: ('A' for Active; 'I' for Inactive)
REMARK    1  A    between atoms: C7_8  and  C8_9 
REMARK    2  A    between atoms: C7_8  and  C12_15 
ROOT
HETATM    1  C8  UNL     1       1.434 -28.157  49.316  1.00  0.00     0.046 C 
HETATM    2  C9  UNL     1       2.517 -28.504  48.736  1.00  0.00     0.123 C 
HETATM    3  C10 UNL     1       2.462 -29.606  47.750  1.00  0.00     0.110 C 
HETATM    4  N2  UNL     1       2.399 -30.467  46.984  1.00  0.00    -0.191 NA
HETATM    5  C11 UNL     1       3.802 -27.964  48.927  1.00  0.00     0.110 C 
HETATM    6  N3  UNL     1       4.898 -27.538  49.066  1.00  0.00    -0.191 NA
ENDROOT
BRANCH   1   7
HETATM    7  C7  UNL     1       1.083 -27.132  50.329  1.00  0.00     0.152 C 
HETATM    8  N1  UNL     1      -0.113 -27.549  51.076  1.00  0.00    -0.062 N 
HETATM    9  C1  UNL     1      -0.335 -28.974  51.075  1.00  0.00     0.273 C 
HETATM   10  C2  UNL     1      -0.064 -27.161  52.469  1.00  0.00     0.273 C 
HETATM   11  C3  UNL     1      -1.295 -26.900  50.501  1.00  0.00     0.238 C 
HETATM   12  C4  UNL     1      -1.285 -25.440  50.899  1.00  0.00     0.028 C 
HETATM   13  C5  UNL     1      -0.005 -24.843  50.419  1.00  0.00     0.004 C 
HETATM   14  C6  UNL     1       0.872 -25.824  49.667  1.00  0.00     0.044 C 
BRANCH   7  15
HETATM   15  C12 UNL     1       2.190 -27.175  51.354  1.00  0.00     0.026 A 
HETATM   16  C13 UNL     1       3.348 -26.204  51.297  1.00  0.00     0.008 A 
HETATM   17  C14 UNL     1       2.368 -26.256  52.460  1.00  0.00     0.008 A 
ENDBRANCH   7  15
ENDBRANCH   1   7
TORSDOF 2
ENDMDL
