MODEL 1
REMARK VINA RESULT: -5.075097928      0.000      0.000
REMARK  1 active torsions:
REMARK  status: ('A' for Active; 'I' for Inactive)
REMARK    1  A    between atoms: N1_3  and  C3_4 
ROOT
HETATM    1  C3  UNL     1       1.066 -27.003  49.968  1.00  0.00    -0.003 C 
HETATM    2  C4  UNL     1      -0.095 -27.889  50.406  1.00  0.00     0.033 C 
HETATM    3  C5  UNL     1      -1.359 -27.190  49.911  1.00  0.00     0.015 C 
HETATM    4  C6  UNL     1      -1.438 -25.785  50.430  1.00  0.00    -0.013 C 
HETATM    5  C7  UNL     1      -1.629 -25.910  51.935  1.00  0.00     0.009 C 
HETATM    6  C8  UNL     1      -0.436 -26.643  52.507  1.00  0.00    -0.013 C 
HETATM    7  C9  UNL     1      -0.215 -27.992  51.894  1.00  0.00     0.015 C 
HETATM    8  C10 UNL     1       0.774 -25.784  52.176  1.00  0.00     0.015 C 
HETATM    9  C11 UNL     1       1.028 -25.711  50.705  1.00  0.00     0.033 C 
HETATM   10  C12 UNL     1      -0.202 -24.965  50.178  1.00  0.00     0.015 C 
ENDROOT
BRANCH   1  11
HETATM   11  N1  UNL     1       2.288 -27.656  49.797  1.00  0.00    -0.365 N 
HETATM   12  C2  UNL     1       2.520 -28.217  48.504  1.00  0.00     0.138 C 
HETATM   13  C1  UNL     1       3.720 -29.109  48.414  1.00  0.00     0.094 C 
HETATM   14  S1  UNL     1       5.157 -27.985  48.539  1.00  0.00    -0.162 SA
HETATM   15  C14 UNL     1       4.498 -26.619  49.567  1.00  0.00     0.118 C 
HETATM   16  C13 UNL     1       3.456 -27.296  50.458  1.00  0.00     0.073 C 
ENDBRANCH   1  11
TORSDOF 1
ENDMDL
MODEL 2
REMARK VINA RESULT: -4.787187707      9.360     10.938
REMARK  1 active torsions:
REMARK  status: ('A' for Active; 'I' for Inactive)
REMARK    1  A    between atoms: N1_3  and  C3_4 
ROOT
HETATM    1  C3  UNL     1       8.684 -26.403  44.480  1.00  0.00    -0.003 C 
HETATM    2  C4  UNL     1       8.271 -27.346  43.356  1.00  0.00     0.033 C 
HETATM    3  C5  UNL     1       7.356 -28.384  44.002  1.00  0.00     0.015 C 
HETATM    4  C6  UNL     1       8.038 -29.067  45.149  1.00  0.00    -0.013 C 
HETATM    5  C7  UNL     1       9.170 -29.879  44.533  1.00  0.00     0.009 C 
HETATM    6  C8  UNL     1      10.105 -28.928  43.822  1.00  0.00    -0.013 C 
HETATM    7  C9  UNL     1       9.429 -28.096  42.775  1.00  0.00     0.015 C 
HETATM    8  C10 UNL     1      10.627 -27.983  44.893  1.00  0.00     0.015 C 
HETATM    9  C11 UNL     1       9.546 -27.119  45.457  1.00  0.00     0.033 C 
HETATM   10  C12 UNL     1       8.631 -28.126  46.162  1.00  0.00     0.015 C 
ENDROOT
BRANCH   1  11
HETATM   11  N1  UNL     1       9.032 -25.111  44.081  1.00  0.00    -0.365 N 
HETATM   12  C2  UNL     1      10.373 -24.709  44.368  1.00  0.00     0.138 C 
HETATM   13  C1  UNL     1      10.651 -23.253  44.150  1.00  0.00     0.094 C 
HETATM   14  S1  UNL     1      10.630 -23.033  42.334  1.00  0.00    -0.162 SA
HETATM   15  C14 UNL     1       9.459 -24.334  41.795  1.00  0.00     0.118 C 
HETATM   16  C13 UNL     1       8.492 -24.472  42.972  1.00  0.00     0.073 C 
ENDBRANCH   1  11
TORSDOF 1
ENDMDL
MODEL 3
REMARK VINA RESULT: -3.744606073      9.377     11.226
REMARK  1 active torsions:
REMARK  status: ('A' for Active; 'I' for Inactive)
REMARK    1  A    between atoms: N1_3  and  C3_4 
ROOT
HETATM    1  C3  UNL     1       9.071 -26.214  43.417  1.00  0.00    -0.003 C 
HETATM    2  C4  UNL     1      10.381 -26.973  43.598  1.00  0.00     0.033 C 
HETATM    3  C5  UNL     1      10.243 -28.244  42.763  1.00  0.00     0.015 C 
HETATM    4  C6  UNL     1       9.027 -29.025  43.164  1.00  0.00    -0.013 C 
HETATM    5  C7  UNL     1       9.301 -29.519  44.578  1.00  0.00     0.009 C 
HETATM    6  C8  UNL     1       9.503 -28.317  45.472  1.00  0.00    -0.013 C 
HETATM    7  C9  UNL     1      10.605 -27.411  45.012  1.00  0.00     0.015 C 
HETATM    8  C10 UNL     1       8.204 -27.530  45.407  1.00  0.00     0.015 C 
HETATM    9  C11 UNL     1       7.952 -26.968  44.045  1.00  0.00     0.033 C 
HETATM   10  C12 UNL     1       7.757 -28.220  43.184  1.00  0.00     0.015 C 
ENDROOT
BRANCH   1  11
HETATM   11  N1  UNL     1       9.148 -24.832  43.595  1.00  0.00    -0.365 N 
HETATM   12  C2  UNL     1      10.214 -24.369  44.427  1.00  0.00     0.138 C 
HETATM   13  C1  UNL     1      10.136 -22.919  44.794  1.00  0.00     0.094 C 
HETATM   14  S1  UNL     1      10.518 -22.017  43.250  1.00  0.00    -0.162 SA
HETATM   15  C14 UNL     1       9.915 -23.171  41.963  1.00  0.00     0.118 C 
HETATM   16  C13 UNL     1       8.755 -23.906  42.637  1.00  0.00     0.073 C 
ENDBRANCH   1  11
TORSDOF 1
ENDMDL
MODEL 4
REMARK VINA RESULT: -3.725403903      0.496      2.503
REMARK  1 active torsions:
REMARK  status: ('A' for Active; 'I' for Inactive)
REMARK    1  A    between atoms: N1_3  and  C3_4 
ROOT
HETATM    1  C3  UNL     1       1.473 -27.133  50.666  1.00  0.00    -0.003 C 
HETATM    2  C4  UNL     1       1.072 -25.717  51.062  1.00  0.00     0.033 C 
HETATM    3  C5  UNL     1       0.501 -25.829  52.474  1.00  0.00     0.015 C 
HETATM    4  C6  UNL     1      -0.625 -26.818  52.526  1.00  0.00    -0.013 C 
HETATM    5  C7  UNL     1      -1.750 -26.205  51.701  1.00  0.00     0.009 C 
HETATM    6  C8  UNL     1      -1.251 -26.010  50.287  1.00  0.00    -0.013 C 
HETATM    7  C9  UNL     1      -0.020 -25.162  50.201  1.00  0.00     0.015 C 
HETATM    8  C10 UNL     1      -0.891 -27.398  49.781  1.00  0.00     0.015 C 
HETATM    9  C11 UNL     1       0.263 -27.987  50.525  1.00  0.00     0.033 C 
HETATM   10  C12 UNL     1      -0.291 -28.163  51.942  1.00  0.00     0.015 C 
ENDROOT
BRANCH   1  11
HETATM   11  N1  UNL     1       2.488 -27.224  49.711  1.00  0.00    -0.365 N 
HETATM   12  C2  UNL     1       3.823 -27.238  50.219  1.00  0.00     0.138 C 
HETATM   13  C1  UNL     1       4.891 -27.097  49.177  1.00  0.00     0.094 C 
HETATM   14  S1  UNL     1       4.877 -28.681  48.265  1.00  0.00    -0.162 SA
HETATM   15  C14 UNL     1       3.129 -29.207  48.419  1.00  0.00     0.118 C 
HETATM   16  C13 UNL     1       2.352 -27.891  48.500  1.00  0.00     0.073 C 
ENDBRANCH   1  11
TORSDOF 1
ENDMDL
MODEL 5
REMARK VINA RESULT: -3.693785274      1.077      2.095
REMARK  1 active torsions:
REMARK  status: ('A' for Active; 'I' for Inactive)
REMARK    1  A    between atoms: N1_3  and  C3_4 
ROOT
HETATM    1  C3  UNL     1       0.861 -26.052  51.136  1.00  0.00    -0.003 C 
HETATM    2  C4  UNL     1       0.171 -25.273  50.022  1.00  0.00     0.033 C 
HETATM    3  C5  UNL     1      -0.404 -24.024  50.684  1.00  0.00     0.015 C 
HETATM    4  C6  UNL     1      -1.309 -24.384  51.824  1.00  0.00    -0.013 C 
HETATM    5  C7  UNL     1      -2.511 -25.076  51.195  1.00  0.00     0.009 C 
HETATM    6  C8  UNL     1      -2.023 -26.309  50.467  1.00  0.00    -0.013 C 
HETATM    7  C9  UNL     1      -0.985 -26.015  49.427  1.00  0.00     0.015 C 
HETATM    8  C10 UNL     1      -1.376 -27.186  51.527  1.00  0.00     0.015 C 
HETATM    9  C11 UNL     1      -0.148 -26.560  52.104  1.00  0.00     0.033 C 
HETATM   10  C12 UNL     1      -0.695 -25.324  52.825  1.00  0.00     0.015 C 
ENDROOT
BRANCH   1  11
HETATM   11  N1  UNL     1       1.899 -26.891  50.728  1.00  0.00    -0.365 N 
HETATM   12  C2  UNL     1       1.779 -27.439  49.414  1.00  0.00     0.138 C 
HETATM   13  C1  UNL     1       2.772 -28.513  49.090  1.00  0.00     0.094 C 
HETATM   14  S1  UNL     1       4.374 -27.647  48.932  1.00  0.00    -0.162 SA
HETATM   15  C14 UNL     1       4.166 -26.227  50.070  1.00  0.00     0.118 C 
HETATM   16  C13 UNL     1       3.216 -26.752  51.148  1.00  0.00     0.073 C 
ENDBRANCH   1  11
TORSDOF 1
ENDMDL
