MODEL 1
REMARK VINA RESULT: -7.472582110      0.000      0.000
REMARK  10 active torsions:
REMARK  status: ('A' for Active; 'I' for Inactive)
REMARK    1  A    between atoms: C2_2  and  N1_3 
REMARK    2  A    between atoms: C3_4  and  C4_5 
REMARK    3  A    between atoms: C5_8  and  S1_9 
REMARK    4  A    between atoms: S1_9  and  S2_10 
REMARK    5  A    between atoms: S2_10  and  C6_11 
REMARK    6  A    between atoms: C7_14  and  N3_15 
REMARK    7  A    between atoms: N4_17  and  N5_19 
REMARK    8  A    between atoms: N5_19  and  O3_21 
REMARK    9  A    between atoms: C9_23  and  N6_24 
REMARK   10  A    between atoms: C10_29  and  O4_30 
ROOT
HETATM    1  C6  UNL     1       5.311  -4.881  39.694  1.00  0.00     0.134 A 
HETATM    2  N2  UNL     1       3.966  -4.867  39.967  1.00  0.00    -0.329 N 
ATOM      3  H2  UNL     1       3.336  -4.394  39.318  1.00  0.00     0.168 HD
HETATM    4  C7  UNL     1       3.454  -5.454  41.055  1.00  0.00     0.167 A 
HETATM    5  C9  UNL     1       4.280  -6.107  41.958  1.00  0.00     0.147 A 
HETATM    6  N7  UNL     1       5.588  -6.114  41.681  1.00  0.00    -0.318 N 
ATOM      7  H7  UNL     1       6.221  -6.586  42.327  1.00  0.00     0.169 HD
HETATM    8  C10 UNL     1       6.116  -5.512  40.566  1.00  0.00     0.177 A 
ENDROOT
BRANCH   1   9
HETATM    9  S2  UNL     1       5.749  -4.029  38.194  1.00  0.00    -0.030 SA
BRANCH   9  10
HETATM   10  S1  UNL     1       6.214  -2.030  38.708  1.00  0.00    -0.043 SA
BRANCH  10  11
HETATM   11  C5  UNL     1       4.966  -0.948  38.050  1.00  0.00     0.114 A 
HETATM   12  C3  UNL     1       4.008  -0.317  38.877  1.00  0.00     0.139 A 
HETATM   13  N1  UNL     1       3.116   0.562  38.375  1.00  0.00    -0.293 N 
HETATM   14  C12 UNL     1       3.130   0.852  37.035  1.00  0.00     0.330 A 
HETATM   15  N8  UNL     1       4.020   0.271  36.236  1.00  0.00    -0.274 N 
HETATM   16  O6  UNL     1       2.288   1.672  36.588  1.00  0.00    -0.246 OA
HETATM   17  C11 UNL     1       4.933  -0.619  36.717  1.00  0.00     0.269 A 
ATOM     18  H8  UNL     1       4.019   0.496  35.241  1.00  0.00     0.173 HD
HETATM   19  O5  UNL     1       5.774  -1.150  35.940  1.00  0.00    -0.266 OA
BRANCH  12  20
HETATM   20  C4  UNL     1       4.043  -0.719  40.274  1.00  0.00     0.228 C 
HETATM   21  O1  UNL     1       4.563  -0.032  41.167  1.00  0.00    -0.643 OA
HETATM   22  O2  UNL     1       3.451  -1.960  40.618  1.00  0.00    -0.643 OA
ENDBRANCH  12  20
BRANCH  13  23
HETATM   23  C2  UNL     1       2.152   1.243  39.220  1.00  0.00     0.130 C 
HETATM   24  C1  UNL     1       1.190   0.343  39.911  1.00  0.00     0.027 C 
ENDBRANCH  13  23
ENDBRANCH  10  11
ENDBRANCH   9  10
ENDBRANCH   1   9
BRANCH   8  25
HETATM   25  O4  UNL     1       7.488  -5.597  40.407  1.00  0.00    -0.344 OA
ATOM     26  H4  UNL     1       8.104  -5.458  41.116  1.00  0.00     0.219 HD
ENDBRANCH   8  25
BRANCH   4  27
HETATM   27  N3  UNL     1       2.068  -5.441  41.334  1.00  0.00    -0.266 N 
HETATM   28  N4  UNL     1       1.255  -6.196  40.761  1.00  0.00    -0.220 N 
ATOM     29  H4  UNL     1       0.277  -6.105  41.036  1.00  0.00     0.210 HD
ATOM     30  H3  UNL     1       1.716  -4.786  42.032  1.00  0.00     0.190 HD
BRANCH  28  31
HETATM   31  N5  UNL     1       1.542  -7.145  39.792  1.00  0.00    -0.192 N 
HETATM   32  C8  UNL     1       1.584  -8.565  40.133  1.00  0.00     0.209 C 
BRANCH  31  33
HETATM   33  O3  UNL     1       1.789  -6.788  38.514  1.00  0.00    -0.272 OA
ATOM     34  H3  UNL     1       1.168  -6.268  38.019  1.00  0.00     0.246 HD
ENDBRANCH  31  33
ENDBRANCH  28  31
ENDBRANCH   4  27
BRANCH   5  35
HETATM   35  N6  UNL     1       3.771  -6.667  43.000  1.00  0.00    -0.382 N 
ATOM     36  H62 UNL     1       3.201  -7.512  42.964  1.00  0.00     0.157 HD
ATOM     37  H61 UNL     1       3.933  -6.261  43.921  1.00  0.00     0.157 HD
ENDBRANCH   5  35
TORSDOF 10
ENDMDL
MODEL 2
REMARK VINA RESULT: -7.111704401      2.528      7.688
REMARK  10 active torsions:
REMARK  status: ('A' for Active; 'I' for Inactive)
REMARK    1  A    between atoms: C2_2  and  N1_3 
REMARK    2  A    between atoms: C3_4  and  C4_5 
REMARK    3  A    between atoms: C5_8  and  S1_9 
REMARK    4  A    between atoms: S1_9  and  S2_10 
REMARK    5  A    between atoms: S2_10  and  C6_11 
REMARK    6  A    between atoms: C7_14  and  N3_15 
REMARK    7  A    between atoms: N4_17  and  N5_19 
REMARK    8  A    between atoms: N5_19  and  O3_21 
REMARK    9  A    between atoms: C9_23  and  N6_24 
REMARK   10  A    between atoms: C10_29  and  O4_30 
ROOT
HETATM    1  C6  UNL     1       4.742  -1.914  39.127  1.00  0.00     0.134 A 
HETATM    2  N2  UNL     1       3.993  -0.812  38.798  1.00  0.00    -0.329 N 
ATOM      3  H2  UNL     1       3.262  -0.502  39.439  1.00  0.00     0.168 HD
HETATM    4  C7  UNL     1       4.191  -0.129  37.663  1.00  0.00     0.167 A 
HETATM    5  C9  UNL     1       5.177  -0.520  36.769  1.00  0.00     0.147 A 
HETATM    6  N7  UNL     1       5.899  -1.594  37.101  1.00  0.00    -0.318 N 
ATOM      7  H7  UNL     1       6.631  -1.906  36.463  1.00  0.00     0.169 HD
HETATM    8  C10 UNL     1       5.698  -2.297  38.263  1.00  0.00     0.177 A 
ENDROOT
BRANCH   1   9
HETATM    9  S2  UNL     1       4.288  -2.654  40.681  1.00  0.00    -0.030 SA
BRANCH   9  10
HETATM   10  S1  UNL     1       3.889  -4.701  40.321  1.00  0.00    -0.043 SA
BRANCH  10  11
HETATM   11  C5  UNL     1       4.671  -5.682  41.579  1.00  0.00     0.114 A 
HETATM   12  C3  UNL     1       3.927  -6.480  42.480  1.00  0.00     0.139 A 
HETATM   13  N1  UNL     1       4.536  -7.280  43.379  1.00  0.00    -0.293 N 
HETATM   14  C12 UNL     1       5.906  -7.324  43.429  1.00  0.00     0.330 A 
HETATM   15  N8  UNL     1       6.628  -6.584  42.593  1.00  0.00    -0.274 N 
HETATM   16  O6  UNL     1       6.453  -8.075  44.276  1.00  0.00    -0.246 OA
HETATM   17  C11 UNL     1       6.038  -5.768  41.674  1.00  0.00     0.269 A 
ATOM     18  H8  UNL     1       7.646  -6.627  42.641  1.00  0.00     0.173 HD
HETATM   19  O5  UNL     1       6.746  -5.082  40.885  1.00  0.00    -0.266 OA
BRANCH  12  20
HETATM   20  C4  UNL     1       2.483  -6.333  42.380  1.00  0.00     0.228 C 
HETATM   21  O1  UNL     1       1.844  -5.467  42.997  1.00  0.00    -0.643 OA
HETATM   22  O2  UNL     1       1.786  -7.231  41.534  1.00  0.00    -0.643 OA
ENDBRANCH  12  20
BRANCH  13  23
HETATM   23  C2  UNL     1       3.784  -8.129  44.284  1.00  0.00     0.130 C 
HETATM   24  C1  UNL     1       3.417  -7.486  45.575  1.00  0.00     0.027 C 
ENDBRANCH  13  23
ENDBRANCH  10  11
ENDBRANCH   9  10
ENDBRANCH   1   9
BRANCH   8  25
HETATM   25  O4  UNL     1       6.520  -3.390  38.477  1.00  0.00    -0.344 OA
ATOM     26  H4  UNL     1       6.282  -4.276  38.231  1.00  0.00     0.219 HD
ENDBRANCH   8  25
BRANCH   4  27
HETATM   27  N3  UNL     1       3.420   1.008  37.327  1.00  0.00    -0.266 N 
HETATM   28  N4  UNL     1       2.687   1.595  38.148  1.00  0.00    -0.220 N 
ATOM     29  H4  UNL     1       2.173   2.405  37.802  1.00  0.00     0.210 HD
ATOM     30  H3  UNL     1       3.466   1.363  36.371  1.00  0.00     0.190 HD
BRANCH  28  31
HETATM   31  N5  UNL     1       2.497   1.264  39.480  1.00  0.00    -0.192 N 
HETATM   32  C8  UNL     1       1.279   0.579  39.908  1.00  0.00     0.209 C 
BRANCH  31  33
HETATM   33  O3  UNL     1       3.423   1.562  40.415  1.00  0.00    -0.272 OA
ATOM     34  H3  UNL     1       3.429   2.407  40.850  1.00  0.00     0.246 HD
ENDBRANCH  31  33
ENDBRANCH  28  31
ENDBRANCH   4  27
BRANCH   5  35
HETATM   35  N6  UNL     1       5.354   0.148  35.682  1.00  0.00    -0.382 N 
ATOM     36  H62 UNL     1       4.832   0.993  35.449  1.00  0.00     0.157 HD
ATOM     37  H61 UNL     1       6.048  -0.165  35.004  1.00  0.00     0.157 HD
ENDBRANCH   5  35
TORSDOF 10
ENDMDL
MODEL 3
REMARK VINA RESULT: -7.061672467      2.027      7.355
REMARK  10 active torsions:
REMARK  status: ('A' for Active; 'I' for Inactive)
REMARK    1  A    between atoms: C2_2  and  N1_3 
REMARK    2  A    between atoms: C3_4  and  C4_5 
REMARK    3  A    between atoms: C5_8  and  S1_9 
REMARK    4  A    between atoms: S1_9  and  S2_10 
REMARK    5  A    between atoms: S2_10  and  C6_11 
REMARK    6  A    between atoms: C7_14  and  N3_15 
REMARK    7  A    between atoms: N4_17  and  N5_19 
REMARK    8  A    between atoms: N5_19  and  O3_21 
REMARK    9  A    between atoms: C9_23  and  N6_24 
REMARK   10  A    between atoms: C10_29  and  O4_30 
ROOT
HETATM    1  C6  UNL     1       5.202  -1.636  38.692  1.00  0.00     0.134 A 
HETATM    2  N2  UNL     1       4.224  -0.673  38.647  1.00  0.00    -0.329 N 
ATOM      3  H2  UNL     1       3.589  -0.576  39.440  1.00  0.00     0.168 HD
HETATM    4  C7  UNL     1       4.076   0.143  37.596  1.00  0.00     0.167 A 
HETATM    5  C9  UNL     1       4.921   0.041  36.501  1.00  0.00     0.147 A 
HETATM    6  N7  UNL     1       5.868  -0.900  36.557  1.00  0.00    -0.318 N 
ATOM      7  H7  UNL     1       6.505  -0.999  35.766  1.00  0.00     0.169 HD
HETATM    8  C10 UNL     1       6.022  -1.739  37.633  1.00  0.00     0.177 A 
ENDROOT
BRANCH   1   9
HETATM    9  S2  UNL     1       5.194  -2.598  40.189  1.00  0.00    -0.030 SA
BRANCH   9  10
HETATM   10  S1  UNL     1       4.905  -4.623  39.645  1.00  0.00    -0.043 SA
BRANCH  10  11
HETATM   11  C5  UNL     1       4.596  -5.587  41.106  1.00  0.00     0.114 A 
HETATM   12  C3  UNL     1       3.285  -5.863  41.559  1.00  0.00     0.139 A 
HETATM   13  N1  UNL     1       3.063  -6.661  42.624  1.00  0.00    -0.293 N 
HETATM   14  C12 UNL     1       4.126  -7.216  43.289  1.00  0.00     0.330 A 
HETATM   15  N8  UNL     1       5.368  -6.971  42.882  1.00  0.00    -0.274 N 
HETATM   16  O6  UNL     1       3.896  -7.954  44.280  1.00  0.00    -0.246 OA
HETATM   17  C11 UNL     1       5.621  -6.171  41.809  1.00  0.00     0.269 A 
ATOM     18  H8  UNL     1       6.150  -7.391  43.386  1.00  0.00     0.173 HD
HETATM   19  O5  UNL     1       6.809  -5.960  41.437  1.00  0.00    -0.266 OA
BRANCH  12  20
HETATM   20  C4  UNL     1       2.226  -5.196  40.818  1.00  0.00     0.228 C 
HETATM   21  O1  UNL     1       1.861  -4.034  41.052  1.00  0.00    -0.643 OA
HETATM   22  O2  UNL     1       1.589  -5.922  39.780  1.00  0.00    -0.643 OA
ENDBRANCH  12  20
BRANCH  13  23
HETATM   23  C2  UNL     1       1.722  -6.980  43.076  1.00  0.00     0.130 C 
HETATM   24  C1  UNL     1       1.153  -6.018  44.058  1.00  0.00     0.027 C 
ENDBRANCH  13  23
ENDBRANCH  10  11
ENDBRANCH   9  10
ENDBRANCH   1   9
BRANCH   8  25
HETATM   25  O4  UNL     1       7.046  -2.667  37.554  1.00  0.00    -0.344 OA
ATOM     26  H4  UNL     1       7.575  -2.922  38.301  1.00  0.00     0.219 HD
ENDBRANCH   8  25
BRANCH   4  27
HETATM   27  N3  UNL     1       3.070   1.136  37.552  1.00  0.00    -0.266 N 
HETATM   28  N4  UNL     1       2.382   1.446  38.545  1.00  0.00    -0.220 N 
ATOM     29  H4  UNL     1       1.682   2.175  38.406  1.00  0.00     0.210 HD
ATOM     30  H3  UNL     1       2.900   1.619  36.670  1.00  0.00     0.190 HD
BRANCH  28  31
HETATM   31  N5  UNL     1       2.467   0.905  39.819  1.00  0.00    -0.192 N 
HETATM   32  C8  UNL     1       1.484  -0.075  40.276  1.00  0.00     0.209 C 
BRANCH  31  33
HETATM   33  O3  UNL     1       3.451   1.265  40.668  1.00  0.00    -0.272 OA
ATOM     34  H3  UNL     1       3.887   0.624  41.218  1.00  0.00     0.246 HD
ENDBRANCH  31  33
ENDBRANCH  28  31
ENDBRANCH   4  27
BRANCH   5  35
HETATM   35  N6  UNL     1       4.765   0.834  35.498  1.00  0.00    -0.382 N 
ATOM     36  H62 UNL     1       4.412   0.532  34.590  1.00  0.00     0.157 HD
ATOM     37  H61 UNL     1       4.999   1.822  35.595  1.00  0.00     0.157 HD
ENDBRANCH   5  35
TORSDOF 10
ENDMDL
MODEL 4
REMARK VINA RESULT: -6.983129144      1.369      1.685
REMARK  10 active torsions:
REMARK  status: ('A' for Active; 'I' for Inactive)
REMARK    1  A    between atoms: C2_2  and  N1_3 
REMARK    2  A    between atoms: C3_4  and  C4_5 
REMARK    3  A    between atoms: C5_8  and  S1_9 
REMARK    4  A    between atoms: S1_9  and  S2_10 
REMARK    5  A    between atoms: S2_10  and  C6_11 
REMARK    6  A    between atoms: C7_14  and  N3_15 
REMARK    7  A    between atoms: N4_17  and  N5_19 
REMARK    8  A    between atoms: N5_19  and  O3_21 
REMARK    9  A    between atoms: C9_23  and  N6_24 
REMARK   10  A    between atoms: C10_29  and  O4_30 
ROOT
HETATM    1  C6  UNL     1       5.041  -5.171  40.147  1.00  0.00     0.134 A 
HETATM    2  N2  UNL     1       3.726  -5.553  40.052  1.00  0.00    -0.329 N 
ATOM      3  H2  UNL     1       3.164  -5.201  39.276  1.00  0.00     0.168 HD
HETATM    4  C7  UNL     1       3.156  -6.371  40.945  1.00  0.00     0.167 A 
HETATM    5  C9  UNL     1       3.889  -6.869  42.012  1.00  0.00     0.147 A 
HETATM    6  N7  UNL     1       5.168  -6.490  42.093  1.00  0.00    -0.318 N 
ATOM      7  H7  UNL     1       5.732  -6.840  42.868  1.00  0.00     0.169 HD
HETATM    8  C10 UNL     1       5.755  -5.651  41.180  1.00  0.00     0.177 A 
ENDROOT
BRANCH   1   9
HETATM    9  S2  UNL     1       5.567  -4.076  38.846  1.00  0.00    -0.030 SA
BRANCH   9  10
HETATM   10  S1  UNL     1       5.599  -2.114  39.639  1.00  0.00    -0.043 SA
BRANCH  10  11
HETATM   11  C5  UNL     1       4.956  -0.980  38.430  1.00  0.00     0.114 A 
HETATM   12  C3  UNL     1       3.989  -0.002  38.759  1.00  0.00     0.139 A 
HETATM   13  N1  UNL     1       3.567   0.903  37.851  1.00  0.00    -0.293 N 
HETATM   14  C12 UNL     1       4.080   0.877  36.579  1.00  0.00     0.330 A 
HETATM   15  N8  UNL     1       4.989  -0.034  36.246  1.00  0.00    -0.274 N 
HETATM   16  O6  UNL     1       3.671   1.727  35.749  1.00  0.00    -0.246 OA
HETATM   17  C11 UNL     1       5.434  -0.957  37.143  1.00  0.00     0.269 A 
ATOM     18  H8  UNL     1       5.363  -0.041  35.296  1.00  0.00     0.173 HD
HETATM   19  O5  UNL     1       6.306  -1.806  36.805  1.00  0.00    -0.266 OA
BRANCH  12  20
HETATM   20  C4  UNL     1       3.473  -0.080  40.117  1.00  0.00     0.228 C 
HETATM   21  O1  UNL     1       3.916   0.603  41.053  1.00  0.00    -0.643 OA
HETATM   22  O2  UNL     1       2.412  -0.987  40.368  1.00  0.00    -0.643 OA
ENDBRANCH  12  20
BRANCH  13  23
HETATM   23  C2  UNL     1       2.602   1.933  38.187  1.00  0.00     0.130 C 
HETATM   24  C1  UNL     1       1.187   1.474  38.206  1.00  0.00     0.027 C 
ENDBRANCH  13  23
ENDBRANCH  10  11
ENDBRANCH   9  10
ENDBRANCH   1   9
BRANCH   8  25
HETATM   25  O4  UNL     1       7.088  -5.342  41.388  1.00  0.00    -0.344 OA
ATOM     26  H4  UNL     1       7.788  -5.981  41.317  1.00  0.00     0.219 HD
ENDBRANCH   8  25
BRANCH   4  27
HETATM   27  N3  UNL     1       1.802  -6.765  40.846  1.00  0.00    -0.266 N 
HETATM   28  N4  UNL     1       0.857  -6.039  41.217  1.00  0.00    -0.220 N 
ATOM     29  H4  UNL     1      -0.083  -6.419  41.101  1.00  0.00     0.210 HD
ATOM     30  H3  UNL     1       1.588  -7.682  40.453  1.00  0.00     0.190 HD
BRANCH  28  31
HETATM   31  N5  UNL     1       0.949  -4.771  41.770  1.00  0.00    -0.192 N 
HETATM   32  C8  UNL     1       0.728  -4.568  43.200  1.00  0.00     0.209 C 
BRANCH  31  33
HETATM   33  O3  UNL     1       1.241  -3.695  41.010  1.00  0.00    -0.272 OA
ATOM     34  H3  UNL     1       1.223  -2.817  41.371  1.00  0.00     0.246 HD
ENDBRANCH  31  33
ENDBRANCH  28  31
ENDBRANCH   4  27
BRANCH   5  35
HETATM   35  N6  UNL     1       3.325  -7.655  42.863  1.00  0.00    -0.382 N 
ATOM     36  H62 UNL     1       2.362  -7.544  43.180  1.00  0.00     0.157 HD
ATOM     37  H61 UNL     1       3.850  -8.438  43.252  1.00  0.00     0.157 HD
ENDBRANCH   5  35
TORSDOF 10
ENDMDL
MODEL 5
REMARK VINA RESULT: -6.756996679      2.435      7.561
REMARK  10 active torsions:
REMARK  status: ('A' for Active; 'I' for Inactive)
REMARK    1  A    between atoms: C2_2  and  N1_3 
REMARK    2  A    between atoms: C3_4  and  C4_5 
REMARK    3  A    between atoms: C5_8  and  S1_9 
REMARK    4  A    between atoms: S1_9  and  S2_10 
REMARK    5  A    between atoms: S2_10  and  C6_11 
REMARK    6  A    between atoms: C7_14  and  N3_15 
REMARK    7  A    between atoms: N4_17  and  N5_19 
REMARK    8  A    between atoms: N5_19  and  O3_21 
REMARK    9  A    between atoms: C9_23  and  N6_24 
REMARK   10  A    between atoms: C10_29  and  O4_30 
ROOT
HETATM    1  C6  UNL     1       3.223  -0.701  39.646  1.00  0.00     0.134 A 
HETATM    2  N2  UNL     1       4.089  -0.878  38.596  1.00  0.00    -0.329 N 
ATOM      3  H2  UNL     1       4.791  -1.617  38.653  1.00  0.00     0.168 HD
HETATM    4  C7  UNL     1       4.043  -0.113  37.498  1.00  0.00     0.167 A 
HETATM    5  C9  UNL     1       3.101   0.900  37.385  1.00  0.00     0.147 A 
HETATM    6  N7  UNL     1       2.265   1.062  38.415  1.00  0.00    -0.318 N 
ATOM      7  H7  UNL     1       1.562   1.799  38.360  1.00  0.00     0.169 HD
HETATM    8  C10 UNL     1       2.310   0.280  39.542  1.00  0.00     0.177 A 
ENDROOT
BRANCH   1   9
HETATM    9  S2  UNL     1       3.486  -1.835  40.993  1.00  0.00    -0.030 SA
BRANCH   9  10
HETATM   10  S1  UNL     1       3.455  -3.794  40.192  1.00  0.00    -0.043 SA
BRANCH  10  11
HETATM   11  C5  UNL     1       4.479  -4.852  41.187  1.00  0.00     0.114 A 
HETATM   12  C3  UNL     1       3.939  -5.896  41.974  1.00  0.00     0.139 A 
HETATM   13  N1  UNL     1       4.733  -6.741  42.663  1.00  0.00    -0.293 N 
HETATM   14  C12 UNL     1       6.095  -6.589  42.606  1.00  0.00     0.330 A 
HETATM   15  N8  UNL     1       6.627  -5.615  41.874  1.00  0.00    -0.274 N 
HETATM   16  O6  UNL     1       6.816  -7.386  43.258  1.00  0.00    -0.246 OA
HETATM   17  C11 UNL     1       5.848  -4.749  41.167  1.00  0.00     0.269 A 
ATOM     18  H8  UNL     1       7.642  -5.514  41.840  1.00  0.00     0.173 HD
HETATM   19  O5  UNL     1       6.378  -3.839  40.471  1.00  0.00    -0.266 OA
BRANCH  12  20
HETATM   20  C4  UNL     1       2.485  -5.951  42.007  1.00  0.00     0.228 C 
HETATM   21  O1  UNL     1       1.798  -5.300  42.809  1.00  0.00    -0.643 OA
HETATM   22  O2  UNL     1       1.836  -6.793  41.070  1.00  0.00    -0.643 OA
ENDBRANCH  12  20
BRANCH  13  23
HETATM   23  C2  UNL     1       4.192  -7.836  43.445  1.00  0.00     0.130 C 
HETATM   24  C1  UNL     1       3.872  -7.491  44.857  1.00  0.00     0.027 C 
ENDBRANCH  13  23
ENDBRANCH  10  11
ENDBRANCH   9  10
ENDBRANCH   1   9
BRANCH   8  25
HETATM   25  O4  UNL     1       1.382   0.561  40.529  1.00  0.00    -0.344 OA
ATOM     26  H4  UNL     1       1.618   0.708  41.438  1.00  0.00     0.219 HD
ENDBRANCH   8  25
BRANCH   4  27
HETATM   27  N3  UNL     1       4.933  -0.298  36.416  1.00  0.00    -0.266 N 
HETATM   28  N4  UNL     1       5.902  -1.082  36.464  1.00  0.00    -0.220 N 
ATOM     29  H4  UNL     1       6.484  -1.140  35.628  1.00  0.00     0.210 HD
ATOM     30  H3  UNL     1       4.777   0.233  35.559  1.00  0.00     0.190 HD
BRANCH  28  31
HETATM   31  N5  UNL     1       6.273  -1.883  37.533  1.00  0.00    -0.192 N 
HETATM   32  C8  UNL     1       6.074  -3.330  37.481  1.00  0.00     0.209 C 
BRANCH  31  33
HETATM   33  O3  UNL     1       6.823  -1.355  38.646  1.00  0.00    -0.272 OA
ATOM     34  H3  UNL     1       7.758  -1.410  38.808  1.00  0.00     0.246 HD
ENDBRANCH  31  33
ENDBRANCH  28  31
ENDBRANCH   4  27
BRANCH   5  35
HETATM   35  N6  UNL     1       3.071   1.626  36.322  1.00  0.00    -0.382 N 
ATOM     36  H62 UNL     1       3.843   2.223  36.025  1.00  0.00     0.157 HD
ATOM     37  H61 UNL     1       2.240   1.620  35.730  1.00  0.00     0.157 HD
ENDBRANCH   5  35
TORSDOF 10
ENDMDL
