MODEL 1
REMARK VINA RESULT: -8.275352236      0.000      0.000
REMARK  4 active torsions:
REMARK  status: ('A' for Active; 'I' for Inactive)
REMARK    1  A    between atoms: C3_4  and  C4_5 
REMARK    2  A    between atoms: C6_9  and  C7_10 
REMARK    3  A    between atoms: C10_15  and  N4_16 
REMARK    4  A    between atoms: C16_24  and  C17_25 
ROOT
HETATM    1  C4  UNL     1      -5.855  12.820   0.886  1.00  0.00     0.037 A 
HETATM    2  C5  UNL     1      -6.179  11.489   1.024  1.00  0.00     0.105 A 
HETATM    3  N2  UNL     1      -7.200  10.949   0.383  1.00  0.00    -0.354 N 
ATOM      4  H2  UNL     1      -7.424   9.961   0.499  1.00  0.00     0.166 HD
HETATM    5  C6  UNL     1      -7.931  11.725  -0.418  1.00  0.00     0.086 A 
HETATM    6  N3  UNL     1      -7.642  13.019  -0.571  1.00  0.00    -0.331 N 
ATOM      7  H3  UNL     1      -8.225  13.579  -1.192  1.00  0.00     0.168 HD
HETATM    8  C10 UNL     1      -6.581  13.636   0.078  1.00  0.00     0.117 A 
ENDROOT
BRANCH   1   9
HETATM    9  C3  UNL     1      -4.660  13.231   1.611  1.00  0.00     0.022 A 
HETATM   10  C2  UNL     1      -4.618  13.621   2.916  1.00  0.00     0.124 A 
HETATM   11  N1  UNL     1      -3.376  14.015   3.198  1.00  0.00    -0.307 N 
HETATM   12  C1  UNL     1      -2.838  14.524   4.474  1.00  0.00     0.177 C 
HETATM   13  N6  UNL     1      -2.648  13.882   2.108  1.00  0.00    -0.300 N 
HETATM   14  C16 UNL     1      -3.393  13.401   1.094  1.00  0.00     0.064 A 
ATOM     15  H6  UNL     1      -1.656  14.111   2.042  1.00  0.00     0.187 HD
BRANCH  14  16
HETATM   16  C17 UNL     1      -2.903  13.132  -0.309  1.00  0.00     0.171 C 
HETATM   17  N5  UNL     1      -1.728  13.887  -0.644  1.00  0.00    -0.348 N 
HETATM   18  C18 UNL     1      -0.779  13.075  -1.362  1.00  0.00     0.221 C 
ATOM     19  H5  UNL     1      -1.585  14.869  -0.407  1.00  0.00     0.163 HD
HETATM   20  O1  UNL     1       0.340  13.401  -1.827  1.00  0.00    -0.273 OA
HETATM   21  C19 UNL     1      -1.390  11.720  -1.458  1.00  0.00     0.142 C 
HETATM   22  C20 UNL     1      -2.291  11.716  -0.247  1.00  0.00     0.207 C 
HETATM   23  F3  UNL     1      -3.307  10.777  -0.358  1.00  0.00    -0.246 F 
ENDBRANCH  14  16
ENDBRANCH   1   9
BRANCH   8  24
HETATM   24  N4  UNL     1      -6.380  15.007  -0.137  1.00  0.00    -0.366 N 
HETATM   25  C11 UNL     1      -6.895  15.864   0.975  1.00  0.00     0.130 C 
HETATM   26  C12 UNL     1      -8.117  16.572   0.370  1.00  0.00     0.099 C 
HETATM   27  C13 UNL     1      -7.647  17.487  -0.731  1.00  0.00     0.246 C 
HETATM   28  F1  UNL     1      -7.807  18.823  -0.379  1.00  0.00    -0.206 F 
HETATM   29  F2  UNL     1      -8.385  17.326  -1.897  1.00  0.00    -0.206 F 
HETATM   30  C14 UNL     1      -6.203  17.263  -0.992  1.00  0.00     0.099 C 
HETATM   31  C15 UNL     1      -5.836  15.772  -1.191  1.00  0.00     0.130 C 
ENDBRANCH   8  24
BRANCH   5  32
HETATM   32  C7  UNL     1      -9.089  11.084  -1.129  1.00  0.00     0.053 A 
HETATM   33  C8  UNL     1     -10.431  11.426  -0.470  1.00  0.00     0.013 A 
HETATM   34  C9  UNL     1     -10.048  11.953  -1.821  1.00  0.00     0.013 A 
ENDBRANCH   5  32
TORSDOF 4
ENDMDL
MODEL 2
REMARK VINA RESULT: -7.922467791      1.187      1.637
REMARK  4 active torsions:
REMARK  status: ('A' for Active; 'I' for Inactive)
REMARK    1  A    between atoms: C3_4  and  C4_5 
REMARK    2  A    between atoms: C6_9  and  C7_10 
REMARK    3  A    between atoms: C10_15  and  N4_16 
REMARK    4  A    between atoms: C16_24  and  C17_25 
ROOT
HETATM    1  C4  UNL     1      -5.882  12.805   0.913  1.00  0.00     0.037 A 
HETATM    2  C5  UNL     1      -6.177  11.462   0.961  1.00  0.00     0.105 A 
HETATM    3  N2  UNL     1      -7.194  10.946   0.293  1.00  0.00    -0.354 N 
ATOM      4  H2  UNL     1      -7.396   9.947   0.341  1.00  0.00     0.166 HD
HETATM    5  C6  UNL     1      -7.949  11.760  -0.445  1.00  0.00     0.086 A 
HETATM    6  N3  UNL     1      -7.688  13.068  -0.510  1.00  0.00    -0.331 N 
ATOM      7  H3  UNL     1      -8.290  13.657  -1.085  1.00  0.00     0.168 HD
HETATM    8  C10 UNL     1      -6.634  13.660   0.171  1.00  0.00     0.117 A 
ENDROOT
BRANCH   1   9
HETATM    9  C3  UNL     1      -4.689  13.191   1.654  1.00  0.00     0.022 A 
HETATM   10  C2  UNL     1      -4.654  13.564   2.964  1.00  0.00     0.124 A 
HETATM   11  N1  UNL     1      -3.409  13.936   3.263  1.00  0.00    -0.307 N 
HETATM   12  C1  UNL     1      -2.875  14.421   4.550  1.00  0.00     0.177 C 
HETATM   13  N6  UNL     1      -2.672  13.806   2.178  1.00  0.00    -0.300 N 
HETATM   14  C16 UNL     1      -3.415  13.349   1.152  1.00  0.00     0.064 A 
ATOM     15  H6  UNL     1      -1.677  14.022   2.124  1.00  0.00     0.187 HD
BRANCH  14  16
HETATM   16  C17 UNL     1      -2.915  13.090  -0.251  1.00  0.00     0.171 C 
HETATM   17  N5  UNL     1      -1.751  13.866  -0.580  1.00  0.00    -0.348 N 
HETATM   18  C18 UNL     1      -0.787  13.071  -1.296  1.00  0.00     0.221 C 
ATOM     19  H5  UNL     1      -1.625  14.849  -0.340  1.00  0.00     0.163 HD
HETATM   20  O1  UNL     1       0.328  13.415  -1.756  1.00  0.00    -0.273 OA
HETATM   21  C19 UNL     1      -1.376  11.706  -1.397  1.00  0.00     0.142 C 
HETATM   22  C20 UNL     1      -2.280  11.685  -0.189  1.00  0.00     0.207 C 
HETATM   23  F3  UNL     1      -3.281  10.730  -0.306  1.00  0.00    -0.246 F 
ENDBRANCH  14  16
ENDBRANCH   1   9
BRANCH   8  24
HETATM   24  N4  UNL     1      -6.464  15.047   0.051  1.00  0.00    -0.366 N 
HETATM   25  C11 UNL     1      -6.157  15.489  -1.344  1.00  0.00     0.130 C 
HETATM   26  C12 UNL     1      -4.686  15.930  -1.285  1.00  0.00     0.099 C 
HETATM   27  C13 UNL     1      -4.582  17.138  -0.390  1.00  0.00     0.246 C 
HETATM   28  F1  UNL     1      -4.263  18.279  -1.119  1.00  0.00    -0.206 F 
HETATM   29  F2  UNL     1      -3.565  17.009   0.548  1.00  0.00    -0.206 F 
HETATM   30  C14 UNL     1      -5.883  17.385   0.280  1.00  0.00     0.099 C 
HETATM   31  C15 UNL     1      -6.474  16.126   0.962  1.00  0.00     0.130 C 
ENDBRANCH   8  24
BRANCH   5  32
HETATM   32  C7  UNL     1      -9.101  11.146  -1.189  1.00  0.00     0.053 A 
HETATM   33  C8  UNL     1     -10.447  11.445  -0.516  1.00  0.00     0.013 A 
HETATM   34  C9  UNL     1     -10.065  12.040  -1.840  1.00  0.00     0.013 A 
ENDBRANCH   5  32
TORSDOF 4
ENDMDL
MODEL 3
REMARK VINA RESULT: -7.672413129      2.173      2.815
REMARK  4 active torsions:
REMARK  status: ('A' for Active; 'I' for Inactive)
REMARK    1  A    between atoms: C3_4  and  C4_5 
REMARK    2  A    between atoms: C6_9  and  C7_10 
REMARK    3  A    between atoms: C10_15  and  N4_16 
REMARK    4  A    between atoms: C16_24  and  C17_25 
ROOT
HETATM    1  C4  UNL     1      -7.732  13.886   1.131  1.00  0.00     0.037 A 
HETATM    2  C5  UNL     1      -7.791  12.821   2.001  1.00  0.00     0.105 A 
HETATM    3  N2  UNL     1      -8.835  12.012   2.043  1.00  0.00    -0.354 N 
ATOM      4  H2  UNL     1      -8.860  11.228   2.695  1.00  0.00     0.166 HD
HETATM    5  C6  UNL     1      -9.854  12.243   1.215  1.00  0.00     0.086 A 
HETATM    6  N3  UNL     1      -9.824  13.269   0.360  1.00  0.00    -0.331 N 
ATOM      7  H3  UNL     1     -10.623  13.411  -0.257  1.00  0.00     0.168 HD
HETATM    8  C10 UNL     1      -8.754  14.148   0.275  1.00  0.00     0.117 A 
ENDROOT
BRANCH   1   9
HETATM    9  C3  UNL     1      -6.481  14.633   1.171  1.00  0.00     0.022 A 
HETATM   10  C2  UNL     1      -6.350  15.945   1.513  1.00  0.00     0.124 A 
HETATM   11  N1  UNL     1      -5.077  16.300   1.340  1.00  0.00    -0.307 N 
HETATM   12  C1  UNL     1      -4.447  17.614   1.572  1.00  0.00     0.177 C 
HETATM   13  N6  UNL     1      -4.416  15.249   0.900  1.00  0.00    -0.300 N 
HETATM   14  C16 UNL     1      -5.237  14.189   0.777  1.00  0.00     0.064 A 
ATOM     15  H6  UNL     1      -3.419  15.240   0.684  1.00  0.00     0.187 HD
BRANCH  14  16
HETATM   16  C17 UNL     1      -4.836  12.816   0.288  1.00  0.00     0.171 C 
HETATM   17  N5  UNL     1      -3.764  12.855  -0.668  1.00  0.00    -0.348 N 
HETATM   18  C18 UNL     1      -2.805  11.812  -0.411  1.00  0.00     0.221 C 
ATOM     19  H5  UNL     1      -3.692  13.532  -1.429  1.00  0.00     0.163 HD
HETATM   20  O1  UNL     1      -1.760  11.532  -1.047  1.00  0.00    -0.273 OA
HETATM   21  C19 UNL     1      -3.297  11.092   0.797  1.00  0.00     0.142 C 
HETATM   22  C20 UNL     1      -4.095  12.175   1.480  1.00  0.00     0.207 C 
HETATM   23  F3  UNL     1      -5.028  11.652   2.366  1.00  0.00    -0.246 F 
ENDBRANCH  14  16
ENDBRANCH   1   9
BRANCH   8  24
HETATM   24  N4  UNL     1      -8.837  15.205  -0.643  1.00  0.00    -0.366 N 
HETATM   25  C11 UNL     1      -8.341  14.848  -2.007  1.00  0.00     0.130 C 
HETATM   26  C12 UNL     1      -7.029  15.634  -2.150  1.00  0.00     0.099 C 
HETATM   27  C13 UNL     1      -7.350  17.107  -2.153  1.00  0.00     0.246 C 
HETATM   28  F1  UNL     1      -7.116  17.671  -3.402  1.00  0.00    -0.206 F 
HETATM   29  F2  UNL     1      -6.543  17.821  -1.275  1.00  0.00    -0.206 F 
HETATM   30  C14 UNL     1      -8.784  17.313  -1.830  1.00  0.00     0.099 C 
HETATM   31  C15 UNL     1      -9.245  16.554  -0.561  1.00  0.00     0.130 C 
ENDBRANCH   8  24
BRANCH   5  32
HETATM   32  C7  UNL     1     -11.028  11.309   1.288  1.00  0.00     0.053 A 
HETATM   33  C8  UNL     1     -10.877  10.118   0.333  1.00  0.00     0.013 A 
HETATM   34  C9  UNL     1     -10.812   9.961   1.824  1.00  0.00     0.013 A 
ENDBRANCH   5  32
TORSDOF 4
ENDMDL
MODEL 4
REMARK VINA RESULT: -7.519572919      2.261      4.126
REMARK  4 active torsions:
REMARK  status: ('A' for Active; 'I' for Inactive)
REMARK    1  A    between atoms: C3_4  and  C4_5 
REMARK    2  A    between atoms: C6_9  and  C7_10 
REMARK    3  A    between atoms: C10_15  and  N4_16 
REMARK    4  A    between atoms: C16_24  and  C17_25 
ROOT
HETATM    1  C4  UNL     1      -5.628  14.765   0.558  1.00  0.00     0.037 A 
HETATM    2  C5  UNL     1      -5.367  15.919  -0.146  1.00  0.00     0.105 A 
HETATM    3  N2  UNL     1      -6.256  16.456  -0.962  1.00  0.00    -0.354 N 
ATOM      4  H2  UNL     1      -6.044  17.311  -1.475  1.00  0.00     0.166 HD
HETATM    5  C6  UNL     1      -7.439  15.854  -1.100  1.00  0.00     0.086 A 
HETATM    6  N3  UNL     1      -7.721  14.734  -0.430  1.00  0.00    -0.331 N 
ATOM      7  H3  UNL     1      -8.636  14.304  -0.563  1.00  0.00     0.168 HD
HETATM    8  C10 UNL     1      -6.823  14.129   0.438  1.00  0.00     0.117 A 
ENDROOT
BRANCH   1   9
HETATM    9  C3  UNL     1      -4.563  14.351   1.461  1.00  0.00     0.022 A 
HETATM   10  C2  UNL     1      -4.521  14.589   2.801  1.00  0.00     0.124 A 
HETATM   11  N1  UNL     1      -3.354  14.149   3.271  1.00  0.00    -0.307 N 
HETATM   12  C1  UNL     1      -2.844  14.186   4.655  1.00  0.00     0.177 C 
HETATM   13  N6  UNL     1      -2.671  13.646   2.263  1.00  0.00    -0.300 N 
HETATM   14  C16 UNL     1      -3.372  13.746   1.117  1.00  0.00     0.064 A 
ATOM     15  H6  UNL     1      -1.740  13.237   2.340  1.00  0.00     0.187 HD
BRANCH  14  16
HETATM   16  C17 UNL     1      -2.905  13.289  -0.245  1.00  0.00     0.171 C 
HETATM   17  N5  UNL     1      -1.679  13.917  -0.654  1.00  0.00    -0.348 N 
HETATM   18  C18 UNL     1      -0.792  12.964  -1.271  1.00  0.00     0.221 C 
ATOM     19  H5  UNL     1      -1.465  14.906  -0.525  1.00  0.00     0.163 HD
HETATM   20  O1  UNL     1       0.347  13.155  -1.761  1.00  0.00    -0.273 OA
HETATM   21  C19 UNL     1      -1.500  11.654  -1.221  1.00  0.00     0.142 C 
HETATM   22  C20 UNL     1      -2.396  11.849  -0.023  1.00  0.00     0.207 C 
HETATM   23  F3  UNL     1      -3.478  10.978  -0.037  1.00  0.00    -0.246 F 
ENDBRANCH  14  16
ENDBRANCH   1   9
BRANCH   8  24
HETATM   24  N4  UNL     1      -7.213  12.941   1.073  1.00  0.00    -0.366 N 
HETATM   25  C11 UNL     1      -7.224  11.756   0.161  1.00  0.00     0.130 C 
HETATM   26  C12 UNL     1      -8.714  11.431  -0.018  1.00  0.00     0.099 C 
HETATM   27  C13 UNL     1      -9.273  10.989   1.310  1.00  0.00     0.246 C 
HETATM   28  F1  UNL     1      -9.600   9.637   1.295  1.00  0.00    -0.206 F 
HETATM   29  F2  UNL     1     -10.457  11.646   1.625  1.00  0.00    -0.206 F 
HETATM   30  C14 UNL     1      -8.263  11.194   2.377  1.00  0.00     0.099 C 
HETATM   31  C15 UNL     1      -7.644  12.613   2.377  1.00  0.00     0.130 C 
ENDBRANCH   8  24
BRANCH   5  32
HETATM   32  C7  UNL     1      -8.428  16.485  -2.037  1.00  0.00     0.053 A 
HETATM   33  C8  UNL     1      -9.208  17.626  -1.369  1.00  0.00     0.013 A 
HETATM   34  C9  UNL     1      -8.203  17.873  -2.456  1.00  0.00     0.013 A 
ENDBRANCH   5  32
TORSDOF 4
ENDMDL
MODEL 5
REMARK VINA RESULT: -7.465368876      2.163      4.126
REMARK  4 active torsions:
REMARK  status: ('A' for Active; 'I' for Inactive)
REMARK    1  A    between atoms: C3_4  and  C4_5 
REMARK    2  A    between atoms: C6_9  and  C7_10 
REMARK    3  A    between atoms: C10_15  and  N4_16 
REMARK    4  A    between atoms: C16_24  and  C17_25 
ROOT
HETATM    1  C4  UNL     1      -5.387  15.613   1.371  1.00  0.00     0.037 A 
HETATM    2  C5  UNL     1      -5.307  16.987   1.411  1.00  0.00     0.105 A 
HETATM    3  N2  UNL     1      -6.205  17.755   0.820  1.00  0.00    -0.354 N 
ATOM      4  H2  UNL     1      -6.130  18.772   0.861  1.00  0.00     0.166 HD
HETATM    5  C6  UNL     1      -7.213  17.172   0.169  1.00  0.00     0.086 A 
HETATM    6  N3  UNL     1      -7.316  15.842   0.113  1.00  0.00    -0.331 N 
ATOM      7  H3  UNL     1      -8.101  15.435  -0.394  1.00  0.00     0.168 HD
HETATM    8  C10 UNL     1      -6.401  14.990   0.716  1.00  0.00     0.117 A 
ENDROOT
BRANCH   1   9
HETATM    9  C3  UNL     1      -4.352  14.924   2.131  1.00  0.00     0.022 A 
HETATM   10  C2  UNL     1      -4.210  14.954   3.485  1.00  0.00     0.124 A 
HETATM   11  N1  UNL     1      -3.100  14.289   3.807  1.00  0.00    -0.307 N 
HETATM   12  C1  UNL     1      -2.523  14.049   5.144  1.00  0.00     0.177 C 
HETATM   13  N6  UNL     1      -2.551  13.848   2.694  1.00  0.00    -0.300 N 
HETATM   14  C16 UNL     1      -3.285  14.214   1.625  1.00  0.00     0.064 A 
ATOM     15  H6  UNL     1      -1.689  13.304   2.648  1.00  0.00     0.187 HD
BRANCH  14  16
HETATM   16  C17 UNL     1      -2.959  13.900   0.183  1.00  0.00     0.171 C 
HETATM   17  N5  UNL     1      -1.674  14.401  -0.220  1.00  0.00    -0.348 N 
HETATM   18  C18 UNL     1      -0.972  13.434  -1.023  1.00  0.00     0.221 C 
ATOM     19  H5  UNL     1      -1.308  15.320   0.029  1.00  0.00     0.163 HD
HETATM   20  O1  UNL     1       0.158  13.531  -1.562  1.00  0.00    -0.273 OA
HETATM   21  C19 UNL     1      -1.865  12.244  -1.106  1.00  0.00     0.142 C 
HETATM   22  C20 UNL     1      -2.662  12.386   0.168  1.00  0.00     0.207 C 
HETATM   23  F3  UNL     1      -3.861  11.689   0.110  1.00  0.00    -0.246 F 
ENDBRANCH  14  16
ENDBRANCH   1   9
BRANCH   8  24
HETATM   24  N4  UNL     1      -6.591  13.608   0.575  1.00  0.00    -0.366 N 
HETATM   25  C11 UNL     1      -6.573  13.147  -0.847  1.00  0.00     0.130 C 
HETATM   26  C12 UNL     1      -8.031  12.759  -1.137  1.00  0.00     0.099 C 
HETATM   27  C13 UNL     1      -8.393  11.575  -0.278  1.00  0.00     0.246 C 
HETATM   28  F1  UNL     1      -8.572  10.430  -1.048  1.00  0.00    -0.206 F 
HETATM   29  F2  UNL     1      -9.598  11.758   0.388  1.00  0.00    -0.206 F 
HETATM   30  C14 UNL     1      -7.300  11.297   0.687  1.00  0.00     0.099 C 
HETATM   31  C15 UNL     1      -6.840  12.549   1.475  1.00  0.00     0.130 C 
ENDBRANCH   8  24
BRANCH   5  32
HETATM   32  C7  UNL     1      -8.216  18.071  -0.496  1.00  0.00     0.053 A 
HETATM   33  C8  UNL     1      -7.922  18.255  -1.991  1.00  0.00     0.013 A 
HETATM   34  C9  UNL     1      -9.115  17.489  -1.499  1.00  0.00     0.013 A 
ENDBRANCH   5  32
TORSDOF 4
ENDMDL
