MODEL 1
REMARK VINA RESULT: -8.020917898      0.000      0.000
REMARK  7 active torsions:
REMARK  status: ('A' for Active; 'I' for Inactive)
REMARK    1  A    between atoms: O1_2  and  C2_3 
REMARK    2  A    between atoms: C2_3  and  C3_4 
REMARK    3  A    between atoms: C3_4  and  O2_5 
REMARK    4  A    between atoms: N1_9  and  C6_10 
REMARK    5  A    between atoms: C11_16  and  C12_17 
REMARK    6  A    between atoms: C13_21  and  C14_22 
REMARK    7  A    between atoms: C18_26  and  C19_27 
ROOT
HETATM    1  C3  UNL     1      -5.028  12.373   0.681  1.00  0.00     0.083 C 
HETATM    2  C4  UNL     1      -5.072  13.105   1.976  1.00  0.00     0.059 C 
HETATM    3  C5  UNL     1      -5.564  14.547   1.787  1.00  0.00     0.121 C 
HETATM    4  N1  UNL     1      -6.888  14.571   1.196  1.00  0.00    -0.398 N 
HETATM    5  C11 UNL     1      -7.360  13.381   0.669  1.00  0.00     0.143 C 
HETATM    6  C20 UNL     1      -6.224  12.724  -0.116  1.00  0.00     0.072 C 
ENDROOT
BRANCH   5   7
HETATM    7  C12 UNL     1      -8.039  12.361   1.406  1.00  0.00     0.116 A 
HETATM    8  O4  UNL     1      -7.673  11.925   2.589  1.00  0.00    -0.239 OA
HETATM    9  N2  UNL     1      -8.423  11.019   3.042  1.00  0.00    -0.264 N 
HETATM   10  C13 UNL     1      -9.433  10.739   2.145  1.00  0.00     0.058 A 
ATOM     11  H2  UNL     1      -8.301  10.559   3.944  1.00  0.00     0.194 HD
HETATM   12  C18 UNL     1      -9.185  11.596   1.108  1.00  0.00     0.106 A 
BRANCH  10  13
HETATM   13  C14 UNL     1     -10.448   9.728   2.337  1.00  0.00    -0.006 C 
HETATM   14  C15 UNL     1     -10.662   8.751   1.206  1.00  0.00     0.021 C 
HETATM   15  C16 UNL     1      -9.964   8.813   3.497  1.00  0.00     0.021 C 
HETATM   16  C17 UNL     1     -11.784  10.214   2.787  1.00  0.00     0.021 C 
ENDBRANCH  10  13
BRANCH  12  17
HETATM   17  C19 UNL     1      -9.909  11.793  -0.105  1.00  0.00     0.421 C 
HETATM   18  F1  UNL     1      -9.503  10.997  -1.170  1.00  0.00    -0.166 F 
HETATM   19  F2  UNL     1     -11.282  11.608  -0.087  1.00  0.00    -0.166 F 
HETATM   20  F3  UNL     1      -9.919  13.106  -0.586  1.00  0.00    -0.166 F 
ENDBRANCH  12  17
ENDBRANCH   5   7
BRANCH   4  21
HETATM   21  C6  UNL     1      -7.069  15.783   0.464  1.00  0.00     0.084 C 
HETATM   22  C7  UNL     1      -8.551  16.016   0.127  1.00  0.00     0.051 C 
HETATM   23  C8  UNL     1      -8.743  17.270  -0.664  1.00  0.00     0.169 C 
HETATM   24  O3  UNL     1      -7.549  17.929  -0.838  1.00  0.00    -0.391 OA
HETATM   25  C9  UNL     1      -7.071  18.253   0.428  1.00  0.00     0.169 C 
HETATM   26  C10 UNL     1      -6.440  17.011   1.017  1.00  0.00     0.051 C 
ENDBRANCH   4  21
BRANCH   1  27
HETATM   27  C2  UNL     1      -3.802  12.759  -0.129  1.00  0.00     0.205 C 
BRANCH  27  28
HETATM   28  O1  UNL     1      -3.088  11.618  -0.452  1.00  0.00    -0.393 OA
HETATM   29  C1  UNL     1      -1.810  11.962  -0.879  1.00  0.00     0.201 C 
ENDBRANCH  27  28
ENDBRANCH   1  27
BRANCH   1  30
HETATM   30  O2  UNL     1      -4.937  10.996   0.877  1.00  0.00    -0.388 OA
ATOM     31  H2  UNL     1      -5.457  10.809   1.649  1.00  0.00     0.210 HD
ENDBRANCH   1  30
TORSDOF 7
ENDMDL
MODEL 2
REMARK VINA RESULT: -7.821435517      1.197      1.274
REMARK  7 active torsions:
REMARK  status: ('A' for Active; 'I' for Inactive)
REMARK    1  A    between atoms: O1_2  and  C2_3 
REMARK    2  A    between atoms: C2_3  and  C3_4 
REMARK    3  A    between atoms: C3_4  and  O2_5 
REMARK    4  A    between atoms: N1_9  and  C6_10 
REMARK    5  A    between atoms: C11_16  and  C12_17 
REMARK    6  A    between atoms: C13_21  and  C14_22 
REMARK    7  A    between atoms: C18_26  and  C19_27 
ROOT
HETATM    1  C3  UNL     1      -5.049  11.738   1.450  1.00  0.00     0.083 C 
HETATM    2  C4  UNL     1      -5.428  12.740   2.484  1.00  0.00     0.059 C 
HETATM    3  C5  UNL     1      -5.578  14.141   1.878  1.00  0.00     0.121 C 
HETATM    4  N1  UNL     1      -6.584  14.151   0.834  1.00  0.00    -0.398 N 
HETATM    5  C11 UNL     1      -7.028  12.921   0.381  1.00  0.00     0.143 C 
HETATM    6  C20 UNL     1      -5.812  12.009   0.210  1.00  0.00     0.072 C 
ENDROOT
BRANCH   5   7
HETATM    7  C12 UNL     1      -8.080  12.152   0.968  1.00  0.00     0.116 A 
HETATM    8  O4  UNL     1      -8.191  11.896   2.252  1.00  0.00    -0.239 OA
HETATM    9  N2  UNL     1      -9.200  11.196   2.536  1.00  0.00    -0.264 N 
HETATM   10  C13 UNL     1      -9.912  10.893   1.393  1.00  0.00     0.058 A 
ATOM     11  H2  UNL     1      -9.455  10.896   3.477  1.00  0.00     0.194 HD
HETATM   12  C18 UNL     1      -9.197  11.504   0.401  1.00  0.00     0.106 A 
BRANCH  10  13
HETATM   13  C14 UNL     1     -11.106  10.079   1.359  1.00  0.00    -0.006 C 
HETATM   14  C15 UNL     1     -10.989   8.723   0.704  1.00  0.00     0.021 C 
HETATM   15  C16 UNL     1     -11.455   9.722   2.831  1.00  0.00     0.021 C 
HETATM   16  C17 UNL     1     -12.338  10.738   0.840  1.00  0.00     0.021 C 
ENDBRANCH  10  13
BRANCH  12  17
HETATM   17  C19 UNL     1      -9.455  11.571  -1.000  1.00  0.00     0.421 C 
HETATM   18  F1  UNL     1      -8.458  11.037  -1.809  1.00  0.00    -0.166 F 
HETATM   19  F2  UNL     1     -10.603  10.966  -1.486  1.00  0.00    -0.166 F 
HETATM   20  F3  UNL     1      -9.713  12.852  -1.499  1.00  0.00    -0.166 F 
ENDBRANCH  12  17
ENDBRANCH   5   7
BRANCH   4  21
HETATM   21  C6  UNL     1      -6.293  15.182  -0.109  1.00  0.00     0.084 C 
HETATM   22  C7  UNL     1      -7.271  15.146  -1.296  1.00  0.00     0.051 C 
HETATM   23  C8  UNL     1      -6.954  16.206  -2.301  1.00  0.00     0.169 C 
HETATM   24  O3  UNL     1      -5.903  16.986  -1.878  1.00  0.00    -0.391 OA
HETATM   25  C9  UNL     1      -6.292  17.585  -0.683  1.00  0.00     0.169 C 
HETATM   26  C10 UNL     1      -6.136  16.562   0.420  1.00  0.00     0.051 C 
ENDBRANCH   4  21
BRANCH   1  27
HETATM   27  C2  UNL     1      -3.570  11.826   1.111  1.00  0.00     0.205 C 
BRANCH  27  28
HETATM   28  O1  UNL     1      -3.337  11.185  -0.093  1.00  0.00    -0.393 OA
HETATM   29  C1  UNL     1      -2.204  11.714  -0.701  1.00  0.00     0.201 C 
ENDBRANCH  27  28
ENDBRANCH   1  27
BRANCH   1  30
HETATM   30  O2  UNL     1      -5.260  10.436   1.900  1.00  0.00    -0.388 OA
ATOM     31  H2  UNL     1      -6.179  10.252   1.742  1.00  0.00     0.210 HD
ENDBRANCH   1  30
TORSDOF 7
ENDMDL
MODEL 3
REMARK VINA RESULT: -7.750847417      0.635      1.047
REMARK  7 active torsions:
REMARK  status: ('A' for Active; 'I' for Inactive)
REMARK    1  A    between atoms: O1_2  and  C2_3 
REMARK    2  A    between atoms: C2_3  and  C3_4 
REMARK    3  A    between atoms: C3_4  and  O2_5 
REMARK    4  A    between atoms: N1_9  and  C6_10 
REMARK    5  A    between atoms: C11_16  and  C12_17 
REMARK    6  A    between atoms: C13_21  and  C14_22 
REMARK    7  A    between atoms: C18_26  and  C19_27 
ROOT
HETATM    1  C3  UNL     1      -5.327  12.800   0.393  1.00  0.00     0.083 C 
HETATM    2  C4  UNL     1      -5.336  13.487   1.713  1.00  0.00     0.059 C 
HETATM    3  C5  UNL     1      -5.933  14.896   1.607  1.00  0.00     0.121 C 
HETATM    4  N1  UNL     1      -7.291  14.848   1.101  1.00  0.00    -0.398 N 
HETATM    5  C11 UNL     1      -7.717  13.646   0.563  1.00  0.00     0.143 C 
HETATM    6  C20 UNL     1      -6.593  13.093  -0.315  1.00  0.00     0.072 C 
ENDROOT
BRANCH   5   7
HETATM    7  C12 UNL     1      -8.277  12.559   1.304  1.00  0.00     0.116 A 
HETATM    8  O4  UNL     1      -7.784  12.088   2.426  1.00  0.00    -0.239 OA
HETATM    9  N2  UNL     1      -8.446  11.124   2.897  1.00  0.00    -0.264 N 
HETATM   10  C13 UNL     1      -9.521  10.836   2.080  1.00  0.00     0.058 A 
ATOM     11  H2  UNL     1      -8.221  10.629   3.759  1.00  0.00     0.194 HD
HETATM   12  C18 UNL     1      -9.409  11.752   1.072  1.00  0.00     0.106 A 
BRANCH  10  13
HETATM   13  C14 UNL     1     -10.466   9.767   2.311  1.00  0.00    -0.006 C 
HETATM   14  C15 UNL     1     -10.708   8.811   1.168  1.00  0.00     0.021 C 
HETATM   15  C16 UNL     1      -9.855   8.848   3.405  1.00  0.00     0.021 C 
HETATM   16  C17 UNL     1     -11.790  10.168   2.868  1.00  0.00     0.021 C 
ENDBRANCH  10  13
BRANCH  12  17
HETATM   17  C19 UNL     1     -10.250  11.970  -0.060  1.00  0.00     0.421 C 
HETATM   18  F1  UNL     1      -9.810  11.386  -1.243  1.00  0.00    -0.166 F 
HETATM   19  F2  UNL     1     -11.570  11.555   0.015  1.00  0.00    -0.166 F 
HETATM   20  F3  UNL     1     -10.508  13.310  -0.362  1.00  0.00    -0.166 F 
ENDBRANCH  12  17
ENDBRANCH   5   7
BRANCH   4  21
HETATM   21  C6  UNL     1      -7.599  16.067   0.426  1.00  0.00     0.084 C 
HETATM   22  C7  UNL     1      -6.404  16.564  -0.405  1.00  0.00     0.051 C 
HETATM   23  C8  UNL     1      -6.711  17.855  -1.092  1.00  0.00     0.169 C 
HETATM   24  O3  UNL     1      -8.010  18.241  -0.855  1.00  0.00    -0.391 OA
HETATM   25  C9  UNL     1      -8.834  17.241  -1.363  1.00  0.00     0.169 C 
HETATM   26  C10 UNL     1      -8.859  16.108  -0.362  1.00  0.00     0.051 C 
ENDBRANCH   4  21
BRANCH   1  27
HETATM   27  C2  UNL     1      -4.185  13.295  -0.479  1.00  0.00     0.205 C 
BRANCH  27  28
HETATM   28  O1  UNL     1      -3.170  12.354  -0.481  1.00  0.00    -0.393 OA
HETATM   29  C1  UNL     1      -2.074  12.839  -1.187  1.00  0.00     0.201 C 
ENDBRANCH  27  28
ENDBRANCH   1  27
BRANCH   1  30
HETATM   30  O2  UNL     1      -5.132  11.427   0.533  1.00  0.00    -0.388 OA
ATOM     31  H2  UNL     1      -4.192  11.294   0.502  1.00  0.00     0.210 HD
ENDBRANCH   1  30
TORSDOF 7
ENDMDL
MODEL 4
REMARK VINA RESULT: -7.465623284      0.938      1.031
REMARK  7 active torsions:
REMARK  status: ('A' for Active; 'I' for Inactive)
REMARK    1  A    between atoms: O1_2  and  C2_3 
REMARK    2  A    between atoms: C2_3  and  C3_4 
REMARK    3  A    between atoms: C3_4  and  O2_5 
REMARK    4  A    between atoms: N1_9  and  C6_10 
REMARK    5  A    between atoms: C11_16  and  C12_17 
REMARK    6  A    between atoms: C13_21  and  C14_22 
REMARK    7  A    between atoms: C18_26  and  C19_27 
ROOT
HETATM    1  C3  UNL     1      -4.980  12.577   0.938  1.00  0.00     0.083 C 
HETATM    2  C4  UNL     1      -5.305  13.501   2.059  1.00  0.00     0.059 C 
HETATM    3  C5  UNL     1      -5.903  14.817   1.545  1.00  0.00     0.121 C 
HETATM    4  N1  UNL     1      -7.110  14.575   0.779  1.00  0.00    -0.398 N 
HETATM    5  C11 UNL     1      -7.369  13.264   0.416  1.00  0.00     0.143 C 
HETATM    6  C20 UNL     1      -6.062  12.637  -0.070  1.00  0.00     0.072 C 
ENDROOT
BRANCH   5   7
HETATM    7  C12 UNL     1      -8.051  12.301   1.223  1.00  0.00     0.116 A 
HETATM    8  O4  UNL     1      -7.695  11.961   2.441  1.00  0.00    -0.239 OA
HETATM    9  N2  UNL     1      -8.446  11.089   2.955  1.00  0.00    -0.264 N 
HETATM   10  C13 UNL     1      -9.444  10.733   2.072  1.00  0.00     0.058 A 
ATOM     11  H2  UNL     1      -8.331  10.701   3.892  1.00  0.00     0.194 HD
HETATM   12  C18 UNL     1      -9.190  11.508   0.975  1.00  0.00     0.106 A 
BRANCH  10  13
HETATM   13  C14 UNL     1     -10.456   9.735   2.333  1.00  0.00    -0.006 C 
HETATM   14  C15 UNL     1     -10.630   8.652   1.295  1.00  0.00     0.021 C 
HETATM   15  C16 UNL     1      -9.998   8.939   3.587  1.00  0.00     0.021 C 
HETATM   16  C17 UNL     1     -11.808  10.247   2.699  1.00  0.00     0.021 C 
ENDBRANCH  10  13
BRANCH  12  17
HETATM   17  C19 UNL     1      -9.902  11.606  -0.257  1.00  0.00     0.421 C 
HETATM   18  F1  UNL     1      -9.253  11.059  -1.358  1.00  0.00    -0.166 F 
HETATM   19  F2  UNL     1     -11.164  11.040  -0.332  1.00  0.00    -0.166 F 
HETATM   20  F3  UNL     1     -10.272  12.901  -0.631  1.00  0.00    -0.166 F 
ENDBRANCH  12  17
ENDBRANCH   5   7
BRANCH   4  21
HETATM   21  C6  UNL     1      -7.293  15.617  -0.178  1.00  0.00     0.084 C 
HETATM   22  C7  UNL     1      -8.013  15.100  -1.436  1.00  0.00     0.051 C 
HETATM   23  C8  UNL     1      -8.181  16.181  -2.455  1.00  0.00     0.169 C 
HETATM   24  O3  UNL     1      -7.703  17.381  -1.983  1.00  0.00    -0.391 OA
HETATM   25  C9  UNL     1      -8.443  17.698  -0.847  1.00  0.00     0.169 C 
HETATM   26  C10 UNL     1      -7.895  16.887   0.305  1.00  0.00     0.051 C 
ENDBRANCH   4  21
BRANCH   1  27
HETATM   27  C2  UNL     1      -3.685  12.979   0.251  1.00  0.00     0.205 C 
BRANCH  27  28
HETATM   28  O1  UNL     1      -2.642  12.900   1.158  1.00  0.00    -0.393 OA
HETATM   29  C1  UNL     1      -1.734  13.929   0.929  1.00  0.00     0.201 C 
ENDBRANCH  27  28
ENDBRANCH   1  27
BRANCH   1  30
HETATM   30  O2  UNL     1      -4.782  11.274   1.392  1.00  0.00    -0.388 OA
ATOM     31  H2  UNL     1      -4.350  10.815   0.681  1.00  0.00     0.210 HD
ENDBRANCH   1  30
TORSDOF 7
ENDMDL
MODEL 5
REMARK VINA RESULT: -7.461764021      2.145      4.606
REMARK  7 active torsions:
REMARK  status: ('A' for Active; 'I' for Inactive)
REMARK    1  A    between atoms: O1_2  and  C2_3 
REMARK    2  A    between atoms: C2_3  and  C3_4 
REMARK    3  A    between atoms: C3_4  and  O2_5 
REMARK    4  A    between atoms: N1_9  and  C6_10 
REMARK    5  A    between atoms: C11_16  and  C12_17 
REMARK    6  A    between atoms: C13_21  and  C14_22 
REMARK    7  A    between atoms: C18_26  and  C19_27 
ROOT
HETATM    1  C3  UNL     1      -8.245  15.637  -0.358  1.00  0.00     0.083 C 
HETATM    2  C4  UNL     1      -7.805  14.729  -1.454  1.00  0.00     0.059 C 
HETATM    3  C5  UNL     1      -6.416  14.143  -1.170  1.00  0.00     0.121 C 
HETATM    4  N1  UNL     1      -6.409  13.401   0.076  1.00  0.00    -0.398 N 
HETATM    5  C11 UNL     1      -7.507  13.559   0.904  1.00  0.00     0.143 C 
HETATM    6  C20 UNL     1      -7.864  15.046   0.944  1.00  0.00     0.072 C 
ENDROOT
BRANCH   5   7
HETATM    7  C12 UNL     1      -8.723  12.812   0.818  1.00  0.00     0.116 A 
HETATM    8  O4  UNL     1      -9.787  13.192   0.147  1.00  0.00    -0.239 OA
HETATM    9  N2  UNL     1     -10.741  12.372   0.219  1.00  0.00    -0.264 N 
HETATM   10  C13 UNL     1     -10.388  11.289   0.998  1.00  0.00     0.058 A 
ATOM     11  H2  UNL     1     -11.646  12.491  -0.236  1.00  0.00     0.194 HD
HETATM   12  C18 UNL     1      -9.104  11.574   1.375  1.00  0.00     0.106 A 
BRANCH  10  13
HETATM   13  C14 UNL     1     -11.260  10.181   1.312  1.00  0.00    -0.006 C 
HETATM   14  C15 UNL     1     -11.589   9.962   2.769  1.00  0.00     0.021 C 
HETATM   15  C16 UNL     1     -12.647  10.504   0.690  1.00  0.00     0.021 C 
HETATM   16  C17 UNL     1     -10.891   8.864   0.718  1.00  0.00     0.021 C 
ENDBRANCH  10  13
BRANCH  12  17
HETATM   17  C19 UNL     1      -8.196  10.811   2.167  1.00  0.00     0.421 C 
HETATM   18  F1  UNL     1      -7.723  11.455   3.305  1.00  0.00    -0.166 F 
HETATM   19  F2  UNL     1      -8.622   9.589   2.659  1.00  0.00    -0.166 F 
HETATM   20  F3  UNL     1      -7.065  10.340   1.492  1.00  0.00    -0.166 F 
ENDBRANCH  12  17
ENDBRANCH   5   7
BRANCH   4  21
HETATM   21  C6  UNL     1      -5.098  13.414   0.639  1.00  0.00     0.084 C 
HETATM   22  C7  UNL     1      -5.148  13.301   2.172  1.00  0.00     0.051 C 
HETATM   23  C8  UNL     1      -3.778  13.343   2.770  1.00  0.00     0.169 C 
HETATM   24  O3  UNL     1      -2.816  13.410   1.790  1.00  0.00    -0.391 OA
HETATM   25  C9  UNL     1      -2.944  12.264   1.011  1.00  0.00     0.169 C 
HETATM   26  C10 UNL     1      -4.100  12.477   0.060  1.00  0.00     0.051 C 
ENDBRANCH   4  21
BRANCH   1  27
HETATM   27  C2  UNL     1      -7.572  16.995  -0.464  1.00  0.00     0.205 C 
BRANCH  27  28
HETATM   28  O1  UNL     1      -6.892  17.262   0.712  1.00  0.00    -0.393 OA
HETATM   29  C1  UNL     1      -6.915  18.628   0.975  1.00  0.00     0.201 C 
ENDBRANCH  27  28
ENDBRANCH   1  27
BRANCH   1  30
HETATM   30  O2  UNL     1      -9.615  15.884  -0.420  1.00  0.00    -0.388 OA
ATOM     31  H2  UNL     1      -9.719  16.619  -1.014  1.00  0.00     0.210 HD
ENDBRANCH   1  30
TORSDOF 7
ENDMDL
