MODEL 1
REMARK VINA RESULT: -6.405604902      0.000      0.000
REMARK  6 active torsions:
REMARK  status: ('A' for Active; 'I' for Inactive)
REMARK    1  A    between atoms: S1_2  and  C2_3 
REMARK    2  A    between atoms: C6_8  and  O1_9 
REMARK    3  A    between atoms: C9_14  and  C10_15 
REMARK    4  A    between atoms: C10_15  and  C11_16 
REMARK    5  A    between atoms: C11_16  and  N1_17 
REMARK    6  A    between atoms: N1_17  and  N2_19 
ROOT
HETATM    1  C2  UNL     1      21.074  13.676  62.359  1.00  0.00     0.001 C 
HETATM    2  C3  UNL     1      20.727  14.020  61.119  1.00  0.00     0.002 C 
HETATM    3 BR1  UNL     1      20.601  15.801  60.517  1.00  0.00    -0.055 Br
HETATM    4  C4  UNL     1      20.444  12.864  60.177  1.00  0.00     0.050 C 
HETATM    5  C5  UNL     1      19.477  11.868  60.765  1.00  0.00     0.046 C 
HETATM    6  C6  UNL     1      19.658  11.716  62.230  1.00  0.00     0.094 C 
HETATM    7  C7  UNL     1      19.815  10.311  62.714  1.00  0.00     0.153 C 
HETATM    8  C8  UNL     1      18.603   9.721  63.349  1.00  0.00     0.042 C 
HETATM    9  O2  UNL     1      20.954  10.217  63.498  1.00  0.00    -0.377 OA
HETATM   10  C9  UNL     1      21.358  11.561  63.764  1.00  0.00     0.135 C 
HETATM   11  C12 UNL     1      21.075  12.210  62.520  1.00  0.00     0.092 C 
ENDROOT
BRANCH  10  12
HETATM   12  C10 UNL     1      20.705  11.934  65.026  1.00  0.00     0.054 C 
BRANCH  12  13
HETATM   13  C11 UNL     1      21.506  11.376  66.226  1.00  0.00     0.143 C 
BRANCH  13  14
HETATM   14  N1  UNL     1      21.260   9.956  66.374  1.00  0.00    -0.323 N 
ATOM     15  H1  UNL     1      22.052   9.314  66.413  1.00  0.00     0.181 HD
BRANCH  14  16
HETATM   16  N2  UNL     1      20.112   9.504  66.454  1.00  0.00    -0.254 N 
HETATM   17  N3  UNL     1      19.078   9.075  66.994  1.00  0.00    -0.331 N 
ATOM     18  H32 UNL     1      19.383   9.145  67.964  1.00  0.00     0.178 HD
ATOM     19  H31 UNL     1      18.131   8.702  67.060  1.00  0.00     0.178 HD
ATOM     20  H2  UNL     1      19.853   9.452  65.469  1.00  0.00     0.207 HD
ENDBRANCH  14  16
ENDBRANCH  13  14
ENDBRANCH  12  13
ENDBRANCH  10  12
BRANCH   1  21
HETATM   21  S1  UNL     1      21.461  14.817  63.595  1.00  0.00    -0.137 SA
HETATM   22  C1  UNL     1      23.067  14.822  64.280  1.00  0.00     0.095 C 
ENDBRANCH   1  21
BRANCH   6  23
HETATM   23  O1  UNL     1      18.690  12.457  62.877  1.00  0.00    -0.386 OA
ATOM     24  H1  UNL     1      19.068  13.286  63.147  1.00  0.00     0.210 HD
ENDBRANCH   6  23
TORSDOF 6
ENDMDL
MODEL 2
REMARK VINA RESULT: -5.969629806      3.151      4.381
REMARK  6 active torsions:
REMARK  status: ('A' for Active; 'I' for Inactive)
REMARK    1  A    between atoms: S1_2  and  C2_3 
REMARK    2  A    between atoms: C6_8  and  O1_9 
REMARK    3  A    between atoms: C9_14  and  C10_15 
REMARK    4  A    between atoms: C10_15  and  C11_16 
REMARK    5  A    between atoms: C11_16  and  N1_17 
REMARK    6  A    between atoms: N1_17  and  N2_19 
ROOT
HETATM    1  C2  UNL     1      18.975  10.775  62.685  1.00  0.00     0.001 C 
HETATM    2  C3  UNL     1      17.858  10.125  63.016  1.00  0.00     0.002 C 
HETATM    3 BR1  UNL     1      16.154  10.544  62.333  1.00  0.00    -0.055 Br
HETATM    4  C4  UNL     1      18.038   8.978  63.994  1.00  0.00     0.050 C 
HETATM    5  C5  UNL     1      18.825   9.382  65.215  1.00  0.00     0.046 C 
HETATM    6  C6  UNL     1      19.886  10.368  64.892  1.00  0.00     0.094 C 
HETATM    7  C7  UNL     1      21.255  10.019  65.380  1.00  0.00     0.153 C 
HETATM    8  C8  UNL     1      21.698  10.754  66.598  1.00  0.00     0.042 C 
HETATM    9  O2  UNL     1      22.155  10.093  64.329  1.00  0.00    -0.377 OA
HETATM   10  C9  UNL     1      21.463  10.752  63.268  1.00  0.00     0.135 C 
HETATM   11  C12 UNL     1      20.142  10.215  63.392  1.00  0.00     0.092 C 
ENDROOT
BRANCH  10  12
HETATM   12  C10 UNL     1      21.760  12.183  63.423  1.00  0.00     0.054 C 
BRANCH  12  13
HETATM   13  C11 UNL     1      23.252  12.453  63.118  1.00  0.00     0.143 C 
BRANCH  13  14
HETATM   14  N1  UNL     1      24.040  12.326  64.327  1.00  0.00    -0.323 N 
ATOM     15  H1  UNL     1      24.017  13.076  65.018  1.00  0.00     0.181 HD
BRANCH  14  16
HETATM   16  N2  UNL     1      24.739  11.329  64.541  1.00  0.00    -0.254 N 
HETATM   17  N3  UNL     1      25.007  10.150  64.826  1.00  0.00    -0.331 N 
ATOM     18  H32 UNL     1      24.053   9.816  64.967  1.00  0.00     0.178 HD
ATOM     19  H31 UNL     1      25.583   9.327  65.003  1.00  0.00     0.178 HD
ATOM     20  H2  UNL     1      25.673  11.710  64.390  1.00  0.00     0.207 HD
ENDBRANCH  14  16
ENDBRANCH  13  14
ENDBRANCH  12  13
ENDBRANCH  10  12
BRANCH   1  21
HETATM   21  S1  UNL     1      19.018  12.098  61.577  1.00  0.00    -0.137 SA
HETATM   22  C1  UNL     1      19.951  11.951  60.109  1.00  0.00     0.095 C 
ENDBRANCH   1  21
BRANCH   6  23
HETATM   23  O1  UNL     1      19.443  11.629  65.233  1.00  0.00    -0.386 OA
ATOM     24  H1  UNL     1      20.058  12.015  65.845  1.00  0.00     0.210 HD
ENDBRANCH   6  23
TORSDOF 6
ENDMDL
MODEL 3
REMARK VINA RESULT: -5.780900594      1.456      1.933
REMARK  6 active torsions:
REMARK  status: ('A' for Active; 'I' for Inactive)
REMARK    1  A    between atoms: S1_2  and  C2_3 
REMARK    2  A    between atoms: C6_8  and  O1_9 
REMARK    3  A    between atoms: C9_14  and  C10_15 
REMARK    4  A    between atoms: C10_15  and  C11_16 
REMARK    5  A    between atoms: C11_16  and  N1_17 
REMARK    6  A    between atoms: N1_17  and  N2_19 
ROOT
HETATM    1  C2  UNL     1      21.274  12.518  62.153  1.00  0.00     0.001 C 
HETATM    2  C3  UNL     1      20.942  12.832  60.900  1.00  0.00     0.002 C 
HETATM    3 BR1  UNL     1      21.622  14.323  59.973  1.00  0.00    -0.055 Br
HETATM    4  C4  UNL     1      19.965  11.883  60.229  1.00  0.00     0.050 C 
HETATM    5  C5  UNL     1      18.745  11.622  61.075  1.00  0.00     0.046 C 
HETATM    6  C6  UNL     1      19.070  11.586  62.523  1.00  0.00     0.094 C 
HETATM    7  C7  UNL     1      18.583  10.380  63.259  1.00  0.00     0.153 C 
HETATM    8  C8  UNL     1      17.365  10.595  64.091  1.00  0.00     0.042 C 
HETATM    9  O2  UNL     1      19.635   9.807  63.955  1.00  0.00    -0.377 OA
HETATM   10  C9  UNL     1      20.696  10.764  63.919  1.00  0.00     0.135 C 
HETATM   11  C12 UNL     1      20.569  11.301  62.598  1.00  0.00     0.092 C 
ENDROOT
BRANCH  10  12
HETATM   12  C10 UNL     1      20.540  11.581  65.131  1.00  0.00     0.054 C 
BRANCH  12  13
HETATM   13  C11 UNL     1      21.355  10.968  66.294  1.00  0.00     0.143 C 
BRANCH  13  14
HETATM   14  N1  UNL     1      22.135   9.844  65.819  1.00  0.00    -0.323 N 
ATOM     15  H1  UNL     1      21.653   9.023  65.452  1.00  0.00     0.181 HD
BRANCH  14  16
HETATM   16  N2  UNL     1      23.371   9.856  65.849  1.00  0.00    -0.254 N 
HETATM   17  N3  UNL     1      24.533   9.513  65.574  1.00  0.00    -0.331 N 
ATOM     18  H32 UNL     1      24.310   8.757  64.927  1.00  0.00     0.178 HD
ATOM     19  H31 UNL     1      25.552   9.522  65.599  1.00  0.00     0.178 HD
ATOM     20  H2  UNL     1      23.543  10.620  66.503  1.00  0.00     0.207 HD
ENDBRANCH  14  16
ENDBRANCH  13  14
ENDBRANCH  12  13
ENDBRANCH  10  12
BRANCH   1  21
HETATM   21  S1  UNL     1      22.381  13.437  63.107  1.00  0.00    -0.137 SA
HETATM   22  C1  UNL     1      23.878  12.702  63.622  1.00  0.00     0.095 C 
ENDBRANCH   1  21
BRANCH   6  23
HETATM   23  O1  UNL     1      18.727  12.798  63.086  1.00  0.00    -0.386 OA
ATOM     24  H1  UNL     1      17.889  13.075  62.733  1.00  0.00     0.210 HD
ENDBRANCH   6  23
TORSDOF 6
ENDMDL
MODEL 4
REMARK VINA RESULT: -5.687894790      0.862      1.428
REMARK  6 active torsions:
REMARK  status: ('A' for Active; 'I' for Inactive)
REMARK    1  A    between atoms: S1_2  and  C2_3 
REMARK    2  A    between atoms: C6_8  and  O1_9 
REMARK    3  A    between atoms: C9_14  and  C10_15 
REMARK    4  A    between atoms: C10_15  and  C11_16 
REMARK    5  A    between atoms: C11_16  and  N1_17 
REMARK    6  A    between atoms: N1_17  and  N2_19 
ROOT
HETATM    1  C2  UNL     1      21.066  13.651  62.369  1.00  0.00     0.001 C 
HETATM    2  C3  UNL     1      20.712  14.005  61.132  1.00  0.00     0.002 C 
HETATM    3 BR1  UNL     1      20.569  15.789  60.547  1.00  0.00    -0.055 Br
HETATM    4  C4  UNL     1      20.437  12.855  60.181  1.00  0.00     0.050 C 
HETATM    5  C5  UNL     1      19.480  11.844  60.763  1.00  0.00     0.046 C 
HETATM    6  C6  UNL     1      19.666  11.681  62.226  1.00  0.00     0.094 C 
HETATM    7  C7  UNL     1      19.837  10.273  62.697  1.00  0.00     0.153 C 
HETATM    8  C8  UNL     1      18.632   9.667  63.330  1.00  0.00     0.042 C 
HETATM    9  O2  UNL     1      20.979  10.181  63.477  1.00  0.00    -0.377 OA
HETATM   10  C9  UNL     1      21.373  11.526  63.753  1.00  0.00     0.135 C 
HETATM   11  C12 UNL     1      21.080  12.184  62.517  1.00  0.00     0.092 C 
ENDROOT
BRANCH  10  12
HETATM   12  C10 UNL     1      20.720  11.883  65.021  1.00  0.00     0.054 C 
BRANCH  12  13
HETATM   13  C11 UNL     1      21.603  11.449  66.215  1.00  0.00     0.143 C 
BRANCH  13  14
HETATM   14  N1  UNL     1      21.929  10.041  66.109  1.00  0.00    -0.323 N 
ATOM     15  H1  UNL     1      21.212   9.346  66.321  1.00  0.00     0.181 HD
BRANCH  14  16
HETATM   16  N2  UNL     1      23.055   9.663  65.768  1.00  0.00    -0.254 N 
HETATM   17  N3  UNL     1      24.296   9.605  65.757  1.00  0.00    -0.331 N 
ATOM     18  H32 UNL     1      24.479  10.305  66.475  1.00  0.00     0.178 HD
ATOM     19  H31 UNL     1      25.226   9.293  65.476  1.00  0.00     0.178 HD
ATOM     20  H2  UNL     1      22.821   8.970  65.056  1.00  0.00     0.207 HD
ENDBRANCH  14  16
ENDBRANCH  13  14
ENDBRANCH  12  13
ENDBRANCH  10  12
BRANCH   1  21
HETATM   21  S1  UNL     1      21.447  14.785  63.614  1.00  0.00    -0.137 SA
HETATM   22  C1  UNL     1      23.052  14.791  64.300  1.00  0.00     0.095 C 
ENDBRANCH   1  21
BRANCH   6  23
HETATM   23  O1  UNL     1      18.695  12.408  62.883  1.00  0.00    -0.386 OA
ATOM     24  H1  UNL     1      17.972  11.830  63.097  1.00  0.00     0.210 HD
ENDBRANCH   6  23
TORSDOF 6
ENDMDL
MODEL 5
REMARK VINA RESULT: -5.623270296      1.730      3.507
REMARK  6 active torsions:
REMARK  status: ('A' for Active; 'I' for Inactive)
REMARK    1  A    between atoms: S1_2  and  C2_3 
REMARK    2  A    between atoms: C6_8  and  O1_9 
REMARK    3  A    between atoms: C9_14  and  C10_15 
REMARK    4  A    between atoms: C10_15  and  C11_16 
REMARK    5  A    between atoms: C11_16  and  N1_17 
REMARK    6  A    between atoms: N1_17  and  N2_19 
ROOT
HETATM    1  C2  UNL     1      21.367  14.052  63.268  1.00  0.00     0.001 C 
HETATM    2  C3  UNL     1      22.364  14.939  63.263  1.00  0.00     0.002 C 
HETATM    3 BR1  UNL     1      22.698  16.140  61.852  1.00  0.00    -0.055 Br
HETATM    4  C4  UNL     1      23.237  14.943  64.505  1.00  0.00     0.050 C 
HETATM    5  C5  UNL     1      23.726  13.563  64.867  1.00  0.00     0.046 C 
HETATM    6  C6  UNL     1      22.714  12.518  64.571  1.00  0.00     0.094 C 
HETATM    7  C7  UNL     1      22.399  11.593  65.701  1.00  0.00     0.153 C 
HETATM    8  C8  UNL     1      23.026  10.244  65.608  1.00  0.00     0.042 C 
HETATM    9  O2  UNL     1      21.028  11.554  65.899  1.00  0.00    -0.377 OA
HETATM   10  C9  UNL     1      20.450  12.191  64.758  1.00  0.00     0.135 C 
HETATM   11  C12 UNL     1      21.375  13.253  64.508  1.00  0.00     0.092 C 
ENDROOT
BRANCH  10  12
HETATM   12  C10 UNL     1      20.186  11.117  63.790  1.00  0.00     0.054 C 
BRANCH  12  13
HETATM   13  C11 UNL     1      18.701  10.690  63.861  1.00  0.00     0.143 C 
BRANCH  13  14
HETATM   14  N1  UNL     1      18.273  10.597  65.242  1.00  0.00    -0.323 N 
ATOM     15  H1  UNL     1      17.605  11.278  65.603  1.00  0.00     0.181 HD
BRANCH  14  16
HETATM   16  N2  UNL     1      18.699   9.712  65.992  1.00  0.00    -0.254 N 
HETATM   17  N3  UNL     1      19.487   9.132  66.758  1.00  0.00    -0.331 N 
ATOM     18  H32 UNL     1      20.232   9.828  66.752  1.00  0.00     0.178 HD
ATOM     19  H31 UNL     1      19.838   8.402  67.377  1.00  0.00     0.178 HD
ATOM     20  H2  UNL     1      17.927   9.046  65.966  1.00  0.00     0.207 HD
ENDBRANCH  14  16
ENDBRANCH  13  14
ENDBRANCH  12  13
ENDBRANCH  10  12
BRANCH   1  21
HETATM   21  S1  UNL     1      20.236  13.880  61.975  1.00  0.00    -0.137 SA
HETATM   22  C1  UNL     1      20.666  12.910  60.589  1.00  0.00     0.095 C 
ENDBRANCH   1  21
BRANCH   6  23
HETATM   23  O1  UNL     1      23.043  11.904  63.380  1.00  0.00    -0.386 OA
ATOM     24  H1  UNL     1      22.270  11.867  62.830  1.00  0.00     0.210 HD
ENDBRANCH   6  23
TORSDOF 6
ENDMDL
