MODEL 1
REMARK VINA RESULT: -7.568597008      0.000      0.000
REMARK  4 active torsions:
REMARK  status: ('A' for Active; 'I' for Inactive)
REMARK    1  A    between atoms: N2_7  and  C5_8 
REMARK    2  A    between atoms: C8_11  and  N3_12 
REMARK       I    between atoms: N3_12  and  C9_14 
REMARK    3  A    between atoms: C9_14  and  C10_16 
REMARK    4  A    between atoms: C10_16  and  C11_17 
ROOT
HETATM    1  C5  UNL     1      21.672  17.021  64.185  1.00  0.00     0.114 C 
HETATM    2  C6  UNL     1      22.792  16.167  63.634  1.00  0.00     0.032 C 
HETATM    3  C7  UNL     1      22.633  14.751  64.125  1.00  0.00     0.056 C 
HETATM    4  C8  UNL     1      21.252  14.286  63.827  1.00  0.00     0.223 C 
HETATM    5  O2  UNL     1      20.596  15.263  63.083  1.00  0.00    -0.365 OA
HETATM    6  C18 UNL     1      20.381  16.424  63.824  1.00  0.00     0.196 C 
ENDROOT
BRANCH   4   7
HETATM    7  N3  UNL     1      21.195  12.994  63.217  1.00  0.00    -0.335 N 
HETATM    8  C9  UNL     1      20.805  11.810  63.897  1.00  0.00     0.220 C 
HETATM    9  O1  UNL     1      20.491  11.905  65.112  1.00  0.00    -0.274 OA
ATOM     10  H3  UNL     1      21.449  12.918  62.233  1.00  0.00     0.165 HD
BRANCH   8  11
HETATM   11  C10 UNL     1      20.753  10.491  63.249  1.00  0.00     0.109 C 
BRANCH  11  12
HETATM   12  C11 UNL     1      19.345  10.066  62.916  1.00  0.00     0.013 C 
HETATM   13  C12 UNL     1      18.631   9.562  64.126  1.00  0.00     0.007 C 
HETATM   14  C13 UNL     1      17.394  10.363  64.476  1.00  0.00     0.005 C 
HETATM   15  C14 UNL     1      16.441  10.506  63.325  1.00  0.00    -0.017 C 
HETATM   16  C15 UNL     1      15.690  11.826  63.539  1.00  0.00     0.010 C 
HETATM   17  C16 UNL     1      17.168  10.655  62.002  1.00  0.00     0.024 C 
HETATM   18  C17 UNL     1      18.568  11.187  62.275  1.00  0.00     0.087 C 
HETATM   19 CL1  UNL     1      19.287  11.690  60.731  1.00  0.00    -0.125 Cl
ENDBRANCH  11  12
ENDBRANCH   8  11
ENDBRANCH   4   7
BRANCH   1  20
HETATM   20  N2  UNL     1      21.898  18.369  63.755  1.00  0.00    -0.339 N 
HETATM   21  C2  UNL     1      22.577  19.375  64.330  1.00  0.00     0.079 A 
HETATM   22  C1  UNL     1      23.263  19.228  65.633  1.00  0.00     0.089 C 
HETATM   23  N1  UNL     1      22.502  20.453  63.533  1.00  0.00    -0.355 N 
HETATM   24  C3  UNL     1      21.779  20.143  62.447  1.00  0.00     0.106 A 
ATOM     25  H1  UNL     1      22.927  21.361  63.723  1.00  0.00     0.166 HD
HETATM   26  C4  UNL     1      21.400  18.831  62.591  1.00  0.00     0.110 A 
ENDBRANCH   1  20
TORSDOF 4
ENDMDL
MODEL 2
REMARK VINA RESULT: -7.400228444      1.712      2.751
REMARK  4 active torsions:
REMARK  status: ('A' for Active; 'I' for Inactive)
REMARK    1  A    between atoms: N2_7  and  C5_8 
REMARK    2  A    between atoms: C8_11  and  N3_12 
REMARK       I    between atoms: N3_12  and  C9_14 
REMARK    3  A    between atoms: C9_14  and  C10_16 
REMARK    4  A    between atoms: C10_16  and  C11_17 
ROOT
HETATM    1  C5  UNL     1      21.959  17.403  63.059  1.00  0.00     0.114 C 
HETATM    2  C6  UNL     1      20.592  16.969  63.539  1.00  0.00     0.032 C 
HETATM    3  C7  UNL     1      19.937  16.114  62.486  1.00  0.00     0.056 C 
HETATM    4  C8  UNL     1      20.868  15.021  62.099  1.00  0.00     0.223 C 
HETATM    5  O2  UNL     1      21.990  15.070  62.922  1.00  0.00    -0.365 OA
HETATM    6  C18 UNL     1      22.748  16.220  62.700  1.00  0.00     0.196 C 
ENDROOT
BRANCH   4   7
HETATM    7  N3  UNL     1      20.262  13.727  62.066  1.00  0.00    -0.335 N 
HETATM    8  C9  UNL     1      20.169  12.921  60.901  1.00  0.00     0.220 C 
HETATM    9  O1  UNL     1      20.650  13.377  59.831  1.00  0.00    -0.274 OA
ATOM     10  H3  UNL     1      19.872  13.360  62.934  1.00  0.00     0.165 HD
BRANCH   8  11
HETATM   11  C10 UNL     1      19.541  11.592  60.891  1.00  0.00     0.109 C 
BRANCH  11  12
HETATM   12  C11 UNL     1      18.757  11.313  62.148  1.00  0.00     0.013 C 
HETATM   13  C12 UNL     1      17.299  11.181  61.859  1.00  0.00     0.007 C 
HETATM   14  C13 UNL     1      16.730   9.825  62.226  1.00  0.00     0.005 C 
HETATM   15  C14 UNL     1      17.023   9.428  63.643  1.00  0.00    -0.017 C 
HETATM   16  C15 UNL     1      17.068   7.895  63.669  1.00  0.00     0.010 C 
HETATM   17  C16 UNL     1      18.398   9.889  64.088  1.00  0.00     0.024 C 
HETATM   18  C17 UNL     1      19.268  10.083  62.854  1.00  0.00     0.087 C 
HETATM   19 CL1  UNL     1      20.953  10.276  63.381  1.00  0.00    -0.125 Cl
ENDBRANCH  11  12
ENDBRANCH   8  11
ENDBRANCH   4   7
BRANCH   1  20
HETATM   20  N2  UNL     1      22.518  18.269  64.054  1.00  0.00    -0.339 N 
HETATM   21  C2  UNL     1      22.589  19.609  64.117  1.00  0.00     0.079 A 
HETATM   22  C1  UNL     1      22.047  20.484  63.054  1.00  0.00     0.089 C 
HETATM   23  N1  UNL     1      23.209  19.952  65.258  1.00  0.00    -0.355 N 
HETATM   24  C3  UNL     1      23.535  18.837  65.928  1.00  0.00     0.106 A 
ATOM     25  H1  UNL     1      23.401  20.906  65.564  1.00  0.00     0.166 HD
HETATM   26  C4  UNL     1      23.099  17.781  65.167  1.00  0.00     0.110 A 
ENDBRANCH   1  20
TORSDOF 4
ENDMDL
MODEL 3
REMARK VINA RESULT: -7.396707798      4.728      8.267
REMARK  4 active torsions:
REMARK  status: ('A' for Active; 'I' for Inactive)
REMARK    1  A    between atoms: N2_7  and  C5_8 
REMARK    2  A    between atoms: C8_11  and  N3_12 
REMARK       I    between atoms: N3_12  and  C9_14 
REMARK    3  A    between atoms: C9_14  and  C10_16 
REMARK    4  A    between atoms: C10_16  and  C11_17 
ROOT
HETATM    1  C5  UNL     1      19.220  10.112  63.634  1.00  0.00     0.114 C 
HETATM    2  C6  UNL     1      19.417  10.926  64.895  1.00  0.00     0.032 C 
HETATM    3  C7  UNL     1      20.823  10.737  65.401  1.00  0.00     0.056 C 
HETATM    4  C8  UNL     1      21.779  11.010  64.295  1.00  0.00     0.223 C 
HETATM    5  O2  UNL     1      21.070  11.470  63.188  1.00  0.00    -0.365 OA
HETATM    6  C18 UNL     1      20.245  10.482  62.652  1.00  0.00     0.196 C 
ENDROOT
BRANCH   4   7
HETATM    7  N3  UNL     1      22.857  11.875  64.660  1.00  0.00    -0.335 N 
HETATM    8  C9  UNL     1      23.947  11.483  65.481  1.00  0.00     0.220 C 
HETATM    9  O1  UNL     1      23.964  10.301  65.913  1.00  0.00    -0.274 OA
ATOM     10  H3  UNL     1      22.842  12.832  64.310  1.00  0.00     0.165 HD
BRANCH   8  11
HETATM   11  C10 UNL     1      25.047  12.390  65.843  1.00  0.00     0.109 C 
BRANCH  11  12
HETATM   12  C11 UNL     1      26.140  12.418  64.805  1.00  0.00     0.013 C 
HETATM   13  C12 UNL     1      26.139  11.172  63.984  1.00  0.00     0.007 C 
HETATM   14  C13 UNL     1      25.906  11.421  62.508  1.00  0.00     0.005 C 
HETATM   15  C14 UNL     1      26.849  12.434  61.925  1.00  0.00    -0.017 C 
HETATM   16  C15 UNL     1      26.112  13.100  60.758  1.00  0.00     0.010 C 
HETATM   17  C16 UNL     1      27.161  13.547  62.907  1.00  0.00     0.024 C 
HETATM   18  C17 UNL     1      26.027  13.633  63.920  1.00  0.00     0.087 C 
HETATM   19 CL1  UNL     1      26.212  15.141  64.841  1.00  0.00    -0.125 Cl
ENDBRANCH  11  12
ENDBRANCH   8  11
ENDBRANCH   4   7
BRANCH   1  20
HETATM   20  N2  UNL     1      17.855  10.262  63.226  1.00  0.00    -0.339 N 
HETATM   21  C2  UNL     1      16.868   9.360  63.103  1.00  0.00     0.079 A 
HETATM   22  C1  UNL     1      17.064   7.924  63.400  1.00  0.00     0.089 C 
HETATM   23  N1  UNL     1      15.759   9.992  62.686  1.00  0.00    -0.355 N 
HETATM   24  C3  UNL     1      16.030  11.297  62.541  1.00  0.00     0.106 A 
ATOM     25  H1  UNL     1      14.857   9.550  62.507  1.00  0.00     0.166 HD
HETATM   26  C4  UNL     1      17.350  11.463  62.882  1.00  0.00     0.110 A 
ENDBRANCH   1  20
TORSDOF 4
ENDMDL
MODEL 4
REMARK VINA RESULT: -7.321098123      4.379      4.799
REMARK  4 active torsions:
REMARK  status: ('A' for Active; 'I' for Inactive)
REMARK    1  A    between atoms: N2_7  and  C5_8 
REMARK    2  A    between atoms: C8_11  and  N3_12 
REMARK       I    between atoms: N3_12  and  C9_14 
REMARK    3  A    between atoms: C9_14  and  C10_16 
REMARK    4  A    between atoms: C10_16  and  C11_17 
ROOT
HETATM    1  C5  UNL     1      25.626  12.300  65.376  1.00  0.00     0.114 C 
HETATM    2  C6  UNL     1      25.401  11.683  64.013  1.00  0.00     0.032 C 
HETATM    3  C7  UNL     1      24.678  10.370  64.169  1.00  0.00     0.056 C 
HETATM    4  C8  UNL     1      23.461  10.580  64.998  1.00  0.00     0.223 C 
HETATM    5  O2  UNL     1      23.320  11.941  65.256  1.00  0.00    -0.365 OA
HETATM    6  C18 UNL     1      24.342  12.424  66.073  1.00  0.00     0.196 C 
ENDROOT
BRANCH   4   7
HETATM    7  N3  UNL     1      22.278   9.995  64.450  1.00  0.00    -0.335 N 
HETATM    8  C9  UNL     1      21.443  10.635  63.496  1.00  0.00     0.220 C 
HETATM    9  O1  UNL     1      21.766  11.789  63.110  1.00  0.00    -0.274 OA
ATOM     10  H3  UNL     1      22.017   9.061  64.763  1.00  0.00     0.165 HD
BRANCH   8  11
HETATM   11  C10 UNL     1      20.230  10.014  62.945  1.00  0.00     0.109 C 
BRANCH  11  12
HETATM   12  C11 UNL     1      18.990  10.830  63.211  1.00  0.00     0.013 C 
HETATM   13  C12 UNL     1      18.459  11.435  61.954  1.00  0.00     0.007 C 
HETATM   14  C13 UNL     1      17.053  10.985  61.613  1.00  0.00     0.005 C 
HETATM   15  C14 UNL     1      16.083  11.180  62.741  1.00  0.00    -0.017 C 
HETATM   16  C15 UNL     1      14.999  10.108  62.579  1.00  0.00     0.010 C 
HETATM   17  C16 UNL     1      16.723  10.920  64.091  1.00  0.00     0.024 C 
HETATM   18  C17 UNL     1      17.925  10.007  63.890  1.00  0.00     0.087 C 
HETATM   19 CL1  UNL     1      18.456   9.422  65.481  1.00  0.00    -0.125 Cl
ENDBRANCH  11  12
ENDBRANCH   8  11
ENDBRANCH   4   7
BRANCH   1  20
HETATM   20  N2  UNL     1      26.376  13.507  65.190  1.00  0.00    -0.339 N 
HETATM   21  C2  UNL     1      26.957  14.329  66.080  1.00  0.00     0.079 A 
HETATM   22  C1  UNL     1      26.903  14.087  67.538  1.00  0.00     0.089 C 
HETATM   23  N1  UNL     1      27.546  15.334  65.412  1.00  0.00    -0.355 N 
HETATM   24  C3  UNL     1      27.347  15.160  64.098  1.00  0.00     0.106 A 
ATOM     25  H1  UNL     1      28.062  16.105  65.837  1.00  0.00     0.166 HD
HETATM   26  C4  UNL     1      26.610  14.009  63.963  1.00  0.00     0.110 A 
ENDBRANCH   1  20
TORSDOF 4
ENDMDL
MODEL 5
REMARK VINA RESULT: -7.241332940      4.438      5.023
REMARK  4 active torsions:
REMARK  status: ('A' for Active; 'I' for Inactive)
REMARK    1  A    between atoms: N2_7  and  C5_8 
REMARK    2  A    between atoms: C8_11  and  N3_12 
REMARK       I    between atoms: N3_12  and  C9_14 
REMARK    3  A    between atoms: C9_14  and  C10_16 
REMARK    4  A    between atoms: C10_16  and  C11_17 
ROOT
HETATM    1  C5  UNL     1      25.430  12.072  64.554  1.00  0.00     0.114 C 
HETATM    2  C6  UNL     1      24.826  10.723  64.232  1.00  0.00     0.032 C 
HETATM    3  C7  UNL     1      23.980  10.262  65.390  1.00  0.00     0.056 C 
HETATM    4  C8  UNL     1      23.018  11.337  65.748  1.00  0.00     0.223 C 
HETATM    5  O2  UNL     1      23.127  12.369  64.819  1.00  0.00    -0.365 OA
HETATM    6  C18 UNL     1      24.361  13.014  64.902  1.00  0.00     0.196 C 
ENDROOT
BRANCH   4   7
HETATM    7  N3  UNL     1      21.672  10.882  65.912  1.00  0.00    -0.335 N 
HETATM    8  C9  UNL     1      20.880  10.349  64.861  1.00  0.00     0.220 C 
HETATM    9  O1  UNL     1      21.395  10.274  63.715  1.00  0.00    -0.274 OA
ATOM     10  H3  UNL     1      21.257  10.943  66.841  1.00  0.00     0.165 HD
BRANCH   8  11
HETATM   11  C10 UNL     1      19.498   9.885  65.053  1.00  0.00     0.109 C 
BRANCH  11  12
HETATM   12  C11 UNL     1      18.766   9.693  63.749  1.00  0.00     0.013 C 
HETATM   13  C12 UNL     1      17.946   8.446  63.766  1.00  0.00     0.007 C 
HETATM   14  C13 UNL     1      16.464   8.694  63.577  1.00  0.00     0.005 C 
HETATM   15  C14 UNL     1      16.155   9.509  62.355  1.00  0.00    -0.017 C 
HETATM   16  C15 UNL     1      14.853  10.264  62.649  1.00  0.00     0.010 C 
HETATM   17  C16 UNL     1      17.203  10.575  62.105  1.00  0.00     0.024 C 
HETATM   18  C17 UNL     1      17.904  10.885  63.421  1.00  0.00     0.087 C 
HETATM   19 CL1  UNL     1      18.869  12.361  63.208  1.00  0.00    -0.125 Cl
ENDBRANCH  11  12
ENDBRANCH   8  11
ENDBRANCH   4   7
BRANCH   1  20
HETATM   20  N2  UNL     1      26.281  12.441  63.461  1.00  0.00    -0.339 N 
HETATM   21  C2  UNL     1      27.201  13.413  63.350  1.00  0.00     0.079 A 
HETATM   22  C1  UNL     1      27.504  14.349  64.455  1.00  0.00     0.089 C 
HETATM   23  N1  UNL     1      27.738  13.357  62.121  1.00  0.00    -0.355 N 
HETATM   24  C3  UNL     1      27.168  12.350  61.443  1.00  0.00     0.106 A 
ATOM     25  H1  UNL     1      28.463  13.978  61.762  1.00  0.00     0.166 HD
HETATM   26  C4  UNL     1      26.251  11.777  62.290  1.00  0.00     0.110 A 
ENDBRANCH   1  20
TORSDOF 4
ENDMDL
