MODEL 1
REMARK VINA RESULT: -7.673729314      0.000      0.000
REMARK  6 active torsions:
REMARK  status: ('A' for Active; 'I' for Inactive)
REMARK    1  A    between atoms: C2_2  and  C4_5 
REMARK    2  A    between atoms: C4_5  and  O1_6 
REMARK    3  A    between atoms: C4_5  and  C5_8 
REMARK    4  A    between atoms: N1_11  and  C8_12 
REMARK    5  A    between atoms: C8_12  and  C9_13 
REMARK    6  A    between atoms: N2_15  and  C11_16 
ROOT
HETATM    1  C5  UNL     1      25.471  11.775  63.871  1.00  0.00     0.020 C 
HETATM    2  C6  UNL     1      25.077  10.372  64.210  1.00  0.00     0.037 C 
HETATM    3  C7  UNL     1      23.966  10.438  65.239  1.00  0.00     0.273 C 
HETATM    4  N1  UNL     1      23.401  11.769  65.331  1.00  0.00     0.094 N 
HETATM    5  C18 UNL     1      24.371  12.747  65.819  1.00  0.00     0.273 C 
HETATM    6  C19 UNL     1      25.720  12.497  65.177  1.00  0.00     0.037 C 
ENDROOT
BRANCH   4   7
HETATM    7  C8  UNL     1      22.350  11.708  66.338  1.00  0.00     0.330 C 
BRANCH   7   8
HETATM    8  C9  UNL     1      21.223  10.857  65.941  1.00  0.00     0.054 A 
HETATM    9  C10 UNL     1      20.485  11.049  64.788  1.00  0.00     0.119 A 
HETATM   10  N2  UNL     1      19.520  10.103  64.708  1.00  0.00    -0.346 N 
HETATM   11  C17 UNL     1      19.647   9.330  65.789  1.00  0.00     0.183 A 
HETATM   12  N3  UNL     1      20.671   9.782  66.533  1.00  0.00    -0.353 N 
ATOM     13  H3  UNL     1      20.983   9.371  67.413  1.00  0.00     0.166 HD
BRANCH  10  14
HETATM   14  C11 UNL     1      18.555   9.980  63.647  1.00  0.00     0.090 C 
HETATM   15  C12 UNL     1      17.290   9.276  64.108  1.00  0.00     0.026 C 
HETATM   16  C13 UNL     1      16.483   8.949  62.868  1.00  0.00     0.002 C 
HETATM   17  C14 UNL     1      16.091  10.239  62.176  1.00  0.00     0.000 C 
HETATM   18  C15 UNL     1      17.315  11.062  61.829  1.00  0.00     0.002 C 
HETATM   19  C16 UNL     1      18.171  11.317  63.051  1.00  0.00     0.026 C 
ENDBRANCH  10  14
ENDBRANCH   7   8
ENDBRANCH   4   7
BRANCH   1  20
HETATM   20  C4  UNL     1      26.486  11.969  62.832  1.00  0.00     0.145 C 
BRANCH  20  21
HETATM   21  C2  UNL     1      26.294  12.990  61.787  1.00  0.00     0.056 C 
HETATM   22  C1  UNL     1      26.947  12.687  60.467  1.00  0.00     0.035 C 
HETATM   23  C3  UNL     1      24.875  13.420  61.537  1.00  0.00     0.035 C 
HETATM   24 CL1  UNL     1      27.135  14.475  62.394  1.00  0.00    -0.117 Cl
ENDBRANCH  20  21
BRANCH  20  25
HETATM   25  O1  UNL     1      26.630  10.725  62.168  1.00  0.00    -0.393 OA
ATOM     26  H1  UNL     1      27.460  10.358  62.449  1.00  0.00     0.210 HD
ENDBRANCH  20  25
ENDBRANCH   1  20
TORSDOF 6
ENDMDL
MODEL 2
REMARK VINA RESULT: -7.368997273      2.773      3.294
REMARK  6 active torsions:
REMARK  status: ('A' for Active; 'I' for Inactive)
REMARK    1  A    between atoms: C2_2  and  C4_5 
REMARK    2  A    between atoms: C4_5  and  O1_6 
REMARK    3  A    between atoms: C4_5  and  C5_8 
REMARK    4  A    between atoms: N1_11  and  C8_12 
REMARK    5  A    between atoms: C8_12  and  C9_13 
REMARK    6  A    between atoms: N2_15  and  C11_16 
ROOT
HETATM    1  C5  UNL     1      24.182  14.743  65.055  1.00  0.00     0.020 C 
HETATM    2  C6  UNL     1      24.685  14.112  63.795  1.00  0.00     0.037 C 
HETATM    3  C7  UNL     1      24.448  12.618  63.897  1.00  0.00     0.273 C 
HETATM    4  N1  UNL     1      23.537  12.294  64.977  1.00  0.00     0.094 N 
HETATM    5  C18 UNL     1      24.089  12.639  66.286  1.00  0.00     0.273 C 
HETATM    6  C19 UNL     1      24.790  13.979  66.210  1.00  0.00     0.037 C 
ENDROOT
BRANCH   4   7
HETATM    7  C8  UNL     1      23.385  10.846  64.973  1.00  0.00     0.330 C 
BRANCH   7   8
HETATM    8  C9  UNL     1      21.985  10.414  65.058  1.00  0.00     0.054 A 
HETATM    9  C10 UNL     1      21.098  10.475  63.999  1.00  0.00     0.119 A 
HETATM   10  N2  UNL     1      19.892  10.006  64.395  1.00  0.00    -0.346 N 
HETATM   11  C17 UNL     1      20.015   9.657  65.677  1.00  0.00     0.183 A 
HETATM   12  N3  UNL     1      21.274   9.902  66.079  1.00  0.00    -0.353 N 
ATOM     13  H3  UNL     1      21.636   9.725  67.016  1.00  0.00     0.166 HD
BRANCH  10  14
HETATM   14  C11 UNL     1      18.717   9.914  63.568  1.00  0.00     0.090 C 
HETATM   15  C12 UNL     1      17.706   8.927  64.124  1.00  0.00     0.026 C 
HETATM   16  C13 UNL     1      16.665   8.699  63.047  1.00  0.00     0.002 C 
HETATM   17  C14 UNL     1      15.952  10.005  62.760  1.00  0.00     0.000 C 
HETATM   18  C15 UNL     1      16.939  11.080  62.347  1.00  0.00     0.002 C 
HETATM   19  C16 UNL     1      18.031  11.250  63.381  1.00  0.00     0.026 C 
ENDBRANCH  10  14
ENDBRANCH   7   8
ENDBRANCH   4   7
BRANCH   1  20
HETATM   20  C4  UNL     1      24.235  16.204  65.157  1.00  0.00     0.145 C 
BRANCH  20  21
HETATM   21  C2  UNL     1      23.260  17.036  64.431  1.00  0.00     0.056 C 
HETATM   22  C1  UNL     1      23.783  17.700  63.188  1.00  0.00     0.035 C 
HETATM   23  C3  UNL     1      21.942  16.383  64.113  1.00  0.00     0.035 C 
HETATM   24 CL1  UNL     1      22.849  18.399  65.551  1.00  0.00    -0.117 Cl
ENDBRANCH  20  21
BRANCH  20  25
HETATM   25  O1  UNL     1      25.522  16.596  64.709  1.00  0.00    -0.393 OA
ATOM     26  H1  UNL     1      25.885  15.856  64.237  1.00  0.00     0.210 HD
ENDBRANCH  20  25
ENDBRANCH   1  20
TORSDOF 6
ENDMDL
MODEL 3
REMARK VINA RESULT: -7.354214313      2.710      3.369
REMARK  6 active torsions:
REMARK  status: ('A' for Active; 'I' for Inactive)
REMARK    1  A    between atoms: C2_2  and  C4_5 
REMARK    2  A    between atoms: C4_5  and  O1_6 
REMARK    3  A    between atoms: C4_5  and  C5_8 
REMARK    4  A    between atoms: N1_11  and  C8_12 
REMARK    5  A    between atoms: C8_12  and  C9_13 
REMARK    6  A    between atoms: N2_15  and  C11_16 
ROOT
HETATM    1  C5  UNL     1      24.454  14.598  64.993  1.00  0.00     0.020 C 
HETATM    2  C6  UNL     1      25.134  13.993  63.806  1.00  0.00     0.037 C 
HETATM    3  C7  UNL     1      24.764  12.524  63.758  1.00  0.00     0.273 C 
HETATM    4  N1  UNL     1      23.642  12.226  64.626  1.00  0.00     0.094 N 
HETATM    5  C18 UNL     1      23.962  12.448  66.035  1.00  0.00     0.273 C 
HETATM    6  C19 UNL     1      24.770  13.720  66.185  1.00  0.00     0.037 C 
ENDROOT
BRANCH   4   7
HETATM    7  C8  UNL     1      23.379  10.800  64.493  1.00  0.00     0.330 C 
BRANCH   7   8
HETATM    8  C9  UNL     1      22.011  10.430  64.873  1.00  0.00     0.054 A 
HETATM    9  C10 UNL     1      20.905  10.654  64.075  1.00  0.00     0.119 A 
HETATM   10  N2  UNL     1      19.796  10.201  64.705  1.00  0.00    -0.346 N 
HETATM   11  C17 UNL     1      20.194   9.702  65.877  1.00  0.00     0.183 A 
HETATM   12  N3  UNL     1      21.528   9.838  65.980  1.00  0.00    -0.353 N 
ATOM     13  H3  UNL     1      22.088   9.537  66.778  1.00  0.00     0.166 HD
BRANCH  10  14
HETATM   14  C11 UNL     1      18.455  10.262  64.185  1.00  0.00     0.090 C 
HETATM   15  C12 UNL     1      18.286  11.389  63.181  1.00  0.00     0.026 C 
HETATM   16  C13 UNL     1      16.800  11.540  62.925  1.00  0.00     0.002 C 
HETATM   17  C14 UNL     1      16.269  10.262  62.307  1.00  0.00     0.000 C 
HETATM   18  C15 UNL     1      16.551   9.071  63.201  1.00  0.00     0.002 C 
HETATM   19  C16 UNL     1      18.025   8.967  63.531  1.00  0.00     0.026 C 
ENDBRANCH  10  14
ENDBRANCH   7   8
ENDBRANCH   4   7
BRANCH   1  20
HETATM   20  C4  UNL     1      24.603  16.040  65.206  1.00  0.00     0.145 C 
BRANCH  20  21
HETATM   21  C2  UNL     1      23.659  16.985  64.583  1.00  0.00     0.056 C 
HETATM   22  C1  UNL     1      24.234  17.833  63.483  1.00  0.00     0.035 C 
HETATM   23  C3  UNL     1      22.355  16.402  64.113  1.00  0.00     0.035 C 
HETATM   24 CL1  UNL     1      23.206  18.156  65.888  1.00  0.00    -0.117 Cl
ENDBRANCH  20  21
BRANCH  20  25
HETATM   25  O1  UNL     1      25.896  16.387  64.743  1.00  0.00    -0.393 OA
ATOM     26  H1  UNL     1      26.306  15.584  64.444  1.00  0.00     0.210 HD
ENDBRANCH  20  25
ENDBRANCH   1  20
TORSDOF 6
ENDMDL
MODEL 4
REMARK VINA RESULT: -7.321250161      1.363      1.567
REMARK  6 active torsions:
REMARK  status: ('A' for Active; 'I' for Inactive)
REMARK    1  A    between atoms: C2_2  and  C4_5 
REMARK    2  A    between atoms: C4_5  and  O1_6 
REMARK    3  A    between atoms: C4_5  and  C5_8 
REMARK    4  A    between atoms: N1_11  and  C8_12 
REMARK    5  A    between atoms: C8_12  and  C9_13 
REMARK    6  A    between atoms: N2_15  and  C11_16 
ROOT
HETATM    1  C5  UNL     1      24.626  12.414  63.639  1.00  0.00     0.020 C 
HETATM    2  C6  UNL     1      24.989  10.968  63.761  1.00  0.00     0.037 C 
HETATM    3  C7  UNL     1      24.164  10.375  64.887  1.00  0.00     0.273 C 
HETATM    4  N1  UNL     1      23.071  11.249  65.265  1.00  0.00     0.094 N 
HETATM    5  C18 UNL     1      23.545  12.514  65.823  1.00  0.00     0.273 C 
HETATM    6  C19 UNL     1      24.727  13.018  65.022  1.00  0.00     0.037 C 
ENDROOT
BRANCH   4   7
HETATM    7  C8  UNL     1      22.354  10.577  66.341  1.00  0.00     0.330 C 
BRANCH   7   8
HETATM    8  C9  UNL     1      21.021  10.115  65.943  1.00  0.00     0.054 A 
HETATM    9  C10 UNL     1      20.466  10.353  64.698  1.00  0.00     0.119 A 
HETATM   10  N2  UNL     1      19.232   9.800  64.643  1.00  0.00    -0.346 N 
HETATM   11  C17 UNL     1      19.012   9.226  65.828  1.00  0.00     0.183 A 
HETATM   12  N3  UNL     1      20.087   9.415  66.612  1.00  0.00    -0.353 N 
ATOM     13  H3  UNL     1      20.181   9.077  67.570  1.00  0.00     0.166 HD
BRANCH  10  14
HETATM   14  C11 UNL     1      18.348   9.840  63.508  1.00  0.00     0.090 C 
HETATM   15  C12 UNL     1      16.929   9.443  63.878  1.00  0.00     0.026 C 
HETATM   16  C13 UNL     1      16.169   9.243  62.582  1.00  0.00     0.002 C 
HETATM   17  C14 UNL     1      16.118  10.556  61.828  1.00  0.00     0.000 C 
HETATM   18  C15 UNL     1      17.515  11.083  61.564  1.00  0.00     0.002 C 
HETATM   19  C16 UNL     1      18.308  11.202  62.848  1.00  0.00     0.026 C 
ENDBRANCH  10  14
ENDBRANCH   7   8
ENDBRANCH   4   7
BRANCH   1  20
HETATM   20  C4  UNL     1      25.245  13.186  62.558  1.00  0.00     0.145 C 
BRANCH  20  21
HETATM   21  C2  UNL     1      24.421  14.054  61.699  1.00  0.00     0.056 C 
HETATM   22  C1  UNL     1      24.456  15.517  62.041  1.00  0.00     0.035 C 
HETATM   23  C3  UNL     1      24.624  13.899  60.216  1.00  0.00     0.035 C 
HETATM   24 CL1  UNL     1      22.706  13.548  61.991  1.00  0.00    -0.117 Cl
ENDBRANCH  20  21
BRANCH  20  25
HETATM   25  O1  UNL     1      25.883  12.251  61.705  1.00  0.00    -0.393 OA
ATOM     26  H1  UNL     1      26.390  12.753  61.078  1.00  0.00     0.210 HD
ENDBRANCH  20  25
ENDBRANCH   1  20
TORSDOF 6
ENDMDL
MODEL 5
REMARK VINA RESULT: -7.206510205      3.088      3.815
REMARK  6 active torsions:
REMARK  status: ('A' for Active; 'I' for Inactive)
REMARK    1  A    between atoms: C2_2  and  C4_5 
REMARK    2  A    between atoms: C4_5  and  O1_6 
REMARK    3  A    between atoms: C4_5  and  C5_8 
REMARK    4  A    between atoms: N1_11  and  C8_12 
REMARK    5  A    between atoms: C8_12  and  C9_13 
REMARK    6  A    between atoms: N2_15  and  C11_16 
ROOT
HETATM    1  C5  UNL     1      23.234  15.028  63.432  1.00  0.00     0.020 C 
HETATM    2  C6  UNL     1      23.737  14.111  62.363  1.00  0.00     0.037 C 
HETATM    3  C7  UNL     1      23.779  12.708  62.935  1.00  0.00     0.273 C 
HETATM    4  N1  UNL     1      23.030  12.614  64.173  1.00  0.00     0.094 N 
HETATM    5  C18 UNL     1      23.615  13.430  65.235  1.00  0.00     0.273 C 
HETATM    6  C19 UNL     1      24.059  14.764  64.672  1.00  0.00     0.037 C 
ENDROOT
BRANCH   4   7
HETATM    7  C8  UNL     1      23.137  11.232  64.621  1.00  0.00     0.330 C 
BRANCH   7   8
HETATM    8  C9  UNL     1      21.842  10.638  64.969  1.00  0.00     0.054 A 
HETATM    9  C10 UNL     1      20.691  10.818  64.225  1.00  0.00     0.119 A 
HETATM   10  N2  UNL     1      19.670  10.143  64.804  1.00  0.00    -0.346 N 
HETATM   11  C17 UNL     1      20.168   9.550  65.892  1.00  0.00     0.183 A 
HETATM   12  N3  UNL     1      21.475   9.846  65.993  1.00  0.00    -0.353 N 
ATOM     13  H3  UNL     1      22.095   9.520  66.734  1.00  0.00     0.166 HD
BRANCH  10  14
HETATM   14  C11 UNL     1      18.317  10.094  64.318  1.00  0.00     0.090 C 
HETATM   15  C12 UNL     1      18.018  11.231  63.355  1.00  0.00     0.026 C 
HETATM   16  C13 UNL     1      16.518  11.250  63.138  1.00  0.00     0.002 C 
HETATM   17  C14 UNL     1      16.093   9.948  62.491  1.00  0.00     0.000 C 
HETATM   18  C15 UNL     1      16.506   8.761  63.339  1.00  0.00     0.002 C 
HETATM   19  C16 UNL     1      17.991   8.786  63.632  1.00  0.00     0.026 C 
ENDBRANCH  10  14
ENDBRANCH   7   8
ENDBRANCH   4   7
BRANCH   1  20
HETATM   20  C4  UNL     1      23.034  16.438  63.087  1.00  0.00     0.145 C 
BRANCH  20  21
HETATM   21  C2  UNL     1      21.775  17.118  63.437  1.00  0.00     0.056 C 
HETATM   22  C1  UNL     1      21.311  18.156  62.452  1.00  0.00     0.035 C 
HETATM   23  C3  UNL     1      20.614  16.223  63.779  1.00  0.00     0.035 C 
HETATM   24 CL1  UNL     1      22.121  18.039  64.958  1.00  0.00    -0.117 Cl
ENDBRANCH  20  21
BRANCH  20  25
HETATM   25  O1  UNL     1      23.176  16.536  61.680  1.00  0.00    -0.393 OA
ATOM     26  H1  UNL     1      23.868  15.935  61.432  1.00  0.00     0.210 HD
ENDBRANCH  20  25
ENDBRANCH   1  20
TORSDOF 6
ENDMDL
