MODEL 1
REMARK VINA RESULT: -6.172201786      0.000      0.000
REMARK  7 active torsions:
REMARK  status: ('A' for Active; 'I' for Inactive)
REMARK    1  A    between atoms: O1_1  and  C1_3 
REMARK    2  A    between atoms: C1_3  and  C2_4 
REMARK    3  A    between atoms: C2_4  and  C3_5 
REMARK    4  A    between atoms: N1_12  and  C10_13 
REMARK    5  A    between atoms: C10_13  and  C11_14 
REMARK    6  A    between atoms: C11_14  and  O2_15 
REMARK    7  A    between atoms: C11_14  and  C12_17 
ROOT
HETATM    1  C3  UNL     1      80.354   5.077  26.229  1.00  0.00     0.090 C 
HETATM    2  C4  UNL     1      81.062   6.009  27.165  1.00  0.00     0.026 C 
HETATM    3  C5  UNL     1      81.086   7.412  26.633  1.00  0.00     0.002 C 
HETATM    4  C6  UNL     1      80.225   8.266  27.549  1.00  0.00     0.000 C 
HETATM    5  C7  UNL     1      78.779   8.047  27.101  1.00  0.00     0.005 C 
HETATM    6  C8  UNL     1      78.131   6.994  27.928  1.00  0.00     0.044 C 
HETATM    7  C9  UNL     1      78.315   5.585  27.405  1.00  0.00     0.063 C 
HETATM    8  N1  UNL     1      78.973   5.471  26.175  1.00  0.00    -0.367 N 
ENDROOT
BRANCH   8   9
HETATM    9  C10 UNL     1      78.183   4.943  25.142  1.00  0.00     0.095 C 
BRANCH   9  10
HETATM   10  C11 UNL     1      77.809   5.832  24.006  1.00  0.00     0.160 C 
BRANCH  10  11
HETATM   11  O2  UNL     1      78.135   5.391  22.755  1.00  0.00    -0.390 OA
ATOM     12  H2  UNL     1      77.700   4.600  22.460  1.00  0.00     0.210 HD
ENDBRANCH  10  11
BRANCH  10  13
HETATM   13  C12 UNL     1      76.314   6.137  24.073  1.00  0.00     0.019 A 
HETATM   14  C13 UNL     1      75.753   7.272  23.297  1.00  0.00     0.008 A 
HETATM   15  C14 UNL     1      75.395   5.808  22.995  1.00  0.00     0.008 A 
ENDBRANCH  10  13
ENDBRANCH   9  10
ENDBRANCH   8   9
BRANCH   1  16
HETATM   16  C2  UNL     1      81.007   5.002  24.918  1.00  0.00     0.051 C 
BRANCH  16  17
HETATM   17  C1  UNL     1      82.443   4.584  24.890  1.00  0.00     0.166 C 
BRANCH  17  18
HETATM   18  O1  UNL     1      82.820   3.762  23.851  1.00  0.00    -0.401 OA
ATOM     19  H1  UNL     1      83.010   4.189  23.024  1.00  0.00     0.209 HD
ENDBRANCH  17  18
ENDBRANCH  16  17
ENDBRANCH   1  16
TORSDOF 7
ENDMDL
MODEL 2
REMARK VINA RESULT: -6.040222262      3.172      5.490
REMARK  7 active torsions:
REMARK  status: ('A' for Active; 'I' for Inactive)
REMARK    1  A    between atoms: O1_1  and  C1_3 
REMARK    2  A    between atoms: C1_3  and  C2_4 
REMARK    3  A    between atoms: C2_4  and  C3_5 
REMARK    4  A    between atoms: N1_12  and  C10_13 
REMARK    5  A    between atoms: C10_13  and  C11_14 
REMARK    6  A    between atoms: C11_14  and  O2_15 
REMARK    7  A    between atoms: C11_14  and  C12_17 
ROOT
HETATM    1  C3  UNL     1      79.711   5.165  26.900  1.00  0.00     0.090 C 
HETATM    2  C4  UNL     1      80.549   6.101  26.083  1.00  0.00     0.026 C 
HETATM    3  C5  UNL     1      80.089   7.523  26.229  1.00  0.00     0.002 C 
HETATM    4  C6  UNL     1      81.185   8.288  26.953  1.00  0.00     0.000 C 
HETATM    5  C7  UNL     1      80.994   7.999  28.443  1.00  0.00     0.005 C 
HETATM    6  C8  UNL     1      81.872   6.879  28.873  1.00  0.00     0.044 C 
HETATM    7  C9  UNL     1      81.257   5.504  28.714  1.00  0.00     0.063 C 
HETATM    8  N1  UNL     1      79.925   5.477  28.286  1.00  0.00    -0.367 N 
ENDROOT
BRANCH   8   9
HETATM    9  C10 UNL     1      79.027   4.941  29.222  1.00  0.00     0.095 C 
BRANCH   9  10
HETATM   10  C11 UNL     1      78.589   5.799  30.360  1.00  0.00     0.160 C 
BRANCH  10  11
HETATM   11  O2  UNL     1      77.316   6.290  30.295  1.00  0.00    -0.390 OA
ATOM     12  H2  UNL     1      76.730   5.866  29.679  1.00  0.00     0.210 HD
ENDBRANCH  10  11
BRANCH  10  13
HETATM   13  C12 UNL     1      78.785   5.041  31.671  1.00  0.00     0.019 A 
HETATM   14  C13 UNL     1      80.156   4.768  32.172  1.00  0.00     0.008 A 
HETATM   15  C14 UNL     1      79.179   5.697  32.907  1.00  0.00     0.008 A 
ENDBRANCH  10  13
ENDBRANCH   9  10
ENDBRANCH   8   9
BRANCH   1  16
HETATM   16  C2  UNL     1      78.302   5.178  26.494  1.00  0.00     0.051 C 
BRANCH  16  17
HETATM   17  C1  UNL     1      77.895   4.247  25.396  1.00  0.00     0.166 C 
BRANCH  17  18
HETATM   18  O1  UNL     1      76.569   4.282  25.026  1.00  0.00    -0.401 OA
ATOM     19  H1  UNL     1      75.955   3.869  25.621  1.00  0.00     0.209 HD
ENDBRANCH  17  18
ENDBRANCH  16  17
ENDBRANCH   1  16
TORSDOF 7
ENDMDL
MODEL 3
REMARK VINA RESULT: -6.036282072      3.836      5.806
REMARK  7 active torsions:
REMARK  status: ('A' for Active; 'I' for Inactive)
REMARK    1  A    between atoms: O1_1  and  C1_3 
REMARK    2  A    between atoms: C1_3  and  C2_4 
REMARK    3  A    between atoms: C2_4  and  C3_5 
REMARK    4  A    between atoms: N1_12  and  C10_13 
REMARK    5  A    between atoms: C10_13  and  C11_14 
REMARK    6  A    between atoms: C11_14  and  O2_15 
REMARK    7  A    between atoms: C11_14  and  C12_17 
ROOT
HETATM    1  C3  UNL     1      81.050   6.555  29.105  1.00  0.00     0.090 C 
HETATM    2  C4  UNL     1      81.329   7.418  27.911  1.00  0.00     0.026 C 
HETATM    3  C5  UNL     1      80.970   6.721  26.632  1.00  0.00     0.002 C 
HETATM    4  C6  UNL     1      79.794   7.462  26.018  1.00  0.00     0.000 C 
HETATM    5  C7  UNL     1      78.544   6.943  26.732  1.00  0.00     0.005 C 
HETATM    6  C8  UNL     1      78.173   7.845  27.855  1.00  0.00     0.044 C 
HETATM    7  C9  UNL     1      78.842   7.513  29.173  1.00  0.00     0.063 C 
HETATM    8  N1  UNL     1      79.629   6.355  29.183  1.00  0.00    -0.367 N 
ENDROOT
BRANCH   8   9
HETATM    9  C10 UNL     1      79.158   5.342  30.032  1.00  0.00     0.095 C 
BRANCH   9  10
HETATM   10  C11 UNL     1      78.288   5.722  31.181  1.00  0.00     0.160 C 
BRANCH  10  11
HETATM   11  O2  UNL     1      77.034   5.180  31.200  1.00  0.00    -0.390 OA
ATOM     12  H2  UNL     1      76.440   5.514  31.861  1.00  0.00     0.210 HD
ENDBRANCH  10  11
BRANCH  10  13
HETATM   13  C12 UNL     1      79.009   5.404  32.489  1.00  0.00     0.019 A 
HETATM   14  C13 UNL     1      79.789   4.148  32.619  1.00  0.00     0.008 A 
HETATM   15  C14 UNL     1      80.449   5.535  32.645  1.00  0.00     0.008 A 
ENDBRANCH  10  13
ENDBRANCH   9  10
ENDBRANCH   8   9
BRANCH   1  16
HETATM   16  C2  UNL     1      81.829   5.313  29.089  1.00  0.00     0.051 C 
BRANCH  16  17
HETATM   17  C1  UNL     1      83.080   5.277  29.908  1.00  0.00     0.166 C 
BRANCH  17  18
HETATM   18  O1  UNL     1      84.222   4.856  29.262  1.00  0.00    -0.401 OA
ATOM     19  H1  UNL     1      84.134   4.662  28.336  1.00  0.00     0.209 HD
ENDBRANCH  17  18
ENDBRANCH  16  17
ENDBRANCH   1  16
TORSDOF 7
ENDMDL
MODEL 4
REMARK VINA RESULT: -5.873190991      2.779      4.464
REMARK  7 active torsions:
REMARK  status: ('A' for Active; 'I' for Inactive)
REMARK    1  A    between atoms: O1_1  and  C1_3 
REMARK    2  A    between atoms: C1_3  and  C2_4 
REMARK    3  A    between atoms: C2_4  and  C3_5 
REMARK    4  A    between atoms: N1_12  and  C10_13 
REMARK    5  A    between atoms: C10_13  and  C11_14 
REMARK    6  A    between atoms: C11_14  and  O2_15 
REMARK    7  A    between atoms: C11_14  and  C12_17 
ROOT
HETATM    1  C3  UNL     1      80.060   6.833  28.812  1.00  0.00     0.090 C 
HETATM    2  C4  UNL     1      80.976   7.197  29.942  1.00  0.00     0.026 C 
HETATM    3  C5  UNL     1      81.379   5.989  30.736  1.00  0.00     0.002 C 
HETATM    4  C6  UNL     1      82.868   5.774  30.522  1.00  0.00     0.000 C 
HETATM    5  C7  UNL     1      83.005   5.031  29.192  1.00  0.00     0.005 C 
HETATM    6  C8  UNL     1      83.264   5.989  28.084  1.00  0.00     0.044 C 
HETATM    7  C9  UNL     1      82.014   6.549  27.435  1.00  0.00     0.063 C 
HETATM    8  N1  UNL     1      80.801   6.019  27.888  1.00  0.00    -0.367 N 
ENDROOT
BRANCH   8   9
HETATM    9  C10 UNL     1      80.077   5.312  26.916  1.00  0.00     0.095 C 
BRANCH   9  10
HETATM   10  C11 UNL     1      79.660   6.030  25.678  1.00  0.00     0.160 C 
BRANCH  10  11
HETATM   11  O2  UNL     1      80.114   5.517  24.496  1.00  0.00    -0.390 OA
ATOM     12  H2  UNL     1      79.784   4.660  24.253  1.00  0.00     0.210 HD
ENDBRANCH  10  11
BRANCH  10  13
HETATM   13  C12 UNL     1      78.137   6.139  25.644  1.00  0.00     0.019 A 
HETATM   14  C13 UNL     1      77.425   6.168  24.342  1.00  0.00     0.008 A 
HETATM   15  C14 UNL     1      77.275   5.008  25.337  1.00  0.00     0.008 A 
ENDBRANCH  10  13
ENDBRANCH   9  10
ENDBRANCH   8   9
BRANCH   1  16
HETATM   16  C2  UNL     1      78.812   6.222  29.281  1.00  0.00     0.051 C 
BRANCH  16  17
HETATM   17  C1  UNL     1      77.611   7.107  29.383  1.00  0.00     0.166 C 
BRANCH  17  18
HETATM   18  O1  UNL     1      76.429   6.495  29.738  1.00  0.00    -0.401 OA
ATOM     19  H1  UNL     1      75.631   6.931  29.465  1.00  0.00     0.209 HD
ENDBRANCH  17  18
ENDBRANCH  16  17
ENDBRANCH   1  16
TORSDOF 7
ENDMDL
MODEL 5
REMARK VINA RESULT: -5.872149921      2.728      4.832
REMARK  7 active torsions:
REMARK  status: ('A' for Active; 'I' for Inactive)
REMARK    1  A    between atoms: O1_1  and  C1_3 
REMARK    2  A    between atoms: C1_3  and  C2_4 
REMARK    3  A    between atoms: C2_4  and  C3_5 
REMARK    4  A    between atoms: N1_12  and  C10_13 
REMARK    5  A    between atoms: C10_13  and  C11_14 
REMARK    6  A    between atoms: C11_14  and  O2_15 
REMARK    7  A    between atoms: C11_14  and  C12_17 
ROOT
HETATM    1  C3  UNL     1      80.490   5.911  26.987  1.00  0.00     0.090 C 
HETATM    2  C4  UNL     1      80.653   5.499  25.555  1.00  0.00     0.026 C 
HETATM    3  C5  UNL     1      80.221   4.079  25.338  1.00  0.00     0.002 C 
HETATM    4  C6  UNL     1      78.980   4.104  24.461  1.00  0.00     0.000 C 
HETATM    5  C7  UNL     1      77.804   4.391  25.396  1.00  0.00     0.005 C 
HETATM    6  C8  UNL     1      77.490   5.845  25.407  1.00  0.00     0.044 C 
HETATM    7  C9  UNL     1      78.266   6.646  26.433  1.00  0.00     0.063 C 
HETATM    8  N1  UNL     1      79.086   5.905  27.292  1.00  0.00    -0.367 N 
ENDROOT
BRANCH   8   9
HETATM    9  C10 UNL     1      78.711   5.961  28.643  1.00  0.00     0.095 C 
BRANCH   9  10
HETATM   10  C11 UNL     1      77.806   7.059  29.085  1.00  0.00     0.160 C 
BRANCH  10  11
HETATM   11  O2  UNL     1      76.687   6.684  29.775  1.00  0.00    -0.390 OA
ATOM     12  H2  UNL     1      76.722   5.838  30.208  1.00  0.00     0.210 HD
ENDBRANCH  10  11
BRANCH  10  13
HETATM   13  C12 UNL     1      78.602   8.074  29.904  1.00  0.00     0.019 A 
HETATM   14  C13 UNL     1      79.987   7.756  30.333  1.00  0.00     0.008 A 
HETATM   15  C14 UNL     1      79.670   8.878  29.333  1.00  0.00     0.008 A 
ENDBRANCH  10  13
ENDBRANCH   9  10
ENDBRANCH   8   9
BRANCH   1  16
HETATM   16  C2  UNL     1      81.304   5.097  27.897  1.00  0.00     0.051 C 
BRANCH  16  17
HETATM   17  C1  UNL     1      82.631   5.650  28.311  1.00  0.00     0.166 C 
BRANCH  17  18
HETATM   18  O1  UNL     1      83.479   4.780  28.959  1.00  0.00    -0.401 OA
ATOM     19  H1  UNL     1      83.926   5.120  29.725  1.00  0.00     0.209 HD
ENDBRANCH  17  18
ENDBRANCH  16  17
ENDBRANCH   1  16
TORSDOF 7
ENDMDL
