MODEL 1
REMARK VINA RESULT: -8.421386956      0.000      0.000
REMARK  2 active torsions:
REMARK  status: ('A' for Active; 'I' for Inactive)
REMARK    1  A    between atoms: C4_4  and  C5_5 
REMARK    2  A    between atoms: C5_5  and  C6_6 
ROOT
HETATM    1  C6  UNL     1      -6.304  38.848  -6.942  1.00  0.00     0.098 C 
HETATM    2  C7  UNL     1      -7.687  38.864  -7.467  1.00  0.00     0.015 C 
HETATM    3  C8  UNL     1      -8.294  38.058  -6.625  1.00  0.00    -0.073 C 
HETATM    4  C9  UNL     1      -8.985  37.144  -5.673  1.00  0.00     0.035 C 
HETATM    5  C10 UNL     1      -8.218  37.362  -4.329  1.00  0.00     0.011 C 
HETATM    6  C11 UNL     1      -7.246  38.374  -4.715  1.00  0.00     0.023 C 
HETATM    7  C12 UNL     1      -5.995  38.631  -4.020  1.00  0.00     0.171 C 
HETATM    8  C13 UNL     1      -6.132  39.042  -2.622  1.00  0.00     0.072 C 
HETATM    9  N1  UNL     1      -6.230  39.359  -1.533  1.00  0.00    -0.196 NA
HETATM   10  C14 UNL     1      -5.390  39.764  -4.835  1.00  0.00     0.131 C 
HETATM   11  N2  UNL     1      -4.467  40.512  -4.415  1.00  0.00    -0.382 N 
ATOM     12  H21 UNL     1      -4.061  41.271  -4.962  1.00  0.00     0.158 HD
ATOM     13  H22 UNL     1      -4.082  40.377  -3.480  1.00  0.00     0.158 HD
HETATM   14  O1  UNL     1      -5.915  39.948  -6.109  1.00  0.00    -0.322 OA
HETATM   15  C15 UNL     1      -6.859  37.827  -6.098  1.00  0.00     0.059 C 
ENDROOT
BRANCH   1  16
HETATM   16  C5  UNL     1      -5.218  38.531  -7.912  1.00  0.00     0.071 C 
BRANCH  16  17
HETATM   17  C4  UNL     1      -5.591  37.611  -8.985  1.00  0.00    -0.021 C 
HETATM   18  C2  UNL     1      -5.247  37.854 -10.241  1.00  0.00    -0.091 C 
HETATM   19  C1  UNL     1      -4.469  39.078 -10.573  1.00  0.00     0.042 C 
HETATM   20  C3  UNL     1      -5.617  36.930 -11.351  1.00  0.00     0.042 C 
ENDBRANCH  16  17
ENDBRANCH   1  16
TORSDOF 2
ENDMDL
MODEL 2
REMARK VINA RESULT: -8.245971126      1.346      1.827
REMARK  2 active torsions:
REMARK  status: ('A' for Active; 'I' for Inactive)
REMARK    1  A    between atoms: C4_4  and  C5_5 
REMARK    2  A    between atoms: C5_5  and  C6_6 
ROOT
HETATM    1  C6  UNL     1      -6.551  39.130  -8.634  1.00  0.00     0.098 C 
HETATM    2  C7  UNL     1      -7.890  39.164  -9.263  1.00  0.00     0.015 C 
HETATM    3  C8  UNL     1      -8.487  38.162  -8.658  1.00  0.00    -0.073 C 
HETATM    4  C9  UNL     1      -9.167  37.026  -7.975  1.00  0.00     0.035 C 
HETATM    5  C10 UNL     1      -8.518  37.009  -6.553  1.00  0.00     0.011 C 
HETATM    6  C11 UNL     1      -7.607  38.141  -6.640  1.00  0.00     0.023 C 
HETATM    7  C12 UNL     1      -6.435  38.329  -5.801  1.00  0.00     0.171 C 
HETATM    8  C13 UNL     1      -6.705  38.429  -4.366  1.00  0.00     0.072 C 
HETATM    9  N1  UNL     1      -6.906  38.506  -3.249  1.00  0.00    -0.196 NA
HETATM   10  C14 UNL     1      -5.868  39.644  -6.314  1.00  0.00     0.131 C 
HETATM   11  N2  UNL     1      -5.042  40.348  -5.673  1.00  0.00    -0.382 N 
ATOM     12  H21 UNL     1      -4.662  41.229  -6.017  1.00  0.00     0.158 HD
ATOM     13  H22 UNL     1      -4.715  40.046  -4.755  1.00  0.00     0.158 HD
HETATM   14  O1  UNL     1      -6.314  40.056  -7.565  1.00  0.00    -0.322 OA
HETATM   15  C15 UNL     1      -7.079  37.921  -8.066  1.00  0.00     0.059 C 
ENDROOT
BRANCH   1  16
HETATM   16  C5  UNL     1      -5.376  39.094  -9.550  1.00  0.00     0.071 C 
BRANCH  16  17
HETATM   17  C4  UNL     1      -5.072  37.783 -10.121  1.00  0.00    -0.021 C 
HETATM   18  C2  UNL     1      -5.466  37.465 -11.344  1.00  0.00    -0.091 C 
HETATM   19  C1  UNL     1      -6.230  38.450 -12.157  1.00  0.00     0.042 C 
HETATM   20  C3  UNL     1      -5.167  36.134 -11.946  1.00  0.00     0.042 C 
ENDBRANCH  16  17
ENDBRANCH   1  16
TORSDOF 2
ENDMDL
MODEL 3
REMARK VINA RESULT: -8.168743973      0.795      1.009
REMARK  2 active torsions:
REMARK  status: ('A' for Active; 'I' for Inactive)
REMARK    1  A    between atoms: C4_4  and  C5_5 
REMARK    2  A    between atoms: C5_5  and  C6_6 
ROOT
HETATM    1  C6  UNL     1      -6.360  39.140  -6.598  1.00  0.00     0.098 C 
HETATM    2  C7  UNL     1      -7.782  39.219  -7.000  1.00  0.00     0.015 C 
HETATM    3  C8  UNL     1      -8.323  38.308  -6.223  1.00  0.00    -0.073 C 
HETATM    4  C9  UNL     1      -8.940  37.276  -5.343  1.00  0.00     0.035 C 
HETATM    5  C10 UNL     1      -8.061  37.319  -4.051  1.00  0.00     0.011 C 
HETATM    6  C11 UNL     1      -7.117  38.376  -4.382  1.00  0.00     0.023 C 
HETATM    7  C12 UNL     1      -5.811  38.544  -3.766  1.00  0.00     0.171 C 
HETATM    8  C13 UNL     1      -5.829  38.769  -2.320  1.00  0.00     0.072 C 
HETATM    9  N1  UNL     1      -5.833  38.942  -1.195  1.00  0.00    -0.196 NA
HETATM   10  C14 UNL     1      -5.267  39.776  -4.474  1.00  0.00     0.131 C 
HETATM   11  N2  UNL     1      -4.306  40.466  -4.039  1.00  0.00    -0.382 N 
ATOM     12  H21 UNL     1      -3.941  41.291  -4.514  1.00  0.00     0.158 HD
ATOM     13  H22 UNL     1      -3.846  40.211  -3.165  1.00  0.00     0.158 HD
HETATM   14  O1  UNL     1      -5.895  40.123  -5.665  1.00  0.00    -0.322 OA
HETATM   15  C15 UNL     1      -6.851  38.015  -5.851  1.00  0.00     0.059 C 
ENDROOT
BRANCH   1  16
HETATM   16  C5  UNL     1      -5.361  38.955  -7.689  1.00  0.00     0.071 C 
BRANCH  16  17
HETATM   17  C4  UNL     1      -5.903  39.008  -9.045  1.00  0.00    -0.021 C 
HETATM   18  C2  UNL     1      -6.128  37.899  -9.733  1.00  0.00    -0.091 C 
HETATM   19  C1  UNL     1      -5.826  36.575  -9.124  1.00  0.00     0.042 C 
HETATM   20  C3  UNL     1      -6.681  37.930 -11.118  1.00  0.00     0.042 C 
ENDBRANCH  16  17
ENDBRANCH   1  16
TORSDOF 2
ENDMDL
MODEL 4
REMARK VINA RESULT: -7.046972388      3.424      5.639
REMARK  2 active torsions:
REMARK  status: ('A' for Active; 'I' for Inactive)
REMARK    1  A    between atoms: C4_4  and  C5_5 
REMARK    2  A    between atoms: C5_5  and  C6_6 
ROOT
HETATM    1  C6  UNL     1      -6.363  37.657 -11.465  1.00  0.00     0.098 C 
HETATM    2  C7  UNL     1      -5.012  37.055 -11.466  1.00  0.00     0.015 C 
HETATM    3  C8  UNL     1      -4.285  38.047 -11.005  1.00  0.00    -0.073 C 
HETATM    4  C9  UNL     1      -3.457  39.171 -10.483  1.00  0.00     0.035 C 
HETATM    5  C10 UNL     1      -4.426  39.924  -9.515  1.00  0.00     0.011 C 
HETATM    6  C11 UNL     1      -5.624  39.104  -9.613  1.00  0.00     0.023 C 
HETATM    7  C12 UNL     1      -6.968  39.558  -9.297  1.00  0.00     0.171 C 
HETATM    8  C13 UNL     1      -7.168  39.999  -7.915  1.00  0.00     0.072 C 
HETATM    9  N1  UNL     1      -7.332  40.345  -6.844  1.00  0.00    -0.196 NA
HETATM   10  C14 UNL     1      -7.809  38.321  -9.572  1.00  0.00     0.131 C 
HETATM   11  N2  UNL     1      -8.980  38.159  -9.134  1.00  0.00    -0.382 N 
ATOM     12  H21 UNL     1      -9.544  37.330  -9.319  1.00  0.00     0.158 HD
ATOM     13  H22 UNL     1      -9.417  38.880  -8.560  1.00  0.00     0.158 HD
HETATM   14  O1  UNL     1      -7.213  37.339 -10.355  1.00  0.00    -0.322 OA
HETATM   15  C15 UNL     1      -5.611  38.833 -11.125  1.00  0.00     0.059 C 
ENDROOT
BRANCH   1  16
HETATM   16  C5  UNL     1      -7.135  37.585 -12.738  1.00  0.00     0.071 C 
BRANCH  16  17
HETATM   17  C4  UNL     1      -6.509  36.801 -13.801  1.00  0.00    -0.021 C 
HETATM   18  C2  UNL     1      -6.561  37.201 -15.062  1.00  0.00    -0.091 C 
HETATM   19  C1  UNL     1      -7.263  38.465 -15.412  1.00  0.00     0.042 C 
HETATM   20  C3  UNL     1      -5.930  36.417 -16.163  1.00  0.00     0.042 C 
ENDBRANCH  16  17
ENDBRANCH   1  16
TORSDOF 2
ENDMDL
MODEL 5
REMARK VINA RESULT: -6.926615322      1.593      2.377
REMARK  2 active torsions:
REMARK  status: ('A' for Active; 'I' for Inactive)
REMARK    1  A    between atoms: C4_4  and  C5_5 
REMARK    2  A    between atoms: C5_5  and  C6_6 
ROOT
HETATM    1  C6  UNL     1      -8.164  37.783  -5.880  1.00  0.00     0.098 C 
HETATM    2  C7  UNL     1      -9.430  37.866  -5.119  1.00  0.00     0.015 C 
HETATM    3  C8  UNL     1      -9.039  37.493  -3.921  1.00  0.00    -0.073 C 
HETATM    4  C9  UNL     1      -8.599  37.071  -2.562  1.00  0.00     0.035 C 
HETATM    5  C10 UNL     1      -7.122  37.578  -2.478  1.00  0.00     0.011 C 
HETATM    6  C11 UNL     1      -6.968  38.226  -3.772  1.00  0.00     0.023 C 
HETATM    7  C12 UNL     1      -5.695  38.476  -4.429  1.00  0.00     0.171 C 
HETATM    8  C13 UNL     1      -4.770  39.335  -3.689  1.00  0.00     0.072 C 
HETATM    9  N1  UNL     1      -4.044  40.001  -3.119  1.00  0.00    -0.196 NA
HETATM   10  C14 UNL     1      -6.117  39.160  -5.720  1.00  0.00     0.131 C 
HETATM   11  N2  UNL     1      -5.335  39.834  -6.443  1.00  0.00    -0.382 N 
ATOM     12  H21 UNL     1      -5.618  40.292  -7.309  1.00  0.00     0.158 HD
ATOM     13  H22 UNL     1      -4.357  39.944  -6.175  1.00  0.00     0.158 HD
HETATM   14  O1  UNL     1      -7.451  39.009  -6.085  1.00  0.00    -0.322 OA
HETATM   15  C15 UNL     1      -7.706  37.202  -4.648  1.00  0.00     0.059 C 
ENDROOT
BRANCH   1  16
HETATM   16  C5  UNL     1      -8.185  36.986  -7.139  1.00  0.00     0.071 C 
BRANCH  16  17
HETATM   17  C4  UNL     1      -8.097  37.767  -8.371  1.00  0.00    -0.021 C 
HETATM   18  C2  UNL     1      -7.022  37.705  -9.142  1.00  0.00    -0.091 C 
HETATM   19  C1  UNL     1      -5.881  36.831  -8.755  1.00  0.00     0.042 C 
HETATM   20  C3  UNL     1      -6.911  38.493 -10.403  1.00  0.00     0.042 C 
ENDBRANCH  16  17
ENDBRANCH   1  16
TORSDOF 2
ENDMDL
