MODEL 1
REMARK VINA RESULT: -7.679024680      0.000      0.000
REMARK  1 active torsions:
REMARK  status: ('A' for Active; 'I' for Inactive)
REMARK    1  A    between atoms: C2_2  and  C3_4 
REMARK       I    between atoms: C3_4  and  N1_6 
ROOT
HETATM    1  C3  UNL     1      -6.438  36.954 -13.661  1.00  0.00     0.238 C 
HETATM    2  O1  UNL     1      -5.454  36.444 -14.270  1.00  0.00    -0.272 OA
HETATM    3  N1  UNL     1      -6.246  37.509 -12.374  1.00  0.00    -0.347 N 
HETATM    4  C4  UNL     1      -4.964  37.536 -11.675  1.00  0.00     0.129 C 
HETATM    5  C5  UNL     1      -5.160  38.566 -10.583  1.00  0.00     0.067 C 
HETATM    6  C6  UNL     1      -6.598  38.262 -10.181  1.00  0.00     0.131 C 
HETATM    7  C7  UNL     1      -7.179  39.345  -9.360  1.00  0.00     0.015 C 
HETATM    8  C8  UNL     1      -7.712  39.072  -8.171  1.00  0.00     0.013 C 
HETATM    9  C9  UNL     1      -7.705  37.669  -7.705  1.00  0.00     0.114 C 
HETATM   10  C10 UNL     1      -8.945  37.314  -6.933  1.00  0.00     0.045 C 
HETATM   11  C11 UNL     1      -8.750  37.265  -5.457  1.00  0.00     0.003 C 
HETATM   12  C12 UNL     1      -7.738  38.252  -4.939  1.00  0.00     0.000 C 
HETATM   13  C13 UNL     1      -6.414  38.149  -5.605  1.00  0.00     0.003 C 
HETATM   14  C14 UNL     1      -6.439  37.438  -6.928  1.00  0.00     0.045 C 
HETATM   15  O2  UNL     1      -7.663  36.848  -8.832  1.00  0.00    -0.224 OA
HETATM   16  O3  UNL     1      -6.612  37.030  -9.569  1.00  0.00    -0.223 OA
HETATM   17  C15 UNL     1      -7.254  38.138 -11.537  1.00  0.00     0.171 C 
ENDROOT
BRANCH   1  18
HETATM   18  C2  UNL     1      -7.770  36.951 -14.325  1.00  0.00     0.170 C 
HETATM   19  C1  UNL     1      -7.648  36.237 -15.630  1.00  0.00     0.036 C 
HETATM   20 CL1  UNL     1      -8.455  38.578 -14.504  1.00  0.00    -0.115 Cl
ENDBRANCH   1  18
TORSDOF 1
ENDMDL
MODEL 2
REMARK VINA RESULT: -7.368929773      3.452      7.098
REMARK  1 active torsions:
REMARK  status: ('A' for Active; 'I' for Inactive)
REMARK    1  A    between atoms: C2_2  and  C3_4 
REMARK       I    between atoms: C3_4  and  N1_6 
ROOT
HETATM    1  C3  UNL     1      -6.633  38.004  -4.609  1.00  0.00     0.238 C 
HETATM    2  O1  UNL     1      -7.620  38.154  -3.833  1.00  0.00    -0.272 OA
HETATM    3  N1  UNL     1      -6.733  38.438  -5.952  1.00  0.00    -0.347 N 
HETATM    4  C4  UNL     1      -7.924  39.061  -6.526  1.00  0.00     0.129 C 
HETATM    5  C5  UNL     1      -7.423  39.713  -7.797  1.00  0.00     0.067 C 
HETATM    6  C6  UNL     1      -6.427  38.659  -8.267  1.00  0.00     0.131 C 
HETATM    7  C7  UNL     1      -5.529  39.183  -9.317  1.00  0.00     0.015 C 
HETATM    8  C8  UNL     1      -5.416  38.548 -10.480  1.00  0.00     0.013 C 
HETATM    9  C9  UNL     1      -6.209  37.317 -10.687  1.00  0.00     0.114 C 
HETATM   10  C10 UNL     1      -5.470  36.285 -11.492  1.00  0.00     0.045 C 
HETATM   11  C11 UNL     1      -5.910  36.191 -12.912  1.00  0.00     0.003 C 
HETATM   12  C12 UNL     1      -6.357  37.501 -13.504  1.00  0.00     0.000 C 
HETATM   13  C13 UNL     1      -7.416  38.179 -12.714  1.00  0.00     0.003 C 
HETATM   14  C14 UNL     1      -7.530  37.705 -11.294  1.00  0.00     0.045 C 
HETATM   15  O2  UNL     1      -6.468  36.764  -9.433  1.00  0.00    -0.224 OA
HETATM   16  O3  UNL     1      -7.141  37.547  -8.649  1.00  0.00    -0.223 OA
HETATM   17  C15 UNL     1      -5.705  38.353  -6.975  1.00  0.00     0.171 C 
ENDROOT
BRANCH   1  18
HETATM   18  C2  UNL     1      -5.395  37.373  -4.078  1.00  0.00     0.170 C 
HETATM   19  C1  UNL     1      -5.768  36.472  -2.948  1.00  0.00     0.036 C 
HETATM   20 CL1  UNL     1      -4.158  38.560  -3.619  1.00  0.00    -0.115 Cl
ENDBRANCH   1  18
TORSDOF 1
ENDMDL
MODEL 3
REMARK VINA RESULT: -7.152959018      4.223      7.752
REMARK  1 active torsions:
REMARK  status: ('A' for Active; 'I' for Inactive)
REMARK    1  A    between atoms: C2_2  and  C3_4 
REMARK       I    between atoms: C3_4  and  N1_6 
ROOT
HETATM    1  C3  UNL     1      -5.869  38.379  -3.011  1.00  0.00     0.238 C 
HETATM    2  O1  UNL     1      -6.161  37.475  -2.177  1.00  0.00    -0.272 OA
HETATM    3  N1  UNL     1      -6.506  38.391  -4.274  1.00  0.00    -0.347 N 
HETATM    4  C4  UNL     1      -7.502  37.410  -4.700  1.00  0.00     0.129 C 
HETATM    5  C5  UNL     1      -8.175  38.059  -5.889  1.00  0.00     0.067 C 
HETATM    6  C6  UNL     1      -6.975  38.729  -6.547  1.00  0.00     0.131 C 
HETATM    7  C7  UNL     1      -7.388  39.729  -7.554  1.00  0.00     0.015 C 
HETATM    8  C8  UNL     1      -6.923  39.657  -8.799  1.00  0.00     0.013 C 
HETATM    9  C9  UNL     1      -5.994  38.559  -9.139  1.00  0.00     0.114 C 
HETATM   10  C10 UNL     1      -4.932  38.985 -10.113  1.00  0.00     0.045 C 
HETATM   11  C11 UNL     1      -5.168  38.527 -11.510  1.00  0.00     0.003 C 
HETATM   12  C12 UNL     1      -6.622  38.447 -11.892  1.00  0.00     0.000 C 
HETATM   13  C13 UNL     1      -7.434  37.617 -10.967  1.00  0.00     0.003 C 
HETATM   14  C14 UNL     1      -6.805  37.389  -9.623  1.00  0.00     0.045 C 
HETATM   15  O2  UNL     1      -5.352  38.168  -7.963  1.00  0.00    -0.224 OA
HETATM   16  O3  UNL     1      -6.162  37.738  -7.047  1.00  0.00    -0.223 OA
HETATM   17  C15 UNL     1      -6.301  39.350  -5.345  1.00  0.00     0.171 C 
ENDROOT
BRANCH   1  18
HETATM   18  C2  UNL     1      -4.859  39.403  -2.631  1.00  0.00     0.170 C 
HETATM   19  C1  UNL     1      -3.699  38.713  -1.993  1.00  0.00     0.036 C 
HETATM   20 CL1  UNL     1      -5.531  40.687  -1.607  1.00  0.00    -0.115 Cl
ENDBRANCH   1  18
TORSDOF 1
ENDMDL
MODEL 4
REMARK VINA RESULT: -6.413049912      5.491      8.754
REMARK  1 active torsions:
REMARK  status: ('A' for Active; 'I' for Inactive)
REMARK    1  A    between atoms: C2_2  and  C3_4 
REMARK       I    between atoms: C3_4  and  N1_6 
ROOT
HETATM    1  C3  UNL     1      -4.100  40.013  -1.510  1.00  0.00     0.238 C 
HETATM    2  O1  UNL     1      -2.935  39.787  -1.072  1.00  0.00    -0.272 OA
HETATM    3  N1  UNL     1      -4.657  39.148  -2.480  1.00  0.00    -0.347 N 
HETATM    4  C4  UNL     1      -3.970  37.982  -3.031  1.00  0.00     0.129 C 
HETATM    5  C5  UNL     1      -5.075  37.169  -3.669  1.00  0.00     0.067 C 
HETATM    6  C6  UNL     1      -5.932  38.287  -4.251  1.00  0.00     0.131 C 
HETATM    7  C7  UNL     1      -7.272  37.804  -4.644  1.00  0.00     0.015 C 
HETATM    8  C8  UNL     1      -7.721  38.005  -5.880  1.00  0.00     0.013 C 
HETATM    9  C9  UNL     1      -6.847  38.718  -6.836  1.00  0.00     0.114 C 
HETATM   10  C10 UNL     1      -7.620  39.611  -7.765  1.00  0.00     0.045 C 
HETATM   11  C11 UNL     1      -7.798  39.056  -9.136  1.00  0.00     0.003 C 
HETATM   12  C12 UNL     1      -7.920  37.556  -9.179  1.00  0.00     0.000 C 
HETATM   13  C13 UNL     1      -6.796  36.849  -8.513  1.00  0.00     0.003 C 
HETATM   14  C14 UNL     1      -6.009  37.698  -7.558  1.00  0.00     0.045 C 
HETATM   15  O2  UNL     1      -5.983  39.527  -6.098  1.00  0.00    -0.224 OA
HETATM   16  O3  UNL     1      -5.226  38.867  -5.279  1.00  0.00    -0.223 OA
HETATM   17  C15 UNL     1      -5.973  39.250  -3.086  1.00  0.00     0.171 C 
ENDROOT
BRANCH   1  18
HETATM   18  C2  UNL     1      -4.845  41.189  -0.985  1.00  0.00     0.170 C 
HETATM   19  C1  UNL     1      -3.876  42.105  -0.315  1.00  0.00     0.036 C 
HETATM   20 CL1  UNL     1      -6.193  40.734   0.075  1.00  0.00    -0.115 Cl
ENDBRANCH   1  18
TORSDOF 1
ENDMDL
MODEL 5
REMARK VINA RESULT: -6.376133665      4.483      7.044
REMARK  1 active torsions:
REMARK  status: ('A' for Active; 'I' for Inactive)
REMARK    1  A    between atoms: C2_2  and  C3_4 
REMARK       I    between atoms: C3_4  and  N1_6 
ROOT
HETATM    1  C3  UNL     1      -6.912  37.711  -6.561  1.00  0.00     0.238 C 
HETATM    2  O1  UNL     1      -5.696  38.053  -6.502  1.00  0.00    -0.272 OA
HETATM    3  N1  UNL     1      -7.647  37.552  -5.362  1.00  0.00    -0.347 N 
HETATM    4  C4  UNL     1      -7.092  37.756  -4.026  1.00  0.00     0.129 C 
HETATM    5  C5  UNL     1      -8.309  37.890  -3.137  1.00  0.00     0.067 C 
HETATM    6  C6  UNL     1      -9.225  36.851  -3.775  1.00  0.00     0.131 C 
HETATM    7  C7  UNL     1     -10.624  37.001  -3.322  1.00  0.00     0.015 C 
HETATM    8  C8  UNL     1     -11.270  35.966  -2.791  1.00  0.00     0.013 C 
HETATM    9  C9  UNL     1     -10.554  34.678  -2.670  1.00  0.00     0.114 C 
HETATM   10  C10 UNL     1     -11.451  33.497  -2.911  1.00  0.00     0.045 C 
HETATM   11  C11 UNL     1     -11.872  32.790  -1.670  1.00  0.00     0.003 C 
HETATM   12  C12 UNL     1     -12.037  33.692  -0.476  1.00  0.00     0.000 C 
HETATM   13  C13 UNL     1     -10.834  34.511  -0.180  1.00  0.00     0.003 C 
HETATM   14  C14 UNL     1      -9.876  34.642  -1.329  1.00  0.00     0.045 C 
HETATM   15  O2  UNL     1      -9.558  34.655  -3.647  1.00  0.00    -0.224 OA
HETATM   16  O3  UNL     1      -8.689  35.609  -3.526  1.00  0.00    -0.223 OA
HETATM   17  C15 UNL     1      -9.044  37.174  -5.240  1.00  0.00     0.171 C 
ENDROOT
BRANCH   1  18
HETATM   18  C2  UNL     1      -7.529  37.487  -7.896  1.00  0.00     0.170 C 
HETATM   19  C1  UNL     1      -6.503  36.886  -8.798  1.00  0.00     0.036 C 
HETATM   20 CL1  UNL     1      -8.252  38.958  -8.577  1.00  0.00    -0.115 Cl
ENDBRANCH   1  18
TORSDOF 1
ENDMDL
