MODEL 1
REMARK VINA RESULT: -7.886245323      0.000      0.000
REMARK  19 active torsions:
REMARK  status: ('A' for Active; 'I' for Inactive)
REMARK    1  A    between atoms: C2_2  and  C3_3 
REMARK    2  A    between atoms: C3_3  and  C4_4 
REMARK    3  A    between atoms: C4_4  and  C5_5 
REMARK    4  A    between atoms: C5_5  and  C6_6 
REMARK    5  A    between atoms: C5_5  and  N6_47 
REMARK    6  A    between atoms: C6_6  and  C7_7 
REMARK       I    between atoms: C7_7  and  N1_9 
REMARK    7  A    between atoms: N2_14  and  C12_15 
REMARK    8  A    between atoms: C12_15  and  O2_16 
REMARK    9  A    between atoms: C12_15  and  C13_18 
REMARK   10  A    between atoms: C13_18  and  C14_19 
REMARK   11  A    between atoms: C13_18  and  N4_27 
REMARK   12  A    between atoms: C14_19  and  C15_20 
REMARK   13  A    between atoms: C15_20  and  C16_21 
REMARK   14  A    between atoms: C16_21  and  C17_22 
REMARK   15  A    between atoms: C17_22  and  N3_23 
REMARK       I    between atoms: N4_27  and  C18_29 
REMARK   16  A    between atoms: C18_29  and  C19_31 
REMARK   17  A    between atoms: C19_31  and  N5_32 
REMARK   18  A    between atoms: N5_32  and  C20_34 
REMARK   19  A    between atoms: N6_47  and  C33_49 
ROOT
HETATM    1  C12 UNL     1     -10.055  15.128  -4.825  1.00  0.00     0.161 C 
ENDROOT
BRANCH   1   2
HETATM    2  N2  UNL     1     -10.237  15.838  -3.634  1.00  0.00    -0.360 N 
HETATM    3  C11 UNL     1     -11.553  15.858  -2.997  1.00  0.00     0.126 C 
HETATM    4  C10 UNL     1     -11.488  15.195  -1.630  1.00  0.00     0.033 C 
HETATM    5  C9  UNL     1     -10.316  15.728  -0.843  1.00  0.00    -0.005 C 
HETATM    6  C8  UNL     1      -9.412  14.739  -0.197  1.00  0.00     0.137 C 
HETATM    7  C31 UNL     1      -9.646  16.875  -1.549  1.00  0.00     0.033 C 
HETATM    8  C32 UNL     1     -10.733  16.032   0.575  1.00  0.00     0.137 C 
HETATM    9  N1  UNL     1      -9.449  15.565   1.020  1.00  0.00    -0.350 N 
HETATM   10  C7  UNL     1      -8.625  15.812   2.134  1.00  0.00     0.221 C 
HETATM   11  O1  UNL     1      -7.532  15.211   2.214  1.00  0.00    -0.273 OA
HETATM   12  C30 UNL     1      -9.202  16.562  -2.953  1.00  0.00     0.126 C 
BRANCH  10  13
HETATM   13  C6  UNL     1      -9.072  16.762   3.159  1.00  0.00     0.127 C 
BRANCH  13  14
HETATM   14  C5  UNL     1      -9.723  16.074   4.378  1.00  0.00     0.086 C 
BRANCH  14  15
HETATM   15  C4  UNL     1     -10.063  17.059   5.452  1.00  0.00     0.025 C 
BRANCH  15  16
HETATM   16  C3  UNL     1     -11.488  16.799   5.933  1.00  0.00     0.002 C 
BRANCH  16  17
HETATM   17  C2  UNL     1     -12.252  18.103   6.061  1.00  0.00    -0.004 C 
HETATM   18  C1  UNL     1     -11.558  19.193   5.262  1.00  0.00     0.005 C 
ENDBRANCH  16  17
ENDBRANCH  15  16
ENDBRANCH  14  15
BRANCH  14  19
HETATM   19  N6  UNL     1      -8.849  15.022   4.717  1.00  0.00    -0.409 N 
ATOM     20  H6  UNL     1      -7.844  15.179   4.640  1.00  0.00     0.154 HD
BRANCH  19  21
HETATM   21  C33 UNL     1      -9.298  13.773   5.152  1.00  0.00     0.015 C 
HETATM   22  C34 UNL     1      -9.616  13.583   6.594  1.00  0.00     0.037 C 
HETATM   23  C35 UNL     1      -8.192  12.755   4.784  1.00  0.00     0.037 C 
HETATM   24  C36 UNL     1     -10.483  13.346   4.285  1.00  0.00     0.037 C 
ENDBRANCH  19  21
ENDBRANCH  14  19
ENDBRANCH  13  14
ENDBRANCH  10  13
ENDBRANCH   1   2
BRANCH   1  25
HETATM   25  O2  UNL     1     -10.407  15.783  -5.898  1.00  0.00    -0.345 OA
ATOM     26  H2  UNL     1     -11.246  15.519  -6.258  1.00  0.00     0.219 HD
ENDBRANCH   1  25
BRANCH   1  27
HETATM   27  C13 UNL     1      -9.531  13.771  -5.016  1.00  0.00     0.063 C 
BRANCH  27  28
HETATM   28  C14 UNL     1     -10.249  12.681  -4.306  1.00  0.00     0.062 C 
BRANCH  28  29
HETATM   29  C15 UNL     1     -10.040  11.287  -4.750  1.00  0.00     0.008 C 
BRANCH  29  30
HETATM   30  C16 UNL     1     -10.162  10.976  -6.194  1.00  0.00     0.027 C 
BRANCH  30  31
HETATM   31  C17 UNL     1     -11.300   9.935  -6.351  1.00  0.00     0.229 C 
BRANCH  31  32
HETATM   32  N3  UNL     1     -11.651   9.810  -7.738  1.00  0.00    -0.079 N 
ATOM     33  H33 UNL     1     -12.105  10.650  -8.097  1.00  0.00     0.274 HD
ATOM     34  H32 UNL     1     -10.831   9.814  -8.344  1.00  0.00     0.274 HD
ATOM     35  H31 UNL     1     -12.224   8.976  -7.872  1.00  0.00     0.274 HD
ENDBRANCH  31  32
ENDBRANCH  30  31
ENDBRANCH  29  30
ENDBRANCH  28  29
ENDBRANCH  27  28
BRANCH  27  36
HETATM   36  N4  UNL     1      -8.078  13.693  -4.934  1.00  0.00    -0.325 N 
HETATM   37  C18 UNL     1      -7.257  13.561  -6.098  1.00  0.00     0.239 C 
HETATM   38  O3  UNL     1      -7.822  13.513  -7.230  1.00  0.00    -0.271 OA
ATOM     39  H4  UNL     1      -7.632  13.733  -4.017  1.00  0.00     0.168 HD
BRANCH  37  40
HETATM   40  C19 UNL     1      -5.789  13.485  -5.943  1.00  0.00     0.218 C 
BRANCH  40  41
HETATM   41  N5  UNL     1      -5.469  12.859  -4.703  1.00  0.00    -0.404 N 
ATOM     42  H5  UNL     1      -5.768  13.246  -3.807  1.00  0.00     0.154 HD
BRANCH  41  43
HETATM   43  C20 UNL     1      -4.702  11.653  -4.788  1.00  0.00     0.027 C 
HETATM   44  C21 UNL     1      -3.657  11.795  -5.854  1.00  0.00     0.035 C 
HETATM   45  C22 UNL     1      -2.936  10.468  -5.996  1.00  0.00    -0.012 C 
HETATM   46  C23 UNL     1      -2.249  10.092  -4.698  1.00  0.00     0.009 C 
HETATM   47  C27 UNL     1      -3.879   9.377  -6.381  1.00  0.00     0.009 C 
HETATM   48  C24 UNL     1      -3.303   9.994  -3.622  1.00  0.00    -0.012 C 
HETATM   49  C25 UNL     1      -4.326   8.928  -3.948  1.00  0.00     0.009 C 
HETATM   50  C29 UNL     1      -3.995  11.317  -3.498  1.00  0.00     0.035 C 
HETATM   51  C26 UNL     1      -4.924   9.231  -5.285  1.00  0.00    -0.012 C 
HETATM   52  C28 UNL     1      -5.651  10.550  -5.210  1.00  0.00     0.035 C 
ENDBRANCH  41  43
ENDBRANCH  40  41
ENDBRANCH  37  40
ENDBRANCH  27  36
ENDBRANCH   1  27
TORSDOF 19
ENDMDL
MODEL 2
REMARK VINA RESULT: -7.868100413      2.908     11.698
REMARK  19 active torsions:
REMARK  status: ('A' for Active; 'I' for Inactive)
REMARK    1  A    between atoms: C2_2  and  C3_3 
REMARK    2  A    between atoms: C3_3  and  C4_4 
REMARK    3  A    between atoms: C4_4  and  C5_5 
REMARK    4  A    between atoms: C5_5  and  C6_6 
REMARK    5  A    between atoms: C5_5  and  N6_47 
REMARK    6  A    between atoms: C6_6  and  C7_7 
REMARK       I    between atoms: C7_7  and  N1_9 
REMARK    7  A    between atoms: N2_14  and  C12_15 
REMARK    8  A    between atoms: C12_15  and  O2_16 
REMARK    9  A    between atoms: C12_15  and  C13_18 
REMARK   10  A    between atoms: C13_18  and  C14_19 
REMARK   11  A    between atoms: C13_18  and  N4_27 
REMARK   12  A    between atoms: C14_19  and  C15_20 
REMARK   13  A    between atoms: C15_20  and  C16_21 
REMARK   14  A    between atoms: C16_21  and  C17_22 
REMARK   15  A    between atoms: C17_22  and  N3_23 
REMARK       I    between atoms: N4_27  and  C18_29 
REMARK   16  A    between atoms: C18_29  and  C19_31 
REMARK   17  A    between atoms: C19_31  and  N5_32 
REMARK   18  A    between atoms: N5_32  and  C20_34 
REMARK   19  A    between atoms: N6_47  and  C33_49 
ROOT
HETATM    1  C12 UNL     1      -6.952  11.931   4.335  1.00  0.00     0.161 C 
ENDROOT
BRANCH   1   2
HETATM    2  N2  UNL     1      -6.178  11.746   3.185  1.00  0.00    -0.360 N 
HETATM    3  C11 UNL     1      -6.074  10.415   2.589  1.00  0.00     0.126 C 
HETATM    4  C10 UNL     1      -6.671  10.415   1.190  1.00  0.00     0.033 C 
HETATM    5  C9  UNL     1      -6.147  11.585   0.395  1.00  0.00    -0.005 C 
HETATM    6  C8  UNL     1      -7.138  12.430  -0.324  1.00  0.00     0.137 C 
HETATM    7  C31 UNL     1      -5.064  12.322   1.136  1.00  0.00     0.033 C 
HETATM    8  C32 UNL     1      -5.757  11.143  -0.993  1.00  0.00     0.137 C 
HETATM    9  N1  UNL     1      -6.251  12.394  -1.498  1.00  0.00    -0.350 N 
HETATM   10  C7  UNL     1      -5.982  13.196  -2.622  1.00  0.00     0.221 C 
HETATM   11  O1  UNL     1      -6.622  14.261  -2.764  1.00  0.00    -0.273 OA
HETATM   12  C30 UNL     1      -5.463  12.791   2.509  1.00  0.00     0.126 C 
BRANCH  10  13
HETATM   13  C6  UNL     1      -4.966  12.761  -3.587  1.00  0.00     0.127 C 
BRANCH  13  14
HETATM   14  C5  UNL     1      -5.570  12.083  -4.836  1.00  0.00     0.086 C 
BRANCH  14  15
HETATM   15  C4  UNL     1      -4.828  12.460  -6.081  1.00  0.00     0.025 C 
BRANCH  15  16
HETATM   16  C3  UNL     1      -3.635  11.523  -6.252  1.00  0.00     0.002 C 
BRANCH  16  17
HETATM   17  C2  UNL     1      -4.075  10.212  -6.875  1.00  0.00    -0.004 C 
HETATM   18  C1  UNL     1      -3.623   9.047  -6.011  1.00  0.00     0.005 C 
ENDBRANCH  16  17
ENDBRANCH  15  16
ENDBRANCH  14  15
BRANCH  14  19
HETATM   19  N6  UNL     1      -6.946  12.380  -4.787  1.00  0.00    -0.409 N 
ATOM     20  H6  UNL     1      -7.240  13.260  -4.363  1.00  0.00     0.154 HD
BRANCH  19  21
HETATM   21  C33 UNL     1      -7.925  11.524  -5.295  1.00  0.00     0.015 C 
HETATM   22  C34 UNL     1      -7.615  10.075  -5.435  1.00  0.00     0.037 C 
HETATM   23  C35 UNL     1      -8.291  12.058  -6.701  1.00  0.00     0.037 C 
HETATM   24  C36 UNL     1      -9.212  11.718  -4.491  1.00  0.00     0.037 C 
ENDBRANCH  19  21
ENDBRANCH  14  19
ENDBRANCH  13  14
ENDBRANCH  10  13
ENDBRANCH   1   2
BRANCH   1  25
HETATM   25  O2  UNL     1      -6.334  11.649   5.448  1.00  0.00    -0.345 OA
ATOM     26  H2  UNL     1      -6.912  11.468   6.181  1.00  0.00     0.219 HD
ENDBRANCH   1  25
BRANCH   1  27
HETATM   27  C13 UNL     1      -8.342  12.392   4.443  1.00  0.00     0.063 C 
BRANCH  27  28
HETATM   28  C14 UNL     1      -9.326  11.736   3.546  1.00  0.00     0.062 C 
BRANCH  28  29
HETATM   29  C15 UNL     1     -10.504  11.075   4.146  1.00  0.00     0.008 C 
BRANCH  29  30
HETATM   30  C16 UNL     1     -11.409  11.877   5.002  1.00  0.00     0.027 C 
BRANCH  30  31
HETATM   31  C17 UNL     1     -11.410  11.231   6.411  1.00  0.00     0.229 C 
BRANCH  31  32
HETATM   32  N3  UNL     1     -10.713  12.081   7.333  1.00  0.00    -0.079 N 
ATOM     33  H33 UNL     1      -9.705  11.919   7.318  1.00  0.00     0.274 HD
ATOM     34  H32 UNL     1     -10.710  13.055   7.032  1.00  0.00     0.274 HD
ATOM     35  H31 UNL     1     -11.106  11.969   8.268  1.00  0.00     0.274 HD
ENDBRANCH  31  32
ENDBRANCH  30  31
ENDBRANCH  29  30
ENDBRANCH  28  29
ENDBRANCH  27  28
BRANCH  27  36
HETATM   36  N4  UNL     1      -8.468  13.842   4.523  1.00  0.00    -0.325 N 
HETATM   37  C18 UNL     1      -8.418  14.541   5.770  1.00  0.00     0.239 C 
HETATM   38  O3  UNL     1      -8.257  13.869   6.831  1.00  0.00    -0.271 OA
ATOM     39  H4  UNL     1      -8.596  14.375   3.662  1.00  0.00     0.168 HD
BRANCH  37  40
HETATM   40  C19 UNL     1      -8.554  16.013   5.779  1.00  0.00     0.218 C 
BRANCH  40  41
HETATM   41  N5  UNL     1      -9.008  16.462   4.504  1.00  0.00    -0.404 N 
ATOM     42  H5  UNL     1      -8.488  16.272   3.647  1.00  0.00     0.154 HD
BRANCH  41  43
HETATM   43  C20 UNL     1     -10.238  17.195   4.497  1.00  0.00     0.027 C 
HETATM   44  C21 UNL     1     -10.111  18.401   5.379  1.00  0.00     0.035 C 
HETATM   45  C22 UNL     1     -11.458  19.094   5.439  1.00  0.00    -0.012 C 
HETATM   46  C23 UNL     1     -11.884  19.552   4.058  1.00  0.00     0.009 C 
HETATM   47  C27 UNL     1     -12.508  18.190   5.996  1.00  0.00     0.009 C 
HETATM   48  C24 UNL     1     -11.967  18.338   3.166  1.00  0.00    -0.012 C 
HETATM   49  C25 UNL     1     -12.991  17.347   3.678  1.00  0.00     0.009 C 
HETATM   50  C29 UNL     1     -10.624  17.676   3.120  1.00  0.00     0.035 C 
HETATM   51  C26 UNL     1     -12.640  16.980   5.085  1.00  0.00    -0.012 C 
HETATM   52  C28 UNL     1     -11.299  16.292   5.093  1.00  0.00     0.035 C 
ENDBRANCH  41  43
ENDBRANCH  40  41
ENDBRANCH  37  40
ENDBRANCH  27  36
ENDBRANCH   1  27
TORSDOF 19
ENDMDL
MODEL 3
REMARK VINA RESULT: -7.755884367      2.798     11.231
REMARK  19 active torsions:
REMARK  status: ('A' for Active; 'I' for Inactive)
REMARK    1  A    between atoms: C2_2  and  C3_3 
REMARK    2  A    between atoms: C3_3  and  C4_4 
REMARK    3  A    between atoms: C4_4  and  C5_5 
REMARK    4  A    between atoms: C5_5  and  C6_6 
REMARK    5  A    between atoms: C5_5  and  N6_47 
REMARK    6  A    between atoms: C6_6  and  C7_7 
REMARK       I    between atoms: C7_7  and  N1_9 
REMARK    7  A    between atoms: N2_14  and  C12_15 
REMARK    8  A    between atoms: C12_15  and  O2_16 
REMARK    9  A    between atoms: C12_15  and  C13_18 
REMARK   10  A    between atoms: C13_18  and  C14_19 
REMARK   11  A    between atoms: C13_18  and  N4_27 
REMARK   12  A    between atoms: C14_19  and  C15_20 
REMARK   13  A    between atoms: C15_20  and  C16_21 
REMARK   14  A    between atoms: C16_21  and  C17_22 
REMARK   15  A    between atoms: C17_22  and  N3_23 
REMARK       I    between atoms: N4_27  and  C18_29 
REMARK   16  A    between atoms: C18_29  and  C19_31 
REMARK   17  A    between atoms: C19_31  and  N5_32 
REMARK   18  A    between atoms: N5_32  and  C20_34 
REMARK   19  A    between atoms: N6_47  and  C33_49 
ROOT
HETATM    1  C12 UNL     1      -6.291  12.894   2.429  1.00  0.00     0.161 C 
ENDROOT
BRANCH   1   2
HETATM    2  N2  UNL     1      -5.962  12.365   1.177  1.00  0.00    -0.360 N 
HETATM    3  C11 UNL     1      -5.429  11.006   1.083  1.00  0.00     0.126 C 
HETATM    4  C10 UNL     1      -6.378  10.120   0.292  1.00  0.00     0.033 C 
HETATM    5  C9  UNL     1      -6.793  10.804  -0.987  1.00  0.00    -0.005 C 
HETATM    6  C8  UNL     1      -8.245  10.843  -1.308  1.00  0.00     0.137 C 
HETATM    7  C31 UNL     1      -6.031  12.082  -1.208  1.00  0.00     0.033 C 
HETATM    8  C32 UNL     1      -6.728   9.837  -2.142  1.00  0.00     0.137 C 
HETATM    9  N1  UNL     1      -7.906  10.453  -2.687  1.00  0.00    -0.350 N 
HETATM   10  C7  UNL     1      -8.457  10.598  -3.973  1.00  0.00     0.221 C 
HETATM   11  O1  UNL     1      -9.540  11.212  -4.094  1.00  0.00    -0.273 OA
HETATM   12  C30 UNL     1      -6.122  13.061  -0.068  1.00  0.00     0.126 C 
BRANCH  10  13
HETATM   13  C6  UNL     1      -7.749  10.028  -5.124  1.00  0.00     0.127 C 
BRANCH  13  14
HETATM   14  C5  UNL     1      -6.709  10.994  -5.732  1.00  0.00     0.086 C 
BRANCH  14  15
HETATM   15  C4  UNL     1      -7.336  11.933  -6.716  1.00  0.00     0.025 C 
BRANCH  15  16
HETATM   16  C3  UNL     1      -6.819  13.345  -6.456  1.00  0.00     0.002 C 
BRANCH  16  17
HETATM   17  C2  UNL     1      -6.366  13.487  -5.015  1.00  0.00    -0.004 C 
HETATM   18  C1  UNL     1      -7.414  14.237  -4.211  1.00  0.00     0.005 C 
ENDBRANCH  16  17
ENDBRANCH  15  16
ENDBRANCH  14  15
BRANCH  14  19
HETATM   19  N6  UNL     1      -5.667  10.169  -6.198  1.00  0.00    -0.409 N 
ATOM     20  H6  UNL     1      -5.884   9.458  -6.897  1.00  0.00     0.154 HD
BRANCH  19  21
HETATM   21  C33 UNL     1      -4.351  10.280  -5.746  1.00  0.00     0.015 C 
HETATM   22  C34 UNL     1      -4.104  10.652  -4.325  1.00  0.00     0.037 C 
HETATM   23  C35 UNL     1      -3.670  11.352  -6.630  1.00  0.00     0.037 C 
HETATM   24  C36 UNL     1      -3.600   8.995  -6.097  1.00  0.00     0.037 C 
ENDBRANCH  19  21
ENDBRANCH  14  19
ENDBRANCH  13  14
ENDBRANCH  10  13
ENDBRANCH   1   2
BRANCH   1  25
HETATM   25  O2  UNL     1      -5.332  13.577   2.990  1.00  0.00    -0.345 OA
ATOM     26  H2  UNL     1      -5.548  14.488   3.157  1.00  0.00     0.219 HD
ENDBRANCH   1  25
BRANCH   1  27
HETATM   27  C13 UNL     1      -7.551  12.779   3.172  1.00  0.00     0.063 C 
BRANCH  27  28
HETATM   28  C14 UNL     1      -8.733  12.318   2.401  1.00  0.00     0.062 C 
BRANCH  28  29
HETATM   29  C15 UNL     1      -9.820  13.281   2.124  1.00  0.00     0.008 C 
BRANCH  29  30
HETATM   30  C16 UNL     1     -11.224  12.831   2.281  1.00  0.00     0.027 C 
BRANCH  30  31
HETATM   31  C17 UNL     1     -11.679  13.219   3.711  1.00  0.00     0.229 C 
BRANCH  31  32
HETATM   32  N3  UNL     1     -11.518  12.095   4.590  1.00  0.00    -0.079 N 
ATOM     33  H33 UNL     1     -11.684  11.208   4.114  1.00  0.00     0.274 HD
ATOM     34  H32 UNL     1     -10.542  11.943   4.846  1.00  0.00     0.274 HD
ATOM     35  H31 UNL     1     -12.117  12.211   5.408  1.00  0.00     0.274 HD
ENDBRANCH  31  32
ENDBRANCH  30  31
ENDBRANCH  29  30
ENDBRANCH  28  29
ENDBRANCH  27  28
BRANCH  27  36
HETATM   36  N4  UNL     1      -7.809  13.909   4.057  1.00  0.00    -0.325 N 
HETATM   37  C18 UNL     1      -8.358  13.740   5.366  1.00  0.00     0.239 C 
HETATM   38  O3  UNL     1      -8.624  12.566   5.760  1.00  0.00    -0.271 OA
ATOM     39  H4  UNL     1      -7.590  14.851   3.731  1.00  0.00     0.168 HD
BRANCH  37  40
HETATM   40  C19 UNL     1      -8.595  14.930   6.211  1.00  0.00     0.218 C 
BRANCH  40  41
HETATM   41  N5  UNL     1      -8.572  16.105   5.402  1.00  0.00    -0.404 N 
ATOM     42  H5  UNL     1      -7.704  16.484   5.024  1.00  0.00     0.154 HD
BRANCH  41  43
HETATM   43  C20 UNL     1      -9.840  16.721   5.153  1.00  0.00     0.027 C 
HETATM   44  C21 UNL     1     -10.113  16.732   3.678  1.00  0.00     0.035 C 
HETATM   45  C22 UNL     1     -11.407  17.486   3.438  1.00  0.00    -0.012 C 
HETATM   46  C23 UNL     1     -12.564  16.798   4.136  1.00  0.00     0.009 C 
HETATM   47  C27 UNL     1     -11.313  18.893   3.927  1.00  0.00     0.009 C 
HETATM   48  C24 UNL     1     -12.260  16.752   5.613  1.00  0.00    -0.012 C 
HETATM   49  C25 UNL     1     -12.114  18.144   6.188  1.00  0.00     0.009 C 
HETATM   50  C29 UNL     1     -10.983  15.998   5.823  1.00  0.00     0.035 C 
HETATM   51  C26 UNL     1     -11.052  18.870   5.425  1.00  0.00    -0.012 C 
HETATM   52  C28 UNL     1      -9.737  18.159   5.618  1.00  0.00     0.035 C 
ENDBRANCH  41  43
ENDBRANCH  40  41
ENDBRANCH  37  40
ENDBRANCH  27  36
ENDBRANCH   1  27
TORSDOF 19
ENDMDL
MODEL 4
REMARK VINA RESULT: -7.743421017      3.554      6.837
REMARK  19 active torsions:
REMARK  status: ('A' for Active; 'I' for Inactive)
REMARK    1  A    between atoms: C2_2  and  C3_3 
REMARK    2  A    between atoms: C3_3  and  C4_4 
REMARK    3  A    between atoms: C4_4  and  C5_5 
REMARK    4  A    between atoms: C5_5  and  C6_6 
REMARK    5  A    between atoms: C5_5  and  N6_47 
REMARK    6  A    between atoms: C6_6  and  C7_7 
REMARK       I    between atoms: C7_7  and  N1_9 
REMARK    7  A    between atoms: N2_14  and  C12_15 
REMARK    8  A    between atoms: C12_15  and  O2_16 
REMARK    9  A    between atoms: C12_15  and  C13_18 
REMARK   10  A    between atoms: C13_18  and  C14_19 
REMARK   11  A    between atoms: C13_18  and  N4_27 
REMARK   12  A    between atoms: C14_19  and  C15_20 
REMARK   13  A    between atoms: C15_20  and  C16_21 
REMARK   14  A    between atoms: C16_21  and  C17_22 
REMARK   15  A    between atoms: C17_22  and  N3_23 
REMARK       I    between atoms: N4_27  and  C18_29 
REMARK   16  A    between atoms: C18_29  and  C19_31 
REMARK   17  A    between atoms: C19_31  and  N5_32 
REMARK   18  A    between atoms: N5_32  and  C20_34 
REMARK   19  A    between atoms: N6_47  and  C33_49 
ROOT
HETATM    1  C12 UNL     1      -2.833   8.624  -2.920  1.00  0.00     0.161 C 
ENDROOT
BRANCH   1   2
HETATM    2  N2  UNL     1      -3.939   9.134  -2.233  1.00  0.00    -0.360 N 
HETATM    3  C11 UNL     1      -4.840   8.220  -1.533  1.00  0.00     0.126 C 
HETATM    4  C10 UNL     1      -4.820   8.500  -0.038  1.00  0.00     0.033 C 
HETATM    5  C9  UNL     1      -4.975   9.978   0.221  1.00  0.00    -0.005 C 
HETATM    6  C8  UNL     1      -4.012  10.619   1.158  1.00  0.00     0.137 C 
HETATM    7  C31 UNL     1      -5.273  10.738  -1.043  1.00  0.00     0.033 C 
HETATM    8  C32 UNL     1      -5.965  10.214   1.334  1.00  0.00     0.137 C 
HETATM    9  N1  UNL     1      -5.149  11.306   1.789  1.00  0.00    -0.350 N 
HETATM   10  C7  UNL     1      -5.375  12.490   2.515  1.00  0.00     0.221 C 
HETATM   11  O1  UNL     1      -4.405  13.243   2.748  1.00  0.00    -0.273 OA
HETATM   12  C30 UNL     1      -4.268  10.528  -2.143  1.00  0.00     0.126 C 
BRANCH  10  13
HETATM   13  C6  UNL     1      -6.734  12.801   2.972  1.00  0.00     0.127 C 
BRANCH  13  14
HETATM   14  C5  UNL     1      -7.203  14.212   2.554  1.00  0.00     0.086 C 
BRANCH  14  15
HETATM   15  C4  UNL     1      -8.100  14.823   3.585  1.00  0.00     0.025 C 
BRANCH  15  16
HETATM   16  C3  UNL     1      -8.154  13.907   4.805  1.00  0.00     0.002 C 
BRANCH  16  17
HETATM   17  C2  UNL     1      -8.526  14.696   6.046  1.00  0.00    -0.004 C 
HETATM   18  C1  UNL     1      -8.554  16.182   5.729  1.00  0.00     0.005 C 
ENDBRANCH  16  17
ENDBRANCH  15  16
ENDBRANCH  14  15
BRANCH  14  19
HETATM   19  N6  UNL     1      -7.722  14.057   1.254  1.00  0.00    -0.409 N 
ATOM     20  H6  UNL     1      -8.392  13.308   1.082  1.00  0.00     0.154 HD
BRANCH  19  21
HETATM   21  C33 UNL     1      -7.360  14.885   0.189  1.00  0.00     0.015 C 
HETATM   22  C34 UNL     1      -7.291  16.356   0.408  1.00  0.00     0.037 C 
HETATM   23  C35 UNL     1      -8.392  14.632  -0.936  1.00  0.00     0.037 C 
HETATM   24  C36 UNL     1      -6.047  14.373  -0.407  1.00  0.00     0.037 C 
ENDBRANCH  19  21
ENDBRANCH  14  19
ENDBRANCH  13  14
ENDBRANCH  10  13
ENDBRANCH   1   2
BRANCH   1  25
HETATM   25  O2  UNL     1      -1.709   8.708  -2.261  1.00  0.00    -0.345 OA
ATOM     26  H2  UNL     1      -0.932   8.641  -2.805  1.00  0.00     0.219 HD
ENDBRANCH   1  25
BRANCH   1  27
HETATM   27  C13 UNL     1      -2.778   8.022  -4.257  1.00  0.00     0.063 C 
BRANCH  27  28
HETATM   28  C14 UNL     1      -1.472   7.450  -4.670  1.00  0.00     0.062 C 
BRANCH  28  29
HETATM   29  C15 UNL     1      -1.332   5.980  -4.745  1.00  0.00     0.008 C 
BRANCH  29  30
HETATM   30  C16 UNL     1      -1.949   5.266  -5.888  1.00  0.00     0.027 C 
BRANCH  30  31
HETATM   31  C17 UNL     1      -3.163   4.473  -5.340  1.00  0.00     0.229 C 
BRANCH  31  32
HETATM   32  N3  UNL     1      -3.041   4.326  -3.918  1.00  0.00    -0.079 N 
ATOM     33  H33 UNL     1      -3.418   3.436  -3.590  1.00  0.00     0.274 HD
ATOM     34  H32 UNL     1      -2.073   4.191  -3.626  1.00  0.00     0.274 HD
ATOM     35  H31 UNL     1      -3.476   5.123  -3.451  1.00  0.00     0.274 HD
ENDBRANCH  31  32
ENDBRANCH  30  31
ENDBRANCH  29  30
ENDBRANCH  28  29
ENDBRANCH  27  28
BRANCH  27  36
HETATM   36  N4  UNL     1      -3.441   8.820  -5.281  1.00  0.00    -0.325 N 
HETATM   37  C18 UNL     1      -2.939  10.094  -5.694  1.00  0.00     0.239 C 
HETATM   38  O3  UNL     1      -1.883  10.531  -5.148  1.00  0.00    -0.271 OA
ATOM     39  H4  UNL     1      -4.290   8.458  -5.716  1.00  0.00     0.168 HD
BRANCH  37  40
HETATM   40  C19 UNL     1      -3.661  10.852  -6.738  1.00  0.00     0.218 C 
BRANCH  40  41
HETATM   41  N5  UNL     1      -4.044  12.127  -6.227  1.00  0.00    -0.404 N 
ATOM     42  H5  UNL     1      -3.378  12.895  -6.135  1.00  0.00     0.154 HD
BRANCH  41  43
HETATM   43  C20 UNL     1      -5.418  12.267  -5.850  1.00  0.00     0.027 C 
HETATM   44  C21 UNL     1      -6.175  11.032  -6.240  1.00  0.00     0.035 C 
HETATM   45  C22 UNL     1      -7.642  11.253  -5.929  1.00  0.00    -0.012 C 
HETATM   46  C23 UNL     1      -7.844  11.491  -4.446  1.00  0.00     0.009 C 
HETATM   47  C27 UNL     1      -8.187  12.419  -6.687  1.00  0.00     0.009 C 
HETATM   48  C24 UNL     1      -7.044  12.709  -4.054  1.00  0.00    -0.012 C 
HETATM   49  C25 UNL     1      -7.510  13.939  -4.803  1.00  0.00     0.009 C 
HETATM   50  C29 UNL     1      -5.600  12.463  -4.365  1.00  0.00     0.035 C 
HETATM   51  C26 UNL     1      -7.424  13.667  -6.271  1.00  0.00    -0.012 C 
HETATM   52  C28 UNL     1      -5.982  13.428  -6.642  1.00  0.00     0.035 C 
ENDBRANCH  41  43
ENDBRANCH  40  41
ENDBRANCH  37  40
ENDBRANCH  27  36
ENDBRANCH   1  27
TORSDOF 19
ENDMDL
MODEL 5
REMARK VINA RESULT: -7.710750108      1.660      2.394
REMARK  19 active torsions:
REMARK  status: ('A' for Active; 'I' for Inactive)
REMARK    1  A    between atoms: C2_2  and  C3_3 
REMARK    2  A    between atoms: C3_3  and  C4_4 
REMARK    3  A    between atoms: C4_4  and  C5_5 
REMARK    4  A    between atoms: C5_5  and  C6_6 
REMARK    5  A    between atoms: C5_5  and  N6_47 
REMARK    6  A    between atoms: C6_6  and  C7_7 
REMARK       I    between atoms: C7_7  and  N1_9 
REMARK    7  A    between atoms: N2_14  and  C12_15 
REMARK    8  A    between atoms: C12_15  and  O2_16 
REMARK    9  A    between atoms: C12_15  and  C13_18 
REMARK   10  A    between atoms: C13_18  and  C14_19 
REMARK   11  A    between atoms: C13_18  and  N4_27 
REMARK   12  A    between atoms: C14_19  and  C15_20 
REMARK   13  A    between atoms: C15_20  and  C16_21 
REMARK   14  A    between atoms: C16_21  and  C17_22 
REMARK   15  A    between atoms: C17_22  and  N3_23 
REMARK       I    between atoms: N4_27  and  C18_29 
REMARK   16  A    between atoms: C18_29  and  C19_31 
REMARK   17  A    between atoms: C19_31  and  N5_32 
REMARK   18  A    between atoms: N5_32  and  C20_34 
REMARK   19  A    between atoms: N6_47  and  C33_49 
ROOT
HETATM    1  C12 UNL     1      -9.200  15.385  -2.684  1.00  0.00     0.161 C 
ENDROOT
BRANCH   1   2
HETATM    2  N2  UNL     1      -9.802  15.725  -1.468  1.00  0.00    -0.360 N 
HETATM    3  C11 UNL     1     -11.199  16.156  -1.446  1.00  0.00     0.126 C 
HETATM    4  C10 UNL     1     -12.042  15.175  -0.646  1.00  0.00     0.033 C 
HETATM    5  C9  UNL     1     -11.380  14.868   0.674  1.00  0.00    -0.005 C 
HETATM    6  C8  UNL     1     -11.244  13.438   1.062  1.00  0.00     0.137 C 
HETATM    7  C31 UNL     1     -10.171  15.735   0.906  1.00  0.00     0.033 C 
HETATM    8  C32 UNL     1     -12.393  14.908   1.790  1.00  0.00     0.137 C 
HETATM    9  N1  UNL     1     -11.712  13.804   2.408  1.00  0.00    -0.350 N 
HETATM   10  C7  UNL     1     -11.577  13.320   3.722  1.00  0.00     0.221 C 
HETATM   11  O1  UNL     1     -10.889  12.294   3.914  1.00  0.00    -0.273 OA
HETATM   12  C30 UNL     1      -9.145  15.671  -0.193  1.00  0.00     0.126 C 
BRANCH  10  13
HETATM   13  C6  UNL     1     -12.243  14.031   4.819  1.00  0.00     0.127 C 
BRANCH  13  14
HETATM   14  C5  UNL     1     -11.411  15.210   5.369  1.00  0.00     0.086 C 
BRANCH  14  15
HETATM   15  C4  UNL     1     -12.145  16.509   5.247  1.00  0.00     0.025 C 
BRANCH  15  16
HETATM   16  C3  UNL     1     -11.732  17.423   6.397  1.00  0.00     0.002 C 
BRANCH  16  17
HETATM   17  C2  UNL     1     -11.053  18.671   5.865  1.00  0.00    -0.004 C 
HETATM   18  C1  UNL     1     -11.339  18.827   4.381  1.00  0.00     0.005 C 
ENDBRANCH  16  17
ENDBRANCH  15  16
ENDBRANCH  14  15
BRANCH  14  19
HETATM   19  N6  UNL     1     -10.161  15.110   4.725  1.00  0.00    -0.409 N 
ATOM     20  H6  UNL     1     -10.138  15.092   3.705  1.00  0.00     0.154 HD
BRANCH  19  21
HETATM   21  C33 UNL     1      -8.953  15.035   5.421  1.00  0.00     0.015 C 
HETATM   22  C34 UNL     1      -8.328  16.291   5.920  1.00  0.00     0.037 C 
HETATM   23  C35 UNL     1      -7.938  14.359   4.468  1.00  0.00     0.037 C 
HETATM   24  C36 UNL     1      -9.104  14.026   6.560  1.00  0.00     0.037 C 
ENDBRANCH  19  21
ENDBRANCH  14  19
ENDBRANCH  13  14
ENDBRANCH  10  13
ENDBRANCH   1   2
BRANCH   1  25
HETATM   25  O2  UNL     1      -8.564  16.367  -3.259  1.00  0.00    -0.345 OA
ATOM     26  H2  UNL     1      -8.305  16.191  -4.157  1.00  0.00     0.219 HD
ENDBRANCH   1  25
BRANCH   1  27
HETATM   27  C13 UNL     1      -9.196  14.091  -3.377  1.00  0.00     0.063 C 
BRANCH  27  28
HETATM   28  C14 UNL     1      -9.548  12.903  -2.558  1.00  0.00     0.062 C 
BRANCH  28  29
HETATM   29  C15 UNL     1     -10.901  12.324  -2.690  1.00  0.00     0.008 C 
BRANCH  29  30
HETATM   30  C16 UNL     1     -11.248  11.608  -3.940  1.00  0.00     0.027 C 
BRANCH  30  31
HETATM   31  C17 UNL     1     -10.154  10.537  -4.182  1.00  0.00     0.229 C 
BRANCH  31  32
HETATM   32  N3  UNL     1      -9.868  10.448  -5.586  1.00  0.00    -0.079 N 
ATOM     33  H33 UNL     1     -10.670  10.113  -6.121  1.00  0.00     0.274 HD
ATOM     34  H32 UNL     1      -9.775  11.367  -6.019  1.00  0.00     0.274 HD
ATOM     35  H31 UNL     1      -9.040   9.869  -5.732  1.00  0.00     0.274 HD
ENDBRANCH  31  32
ENDBRANCH  30  31
ENDBRANCH  29  30
ENDBRANCH  28  29
ENDBRANCH  27  28
BRANCH  27  36
HETATM   36  N4  UNL     1      -8.046  13.905  -4.252  1.00  0.00    -0.325 N 
HETATM   37  C18 UNL     1      -8.190  13.579  -5.637  1.00  0.00     0.239 C 
HETATM   38  O3  UNL     1      -9.359  13.452  -6.107  1.00  0.00    -0.271 OA
ATOM     39  H4  UNL     1      -7.108  14.010  -3.864  1.00  0.00     0.168 HD
BRANCH  37  40
HETATM   40  C19 UNL     1      -6.980  13.403  -6.468  1.00  0.00     0.218 C 
BRANCH  40  41
HETATM   41  N5  UNL     1      -5.822  13.399  -5.636  1.00  0.00    -0.404 N 
ATOM     42  H5  UNL     1      -5.489  14.243  -5.168  1.00  0.00     0.154 HD
BRANCH  41  43
HETATM   43  C20 UNL     1      -5.153  12.141  -5.495  1.00  0.00     0.027 C 
HETATM   44  C21 UNL     1      -5.996  11.054  -6.091  1.00  0.00     0.035 C 
HETATM   45  C22 UNL     1      -5.315   9.724  -5.829  1.00  0.00    -0.012 C 
HETATM   46  C23 UNL     1      -3.948   9.686  -6.484  1.00  0.00     0.009 C 
HETATM   47  C27 UNL     1      -5.159   9.474  -4.366  1.00  0.00     0.009 C 
HETATM   48  C24 UNL     1      -3.122  10.811  -5.910  1.00  0.00    -0.012 C 
HETATM   49  C25 UNL     1      -2.941  10.654  -4.416  1.00  0.00     0.009 C 
HETATM   50  C29 UNL     1      -3.813  12.111  -6.187  1.00  0.00     0.035 C 
HETATM   51  C26 UNL     1      -4.290  10.573  -3.775  1.00  0.00    -0.012 C 
HETATM   52  C28 UNL     1      -5.024  11.869  -4.010  1.00  0.00     0.035 C 
ENDBRANCH  41  43
ENDBRANCH  40  41
ENDBRANCH  37  40
ENDBRANCH  27  36
ENDBRANCH   1  27
TORSDOF 19
ENDMDL
