MODEL 1
REMARK VINA RESULT: -6.996167546      0.000      0.000
REMARK  18 active torsions:
REMARK  status: ('A' for Active; 'I' for Inactive)
REMARK    1  A    between atoms: C2_2  and  C3_3 
REMARK    2  A    between atoms: C3_3  and  C4_4 
REMARK    3  A    between atoms: C4_4  and  C5_5 
REMARK    4  A    between atoms: C6_8  and  O1_9 
REMARK    5  A    between atoms: C10_15  and  O2_16 
REMARK    6  A    between atoms: C11_18  and  C12_19 
REMARK    7  A    between atoms: C12_19  and  C13_20 
REMARK    8  A    between atoms: C13_20  and  C14_21 
REMARK    9  A    between atoms: C14_21  and  C15_22 
REMARK   10  A    between atoms: C15_22  and  C16_23 
REMARK   11  A    between atoms: C16_23  and  C17_24 
REMARK   12  A    between atoms: N6_35  and  C21_36 
REMARK   13  A    between atoms: C21_36  and  C22_37 
REMARK   14  A    between atoms: C24_39  and  O4_40 
REMARK   15  A    between atoms: N7_42  and  C25_43 
REMARK   16  A    between atoms: C25_43  and  C26_44 
REMARK   17  A    between atoms: C26_44  and  C27_45 
REMARK   18  A    between atoms: C27_45  and  C28_46 
ROOT
HETATM    1  C5  UNL     1     -11.486  12.545   3.077  1.00  0.00     0.119 C 
HETATM    2  N1  UNL     1     -12.319  12.936   1.980  1.00  0.00    -0.364 N 
ATOM      3  H1  UNL     1     -12.777  12.122   1.570  1.00  0.00     0.162 HD
HETATM    4  C6  UNL     1     -12.687  14.090   1.312  1.00  0.00     0.135 C 
HETATM    5  C7  UNL     1     -13.382  15.300   1.605  1.00  0.00     0.156 C 
HETATM    6  C8  UNL     1     -14.559  15.478   0.547  1.00  0.00     0.041 C 
HETATM    7  N2  UNL     1     -12.823  16.591   1.809  1.00  0.00    -0.353 N 
HETATM    8  C9  UNL     1     -13.943  17.512   2.351  1.00  0.00     0.152 C 
HETATM    9  C10 UNL     1     -11.622  17.246   1.672  1.00  0.00     0.161 C 
HETATM   10  C11 UNL     1     -10.512  17.455   0.780  1.00  0.00     0.063 C 
HETATM   11  N5  UNL     1      -9.222  17.289   1.482  1.00  0.00    -0.325 N 
ATOM     12  H5  UNL     1      -8.937  18.051   2.097  1.00  0.00     0.169 HD
HETATM   13  C18 UNL     1      -8.346  16.190   1.393  1.00  0.00     0.244 C 
HETATM   14  O3  UNL     1      -7.125  16.467   1.074  1.00  0.00    -0.271 OA
HETATM   15  C19 UNL     1      -8.617  14.784   1.607  1.00  0.00     0.176 C 
HETATM   16  C20 UNL     1      -8.182  14.067   0.326  1.00  0.00     0.042 C 
HETATM   17  N6  UNL     1      -8.065  14.141   2.771  1.00  0.00    -0.334 N 
HETATM   18  C24 UNL     1      -7.892  12.743   2.932  1.00  0.00     0.222 C 
HETATM   19  N7  UNL     1      -8.334  11.507   2.444  1.00  0.00    -0.313 N 
HETATM   20  C30 UNL     1      -9.590  10.786   2.569  1.00  0.00     0.046 A 
HETATM   21  C31 UNL     1      -9.455   9.367   2.360  1.00  0.00     0.030 A 
HETATM   22  C32 UNL     1     -10.475   8.448   2.394  1.00  0.00     0.002 A 
HETATM   23  C33 UNL     1     -11.731   8.886   2.642  1.00  0.00     0.001 A 
HETATM   24  C34 UNL     1     -11.890  10.230   2.844  1.00  0.00     0.011 A 
HETATM   25  C35 UNL     1     -10.854  11.183   2.813  1.00  0.00    -0.009 A 
ENDROOT
BRANCH  10  26
HETATM   26  C12 UNL     1     -10.493  17.016  -0.613  1.00  0.00     0.062 C 
BRANCH  26  27
HETATM   27  C13 UNL     1     -10.282  18.067  -1.663  1.00  0.00     0.006 C 
BRANCH  27  28
HETATM   28  C14 UNL     1      -9.314  17.671  -2.759  1.00  0.00     0.001 C 
BRANCH  28  29
HETATM   29  C15 UNL     1      -8.769  16.316  -2.482  1.00  0.00     0.007 C 
BRANCH  29  30
HETATM   30  C16 UNL     1      -8.771  15.382  -3.644  1.00  0.00     0.072 C 
BRANCH  30  31
HETATM   31  C17 UNL     1     -10.107  15.132  -4.170  1.00  0.00     0.086 C 
HETATM   32  N3  UNL     1     -11.057  14.583  -3.537  1.00  0.00    -0.391 N 
ATOM     33  H32 UNL     1     -10.841  14.283  -2.586  1.00  0.00     0.157 HD
ATOM     34  H31 UNL     1     -11.992  14.408  -3.905  1.00  0.00     0.157 HD
HETATM   35  N4  UNL     1     -10.415  15.558  -5.524  1.00  0.00    -0.088 NA
ENDBRANCH  30  31
ENDBRANCH  29  30
ENDBRANCH  28  29
ENDBRANCH  27  28
ENDBRANCH  26  27
ENDBRANCH  10  26
BRANCH   9  36
HETATM   36  O2  UNL     1     -11.368  17.973   2.768  1.00  0.00    -0.345 OA
ATOM     37  H2  UNL     1     -10.787  18.694   2.554  1.00  0.00     0.219 HD
ENDBRANCH   9  36
BRANCH   4  38
HETATM   38  O1  UNL     1     -12.290  14.058   0.044  1.00  0.00    -0.348 OA
ATOM     39  H1  UNL     1     -12.467  14.883  -0.392  1.00  0.00     0.219 HD
ENDBRANCH   4  38
BRANCH  17  40
HETATM   40  C21 UNL     1      -7.541  15.036   3.823  1.00  0.00     0.127 C 
BRANCH  40  41
HETATM   41  C22 UNL     1      -8.491  15.440   4.870  1.00  0.00     0.015 C 
HETATM   42  C23 UNL     1      -8.431  14.813   6.194  1.00  0.00     0.006 C 
ENDBRANCH  40  41
ENDBRANCH  17  40
BRANCH  18  43
HETATM   43  O4  UNL     1      -6.950  12.584   3.913  1.00  0.00    -0.332 OA
ATOM     44  H4  UNL     1      -7.071  11.708   4.258  1.00  0.00     0.221 HD
ENDBRANCH  18  43
BRANCH   1  45
HETATM   45  C4  UNL     1     -12.100  12.759   4.380  1.00  0.00     0.034 C 
BRANCH  45  46
HETATM   46  C3  UNL     1     -11.917  13.822   5.338  1.00  0.00     0.028 C 
BRANCH  46  47
HETATM   47  C2  UNL     1     -12.024  15.226   4.949  1.00  0.00    -0.037 C 
HETATM   48  C1  UNL     1     -11.970  16.239   5.790  1.00  0.00     0.007 C 
ENDBRANCH  46  47
ENDBRANCH  45  46
ENDBRANCH   1  45
BRANCH  19  49
HETATM   49  C25 UNL     1      -7.265  10.814   1.628  1.00  0.00     0.133 C 
BRANCH  49  50
HETATM   50  C26 UNL     1      -6.217  10.123   2.395  1.00  0.00     0.020 C 
BRANCH  50  51
HETATM   51  C27 UNL     1      -4.887  10.412   1.712  1.00  0.00     0.001 C 
BRANCH  51  52
HETATM   52  C28 UNL     1      -4.847  11.715   0.985  1.00  0.00    -0.004 C 
HETATM   53  C29 UNL     1      -4.112  12.708   1.896  1.00  0.00     0.005 C 
ENDBRANCH  51  52
ENDBRANCH  50  51
ENDBRANCH  49  50
ENDBRANCH  19  49
TORSDOF 18
ENDMDL
MODEL 2
REMARK VINA RESULT: -6.901125500      3.688      6.262
REMARK  18 active torsions:
REMARK  status: ('A' for Active; 'I' for Inactive)
REMARK    1  A    between atoms: C2_2  and  C3_3 
REMARK    2  A    between atoms: C3_3  and  C4_4 
REMARK    3  A    between atoms: C4_4  and  C5_5 
REMARK    4  A    between atoms: C6_8  and  O1_9 
REMARK    5  A    between atoms: C10_15  and  O2_16 
REMARK    6  A    between atoms: C11_18  and  C12_19 
REMARK    7  A    between atoms: C12_19  and  C13_20 
REMARK    8  A    between atoms: C13_20  and  C14_21 
REMARK    9  A    between atoms: C14_21  and  C15_22 
REMARK   10  A    between atoms: C15_22  and  C16_23 
REMARK   11  A    between atoms: C16_23  and  C17_24 
REMARK   12  A    between atoms: N6_35  and  C21_36 
REMARK   13  A    between atoms: C21_36  and  C22_37 
REMARK   14  A    between atoms: C24_39  and  O4_40 
REMARK   15  A    between atoms: N7_42  and  C25_43 
REMARK   16  A    between atoms: C25_43  and  C26_44 
REMARK   17  A    between atoms: C26_44  and  C27_45 
REMARK   18  A    between atoms: C27_45  and  C28_46 
ROOT
HETATM    1  C5  UNL     1     -10.890  12.118  -0.027  1.00  0.00     0.119 C 
HETATM    2  N1  UNL     1      -9.762  11.409  -0.552  1.00  0.00    -0.364 N 
ATOM      3  H1  UNL     1      -9.435  10.711   0.115  1.00  0.00     0.162 HD
HETATM    4  C6  UNL     1      -8.985  11.391  -1.696  1.00  0.00     0.135 C 
HETATM    5  C7  UNL     1      -9.160  11.111  -3.084  1.00  0.00     0.156 C 
HETATM    6  C8  UNL     1      -8.093  10.011  -3.517  1.00  0.00     0.041 C 
HETATM    7  N2  UNL     1      -9.235  12.045  -4.152  1.00  0.00    -0.353 N 
HETATM    8  C9  UNL     1      -9.687  11.280  -5.420  1.00  0.00     0.152 C 
HETATM    9  C10 UNL     1      -9.032  13.385  -4.390  1.00  0.00     0.161 C 
HETATM   10  C11 UNL     1      -8.121  14.476  -4.163  1.00  0.00     0.063 C 
HETATM   11  N5  UNL     1      -8.832  15.674  -3.672  1.00  0.00    -0.325 N 
ATOM     12  H5  UNL     1      -9.369  16.199  -4.362  1.00  0.00     0.169 HD
HETATM   13  C18 UNL     1      -8.849  16.168  -2.354  1.00  0.00     0.244 C 
HETATM   14  O3  UNL     1      -8.502  17.404  -2.210  1.00  0.00    -0.271 OA
HETATM   15  C19 UNL     1      -9.201  15.486  -1.126  1.00  0.00     0.176 C 
HETATM   16  C20 UNL     1      -7.995  15.638  -0.194  1.00  0.00     0.042 C 
HETATM   17  N6  UNL     1     -10.421  15.851  -0.454  1.00  0.00    -0.334 N 
HETATM   18  C24 UNL     1     -10.717  15.592   0.908  1.00  0.00     0.222 C 
HETATM   19  N7  UNL     1     -10.354  14.777   1.987  1.00  0.00    -0.313 N 
HETATM   20  C30 UNL     1     -10.552  13.365   2.270  1.00  0.00     0.046 A 
HETATM   21  C31 UNL     1     -10.483  13.052   3.675  1.00  0.00     0.030 A 
HETATM   22  C32 UNL     1     -10.609  11.800   4.227  1.00  0.00     0.002 A 
HETATM   23  C33 UNL     1     -10.816  10.748   3.402  1.00  0.00     0.001 A 
HETATM   24  C34 UNL     1     -10.886  11.015   2.062  1.00  0.00     0.011 A 
HETATM   25  C35 UNL     1     -10.759  12.293   1.482  1.00  0.00    -0.009 A 
ENDROOT
BRANCH  10  26
HETATM   26  C12 UNL     1      -6.777  14.313  -3.612  1.00  0.00     0.062 C 
BRANCH  26  27
HETATM   27  C13 UNL     1      -5.897  13.274  -4.243  1.00  0.00     0.006 C 
BRANCH  27  28
HETATM   28  C14 UNL     1      -5.902  13.286  -5.757  1.00  0.00     0.001 C 
BRANCH  28  29
HETATM   29  C15 UNL     1      -4.700  12.576  -6.269  1.00  0.00     0.007 C 
BRANCH  29  30
HETATM   30  C16 UNL     1      -4.764  11.088  -6.195  1.00  0.00     0.072 C 
BRANCH  30  31
HETATM   31  C17 UNL     1      -3.448  10.463  -6.136  1.00  0.00     0.086 C 
HETATM   32  N3  UNL     1      -3.124   9.375  -6.697  1.00  0.00    -0.391 N 
ATOM     33  H32 UNL     1      -3.867   8.904  -7.213  1.00  0.00     0.157 HD
ATOM     34  H31 UNL     1      -2.204   8.938  -6.655  1.00  0.00     0.157 HD
HETATM   35  N4  UNL     1      -2.391  11.133  -5.400  1.00  0.00    -0.088 NA
ENDBRANCH  30  31
ENDBRANCH  29  30
ENDBRANCH  28  29
ENDBRANCH  27  28
ENDBRANCH  26  27
ENDBRANCH  10  26
BRANCH   9  36
HETATM   36  O2  UNL     1     -10.051  13.885  -5.100  1.00  0.00    -0.345 OA
ATOM     37  H2  UNL     1     -10.780  14.090  -4.526  1.00  0.00     0.219 HD
ENDBRANCH   9  36
BRANCH   4  38
HETATM   38  O1  UNL     1      -7.726  11.718  -1.426  1.00  0.00    -0.348 OA
ATOM     39  H1  UNL     1      -7.229  11.858  -2.224  1.00  0.00     0.219 HD
ENDBRANCH   4  38
BRANCH  17  40
HETATM   40  C21 UNL     1     -11.378  16.658  -1.238  1.00  0.00     0.127 C 
BRANCH  40  41
HETATM   41  C22 UNL     1     -12.496  15.929  -1.856  1.00  0.00     0.015 C 
HETATM   42  C23 UNL     1     -12.245  14.669  -2.563  1.00  0.00     0.006 C 
ENDBRANCH  40  41
ENDBRANCH  17  40
BRANCH  18  43
HETATM   43  O4  UNL     1     -11.708  16.472   1.258  1.00  0.00    -0.332 OA
ATOM     44  H4  UNL     1     -12.520  16.099   0.936  1.00  0.00     0.221 HD
ENDBRANCH  18  43
BRANCH   1  45
HETATM   45  C4  UNL     1     -12.167  11.642  -0.539  1.00  0.00     0.034 C 
BRANCH  45  46
HETATM   46  C3  UNL     1     -13.515  12.022  -0.195  1.00  0.00     0.028 C 
BRANCH  46  47
HETATM   47  C2  UNL     1     -14.335  11.203   0.695  1.00  0.00    -0.037 C 
HETATM   48  C1  UNL     1     -14.636  11.524   1.937  1.00  0.00     0.007 C 
ENDBRANCH  46  47
ENDBRANCH  45  46
ENDBRANCH   1  45
BRANCH  19  49
HETATM   49  C25 UNL     1      -9.607  15.554   3.048  1.00  0.00     0.133 C 
BRANCH  49  50
HETATM   50  C26 UNL     1      -8.139  15.530   2.948  1.00  0.00     0.020 C 
BRANCH  50  51
HETATM   51  C27 UNL     1      -7.591  15.311   4.351  1.00  0.00     0.001 C 
BRANCH  51  52
HETATM   52  C28 UNL     1      -8.543  15.677   5.441  1.00  0.00    -0.004 C 
HETATM   53  C29 UNL     1      -8.528  14.519   6.449  1.00  0.00     0.005 C 
ENDBRANCH  51  52
ENDBRANCH  50  51
ENDBRANCH  49  50
ENDBRANCH  19  49
TORSDOF 18
ENDMDL
MODEL 3
REMARK VINA RESULT: -6.864721117      2.526      5.853
REMARK  18 active torsions:
REMARK  status: ('A' for Active; 'I' for Inactive)
REMARK    1  A    between atoms: C2_2  and  C3_3 
REMARK    2  A    between atoms: C3_3  and  C4_4 
REMARK    3  A    between atoms: C4_4  and  C5_5 
REMARK    4  A    between atoms: C6_8  and  O1_9 
REMARK    5  A    between atoms: C10_15  and  O2_16 
REMARK    6  A    between atoms: C11_18  and  C12_19 
REMARK    7  A    between atoms: C12_19  and  C13_20 
REMARK    8  A    between atoms: C13_20  and  C14_21 
REMARK    9  A    between atoms: C14_21  and  C15_22 
REMARK   10  A    between atoms: C15_22  and  C16_23 
REMARK   11  A    between atoms: C16_23  and  C17_24 
REMARK   12  A    between atoms: N6_35  and  C21_36 
REMARK   13  A    between atoms: C21_36  and  C22_37 
REMARK   14  A    between atoms: C24_39  and  O4_40 
REMARK   15  A    between atoms: N7_42  and  C25_43 
REMARK   16  A    between atoms: C25_43  and  C26_44 
REMARK   17  A    between atoms: C26_44  and  C27_45 
REMARK   18  A    between atoms: C27_45  and  C28_46 
ROOT
HETATM    1  C5  UNL     1     -10.345  10.815   1.640  1.00  0.00     0.119 C 
HETATM    2  N1  UNL     1     -11.460  11.385   2.332  1.00  0.00    -0.364 N 
ATOM      3  H1  UNL     1     -12.336  11.126   1.878  1.00  0.00     0.162 HD
HETATM    4  C6  UNL     1     -11.703  12.184   3.436  1.00  0.00     0.135 C 
HETATM    5  C7  UNL     1     -11.516  12.113   4.848  1.00  0.00     0.156 C 
HETATM    6  C8  UNL     1     -12.914  12.392   5.558  1.00  0.00     0.041 C 
HETATM    7  N2  UNL     1     -10.528  12.777   5.624  1.00  0.00    -0.353 N 
HETATM    8  C9  UNL     1     -10.571  12.183   7.054  1.00  0.00     0.152 C 
HETATM    9  C10 UNL     1      -9.575  13.759   5.490  1.00  0.00     0.161 C 
HETATM   10  C11 UNL     1      -9.341  15.082   4.973  1.00  0.00     0.063 C 
HETATM   11  N5  UNL     1      -8.095  15.134   4.180  1.00  0.00    -0.325 N 
ATOM     12  H5  UNL     1      -7.221  15.129   4.704  1.00  0.00     0.169 HD
HETATM   13  C18 UNL     1      -7.987  15.188   2.777  1.00  0.00     0.244 C 
HETATM   14  O3  UNL     1      -7.282  16.161   2.303  1.00  0.00    -0.271 OA
HETATM   15  C19 UNL     1      -8.557  14.305   1.781  1.00  0.00     0.176 C 
HETATM   16  C20 UNL     1      -9.370  15.197   0.837  1.00  0.00     0.042 C 
HETATM   17  N6  UNL     1      -7.679  13.437   1.040  1.00  0.00    -0.334 N 
HETATM   18  C24 UNL     1      -7.988  12.822  -0.200  1.00  0.00     0.222 C 
HETATM   19  N7  UNL     1      -9.061  12.455  -1.020  1.00  0.00    -0.313 N 
HETATM   20  C30 UNL     1     -10.083  11.427  -0.910  1.00  0.00     0.046 A 
HETATM   21  C31 UNL     1     -10.663  11.064  -2.178  1.00  0.00     0.030 A 
HETATM   22  C32 UNL     1     -11.662  10.142  -2.371  1.00  0.00     0.002 A 
HETATM   23  C33 UNL     1     -12.167   9.501  -1.292  1.00  0.00     0.001 A 
HETATM   24  C34 UNL     1     -11.635   9.825  -0.073  1.00  0.00     0.011 A 
HETATM   25  C35 UNL     1     -10.611  10.768   0.139  1.00  0.00    -0.009 A 
ENDROOT
BRANCH  10  26
HETATM   26  C12 UNL     1     -10.397  15.963   4.482  1.00  0.00     0.062 C 
BRANCH  26  27
HETATM   27  C13 UNL     1     -11.634  16.089   5.322  1.00  0.00     0.006 C 
BRANCH  27  28
HETATM   28  C14 UNL     1     -11.594  17.222   6.327  1.00  0.00     0.001 C 
BRANCH  28  29
HETATM   29  C15 UNL     1     -12.446  18.344   5.853  1.00  0.00     0.007 C 
BRANCH  29  30
HETATM   30  C16 UNL     1     -11.720  19.436   5.145  1.00  0.00     0.072 C 
BRANCH  30  31
HETATM   31  C17 UNL     1     -11.999  19.473   3.715  1.00  0.00     0.086 C 
HETATM   32  N3  UNL     1     -13.130  19.699   3.191  1.00  0.00    -0.391 N 
ATOM     33  H32 UNL     1     -13.899  19.849   3.844  1.00  0.00     0.157 HD
ATOM     34  H31 UNL     1     -13.326  19.725   2.191  1.00  0.00     0.157 HD
HETATM   35  N4  UNL     1     -10.905  19.260   2.784  1.00  0.00    -0.088 NA
ENDBRANCH  30  31
ENDBRANCH  29  30
ENDBRANCH  28  29
ENDBRANCH  27  28
ENDBRANCH  26  27
ENDBRANCH  10  26
BRANCH   9  36
HETATM   36  O2  UNL     1      -8.423  13.360   6.043  1.00  0.00    -0.345 OA
ATOM     37  H2  UNL     1      -7.722  13.402   5.403  1.00  0.00     0.219 HD
ENDBRANCH   9  36
BRANCH   4  38
HETATM   38  O1  UNL     1     -12.274  13.330   3.082  1.00  0.00    -0.348 OA
ATOM     39  H1  UNL     1     -12.528  13.836   3.845  1.00  0.00     0.219 HD
ENDBRANCH   4  38
BRANCH  17  40
HETATM   40  C21 UNL     1      -6.314  13.277   1.580  1.00  0.00     0.127 C 
BRANCH  40  41
HETATM   41  C22 UNL     1      -6.034  12.020   2.289  1.00  0.00     0.015 C 
HETATM   42  C23 UNL     1      -6.797  11.672   3.491  1.00  0.00     0.006 C 
ENDBRANCH  40  41
ENDBRANCH  17  40
BRANCH  18  43
HETATM   43  O4  UNL     1      -6.787  12.490  -0.771  1.00  0.00    -0.332 OA
ATOM     44  H4  UNL     1      -6.911  11.638  -1.171  1.00  0.00     0.221 HD
ENDBRANCH  18  43
BRANCH   1  45
HETATM   45  C4  UNL     1      -9.826   9.607   2.267  1.00  0.00     0.034 C 
BRANCH  45  46
HETATM   46  C3  UNL     1      -8.935   8.594   1.755  1.00  0.00     0.028 C 
BRANCH  46  47
HETATM   47  C2  UNL     1      -7.667   8.946   1.119  1.00  0.00    -0.037 C 
HETATM   48  C1  UNL     1      -7.448   8.903  -0.179  1.00  0.00     0.007 C 
ENDBRANCH  46  47
ENDBRANCH  45  46
ENDBRANCH   1  45
BRANCH  19  49
HETATM   49  C25 UNL     1      -9.145  13.325  -2.255  1.00  0.00     0.133 C 
BRANCH  49  50
HETATM   50  C26 UNL     1      -8.167  14.422  -2.335  1.00  0.00     0.020 C 
BRANCH  50  51
HETATM   51  C27 UNL     1      -7.728  14.535  -3.789  1.00  0.00     0.001 C 
BRANCH  51  52
HETATM   52  C28 UNL     1      -6.350  14.022  -4.049  1.00  0.00    -0.004 C 
HETATM   53  C29 UNL     1      -6.293  13.640  -5.535  1.00  0.00     0.005 C 
ENDBRANCH  51  52
ENDBRANCH  50  51
ENDBRANCH  49  50
ENDBRANCH  19  49
TORSDOF 18
ENDMDL
MODEL 4
REMARK VINA RESULT: -6.858968674      3.987      6.333
REMARK  18 active torsions:
REMARK  status: ('A' for Active; 'I' for Inactive)
REMARK    1  A    between atoms: C2_2  and  C3_3 
REMARK    2  A    between atoms: C3_3  and  C4_4 
REMARK    3  A    between atoms: C4_4  and  C5_5 
REMARK    4  A    between atoms: C6_8  and  O1_9 
REMARK    5  A    between atoms: C10_15  and  O2_16 
REMARK    6  A    between atoms: C11_18  and  C12_19 
REMARK    7  A    between atoms: C12_19  and  C13_20 
REMARK    8  A    between atoms: C13_20  and  C14_21 
REMARK    9  A    between atoms: C14_21  and  C15_22 
REMARK   10  A    between atoms: C15_22  and  C16_23 
REMARK   11  A    between atoms: C16_23  and  C17_24 
REMARK   12  A    between atoms: N6_35  and  C21_36 
REMARK   13  A    between atoms: C21_36  and  C22_37 
REMARK   14  A    between atoms: C24_39  and  O4_40 
REMARK   15  A    between atoms: N7_42  and  C25_43 
REMARK   16  A    between atoms: C25_43  and  C26_44 
REMARK   17  A    between atoms: C26_44  and  C27_45 
REMARK   18  A    between atoms: C27_45  and  C28_46 
ROOT
HETATM    1  C5  UNL     1     -10.674  10.848  -1.188  1.00  0.00     0.119 C 
HETATM    2  N1  UNL     1      -9.576  10.310  -1.933  1.00  0.00    -0.364 N 
ATOM      3  H1  UNL     1      -9.289   9.410  -1.550  1.00  0.00     0.162 HD
HETATM    4  C6  UNL     1      -8.787  10.650  -3.017  1.00  0.00     0.135 C 
HETATM    5  C7  UNL     1      -8.960  10.875  -4.415  1.00  0.00     0.156 C 
HETATM    6  C8  UNL     1      -7.941   9.941  -5.208  1.00  0.00     0.041 C 
HETATM    7  N2  UNL     1      -8.979  12.123  -5.095  1.00  0.00    -0.353 N 
HETATM    8  C9  UNL     1      -9.452  11.865  -6.547  1.00  0.00     0.152 C 
HETATM    9  C10 UNL     1      -8.709  13.450  -4.857  1.00  0.00     0.161 C 
HETATM   10  C11 UNL     1      -7.749  14.350  -4.273  1.00  0.00     0.063 C 
HETATM   11  N5  UNL     1      -8.409  15.339  -3.395  1.00  0.00    -0.325 N 
ATOM     12  H5  UNL     1      -8.912  16.096  -3.859  1.00  0.00     0.169 HD
HETATM   13  C18 UNL     1      -8.416  15.348  -1.987  1.00  0.00     0.244 C 
HETATM   14  O3  UNL     1      -8.012  16.440  -1.428  1.00  0.00    -0.271 OA
HETATM   15  C19 UNL     1      -8.814  14.302  -1.068  1.00  0.00     0.176 C 
HETATM   16  C20 UNL     1      -7.612  14.065  -0.148  1.00  0.00     0.042 C 
HETATM   17  N6  UNL     1     -10.022  14.473  -0.304  1.00  0.00    -0.334 N 
HETATM   18  C24 UNL     1     -10.346  13.774   0.886  1.00  0.00     0.222 C 
HETATM   19  N7  UNL     1     -10.034  12.620   1.616  1.00  0.00    -0.313 N 
HETATM   20  C30 UNL     1     -10.302  11.209   1.396  1.00  0.00     0.046 A 
HETATM   21  C31 UNL     1     -10.263  10.427   2.606  1.00  0.00     0.030 A 
HETATM   22  C32 UNL     1     -10.455   9.070   2.693  1.00  0.00     0.002 A 
HETATM   23  C33 UNL     1     -10.704   8.378   1.557  1.00  0.00     0.001 A 
HETATM   24  C34 UNL     1     -10.746   9.094   0.392  1.00  0.00     0.011 A 
HETATM   25  C35 UNL     1     -10.552  10.486   0.287  1.00  0.00    -0.009 A 
ENDROOT
BRANCH  10  26
HETATM   26  C12 UNL     1      -6.422  13.943  -3.821  1.00  0.00     0.062 C 
BRANCH  26  27
HETATM   27  C13 UNL     1      -5.742  12.844  -4.585  1.00  0.00     0.006 C 
BRANCH  27  28
HETATM   28  C14 UNL     1      -5.449  13.178  -6.032  1.00  0.00     0.001 C 
BRANCH  28  29
HETATM   29  C15 UNL     1      -4.303  12.362  -6.514  1.00  0.00     0.007 C 
BRANCH  29  30
HETATM   30  C16 UNL     1      -4.499  10.886  -6.434  1.00  0.00     0.072 C 
BRANCH  30  31
HETATM   31  C17 UNL     1      -3.274  10.166  -6.108  1.00  0.00     0.086 C 
HETATM   32  N3  UNL     1      -2.998   8.983  -6.467  1.00  0.00    -0.391 N 
ATOM     33  H32 UNL     1      -3.715   8.508  -7.016  1.00  0.00     0.157 HD
ATOM     34  H31 UNL     1      -2.141   8.479  -6.240  1.00  0.00     0.157 HD
HETATM   35  N4  UNL     1      -2.254  10.842  -5.327  1.00  0.00    -0.088 NA
ENDBRANCH  30  31
ENDBRANCH  29  30
ENDBRANCH  28  29
ENDBRANCH  27  28
ENDBRANCH  26  27
ENDBRANCH  10  26
BRANCH   9  36
HETATM   36  O2  UNL     1      -9.695  14.213  -5.345  1.00  0.00    -0.345 OA
ATOM     37  H2  UNL     1      -9.950  13.906  -6.207  1.00  0.00     0.219 HD
ENDBRANCH   9  36
BRANCH   4  38
HETATM   38  O1  UNL     1      -7.517  10.803  -2.659  1.00  0.00    -0.348 OA
ATOM     39  H1  UNL     1      -6.966  10.977  -3.413  1.00  0.00     0.219 HD
ENDBRANCH   4  38
BRANCH  17  40
HETATM   40  C21 UNL     1     -10.932  15.546  -0.755  1.00  0.00     0.127 C 
BRANCH  40  41
HETATM   41  C22 UNL     1     -12.117  15.122  -1.515  1.00  0.00     0.015 C 
HETATM   42  C23 UNL     1     -11.954  14.385  -2.773  1.00  0.00     0.006 C 
ENDBRANCH  40  41
ENDBRANCH  17  40
BRANCH  18  43
HETATM   43  O4  UNL     1     -11.297  14.526   1.525  1.00  0.00    -0.332 OA
ATOM     44  H4  UNL     1     -12.089  14.002   1.531  1.00  0.00     0.221 HD
ENDBRANCH  18  43
BRANCH   1  45
HETATM   45  C4  UNL     1     -11.966  10.641  -1.826  1.00  0.00     0.034 C 
BRANCH  45  46
HETATM   46  C3  UNL     1     -13.252  11.235  -1.552  1.00  0.00     0.028 C 
BRANCH  46  47
HETATM   47  C2  UNL     1     -13.829  11.218  -0.210  1.00  0.00    -0.037 C 
HETATM   48  C1  UNL     1     -13.869  12.259   0.598  1.00  0.00     0.007 C 
ENDBRANCH  46  47
ENDBRANCH  45  46
ENDBRANCH   1  45
BRANCH  19  49
HETATM   49  C25 UNL     1      -9.262  12.947   2.876  1.00  0.00     0.133 C 
BRANCH  49  50
HETATM   50  C26 UNL     1      -7.796  12.877   2.768  1.00  0.00     0.020 C 
BRANCH  50  51
HETATM   51  C27 UNL     1      -7.222  13.972   3.656  1.00  0.00     0.001 C 
BRANCH  51  52
HETATM   52  C28 UNL     1      -7.989  15.251   3.618  1.00  0.00    -0.004 C 
HETATM   53  C29 UNL     1      -8.195  15.687   5.076  1.00  0.00     0.005 C 
ENDBRANCH  51  52
ENDBRANCH  50  51
ENDBRANCH  49  50
ENDBRANCH  19  49
TORSDOF 18
ENDMDL
MODEL 5
REMARK VINA RESULT: -6.842364502      1.087      1.432
REMARK  18 active torsions:
REMARK  status: ('A' for Active; 'I' for Inactive)
REMARK    1  A    between atoms: C2_2  and  C3_3 
REMARK    2  A    between atoms: C3_3  and  C4_4 
REMARK    3  A    between atoms: C4_4  and  C5_5 
REMARK    4  A    between atoms: C6_8  and  O1_9 
REMARK    5  A    between atoms: C10_15  and  O2_16 
REMARK    6  A    between atoms: C11_18  and  C12_19 
REMARK    7  A    between atoms: C12_19  and  C13_20 
REMARK    8  A    between atoms: C13_20  and  C14_21 
REMARK    9  A    between atoms: C14_21  and  C15_22 
REMARK   10  A    between atoms: C15_22  and  C16_23 
REMARK   11  A    between atoms: C16_23  and  C17_24 
REMARK   12  A    between atoms: N6_35  and  C21_36 
REMARK   13  A    between atoms: C21_36  and  C22_37 
REMARK   14  A    between atoms: C24_39  and  O4_40 
REMARK   15  A    between atoms: N7_42  and  C25_43 
REMARK   16  A    between atoms: C25_43  and  C26_44 
REMARK   17  A    between atoms: C26_44  and  C27_45 
REMARK   18  A    between atoms: C27_45  and  C28_46 
ROOT
HETATM    1  C5  UNL     1     -11.539  12.547   3.115  1.00  0.00     0.119 C 
HETATM    2  N1  UNL     1     -12.355  12.939   2.006  1.00  0.00    -0.364 N 
ATOM      3  H1  UNL     1     -12.805  12.126   1.587  1.00  0.00     0.162 HD
HETATM    4  C6  UNL     1     -12.712  14.094   1.334  1.00  0.00     0.135 C 
HETATM    5  C7  UNL     1     -13.412  15.304   1.618  1.00  0.00     0.156 C 
HETATM    6  C8  UNL     1     -14.572  15.482   0.541  1.00  0.00     0.041 C 
HETATM    7  N2  UNL     1     -12.857  16.594   1.833  1.00  0.00    -0.353 N 
HETATM    8  C9  UNL     1     -13.987  17.514   2.359  1.00  0.00     0.152 C 
HETATM    9  C10 UNL     1     -11.654  17.250   1.718  1.00  0.00     0.161 C 
HETATM   10  C11 UNL     1     -10.530  17.462   0.844  1.00  0.00     0.063 C 
HETATM   11  N5  UNL     1      -9.252  17.295   1.567  1.00  0.00    -0.325 N 
ATOM     12  H5  UNL     1      -8.977  18.055   2.188  1.00  0.00     0.169 HD
HETATM   13  C18 UNL     1      -8.374  16.197   1.490  1.00  0.00     0.244 C 
HETATM   14  O3  UNL     1      -7.148  16.475   1.192  1.00  0.00    -0.271 OA
HETATM   15  C19 UNL     1      -8.648  14.790   1.698  1.00  0.00     0.176 C 
HETATM   16  C20 UNL     1      -8.191  14.075   0.422  1.00  0.00     0.042 C 
HETATM   17  N6  UNL     1      -8.114  14.145   2.869  1.00  0.00    -0.334 N 
HETATM   18  C24 UNL     1      -7.944  12.746   3.030  1.00  0.00     0.222 C 
HETATM   19  N7  UNL     1      -8.377  11.511   2.533  1.00  0.00    -0.313 N 
HETATM   20  C30 UNL     1      -9.635  10.790   2.635  1.00  0.00     0.046 A 
HETATM   21  C31 UNL     1      -9.495   9.371   2.426  1.00  0.00     0.030 A 
HETATM   22  C32 UNL     1     -10.515   8.451   2.441  1.00  0.00     0.002 A 
HETATM   23  C33 UNL     1     -11.775   8.889   2.670  1.00  0.00     0.001 A 
HETATM   24  C34 UNL     1     -11.939  10.232   2.872  1.00  0.00     0.011 A 
HETATM   25  C35 UNL     1     -10.902  11.186   2.860  1.00  0.00    -0.009 A 
ENDROOT
BRANCH  10  26
HETATM   26  C12 UNL     1     -10.488  17.025  -0.549  1.00  0.00     0.062 C 
BRANCH  26  27
HETATM   27  C13 UNL     1     -10.177  18.064  -1.586  1.00  0.00     0.006 C 
BRANCH  27  28
HETATM   28  C14 UNL     1      -9.375  17.551  -2.764  1.00  0.00     0.001 C 
BRANCH  28  29
HETATM   29  C15 UNL     1      -8.953  16.148  -2.512  1.00  0.00     0.007 C 
BRANCH  29  30
HETATM   30  C16 UNL     1      -8.791  15.306  -3.732  1.00  0.00     0.072 C 
BRANCH  30  31
HETATM   31  C17 UNL     1      -7.727  14.318  -3.605  1.00  0.00     0.086 C 
HETATM   32  N3  UNL     1      -7.878  13.118  -3.225  1.00  0.00    -0.391 N 
ATOM     33  H32 UNL     1      -8.830  12.849  -2.976  1.00  0.00     0.157 HD
ATOM     34  H31 UNL     1      -7.134  12.427  -3.137  1.00  0.00     0.157 HD
HETATM   35  N4  UNL     1      -6.373  14.701  -3.959  1.00  0.00    -0.088 NA
ENDBRANCH  30  31
ENDBRANCH  29  30
ENDBRANCH  28  29
ENDBRANCH  27  28
ENDBRANCH  26  27
ENDBRANCH  10  26
BRANCH   9  36
HETATM   36  O2  UNL     1     -11.419  17.975   2.819  1.00  0.00    -0.345 OA
ATOM     37  H2  UNL     1     -10.578  18.412   2.749  1.00  0.00     0.219 HD
ENDBRANCH   9  36
BRANCH   4  38
HETATM   38  O1  UNL     1     -12.294  14.065   0.073  1.00  0.00    -0.348 OA
ATOM     39  H1  UNL     1     -12.595  14.827  -0.406  1.00  0.00     0.219 HD
ENDBRANCH   4  38
BRANCH  17  40
HETATM   40  C21 UNL     1      -7.609  15.038   3.931  1.00  0.00     0.127 C 
BRANCH  40  41
HETATM   41  C22 UNL     1      -8.575  15.436   4.965  1.00  0.00     0.015 C 
HETATM   42  C23 UNL     1      -8.601  14.732   6.252  1.00  0.00     0.006 C 
ENDBRANCH  40  41
ENDBRANCH  17  40
BRANCH  18  43
HETATM   43  O4  UNL     1      -7.018  12.586   4.027  1.00  0.00    -0.332 OA
ATOM     44  H4  UNL     1      -6.738  11.679   3.985  1.00  0.00     0.221 HD
ENDBRANCH  18  43
BRANCH   1  45
HETATM   45  C4  UNL     1     -12.175  12.758   4.408  1.00  0.00     0.034 C 
BRANCH  45  46
HETATM   46  C3  UNL     1     -11.678  12.534   5.744  1.00  0.00     0.028 C 
BRANCH  46  47
HETATM   47  C2  UNL     1     -12.225  11.478   6.593  1.00  0.00    -0.037 C 
HETATM   48  C1  UNL     1     -11.794  10.233   6.606  1.00  0.00     0.007 C 
ENDBRANCH  46  47
ENDBRANCH  45  46
ENDBRANCH   1  45
BRANCH  19  49
HETATM   49  C25 UNL     1      -7.294  10.820   1.732  1.00  0.00     0.133 C 
BRANCH  49  50
HETATM   50  C26 UNL     1      -6.246  10.148   2.516  1.00  0.00     0.020 C 
BRANCH  50  51
HETATM   51  C27 UNL     1      -4.914  10.436   1.838  1.00  0.00     0.001 C 
BRANCH  51  52
HETATM   52  C28 UNL     1      -4.897  11.701   1.045  1.00  0.00    -0.004 C 
HETATM   53  C29 UNL     1      -4.185  12.754   1.908  1.00  0.00     0.005 C 
ENDBRANCH  51  52
ENDBRANCH  50  51
ENDBRANCH  49  50
ENDBRANCH  19  49
TORSDOF 18
ENDMDL
