MODEL 1
REMARK VINA RESULT: -7.420160900      0.000      0.000
REMARK  5 active torsions:
REMARK  status: ('A' for Active; 'I' for Inactive)
REMARK    1  A    between atoms: C2_2  and  C3_3 
REMARK    2  A    between atoms: C3_3  and  N1_5 
REMARK    3  A    between atoms: N1_5  and  C4_6 
REMARK    4  A    between atoms: N1_5  and  C10_12 
REMARK    5  A    between atoms: C10_12  and  C12_14 
ROOT
HETATM    1  N1  UNL     1      11.645 -15.047  16.995  1.00  0.00    -0.357 N 
ENDROOT
BRANCH   1   2
HETATM    2  C3  UNL     1      11.196 -15.662  18.181  1.00  0.00     0.099 C 
HETATM    3  S1  UNL     1      11.906 -17.103  18.635  1.00  0.00    -0.061 SA
BRANCH   2   4
HETATM    4  C2  UNL     1      10.167 -15.175  19.056  1.00  0.00     0.031 C 
HETATM    5  C1  UNL     1       9.405 -16.033  19.748  1.00  0.00     0.014 C 
ENDBRANCH   2   4
ENDBRANCH   1   2
BRANCH   1   6
HETATM    6  C4  UNL     1      12.738 -14.117  17.011  1.00  0.00     0.086 C 
HETATM    7  C5  UNL     1      13.525 -13.980  15.758  1.00  0.00     0.025 C 
HETATM    8  C6  UNL     1      14.108 -12.548  15.803  1.00  0.00     0.002 C 
HETATM    9  C7  UNL     1      14.927 -12.349  17.048  1.00  0.00     0.000 C 
HETATM   10  C8  UNL     1      14.400 -12.939  18.296  1.00  0.00     0.002 C 
HETATM   11  C9  UNL     1      13.714 -14.282  18.147  1.00  0.00     0.025 C 
ENDBRANCH   1   6
BRANCH   1  12
HETATM   12  C10 UNL     1      11.031 -15.340  15.696  1.00  0.00     0.133 C 
HETATM   13  C11 UNL     1      10.372 -14.179  15.047  1.00  0.00     0.039 C 
BRANCH  12  14
HETATM   14  C12 UNL     1      10.203 -16.551  15.692  1.00  0.00     0.057 A 
HETATM   15  C13 UNL     1       8.835 -16.611  15.988  1.00  0.00     0.056 A 
HETATM   16  C14 UNL     1       8.418 -17.894  15.863  1.00  0.00     0.169 A 
HETATM   17  O1  UNL     1       9.456 -18.600  15.509  1.00  0.00    -0.250 OA
HETATM   18  N2  UNL     1      10.504 -17.845  15.403  1.00  0.00    -0.264 N 
ATOM     19  H2  UNL     1      11.431 -18.178  15.138  1.00  0.00     0.194 HD
ENDBRANCH  12  14
ENDBRANCH   1  12
TORSDOF 5
ENDMDL
MODEL 2
REMARK VINA RESULT: -7.049833319      2.145      3.349
REMARK  5 active torsions:
REMARK  status: ('A' for Active; 'I' for Inactive)
REMARK    1  A    between atoms: C2_2  and  C3_3 
REMARK    2  A    between atoms: C3_3  and  N1_5 
REMARK    3  A    between atoms: N1_5  and  C4_6 
REMARK    4  A    between atoms: N1_5  and  C10_12 
REMARK    5  A    between atoms: C10_12  and  C12_14 
ROOT
HETATM    1  N1  UNL     1      11.826 -15.315  16.998  1.00  0.00    -0.357 N 
ENDROOT
BRANCH   1   2
HETATM    2  C3  UNL     1      10.929 -15.505  15.927  1.00  0.00     0.099 C 
HETATM    3  S1  UNL     1      10.397 -14.157  15.100  1.00  0.00    -0.061 SA
BRANCH   2   4
HETATM    4  C2  UNL     1      10.409 -16.762  15.465  1.00  0.00     0.031 C 
HETATM    5  C1  UNL     1       9.087 -16.953  15.371  1.00  0.00     0.014 C 
ENDBRANCH   2   4
ENDBRANCH   1   2
BRANCH   1   6
HETATM    6  C4  UNL     1      12.831 -14.292  16.949  1.00  0.00     0.086 C 
HETATM    7  C5  UNL     1      13.650 -14.208  15.713  1.00  0.00     0.025 C 
HETATM    8  C6  UNL     1      14.102 -12.731  15.626  1.00  0.00     0.002 C 
HETATM    9  C7  UNL     1      14.852 -12.336  16.867  1.00  0.00     0.000 C 
HETATM   10  C8  UNL     1      14.333 -12.844  18.154  1.00  0.00     0.002 C 
HETATM   11  C9  UNL     1      13.774 -14.252  18.124  1.00  0.00     0.025 C 
ENDBRANCH   1   6
BRANCH   1  12
HETATM   12  C10 UNL     1      11.761 -16.136  18.211  1.00  0.00     0.133 C 
HETATM   13  C11 UNL     1      11.981 -17.587  17.987  1.00  0.00     0.039 C 
BRANCH  12  14
HETATM   14  C12 UNL     1      10.597 -15.852  19.058  1.00  0.00     0.057 A 
HETATM   15  C13 UNL     1       9.326 -15.479  18.607  1.00  0.00     0.056 A 
HETATM   16  C14 UNL     1       8.512 -15.321  19.678  1.00  0.00     0.169 A 
HETATM   17  O1  UNL     1       9.224 -15.578  20.739  1.00  0.00    -0.250 OA
HETATM   18  N2  UNL     1      10.438 -15.889  20.408  1.00  0.00    -0.264 N 
ATOM     19  H2  UNL     1      11.174 -16.130  21.071  1.00  0.00     0.194 HD
ENDBRANCH  12  14
ENDBRANCH   1  12
TORSDOF 5
ENDMDL
MODEL 3
REMARK VINA RESULT: -7.043912135     11.828     13.343
REMARK  5 active torsions:
REMARK  status: ('A' for Active; 'I' for Inactive)
REMARK    1  A    between atoms: C2_2  and  C3_3 
REMARK    2  A    between atoms: C3_3  and  N1_5 
REMARK    3  A    between atoms: N1_5  and  C4_6 
REMARK    4  A    between atoms: N1_5  and  C10_12 
REMARK    5  A    between atoms: C10_12  and  C12_14 
ROOT
HETATM    1  N1  UNL     1       6.233  -5.901  10.583  1.00  0.00    -0.357 N 
ENDROOT
BRANCH   1   2
HETATM    2  C3  UNL     1       6.345  -7.163   9.964  1.00  0.00     0.099 C 
HETATM    3  S1  UNL     1       7.028  -8.409  10.840  1.00  0.00    -0.061 SA
BRANCH   2   4
HETATM    4  C2  UNL     1       5.931  -7.496   8.629  1.00  0.00     0.031 C 
HETATM    5  C1  UNL     1       4.994  -8.431   8.425  1.00  0.00     0.014 C 
ENDBRANCH   2   4
ENDBRANCH   1   2
BRANCH   1   6
HETATM    6  C4  UNL     1       5.121  -5.591  11.435  1.00  0.00     0.086 C 
HETATM    7  C5  UNL     1       3.961  -6.519  11.396  1.00  0.00     0.025 C 
HETATM    8  C6  UNL     1       3.291  -6.385  12.784  1.00  0.00     0.002 C 
HETATM    9  C7  UNL     1       2.904  -4.958  13.048  1.00  0.00     0.000 C 
HETATM   10  C8  UNL     1       3.860  -3.915  12.620  1.00  0.00     0.002 C 
HETATM   11  C9  UNL     1       4.585  -4.187  11.318  1.00  0.00     0.025 C 
ENDBRANCH   1   6
BRANCH   1  12
HETATM   12  C10 UNL     1       7.251  -4.862  10.400  1.00  0.00     0.133 C 
HETATM   13  C11 UNL     1       7.911  -4.870   9.071  1.00  0.00     0.039 C 
BRANCH  12  14
HETATM   14  C12 UNL     1       8.198  -4.756  11.515  1.00  0.00     0.057 A 
HETATM   15  C13 UNL     1       8.124  -3.839  12.571  1.00  0.00     0.056 A 
HETATM   16  C14 UNL     1       9.162  -4.059  13.413  1.00  0.00     0.169 A 
HETATM   17  O1  UNL     1       9.848  -5.052  12.921  1.00  0.00    -0.250 OA
HETATM   18  N2  UNL     1       9.311  -5.476  11.821  1.00  0.00    -0.264 N 
ATOM     19  H2  UNL     1       9.674  -6.245  11.259  1.00  0.00     0.194 HD
ENDBRANCH  12  14
ENDBRANCH   1  12
TORSDOF 5
ENDMDL
MODEL 4
REMARK VINA RESULT: -7.017440872      0.958      1.094
REMARK  5 active torsions:
REMARK  status: ('A' for Active; 'I' for Inactive)
REMARK    1  A    between atoms: C2_2  and  C3_3 
REMARK    2  A    between atoms: C3_3  and  N1_5 
REMARK    3  A    between atoms: N1_5  and  C4_6 
REMARK    4  A    between atoms: N1_5  and  C10_12 
REMARK    5  A    between atoms: C10_12  and  C12_14 
ROOT
HETATM    1  N1  UNL     1      11.722 -15.075  16.948  1.00  0.00    -0.357 N 
ENDROOT
BRANCH   1   2
HETATM    2  C3  UNL     1      11.373 -15.819  18.093  1.00  0.00     0.099 C 
HETATM    3  S1  UNL     1      10.088 -15.285  19.014  1.00  0.00    -0.061 SA
BRANCH   2   4
HETATM    4  C2  UNL     1      12.024 -17.009  18.567  1.00  0.00     0.031 C 
HETATM    5  C1  UNL     1      11.669 -17.553  19.738  1.00  0.00     0.014 C 
ENDBRANCH   2   4
ENDBRANCH   1   2
BRANCH   1   6
HETATM    6  C4  UNL     1      12.761 -14.086  16.995  1.00  0.00     0.086 C 
HETATM    7  C5  UNL     1      13.504 -13.826  15.735  1.00  0.00     0.025 C 
HETATM    8  C6  UNL     1      14.006 -12.368  15.856  1.00  0.00     0.002 C 
HETATM    9  C7  UNL     1      14.847 -12.200  17.090  1.00  0.00     0.000 C 
HETATM   10  C8  UNL     1      14.391 -12.895  18.311  1.00  0.00     0.002 C 
HETATM   11  C9  UNL     1      13.777 -14.264  18.094  1.00  0.00     0.025 C 
ENDBRANCH   1   6
BRANCH   1  12
HETATM   12  C10 UNL     1      11.057 -15.290  15.659  1.00  0.00     0.133 C 
HETATM   13  C11 UNL     1      10.379 -14.090  15.106  1.00  0.00     0.039 C 
BRANCH  12  14
HETATM   14  C12 UNL     1      10.223 -16.496  15.616  1.00  0.00     0.057 A 
HETATM   15  C13 UNL     1       8.834 -16.540  15.792  1.00  0.00     0.056 A 
HETATM   16  C14 UNL     1       8.420 -17.823  15.667  1.00  0.00     0.169 A 
HETATM   17  O1  UNL     1       9.478 -18.544  15.426  1.00  0.00    -0.250 OA
HETATM   18  N2  UNL     1      10.538 -17.799  15.392  1.00  0.00    -0.264 N 
ATOM     19  H2  UNL     1      11.482 -18.144  15.219  1.00  0.00     0.194 HD
ENDBRANCH  12  14
ENDBRANCH   1  12
TORSDOF 5
ENDMDL
MODEL 5
REMARK VINA RESULT: -6.854942206     11.747     13.718
REMARK  5 active torsions:
REMARK  status: ('A' for Active; 'I' for Inactive)
REMARK    1  A    between atoms: C2_2  and  C3_3 
REMARK    2  A    between atoms: C3_3  and  N1_5 
REMARK    3  A    between atoms: N1_5  and  C4_6 
REMARK    4  A    between atoms: N1_5  and  C10_12 
REMARK    5  A    between atoms: C10_12  and  C12_14 
ROOT
HETATM    1  N1  UNL     1       5.453  -5.833  10.596  1.00  0.00    -0.357 N 
ENDROOT
BRANCH   1   2
HETATM    2  C3  UNL     1       5.685  -7.200  10.343  1.00  0.00     0.099 C 
HETATM    3  S1  UNL     1       4.903  -7.902   9.046  1.00  0.00    -0.061 SA
BRANCH   2   4
HETATM    4  C2  UNL     1       6.535  -8.075  11.102  1.00  0.00     0.031 C 
HETATM    5  C1  UNL     1       7.381  -8.905  10.478  1.00  0.00     0.014 C 
ENDBRANCH   2   4
ENDBRANCH   1   2
BRANCH   1   6
HETATM    6  C4  UNL     1       4.213  -5.384  11.160  1.00  0.00     0.086 C 
HETATM    7  C5  UNL     1       3.775  -4.006  10.818  1.00  0.00     0.025 C 
HETATM    8  C6  UNL     1       2.233  -4.031  10.938  1.00  0.00     0.002 C 
HETATM    9  C7  UNL     1       1.818  -4.465  12.316  1.00  0.00     0.000 C 
HETATM   10  C8  UNL     1       2.594  -5.559  12.936  1.00  0.00     0.002 C 
HETATM   11  C9  UNL     1       4.082  -5.546  12.653  1.00  0.00     0.025 C 
ENDBRANCH   1   6
BRANCH   1  12
HETATM   12  C10 UNL     1       6.470  -4.815  10.312  1.00  0.00     0.133 C 
HETATM   13  C11 UNL     1       7.203  -5.012   9.036  1.00  0.00     0.039 C 
BRANCH  12  14
HETATM   14  C12 UNL     1       7.354  -4.528  11.447  1.00  0.00     0.057 A 
HETATM   15  C13 UNL     1       8.694  -4.919  11.563  1.00  0.00     0.056 A 
HETATM   16  C14 UNL     1       9.182  -4.457  12.739  1.00  0.00     0.169 A 
HETATM   17  O1  UNL     1       8.213  -3.815  13.329  1.00  0.00    -0.250 OA
HETATM   18  N2  UNL     1       7.141  -3.841  12.601  1.00  0.00    -0.264 N 
ATOM     19  H2  UNL     1       6.256  -3.404  12.859  1.00  0.00     0.194 HD
ENDBRANCH  12  14
ENDBRANCH   1  12
TORSDOF 5
ENDMDL
