MODEL 1
REMARK VINA RESULT: -7.477097926      0.000      0.000
REMARK  0 active torsions:
REMARK  status: ('A' for Active; 'I' for Inactive)
ROOT
HETATM    1  C1  UNL     1     -17.662  -1.597  -0.547  1.00  0.00     0.013 A 
HETATM    2  C2  UNL     1     -16.522  -1.779  -1.197  1.00  0.00     0.013 A 
HETATM    3  C3  UNL     1     -17.217  -1.699  -2.488  1.00  0.00    -0.024 A 
HETATM    4  C4  UNL     1     -17.202  -1.726  -3.868  1.00  0.00     0.042 A 
HETATM    5  C5  UNL     1     -18.354  -1.568  -4.627  1.00  0.00     0.043 A 
HETATM    6  N1  UNL     1     -18.326  -1.597  -5.982  1.00  0.00    -0.365 N 
ATOM      7  H1  UNL     1     -17.436  -1.739  -6.458  1.00  0.00     0.165 HD
HETATM    8  C6  UNL     1     -19.444  -1.443  -6.716  1.00  0.00     0.088 A 
HETATM    9  C7  UNL     1     -20.647  -1.252  -6.096  1.00  0.00     0.018 A 
HETATM   10  C8  UNL     1     -20.677  -1.222  -4.705  1.00  0.00     0.015 A 
HETATM   11  C9  UNL     1     -19.532  -1.379  -3.949  1.00  0.00    -0.009 A 
HETATM   12  C10 UNL     1     -19.549  -1.351  -2.564  1.00  0.00     0.026 A 
HETATM   13  C11 UNL     1     -18.403  -1.509  -1.810  1.00  0.00    -0.025 A 
ENDROOT
TORSDOF 0
ENDMDL
MODEL 2
REMARK VINA RESULT: -7.311548467      2.385      3.754
REMARK  0 active torsions:
REMARK  status: ('A' for Active; 'I' for Inactive)
ROOT
HETATM    1  C1  UNL     1     -17.987  -4.625  -3.646  1.00  0.00     0.013 A 
HETATM    2  C2  UNL     1     -19.294  -4.417  -3.710  1.00  0.00     0.013 A 
HETATM    3  C3  UNL     1     -19.099  -2.977  -3.497  1.00  0.00    -0.024 A 
HETATM    4  C4  UNL     1     -19.605  -1.700  -3.356  1.00  0.00     0.042 A 
HETATM    5  C5  UNL     1     -18.789  -0.597  -3.145  1.00  0.00     0.043 A 
HETATM    6  N1  UNL     1     -19.299   0.652  -3.008  1.00  0.00    -0.365 N 
ATOM      7  H1  UNL     1     -20.308   0.785  -3.061  1.00  0.00     0.165 HD
HETATM    8  C6  UNL     1     -18.507   1.721  -2.804  1.00  0.00     0.088 A 
HETATM    9  C7  UNL     1     -17.151   1.561  -2.730  1.00  0.00     0.018 A 
HETATM   10  C8  UNL     1     -16.627   0.280  -2.871  1.00  0.00     0.015 A 
HETATM   11  C9  UNL     1     -17.437  -0.818  -3.080  1.00  0.00    -0.009 A 
HETATM   12  C10 UNL     1     -16.927  -2.099  -3.221  1.00  0.00     0.026 A 
HETATM   13  C11 UNL     1     -17.739  -3.196  -3.430  1.00  0.00    -0.025 A 
ENDROOT
TORSDOF 0
ENDMDL
MODEL 3
REMARK VINA RESULT: -7.311247806      1.613      4.652
REMARK  0 active torsions:
REMARK  status: ('A' for Active; 'I' for Inactive)
ROOT
HETATM    1  C1  UNL     1     -19.583  -1.223  -6.779  1.00  0.00     0.013 A 
HETATM    2  C2  UNL     1     -20.671  -1.590  -6.117  1.00  0.00     0.013 A 
HETATM    3  C3  UNL     1     -19.973  -1.431  -4.834  1.00  0.00    -0.024 A 
HETATM    4  C4  UNL     1     -19.960  -1.489  -3.455  1.00  0.00     0.042 A 
HETATM    5  C5  UNL     1     -18.832  -1.173  -2.710  1.00  0.00     0.043 A 
HETATM    6  N1  UNL     1     -18.831  -1.234  -1.356  1.00  0.00    -0.365 N 
ATOM      7  H1  UNL     1     -19.681  -1.521  -0.871  1.00  0.00     0.165 HD
HETATM    8  C6  UNL     1     -17.737  -0.927  -0.634  1.00  0.00     0.088 A 
HETATM    9  C7  UNL     1     -16.588  -0.541  -1.267  1.00  0.00     0.018 A 
HETATM   10  C8  UNL     1     -16.588  -0.479  -2.658  1.00  0.00     0.015 A 
HETATM   11  C9  UNL     1     -17.708  -0.793  -3.400  1.00  0.00    -0.009 A 
HETATM   12  C10 UNL     1     -17.721  -0.734  -4.784  1.00  0.00     0.026 A 
HETATM   13  C11 UNL     1     -18.842  -1.050  -5.525  1.00  0.00    -0.025 A 
ENDROOT
TORSDOF 0
ENDMDL
MODEL 4
REMARK VINA RESULT: -7.258663024      1.274      4.257
REMARK  0 active torsions:
REMARK  status: ('A' for Active; 'I' for Inactive)
ROOT
HETATM    1  C1  UNL     1     -20.864  -1.264  -6.091  1.00  0.00     0.013 A 
HETATM    2  C2  UNL     1     -19.676  -1.300  -6.675  1.00  0.00     0.013 A 
HETATM    3  C3  UNL     1     -19.009  -1.378  -5.368  1.00  0.00    -0.024 A 
HETATM    4  C4  UNL     1     -17.863  -1.461  -4.604  1.00  0.00     0.042 A 
HETATM    5  C5  UNL     1     -17.897  -1.509  -3.217  1.00  0.00     0.043 A 
HETATM    6  N1  UNL     1     -16.764  -1.589  -2.477  1.00  0.00    -0.365 N 
ATOM      7  H1  UNL     1     -15.861  -1.614  -2.952  1.00  0.00     0.165 HD
HETATM    8  C6  UNL     1     -16.798  -1.636  -1.132  1.00  0.00     0.088 A 
HETATM    9  C7  UNL     1     -17.999  -1.602  -0.479  1.00  0.00     0.018 A 
HETATM   10  C8  UNL     1     -19.163  -1.519  -1.238  1.00  0.00     0.015 A 
HETATM   11  C9  UNL     1     -19.130  -1.471  -2.617  1.00  0.00    -0.009 A 
HETATM   12  C10 UNL     1     -20.282  -1.389  -3.383  1.00  0.00     0.026 A 
HETATM   13  C11 UNL     1     -20.247  -1.341  -4.762  1.00  0.00    -0.025 A 
ENDROOT
TORSDOF 0
ENDMDL
MODEL 5
REMARK VINA RESULT: -7.204671532      1.636      4.635
REMARK  0 active torsions:
REMARK  status: ('A' for Active; 'I' for Inactive)
ROOT
HETATM    1  C1  UNL     1     -20.591  -1.629  -6.123  1.00  0.00     0.013 A 
HETATM    2  C2  UNL     1     -21.298  -0.762  -5.412  1.00  0.00     0.013 A 
HETATM    3  C3  UNL     1     -20.380  -0.909  -4.275  1.00  0.00    -0.024 A 
HETATM    4  C4  UNL     1     -19.993  -0.587  -2.990  1.00  0.00     0.042 A 
HETATM    5  C5  UNL     1     -18.870  -1.142  -2.391  1.00  0.00     0.043 A 
HETATM    6  N1  UNL     1     -18.501  -0.818  -1.128  1.00  0.00    -0.365 N 
ATOM      7  H1  UNL     1     -19.063  -0.149  -0.602  1.00  0.00     0.165 HD
HETATM    8  C6  UNL     1     -17.412  -1.357  -0.549  1.00  0.00     0.088 A 
HETATM    9  C7  UNL     1     -16.647  -2.256  -1.238  1.00  0.00     0.018 A 
HETATM   10  C8  UNL     1     -17.025  -2.590  -2.535  1.00  0.00     0.015 A 
HETATM   11  C9  UNL     1     -18.141  -2.039  -3.132  1.00  0.00    -0.009 A 
HETATM   12  C10 UNL     1     -18.528  -2.362  -4.422  1.00  0.00     0.026 A 
HETATM   13  C11 UNL     1     -19.645  -1.810  -5.017  1.00  0.00    -0.025 A 
ENDROOT
TORSDOF 0
ENDMDL
