MODEL 1
REMARK VINA RESULT: -7.532860014      0.000      0.000
REMARK  0 active torsions:
REMARK  status: ('A' for Active; 'I' for Inactive)
ROOT
HETATM    1  C1  UNL     1     -18.176  -1.528  -0.385  1.00  0.00     0.001 A 
HETATM    2  C2  UNL     1     -16.938  -1.663  -0.982  1.00  0.00     0.001 A 
HETATM    3  C3  UNL     1     -16.826  -1.679  -2.370  1.00  0.00     0.014 A 
HETATM    4  C4  UNL     1     -17.948  -1.561  -3.183  1.00  0.00     0.003 A 
HETATM    5  C5  UNL     1     -19.193  -1.425  -2.572  1.00  0.00    -0.011 A 
HETATM    6  C6  UNL     1     -19.295  -1.410  -1.182  1.00  0.00     0.013 A 
HETATM    7  C7  UNL     1     -19.767  -1.366  -3.905  1.00  0.00     0.003 A 
HETATM    8  C8  UNL     1     -20.845  -1.253  -4.760  1.00  0.00     0.016 A 
HETATM    9  C9  UNL     1     -20.706  -1.271  -6.130  1.00  0.00     0.018 A 
HETATM   10  C10 UNL     1     -19.464  -1.406  -6.708  1.00  0.00     0.088 A 
HETATM   11  N1  UNL     1     -18.406  -1.519  -5.865  1.00  0.00    -0.364 N 
ATOM     12  H1  UNL     1     -17.474  -1.621  -6.264  1.00  0.00     0.165 HD
HETATM   13  C11 UNL     1     -18.533  -1.501  -4.517  1.00  0.00     0.054 A 
ENDROOT
TORSDOF 0
ENDMDL
MODEL 2
REMARK VINA RESULT: -7.367590744      1.407      4.751
REMARK  0 active torsions:
REMARK  status: ('A' for Active; 'I' for Inactive)
ROOT
HETATM    1  C1  UNL     1     -19.581  -1.313  -6.772  1.00  0.00     0.001 A 
HETATM    2  C2  UNL     1     -20.792  -1.220  -6.117  1.00  0.00     0.001 A 
HETATM    3  C3  UNL     1     -20.839  -1.215  -4.726  1.00  0.00     0.014 A 
HETATM    4  C4  UNL     1     -19.677  -1.305  -3.967  1.00  0.00     0.003 A 
HETATM    5  C5  UNL     1     -18.458  -1.398  -4.637  1.00  0.00    -0.011 A 
HETATM    6  C6  UNL     1     -18.421  -1.401  -6.030  1.00  0.00     0.013 A 
HETATM    7  C7  UNL     1     -17.820  -1.446  -3.333  1.00  0.00     0.003 A 
HETATM    8  C8  UNL     1     -16.701  -1.531  -2.531  1.00  0.00     0.016 A 
HETATM    9  C9  UNL     1     -16.775  -1.524  -1.155  1.00  0.00     0.018 A 
HETATM   10  C10 UNL     1     -17.992  -1.431  -0.519  1.00  0.00     0.088 A 
HETATM   11  N1  UNL     1     -19.091  -1.348  -1.310  1.00  0.00    -0.364 N 
ATOM     12  H1  UNL     1     -20.006  -1.279  -0.866  1.00  0.00     0.165 HD
HETATM   13  C11 UNL     1     -19.028  -1.353  -2.662  1.00  0.00     0.054 A 
ENDROOT
TORSDOF 0
ENDMDL
MODEL 3
REMARK VINA RESULT: -7.319154849      1.159      4.337
REMARK  0 active torsions:
REMARK  status: ('A' for Active; 'I' for Inactive)
ROOT
HETATM    1  C1  UNL     1     -20.831  -1.177  -6.138  1.00  0.00     0.001 A 
HETATM    2  C2  UNL     1     -19.587  -1.358  -6.707  1.00  0.00     0.001 A 
HETATM    3  C3  UNL     1     -18.462  -1.515  -5.901  1.00  0.00     0.014 A 
HETATM    4  C4  UNL     1     -18.564  -1.495  -4.514  1.00  0.00     0.003 A 
HETATM    5  C5  UNL     1     -19.825  -1.313  -3.949  1.00  0.00    -0.011 A 
HETATM    6  C6  UNL     1     -20.944  -1.156  -4.763  1.00  0.00     0.013 A 
HETATM    7  C7  UNL     1     -19.181  -1.400  -2.649  1.00  0.00     0.003 A 
HETATM    8  C8  UNL     1     -19.223  -1.389  -1.269  1.00  0.00     0.016 A 
HETATM    9  C9  UNL     1     -18.095  -1.548  -0.495  1.00  0.00     0.018 A 
HETATM   10  C10 UNL     1     -16.861  -1.726  -1.080  1.00  0.00     0.088 A 
HETATM   11  N1  UNL     1     -16.823  -1.736  -2.436  1.00  0.00    -0.364 N 
ATOM     12  H1  UNL     1     -15.923  -1.865  -2.897  1.00  0.00     0.165 HD
HETATM   13  C11 UNL     1     -17.926  -1.581  -3.205  1.00  0.00     0.054 A 
ENDROOT
TORSDOF 0
ENDMDL
MODEL 4
REMARK VINA RESULT: -7.205879988      0.888      1.937
REMARK  0 active torsions:
REMARK  status: ('A' for Active; 'I' for Inactive)
ROOT
HETATM    1  C1  UNL     1     -16.967  -1.608  -0.942  1.00  0.00     0.001 A 
HETATM    2  C2  UNL     1     -18.235  -1.523  -0.402  1.00  0.00     0.001 A 
HETATM    3  C3  UNL     1     -19.347  -1.424  -1.234  1.00  0.00     0.014 A 
HETATM    4  C4  UNL     1     -19.210  -1.409  -2.617  1.00  0.00     0.003 A 
HETATM    5  C5  UNL     1     -17.927  -1.496  -3.154  1.00  0.00    -0.011 A 
HETATM    6  C6  UNL     1     -16.820  -1.594  -2.313  1.00  0.00     0.013 A 
HETATM    7  C7  UNL     1     -18.543  -1.426  -4.468  1.00  0.00     0.003 A 
HETATM    8  C8  UNL     1     -18.467  -1.407  -5.845  1.00  0.00     0.016 A 
HETATM    9  C9  UNL     1     -19.584  -1.309  -6.645  1.00  0.00     0.018 A 
HETATM   10  C10 UNL     1     -20.840  -1.224  -6.090  1.00  0.00     0.088 A 
HETATM   11  N1  UNL     1     -20.912  -1.242  -4.735  1.00  0.00    -0.364 N 
ATOM     12  H1  UNL     1     -21.829  -1.180  -4.295  1.00  0.00     0.165 HD
HETATM   13  C11 UNL     1     -19.820  -1.339  -3.940  1.00  0.00     0.054 A 
ENDROOT
TORSDOF 0
ENDMDL
MODEL 5
REMARK VINA RESULT: -7.045039283      1.450      4.280
REMARK  0 active torsions:
REMARK  status: ('A' for Active; 'I' for Inactive)
ROOT
HETATM    1  C1  UNL     1     -19.541  -1.588  -6.811  1.00  0.00     0.001 A 
HETATM    2  C2  UNL     1     -18.162  -1.545  -6.790  1.00  0.00     0.001 A 
HETATM    3  C3  UNL     1     -17.478  -1.551  -5.577  1.00  0.00     0.014 A 
HETATM    4  C4  UNL     1     -18.161  -1.599  -4.367  1.00  0.00     0.003 A 
HETATM    5  C5  UNL     1     -19.554  -1.643  -4.398  1.00  0.00    -0.011 A 
HETATM    6  C6  UNL     1     -20.230  -1.637  -5.616  1.00  0.00     0.013 A 
HETATM    7  C7  UNL     1     -19.519  -1.675  -2.946  1.00  0.00     0.003 A 
HETATM    8  C8  UNL     1     -20.144  -1.722  -1.717  1.00  0.00     0.016 A 
HETATM    9  C9  UNL     1     -19.443  -1.727  -0.531  1.00  0.00     0.018 A 
HETATM   10  C10 UNL     1     -18.067  -1.683  -0.529  1.00  0.00     0.088 A 
HETATM   11  N1  UNL     1     -17.456  -1.636  -1.739  1.00  0.00    -0.364 N 
ATOM     12  H1  UNL     1     -16.437  -1.602  -1.769  1.00  0.00     0.165 HD
HETATM   13  C11 UNL     1     -18.136  -1.631  -2.909  1.00  0.00     0.054 A 
ENDROOT
TORSDOF 0
ENDMDL
