MODEL 1
REMARK VINA RESULT: -6.824367867      0.000      0.000
REMARK  2 active torsions:
REMARK  status: ('A' for Active; 'I' for Inactive)
REMARK    1  A    between atoms: C2_2  and  C3_3 
REMARK    2  A    between atoms: C3_3  and  N1_4 
REMARK       I    between atoms: C4_6  and  N3_8 
ROOT
HETATM    1  N1  UNL     1      -3.055  -5.604  18.827  1.00  0.00    -0.361 N 
ATOM      2  H1  UNL     1      -2.667  -6.069  19.648  1.00  0.00     0.162 HD
HETATM    3  C4  UNL     1      -2.280  -4.862  18.114  1.00  0.00     0.186 C 
HETATM    4  N2  UNL     1      -0.913  -4.691  18.458  1.00  0.00    -0.064 NA
HETATM    5  N3  UNL     1      -2.732  -4.168  16.943  1.00  0.00    -0.356 N 
HETATM    6  C5  UNL     1      -2.227  -4.476  15.625  1.00  0.00     0.125 C 
HETATM    7  C6  UNL     1      -3.205  -3.757  14.719  1.00  0.00     0.021 C 
HETATM    8  C7  UNL     1      -3.420  -2.479  15.529  1.00  0.00     0.021 C 
HETATM    9  C8  UNL     1      -3.711  -3.109  16.898  1.00  0.00     0.125 C 
ENDROOT
BRANCH   1  10
HETATM   10  C3  UNL     1      -4.435  -5.803  18.515  1.00  0.00     0.148 C 
BRANCH  10  11
HETATM   11  C2  UNL     1      -4.642  -7.059  17.742  1.00  0.00    -0.018 C 
HETATM   12  C1  UNL     1      -5.827  -7.486  17.370  1.00  0.00     0.008 C 
ENDBRANCH  10  11
ENDBRANCH   1  10
TORSDOF 2
ENDMDL
MODEL 2
REMARK VINA RESULT: -6.623855476      1.277      1.709
REMARK  2 active torsions:
REMARK  status: ('A' for Active; 'I' for Inactive)
REMARK    1  A    between atoms: C2_2  and  C3_3 
REMARK    2  A    between atoms: C3_3  and  N1_4 
REMARK       I    between atoms: C4_6  and  N3_8 
ROOT
HETATM    1  N1  UNL     1      -4.584  -6.760  18.108  1.00  0.00    -0.361 N 
ATOM      2  H1  UNL     1      -4.542  -7.411  18.893  1.00  0.00     0.162 HD
HETATM    3  C4  UNL     1      -3.699  -5.827  18.033  1.00  0.00     0.186 C 
HETATM    4  N2  UNL     1      -2.684  -5.702  19.018  1.00  0.00    -0.064 NA
HETATM    5  N3  UNL     1      -3.676  -4.865  16.970  1.00  0.00    -0.356 N 
HETATM    6  C5  UNL     1      -2.586  -4.793  16.024  1.00  0.00     0.125 C 
HETATM    7  C6  UNL     1      -3.147  -3.897  14.939  1.00  0.00     0.021 C 
HETATM    8  C7  UNL     1      -3.906  -2.888  15.801  1.00  0.00     0.021 C 
HETATM    9  C8  UNL     1      -4.682  -3.870  16.691  1.00  0.00     0.125 C 
ENDROOT
BRANCH   1  10
HETATM   10  C3  UNL     1      -5.621  -6.921  17.139  1.00  0.00     0.148 C 
BRANCH  10  11
HETATM   11  C2  UNL     1      -6.969  -6.836  17.765  1.00  0.00    -0.018 C 
HETATM   12  C1  UNL     1      -7.509  -5.704  18.157  1.00  0.00     0.008 C 
ENDBRANCH  10  11
ENDBRANCH   1  10
TORSDOF 2
ENDMDL
MODEL 3
REMARK VINA RESULT: -6.340952932      1.146      4.026
REMARK  2 active torsions:
REMARK  status: ('A' for Active; 'I' for Inactive)
REMARK    1  A    between atoms: C2_2  and  C3_3 
REMARK    2  A    between atoms: C3_3  and  N1_4 
REMARK       I    between atoms: C4_6  and  N3_8 
ROOT
HETATM    1  N1  UNL     1      -1.948  -3.667  15.915  1.00  0.00    -0.361 N 
ATOM      2  H1  UNL     1      -1.130  -3.138  15.612  1.00  0.00     0.162 HD
HETATM    3  C4  UNL     1      -1.802  -4.559  16.833  1.00  0.00     0.186 C 
HETATM    4  N2  UNL     1      -0.530  -4.804  17.416  1.00  0.00    -0.064 NA
HETATM    5  N3  UNL     1      -2.890  -5.352  17.324  1.00  0.00    -0.356 N 
HETATM    6  C5  UNL     1      -3.354  -5.259  18.689  1.00  0.00     0.125 C 
HETATM    7  C6  UNL     1      -4.675  -5.999  18.642  1.00  0.00     0.021 C 
HETATM    8  C7  UNL     1      -4.302  -7.140  17.696  1.00  0.00     0.021 C 
HETATM    9  C8  UNL     1      -3.654  -6.318  16.572  1.00  0.00     0.125 C 
ENDROOT
BRANCH   1  10
HETATM   10  C3  UNL     1      -3.209  -3.389  15.303  1.00  0.00     0.148 C 
BRANCH  10  11
HETATM   11  C2  UNL     1      -4.000  -2.417  16.107  1.00  0.00    -0.018 C 
HETATM   12  C1  UNL     1      -3.802  -1.119  16.062  1.00  0.00     0.008 C 
ENDBRANCH  10  11
ENDBRANCH   1  10
TORSDOF 2
ENDMDL
MODEL 4
REMARK VINA RESULT: -6.280196102      1.036      4.042
REMARK  2 active torsions:
REMARK  status: ('A' for Active; 'I' for Inactive)
REMARK    1  A    between atoms: C2_2  and  C3_3 
REMARK    2  A    between atoms: C3_3  and  N1_4 
REMARK       I    between atoms: C4_6  and  N3_8 
ROOT
HETATM    1  N1  UNL     1      -2.355  -4.093  17.052  1.00  0.00    -0.361 N 
ATOM      2  H1  UNL     1      -1.459  -3.620  17.178  1.00  0.00     0.162 HD
HETATM    3  C4  UNL     1      -2.717  -4.970  17.923  1.00  0.00     0.186 C 
HETATM    4  N2  UNL     1      -1.892  -5.276  19.038  1.00  0.00    -0.064 NA
HETATM    5  N3  UNL     1      -3.955  -5.687  17.833  1.00  0.00    -0.356 N 
HETATM    6  C5  UNL     1      -5.003  -5.535  18.815  1.00  0.00     0.125 C 
HETATM    7  C6  UNL     1      -6.188  -6.196  18.141  1.00  0.00     0.021 C 
HETATM    8  C7  UNL     1      -5.483  -7.379  17.477  1.00  0.00     0.021 C 
HETATM    9  C8  UNL     1      -4.331  -6.623  16.801  1.00  0.00     0.125 C 
ENDROOT
BRANCH   1  10
HETATM   10  C3  UNL     1      -3.155  -3.755  15.918  1.00  0.00     0.148 C 
BRANCH  10  11
HETATM   11  C2  UNL     1      -4.125  -2.672  16.240  1.00  0.00    -0.018 C 
HETATM   12  C1  UNL     1      -3.853  -1.396  16.086  1.00  0.00     0.008 C 
ENDBRANCH  10  11
ENDBRANCH   1  10
TORSDOF 2
ENDMDL
MODEL 5
REMARK VINA RESULT: -6.188878132      1.812      4.563
REMARK  2 active torsions:
REMARK  status: ('A' for Active; 'I' for Inactive)
REMARK    1  A    between atoms: C2_2  and  C3_3 
REMARK    2  A    between atoms: C3_3  and  N1_4 
REMARK       I    between atoms: C4_6  and  N3_8 
ROOT
HETATM    1  N1  UNL     1      -2.423  -3.068  15.359  1.00  0.00    -0.361 N 
ATOM      2  H1  UNL     1      -2.197  -2.203  14.867  1.00  0.00     0.162 HD
HETATM    3  C4  UNL     1      -3.457  -3.088  16.127  1.00  0.00     0.186 C 
HETATM    4  N2  UNL     1      -4.269  -1.935  16.288  1.00  0.00    -0.064 NA
HETATM    5  N3  UNL     1      -3.854  -4.254  16.861  1.00  0.00    -0.356 N 
HETATM    6  C5  UNL     1      -5.100  -4.937  16.600  1.00  0.00     0.125 C 
HETATM    7  C6  UNL     1      -4.926  -6.242  17.350  1.00  0.00     0.021 C 
HETATM    8  C7  UNL     1      -4.206  -5.732  18.598  1.00  0.00     0.021 C 
HETATM    9  C8  UNL     1      -3.113  -4.896  17.920  1.00  0.00     0.125 C 
ENDROOT
BRANCH   1  10
HETATM   10  C3  UNL     1      -1.579  -4.205  15.170  1.00  0.00     0.148 C 
BRANCH  10  11
HETATM   11  C2  UNL     1      -0.141  -3.843  15.300  1.00  0.00    -0.018 C 
HETATM   12  C1  UNL     1       0.384  -2.774  14.743  1.00  0.00     0.008 C 
ENDBRANCH  10  11
ENDBRANCH   1  10
TORSDOF 2
ENDMDL
