MODEL 1
REMARK VINA RESULT: -6.777598759      0.000      0.000
REMARK  4 active torsions:
REMARK  status: ('A' for Active; 'I' for Inactive)
REMARK    1  A    between atoms: N1_1  and  N2_4 
REMARK    2  A    between atoms: N2_4  and  C1_5 
REMARK    3  A    between atoms: C1_5  and  C2_6 
REMARK    4  A    between atoms: C1_5  and  C3_9 
ROOT
HETATM    1  C1  UNL     1      -2.678  -5.202  16.764  1.00  0.00     0.176 C 
ENDROOT
BRANCH   1   2
HETATM    2  N2  UNL     1      -3.117  -6.274  17.210  1.00  0.00    -0.332 NA
BRANCH   2   3
HETATM    3  N1  UNL     1      -3.581  -7.274  17.798  1.00  0.00    -0.280 N 
ATOM      4  H12 UNL     1      -4.373  -7.168  17.164  1.00  0.00     0.191 HD
ATOM      5  H11 UNL     1      -3.850  -8.088  18.351  1.00  0.00     0.191 HD
ENDBRANCH   2   3
ENDBRANCH   1   2
BRANCH   1   6
HETATM    6  C2  UNL     1      -1.354  -4.745  17.128  1.00  0.00     0.293 C 
HETATM    7  N3  UNL     1      -1.004  -4.561  18.481  1.00  0.00    -0.055 NA
HETATM    8  O1  UNL     1      -0.512  -4.511  16.229  1.00  0.00    -0.268 OA
ENDBRANCH   1   6
BRANCH   1   9
HETATM    9  C3  UNL     1      -3.488  -4.385  15.867  1.00  0.00     0.057 A 
HETATM   10  C4  UNL     1      -4.816  -3.905  16.439  1.00  0.00     0.012 A 
HETATM   11  C5  UNL     1      -4.387  -2.469  16.390  1.00  0.00     0.002 A 
HETATM   12  C6  UNL     1      -3.055  -2.926  15.810  1.00  0.00     0.012 A 
ENDBRANCH   1   9
TORSDOF 4
ENDMDL
MODEL 2
REMARK VINA RESULT: -6.771003347      2.058      2.579
REMARK  4 active torsions:
REMARK  status: ('A' for Active; 'I' for Inactive)
REMARK    1  A    between atoms: N1_1  and  N2_4 
REMARK    2  A    between atoms: N2_4  and  C1_5 
REMARK    3  A    between atoms: C1_5  and  C2_6 
REMARK    4  A    between atoms: C1_5  and  C3_9 
ROOT
HETATM    1  C1  UNL     1      -2.127  -4.129  15.719  1.00  0.00     0.176 C 
ENDROOT
BRANCH   1   2
HETATM    2  N2  UNL     1      -1.062  -3.916  15.117  1.00  0.00    -0.332 NA
BRANCH   2   3
HETATM    3  N1  UNL     1       0.072  -3.666  14.657  1.00  0.00    -0.280 N 
ATOM      4  H12 UNL     1       0.099  -2.931  15.364  1.00  0.00     0.191 HD
ATOM      5  H11 UNL     1       0.977  -3.562  14.197  1.00  0.00     0.191 HD
ENDBRANCH   2   3
ENDBRANCH   1   2
BRANCH   1   6
HETATM    6  C2  UNL     1      -2.169  -5.057  16.828  1.00  0.00     0.293 C 
HETATM    7  N3  UNL     1      -1.488  -4.771  18.030  1.00  0.00    -0.055 NA
HETATM    8  O1  UNL     1      -2.816  -6.125  16.718  1.00  0.00    -0.268 OA
ENDBRANCH   1   6
BRANCH   1   9
HETATM    9  C3  UNL     1      -3.354  -3.447  15.319  1.00  0.00     0.057 A 
HETATM   10  C4  UNL     1      -4.340  -3.162  16.445  1.00  0.00     0.012 A 
HETATM   11  C5  UNL     1      -4.175  -1.679  16.295  1.00  0.00     0.002 A 
HETATM   12  C6  UNL     1      -3.193  -1.941  15.161  1.00  0.00     0.012 A 
ENDBRANCH   1   9
TORSDOF 4
ENDMDL
MODEL 3
REMARK VINA RESULT: -6.762608922      1.856      2.711
REMARK  4 active torsions:
REMARK  status: ('A' for Active; 'I' for Inactive)
REMARK    1  A    between atoms: N1_1  and  N2_4 
REMARK    2  A    between atoms: N2_4  and  C1_5 
REMARK    3  A    between atoms: C1_5  and  C2_6 
REMARK    4  A    between atoms: C1_5  and  C3_9 
ROOT
HETATM    1  C1  UNL     1      -3.315  -5.201  17.214  1.00  0.00     0.176 C 
ENDROOT
BRANCH   1   2
HETATM    2  N2  UNL     1      -2.168  -4.904  17.584  1.00  0.00    -0.332 NA
BRANCH   2   3
HETATM    3  N1  UNL     1      -1.083  -4.547  18.090  1.00  0.00    -0.280 N 
ATOM      4  H12 UNL     1      -1.090  -3.819  17.376  1.00  0.00     0.191 HD
ATOM      5  H11 UNL     1      -0.213  -4.357  18.589  1.00  0.00     0.191 HD
ENDBRANCH   2   3
ENDBRANCH   1   2
BRANCH   1   6
HETATM    6  C2  UNL     1      -4.022  -6.301  17.834  1.00  0.00     0.293 C 
HETATM    7  N3  UNL     1      -5.373  -6.162  18.216  1.00  0.00    -0.055 NA
HETATM    8  O1  UNL     1      -3.427  -7.386  18.033  1.00  0.00    -0.268 OA
ENDBRANCH   1   6
BRANCH   1   9
HETATM    9  C3  UNL     1      -3.970  -4.447  16.150  1.00  0.00     0.057 A 
HETATM   10  C4  UNL     1      -4.362  -3.018  16.506  1.00  0.00     0.012 A 
HETATM   11  C5  UNL     1      -3.404  -2.443  15.507  1.00  0.00     0.002 A 
HETATM   12  C6  UNL     1      -3.004  -3.863  15.130  1.00  0.00     0.012 A 
ENDBRANCH   1   9
TORSDOF 4
ENDMDL
MODEL 4
REMARK VINA RESULT: -6.758725871      1.606      2.541
REMARK  4 active torsions:
REMARK  status: ('A' for Active; 'I' for Inactive)
REMARK    1  A    between atoms: N1_1  and  N2_4 
REMARK    2  A    between atoms: N2_4  and  C1_5 
REMARK    3  A    between atoms: C1_5  and  C2_6 
REMARK    4  A    between atoms: C1_5  and  C3_9 
ROOT
HETATM    1  C1  UNL     1      -2.688  -5.087  17.082  1.00  0.00     0.176 C 
ENDROOT
BRANCH   1   2
HETATM    2  N2  UNL     1      -1.469  -4.874  17.180  1.00  0.00    -0.332 NA
BRANCH   2   3
HETATM    3  N1  UNL     1      -0.276  -4.593  17.423  1.00  0.00    -0.280 N 
ATOM      4  H12 UNL     1      -0.200  -4.437  16.418  1.00  0.00     0.191 HD
ATOM      5  H11 UNL     1       0.669  -4.389  17.749  1.00  0.00     0.191 HD
ENDBRANCH   2   3
ENDBRANCH   1   2
BRANCH   1   6
HETATM    6  C2  UNL     1      -3.349  -5.993  17.997  1.00  0.00     0.293 C 
HETATM    7  N3  UNL     1      -3.796  -7.256  17.559  1.00  0.00    -0.055 NA
HETATM    8  O1  UNL     1      -3.524  -5.649  19.190  1.00  0.00    -0.268 OA
ENDBRANCH   1   6
BRANCH   1   9
HETATM    9  C3  UNL     1      -3.475  -4.428  16.045  1.00  0.00     0.057 A 
HETATM   10  C4  UNL     1      -4.762  -3.766  16.521  1.00  0.00     0.012 A 
HETATM   11  C5  UNL     1      -4.258  -2.398  16.170  1.00  0.00     0.002 A 
HETATM   12  C6  UNL     1      -2.967  -3.040  15.680  1.00  0.00     0.012 A 
ENDBRANCH   1   9
TORSDOF 4
ENDMDL
MODEL 5
REMARK VINA RESULT: -6.635885969      1.961      2.767
REMARK  4 active torsions:
REMARK  status: ('A' for Active; 'I' for Inactive)
REMARK    1  A    between atoms: N1_1  and  N2_4 
REMARK    2  A    between atoms: N2_4  and  C1_5 
REMARK    3  A    between atoms: C1_5  and  C2_6 
REMARK    4  A    between atoms: C1_5  and  C3_9 
ROOT
HETATM    1  C1  UNL     1      -3.368  -5.095  17.240  1.00  0.00     0.176 C 
ENDROOT
BRANCH   1   2
HETATM    2  N2  UNL     1      -2.200  -4.826  17.564  1.00  0.00    -0.332 NA
BRANCH   2   3
HETATM    3  N1  UNL     1      -1.074  -4.573  18.042  1.00  0.00    -0.280 N 
ATOM      4  H12 UNL     1      -1.535  -4.669  18.947  1.00  0.00     0.191 HD
ATOM      5  H11 UNL     1      -0.112  -4.358  18.307  1.00  0.00     0.191 HD
ENDBRANCH   2   3
ENDBRANCH   1   2
BRANCH   1   6
HETATM    6  C2  UNL     1      -4.083  -6.166  17.903  1.00  0.00     0.293 C 
HETATM    7  N3  UNL     1      -3.548  -7.470  17.941  1.00  0.00    -0.055 NA
HETATM    8  O1  UNL     1      -5.186  -5.928  18.448  1.00  0.00    -0.268 OA
ENDBRANCH   1   6
BRANCH   1   9
HETATM    9  C3  UNL     1      -4.040  -4.339  16.190  1.00  0.00     0.057 A 
HETATM   10  C4  UNL     1      -4.312  -2.875  16.509  1.00  0.00     0.012 A 
HETATM   11  C5  UNL     1      -3.386  -2.405  15.428  1.00  0.00     0.002 A 
HETATM   12  C6  UNL     1      -3.106  -3.862  15.086  1.00  0.00     0.012 A 
ENDBRANCH   1   9
TORSDOF 4
ENDMDL
