MODEL 1
REMARK VINA RESULT: -7.412342750      0.000      0.000
REMARK  10 active torsions:
REMARK  status: ('A' for Active; 'I' for Inactive)
REMARK    1  A    between atoms: C2_2  and  C3_3 
REMARK    2  A    between atoms: C3_3  and  C4_4 
REMARK    3  A    between atoms: C4_4  and  C5_5 
REMARK    4  A    between atoms: C8_8  and  O1_9 
REMARK    5  A    between atoms: C9_11  and  O2_12 
REMARK    6  A    between atoms: O2_12  and  C10_13 
REMARK    7  A    between atoms: C14_20  and  N2_21 
REMARK    8  A    between atoms: C21_31  and  O3_32 
REMARK    9  A    between atoms: C23_35  and  O4_36 
REMARK   10  A    between atoms: C24_38  and  O5_39 
ROOT
HETATM    1  C4  UNL     1      28.568  -8.908 -15.502  1.00  0.00     0.002 C 
HETATM    2  C8  UNL     1      28.234 -10.082 -14.610  1.00  0.00     0.157 C 
HETATM    3  C9  UNL     1      28.456  -9.937 -13.138  1.00  0.00     0.152 C 
HETATM    4  C15 UNL     1      27.883  -8.667 -12.597  1.00  0.00     0.041 C 
HETATM    5  C16 UNL     1      28.392  -7.539 -13.400  1.00  0.00     0.008 C 
HETATM    6  C17 UNL     1      28.872  -6.460 -12.445  1.00  0.00    -0.006 C 
HETATM    7  C18 UNL     1      27.605  -6.246 -11.546  1.00  0.00     0.019 C 
HETATM    8  C19 UNL     1      29.900  -6.876 -11.463  1.00  0.00     0.015 C 
HETATM    9  C20 UNL     1      30.917  -5.840 -11.079  1.00  0.00     0.032 C 
HETATM   10  C21 UNL     1      30.550  -4.435 -11.415  1.00  0.00     0.121 C 
HETATM   11  C22 UNL     1      30.312  -4.420 -12.921  1.00  0.00     0.073 C 
HETATM   12  C23 UNL     1      29.013  -5.173 -13.139  1.00  0.00     0.093 C 
HETATM   13  C24 UNL     1      28.602  -5.301 -14.563  1.00  0.00     0.154 C 
HETATM   14  C25 UNL     1      29.141  -6.442 -15.341  1.00  0.00     0.045 C 
HETATM   15  C26 UNL     1      29.136  -7.800 -14.650  1.00  0.00    -0.026 C 
HETATM   16  C27 UNL     1      30.637  -8.055 -14.464  1.00  0.00     0.016 C 
ENDROOT
BRANCH   3  17
HETATM   17  O2  UNL     1      27.719 -10.993 -12.566  1.00  0.00    -0.374 OA
BRANCH  17  18
HETATM   18  C10 UNL     1      26.794 -10.633 -11.637  1.00  0.00     0.178 C 
HETATM   19  C11 UNL     1      27.096 -10.857 -10.204  1.00  0.00     0.266 C 
HETATM   20  N1  UNL     1      25.972 -10.389  -9.414  1.00  0.00    -0.073 N 
HETATM   21  C12 UNL     1      25.098  -9.518 -10.125  1.00  0.00     0.234 C 
ATOM     22  H12 UNL     1      25.456 -11.176  -9.021  1.00  0.00     0.277 HD
ATOM     23  H11 UNL     1      26.296  -9.951  -8.552  1.00  0.00     0.277 HD
HETATM   24  C13 UNL     1      24.415 -10.197 -11.297  1.00  0.00     0.063 C 
HETATM   25  C14 UNL     1      25.402 -11.177 -11.898  1.00  0.00     0.215 C 
BRANCH  25  26
HETATM   26  N2  UNL     1      25.159 -12.458 -11.354  1.00  0.00    -0.072 N 
ATOM     27  H23 UNL     1      25.566 -13.179 -11.949  1.00  0.00     0.274 HD
ATOM     28  H22 UNL     1      25.714 -12.594 -10.509  1.00  0.00     0.274 HD
ATOM     29  H21 UNL     1      24.177 -12.661 -11.169  1.00  0.00     0.274 HD
ENDBRANCH  25  26
ENDBRANCH  17  18
ENDBRANCH   3  17
BRANCH   2  30
HETATM   30  O1  UNL     1      28.917 -11.257 -14.870  1.00  0.00    -0.392 OA
ATOM     31  H1  UNL     1      28.839 -11.940 -14.215  1.00  0.00     0.210 HD
ENDBRANCH   2  30
BRANCH   1  32
HETATM   32  C3  UNL     1      27.373  -8.633 -16.331  1.00  0.00     0.039 C 
BRANCH  32  33
HETATM   33  C2  UNL     1      26.269  -9.610 -16.428  1.00  0.00    -0.036 C 
HETATM   34  C1  UNL     1      25.915 -10.062 -17.615  1.00  0.00     0.007 C 
ENDBRANCH  32  33
ENDBRANCH   1  32
BRANCH   1  35
HETATM   35  C5  UNL     1      29.619  -9.393 -16.536  1.00  0.00    -0.011 C 
HETATM   36  C6  UNL     1      29.406 -10.819 -16.970  1.00  0.00     0.010 C 
HETATM   37  C7  UNL     1      29.664  -8.654 -17.825  1.00  0.00     0.010 C 
ENDBRANCH   1  35
BRANCH  12  38
HETATM   38  O4  UNL     1      28.091  -4.162 -12.700  1.00  0.00    -0.386 OA
ATOM     39  H4  UNL     1      27.400  -3.967 -13.322  1.00  0.00     0.210 HD
ENDBRANCH  12  38
BRANCH  13  40
HETATM   40  O5  UNL     1      29.059  -4.115 -15.198  1.00  0.00    -0.392 OA
ATOM     41  H5  UNL     1      28.719  -4.154 -16.084  1.00  0.00     0.210 HD
ENDBRANCH  13  40
BRANCH  10  42
HETATM   42  O3  UNL     1      31.712  -3.653 -11.197  1.00  0.00    -0.395 OA
ATOM     43  H3  UNL     1      31.471  -2.982 -10.569  1.00  0.00     0.210 HD
ENDBRANCH  10  42
TORSDOF 10
ENDMDL
MODEL 2
REMARK VINA RESULT: -7.265039310      3.561      6.359
REMARK  10 active torsions:
REMARK  status: ('A' for Active; 'I' for Inactive)
REMARK    1  A    between atoms: C2_2  and  C3_3 
REMARK    2  A    between atoms: C3_3  and  C4_4 
REMARK    3  A    between atoms: C4_4  and  C5_5 
REMARK    4  A    between atoms: C8_8  and  O1_9 
REMARK    5  A    between atoms: C9_11  and  O2_12 
REMARK    6  A    between atoms: O2_12  and  C10_13 
REMARK    7  A    between atoms: C14_20  and  N2_21 
REMARK    8  A    between atoms: C21_31  and  O3_32 
REMARK    9  A    between atoms: C23_35  and  O4_36 
REMARK   10  A    between atoms: C24_38  and  O5_39 
ROOT
HETATM    1  C4  UNL     1      25.016 -10.670 -10.949  1.00  0.00     0.002 C 
HETATM    2  C8  UNL     1      25.471 -10.914  -9.528  1.00  0.00     0.157 C 
HETATM    3  C9  UNL     1      26.863 -11.421  -9.310  1.00  0.00     0.152 C 
HETATM    4  C15 UNL     1      27.881 -10.643 -10.079  1.00  0.00     0.041 C 
HETATM    5  C16 UNL     1      27.469 -10.595 -11.495  1.00  0.00     0.008 C 
HETATM    6  C17 UNL     1      28.675 -10.945 -12.348  1.00  0.00    -0.006 C 
HETATM    7  C18 UNL     1      29.740  -9.918 -11.828  1.00  0.00     0.019 C 
HETATM    8  C19 UNL     1      29.315 -12.250 -12.059  1.00  0.00     0.015 C 
HETATM    9  C20 UNL     1      29.912 -12.977 -13.230  1.00  0.00     0.032 C 
HETATM   10  C21 UNL     1      30.138 -12.145 -14.446  1.00  0.00     0.121 C 
HETATM   11  C22 UNL     1      28.774 -11.568 -14.810  1.00  0.00     0.073 C 
HETATM   12  C23 UNL     1      28.467 -10.535 -13.743  1.00  0.00     0.093 C 
HETATM   13  C24 UNL     1      27.150  -9.860 -13.895  1.00  0.00     0.154 C 
HETATM   14  C25 UNL     1      25.961 -10.514 -13.298  1.00  0.00     0.045 C 
HETATM   15  C26 UNL     1      26.126 -11.069 -11.889  1.00  0.00    -0.026 C 
HETATM   16  C27 UNL     1      26.026 -12.579 -12.141  1.00  0.00     0.016 C 
ENDROOT
BRANCH   3  17
HETATM   17  O2  UNL     1      27.112 -11.182  -7.944  1.00  0.00    -0.374 OA
BRANCH  17  18
HETATM   18  C10 UNL     1      27.432 -12.275  -7.202  1.00  0.00     0.178 C 
HETATM   19  C11 UNL     1      27.791 -13.533  -7.899  1.00  0.00     0.266 C 
HETATM   20  N1  UNL     1      28.098 -14.543  -6.906  1.00  0.00    -0.073 N 
HETATM   21  C12 UNL     1      28.364 -14.011  -5.612  1.00  0.00     0.234 C 
ATOM     22  H12 UNL     1      27.357 -15.243  -6.862  1.00  0.00     0.277 HD
ATOM     23  H11 UNL     1      28.870 -15.133  -7.218  1.00  0.00     0.277 HD
HETATM   24  C13 UNL     1      27.162 -13.309  -5.006  1.00  0.00     0.063 C 
HETATM   25  C14 UNL     1      26.415 -12.624  -6.132  1.00  0.00     0.215 C 
BRANCH  25  26
HETATM   26  N2  UNL     1      25.372 -13.471  -6.566  1.00  0.00    -0.072 N 
ATOM     27  H23 UNL     1      25.036 -13.178  -7.484  1.00  0.00     0.274 HD
ATOM     28  H22 UNL     1      25.739 -14.393  -6.800  1.00  0.00     0.274 HD
ATOM     29  H21 UNL     1      24.593 -13.554  -5.913  1.00  0.00     0.274 HD
ENDBRANCH  25  26
ENDBRANCH  17  18
ENDBRANCH   3  17
BRANCH   2  30
HETATM   30  O1  UNL     1      24.734 -11.833  -8.802  1.00  0.00    -0.392 OA
ATOM     31  H1  UNL     1      24.182 -11.477  -8.115  1.00  0.00     0.210 HD
ENDBRANCH   2  30
BRANCH   1  32
HETATM   32  C3  UNL     1      24.489  -9.289 -11.009  1.00  0.00     0.039 C 
BRANCH  32  33
HETATM   33  C2  UNL     1      25.302  -8.140 -10.560  1.00  0.00    -0.036 C 
HETATM   34  C1  UNL     1      25.769  -7.294 -11.457  1.00  0.00     0.007 C 
ENDBRANCH  32  33
ENDBRANCH   1  32
BRANCH   1  35
HETATM   35  C5  UNL     1      23.757 -11.546 -11.191  1.00  0.00    -0.011 C 
HETATM   36  C6  UNL     1      23.046 -11.922  -9.917  1.00  0.00     0.010 C 
HETATM   37  C7  UNL     1      22.677 -10.934 -12.008  1.00  0.00     0.010 C 
ENDBRANCH   1  35
BRANCH  12  38
HETATM   38  O4  UNL     1      29.342  -9.485 -14.187  1.00  0.00    -0.386 OA
ATOM     39  H4  UNL     1      29.372  -9.376 -15.130  1.00  0.00     0.210 HD
ENDBRANCH  12  38
BRANCH  13  40
HETATM   40  O5  UNL     1      26.921  -9.786 -15.296  1.00  0.00    -0.392 OA
ATOM     41  H5  UNL     1      26.135 -10.295 -15.451  1.00  0.00     0.210 HD
ENDBRANCH  13  40
BRANCH  10  42
HETATM   42  O3  UNL     1      30.473 -13.043 -15.490  1.00  0.00    -0.395 OA
ATOM     43  H3  UNL     1      31.069 -12.577 -16.064  1.00  0.00     0.210 HD
ENDBRANCH  10  42
TORSDOF 10
ENDMDL
MODEL 3
REMARK VINA RESULT: -7.252543180      1.415      1.710
REMARK  10 active torsions:
REMARK  status: ('A' for Active; 'I' for Inactive)
REMARK    1  A    between atoms: C2_2  and  C3_3 
REMARK    2  A    between atoms: C3_3  and  C4_4 
REMARK    3  A    between atoms: C4_4  and  C5_5 
REMARK    4  A    between atoms: C8_8  and  O1_9 
REMARK    5  A    between atoms: C9_11  and  O2_12 
REMARK    6  A    between atoms: O2_12  and  C10_13 
REMARK    7  A    between atoms: C14_20  and  N2_21 
REMARK    8  A    between atoms: C21_31  and  O3_32 
REMARK    9  A    between atoms: C23_35  and  O4_36 
REMARK   10  A    between atoms: C24_38  and  O5_39 
ROOT
HETATM    1  C4  UNL     1      28.588  -9.070 -15.787  1.00  0.00     0.002 C 
HETATM    2  C8  UNL     1      28.242 -10.297 -14.975  1.00  0.00     0.157 C 
HETATM    3  C9  UNL     1      28.459 -10.249 -13.495  1.00  0.00     0.152 C 
HETATM    4  C15 UNL     1      27.892  -9.012 -12.876  1.00  0.00     0.041 C 
HETATM    5  C16 UNL     1      28.412  -7.839 -13.602  1.00  0.00     0.008 C 
HETATM    6  C17 UNL     1      28.895  -6.827 -12.577  1.00  0.00    -0.006 C 
HETATM    7  C18 UNL     1      27.625  -6.662 -11.671  1.00  0.00     0.019 C 
HETATM    8  C19 UNL     1      29.916  -7.314 -11.620  1.00  0.00     0.015 C 
HETATM    9  C20 UNL     1      30.938  -6.311 -11.165  1.00  0.00     0.032 C 
HETATM   10  C21 UNL     1      30.582  -4.885 -11.411  1.00  0.00     0.121 C 
HETATM   11  C22 UNL     1      30.351  -4.771 -12.914  1.00  0.00     0.073 C 
HETATM   12  C23 UNL     1      29.048  -5.499 -13.186  1.00  0.00     0.093 C 
HETATM   13  C24 UNL     1      28.643  -5.532 -14.617  1.00  0.00     0.154 C 
HETATM   14  C25 UNL     1      29.178  -6.624 -15.464  1.00  0.00     0.045 C 
HETATM   15  C26 UNL     1      29.160  -8.023 -14.863  1.00  0.00    -0.026 C 
HETATM   16  C27 UNL     1      30.658  -8.301 -14.688  1.00  0.00     0.016 C 
ENDROOT
BRANCH   3  17
HETATM   17  O2  UNL     1      27.711 -11.335 -12.996  1.00  0.00    -0.374 OA
BRANCH  17  18
HETATM   18  C10 UNL     1      28.197 -11.917 -11.868  1.00  0.00     0.178 C 
HETATM   19  C11 UNL     1      29.363 -12.826 -11.978  1.00  0.00     0.266 C 
HETATM   20  N1  UNL     1      29.699 -13.312 -10.653  1.00  0.00    -0.073 N 
HETATM   21  C12 UNL     1      29.135 -12.537  -9.601  1.00  0.00     0.234 C 
ATOM     22  H12 UNL     1      29.443 -14.294 -10.554  1.00  0.00     0.277 HD
ATOM     23  H11 UNL     1      30.710 -13.388 -10.543  1.00  0.00     0.277 HD
HETATM   24  C13 UNL     1      27.618 -12.574  -9.588  1.00  0.00     0.063 C 
HETATM   25  C14 UNL     1      27.149 -12.622 -11.028  1.00  0.00     0.215 C 
BRANCH  25  26
HETATM   26  N2  UNL     1      26.918 -13.970 -11.386  1.00  0.00    -0.072 N 
ATOM     27  H23 UNL     1      27.650 -14.568 -11.002  1.00  0.00     0.274 HD
ATOM     28  H22 UNL     1      26.110 -14.336 -10.882  1.00  0.00     0.274 HD
ATOM     29  H21 UNL     1      26.816 -14.131 -12.387  1.00  0.00     0.274 HD
ENDBRANCH  25  26
ENDBRANCH  17  18
ENDBRANCH   3  17
BRANCH   2  30
HETATM   30  O1  UNL     1      28.918 -11.458 -15.308  1.00  0.00    -0.392 OA
ATOM     31  H1  UNL     1      29.602 -11.371 -15.961  1.00  0.00     0.210 HD
ENDBRANCH   2  30
BRANCH   1  32
HETATM   32  C3  UNL     1      27.399  -8.733 -16.602  1.00  0.00     0.039 C 
BRANCH  32  33
HETATM   33  C2  UNL     1      26.225  -9.629 -16.647  1.00  0.00    -0.036 C 
HETATM   34  C1  UNL     1      25.880 -10.177 -17.795  1.00  0.00     0.007 C 
ENDBRANCH  32  33
ENDBRANCH   1  32
BRANCH   1  35
HETATM   35  C5  UNL     1      29.641  -9.494 -16.846  1.00  0.00    -0.011 C 
HETATM   36  C6  UNL     1      29.436 -10.898 -17.352  1.00  0.00     0.010 C 
HETATM   37  C7  UNL     1      29.678  -8.690 -18.096  1.00  0.00     0.010 C 
ENDBRANCH   1  35
BRANCH  12  38
HETATM   38  O4  UNL     1      28.131  -4.512 -12.686  1.00  0.00    -0.386 OA
ATOM     39  H4  UNL     1      27.853  -3.874 -13.333  1.00  0.00     0.210 HD
ENDBRANCH  12  38
BRANCH  13  40
HETATM   40  O5  UNL     1      29.110  -4.310 -15.171  1.00  0.00    -0.392 OA
ATOM     41  H5  UNL     1      29.438  -4.533 -16.035  1.00  0.00     0.210 HD
ENDBRANCH  13  40
BRANCH  10  42
HETATM   42  O3  UNL     1      31.748  -4.127 -11.138  1.00  0.00    -0.395 OA
ATOM     43  H3  UNL     1      32.106  -3.872 -11.980  1.00  0.00     0.210 HD
ENDBRANCH  10  42
TORSDOF 10
ENDMDL
MODEL 4
REMARK VINA RESULT: -7.074159390      1.444      1.858
REMARK  10 active torsions:
REMARK  status: ('A' for Active; 'I' for Inactive)
REMARK    1  A    between atoms: C2_2  and  C3_3 
REMARK    2  A    between atoms: C3_3  and  C4_4 
REMARK    3  A    between atoms: C4_4  and  C5_5 
REMARK    4  A    between atoms: C8_8  and  O1_9 
REMARK    5  A    between atoms: C9_11  and  O2_12 
REMARK    6  A    between atoms: O2_12  and  C10_13 
REMARK    7  A    between atoms: C14_20  and  N2_21 
REMARK    8  A    between atoms: C21_31  and  O3_32 
REMARK    9  A    between atoms: C23_35  and  O4_36 
REMARK   10  A    between atoms: C24_38  and  O5_39 
ROOT
HETATM    1  C4  UNL     1      28.574  -9.838 -14.792  1.00  0.00     0.002 C 
HETATM    2  C8  UNL     1      27.330 -10.027 -13.953  1.00  0.00     0.157 C 
HETATM    3  C9  UNL     1      27.168  -9.179 -12.731  1.00  0.00     0.152 C 
HETATM    4  C15 UNL     1      27.424  -7.731 -13.002  1.00  0.00     0.041 C 
HETATM    5  C16 UNL     1      28.737  -7.599 -13.660  1.00  0.00     0.008 C 
HETATM    6  C17 UNL     1      29.504  -6.490 -12.962  1.00  0.00    -0.006 C 
HETATM    7  C18 UNL     1      28.486  -5.300 -13.044  1.00  0.00     0.019 C 
HETATM    8  C19 UNL     1      29.693  -6.655 -11.502  1.00  0.00     0.015 C 
HETATM    9  C20 UNL     1      30.976  -6.124 -10.929  1.00  0.00     0.032 C 
HETATM   10  C21 UNL     1      31.711  -5.164 -11.801  1.00  0.00     0.121 C 
HETATM   11  C22 UNL     1      31.975  -5.910 -13.105  1.00  0.00     0.073 C 
HETATM   12  C23 UNL     1      30.627  -6.028 -13.790  1.00  0.00     0.093 C 
HETATM   13  C24 UNL     1      30.652  -6.758 -15.086  1.00  0.00     0.154 C 
HETATM   14  C25 UNL     1      30.522  -8.234 -15.054  1.00  0.00     0.045 C 
HETATM   15  C26 UNL     1      29.451  -8.804 -14.132  1.00  0.00    -0.026 C 
HETATM   16  C27 UNL     1      30.305  -9.503 -13.067  1.00  0.00     0.016 C 
ENDROOT
BRANCH   3  17
HETATM   17  O2  UNL     1      25.803  -9.298 -12.401  1.00  0.00    -0.374 OA
BRANCH  17  18
HETATM   18  C10 UNL     1      25.535  -9.678 -11.124  1.00  0.00     0.178 C 
HETATM   19  C11 UNL     1      26.648  -9.738 -10.147  1.00  0.00     0.266 C 
HETATM   20  N1  UNL     1      26.118 -10.156  -8.864  1.00  0.00    -0.073 N 
HETATM   21  C12 UNL     1      24.705 -10.017  -8.757  1.00  0.00     0.234 C 
ATOM     22  H12 UNL     1      26.403 -11.112  -8.650  1.00  0.00     0.277 HD
ATOM     23  H11 UNL     1      26.587  -9.665  -8.103  1.00  0.00     0.277 HD
HETATM   24  C13 UNL     1      23.950 -10.905  -9.729  1.00  0.00     0.063 C 
HETATM   25  C14 UNL     1      24.759 -10.976 -11.008  1.00  0.00     0.215 C 
BRANCH  25  26
HETATM   26  N2  UNL     1      25.560 -12.139 -10.975  1.00  0.00    -0.072 N 
ATOM     27  H23 UNL     1      24.975 -12.970 -10.889  1.00  0.00     0.274 HD
ATOM     28  H22 UNL     1      25.974 -12.310 -11.891  1.00  0.00     0.274 HD
ATOM     29  H21 UNL     1      26.281 -12.137 -10.255  1.00  0.00     0.274 HD
ENDBRANCH  25  26
ENDBRANCH  17  18
ENDBRANCH   3  17
BRANCH   2  30
HETATM   30  O1  UNL     1      27.135 -11.293 -13.430  1.00  0.00    -0.392 OA
ATOM     31  H1  UNL     1      27.920 -11.770 -13.186  1.00  0.00     0.210 HD
ENDBRANCH   2  30
BRANCH   1  32
HETATM   32  C3  UNL     1      28.132  -9.617 -16.188  1.00  0.00     0.039 C 
BRANCH  32  33
HETATM   33  C2  UNL     1      26.697  -9.542 -16.532  1.00  0.00    -0.036 C 
HETATM   34  C1  UNL     1      26.278 -10.087 -17.658  1.00  0.00     0.007 C 
ENDBRANCH  32  33
ENDBRANCH   1  32
BRANCH   1  35
HETATM   35  C5  UNL     1      29.303 -11.207 -14.859  1.00  0.00    -0.011 C 
HETATM   36  C6  UNL     1      28.397 -12.373 -14.558  1.00  0.00     0.010 C 
HETATM   37  C7  UNL     1      29.896 -11.574 -16.171  1.00  0.00     0.010 C 
ENDBRANCH   1  35
BRANCH  12  38
HETATM   38  O4  UNL     1      30.496  -4.678 -14.262  1.00  0.00    -0.386 OA
ATOM     39  H4  UNL     1      29.744  -4.533 -14.824  1.00  0.00     0.210 HD
ENDBRANCH  12  38
BRANCH  13  40
HETATM   40  O5  UNL     1      31.918  -6.466 -15.661  1.00  0.00    -0.392 OA
ATOM     41  H5  UNL     1      32.407  -7.279 -15.621  1.00  0.00     0.210 HD
ENDBRANCH  13  40
BRANCH  10  42
HETATM   42  O3  UNL     1      32.980  -4.969 -11.201  1.00  0.00    -0.395 OA
ATOM     43  H3  UNL     1      33.443  -4.345 -11.748  1.00  0.00     0.210 HD
ENDBRANCH  10  42
TORSDOF 10
ENDMDL
MODEL 5
REMARK VINA RESULT: -7.016267642      2.809      5.951
REMARK  10 active torsions:
REMARK  status: ('A' for Active; 'I' for Inactive)
REMARK    1  A    between atoms: C2_2  and  C3_3 
REMARK    2  A    between atoms: C3_3  and  C4_4 
REMARK    3  A    between atoms: C4_4  and  C5_5 
REMARK    4  A    between atoms: C8_8  and  O1_9 
REMARK    5  A    between atoms: C9_11  and  O2_12 
REMARK    6  A    between atoms: O2_12  and  C10_13 
REMARK    7  A    between atoms: C14_20  and  N2_21 
REMARK    8  A    between atoms: C21_31  and  O3_32 
REMARK    9  A    between atoms: C23_35  and  O4_36 
REMARK   10  A    between atoms: C24_38  and  O5_39 
ROOT
HETATM    1  C4  UNL     1      28.334  -9.672 -15.954  1.00  0.00     0.002 C 
HETATM    2  C8  UNL     1      27.809  -8.312 -15.553  1.00  0.00     0.157 C 
HETATM    3  C9  UNL     1      27.591  -8.039 -14.098  1.00  0.00     0.152 C 
HETATM    4  C15 UNL     1      28.766  -8.433 -13.262  1.00  0.00     0.041 C 
HETATM    5  C16 UNL     1      29.117  -9.832 -13.570  1.00  0.00     0.008 C 
HETATM    6  C17 UNL     1      29.306 -10.571 -12.256  1.00  0.00    -0.006 C 
HETATM    7  C18 UNL     1      30.359  -9.662 -11.531  1.00  0.00     0.019 C 
HETATM    8  C19 UNL     1      28.155 -10.539 -11.325  1.00  0.00     0.015 C 
HETATM    9  C20 UNL     1      27.944 -11.763 -10.479  1.00  0.00     0.032 C 
HETATM   10  C21 UNL     1      29.115 -12.680 -10.388  1.00  0.00     0.121 C 
HETATM   11  C22 UNL     1      29.445 -13.072 -11.825  1.00  0.00     0.073 C 
HETATM   12  C23 UNL     1      30.036 -11.829 -12.463  1.00  0.00     0.093 C 
HETATM   13  C24 UNL     1      30.408 -11.985 -13.895  1.00  0.00     0.154 C 
HETATM   14  C25 UNL     1      29.359 -11.746 -14.915  1.00  0.00     0.045 C 
HETATM   15  C26 UNL     1      28.481 -10.518 -14.714  1.00  0.00    -0.026 C 
HETATM   16  C27 UNL     1      27.122 -11.161 -14.404  1.00  0.00     0.016 C 
ENDROOT
BRANCH   3  17
HETATM   17  O2  UNL     1      27.484  -6.636 -14.016  1.00  0.00    -0.374 OA
BRANCH  17  18
HETATM   18  C10 UNL     1      28.471  -6.008 -13.324  1.00  0.00     0.178 C 
HETATM   19  C11 UNL     1      28.127  -5.315 -12.060  1.00  0.00     0.266 C 
HETATM   20  N1  UNL     1      29.334  -4.734 -11.505  1.00  0.00    -0.073 N 
HETATM   21  C12 UNL     1      30.532  -5.280 -12.048  1.00  0.00     0.234 C 
ATOM     22  H12 UNL     1      29.324  -3.719 -11.603  1.00  0.00     0.277 HD
ATOM     23  H11 UNL     1      29.334  -4.806 -10.488  1.00  0.00     0.277 HD
HETATM   24  C13 UNL     1      30.686  -5.002 -13.532  1.00  0.00     0.063 C 
HETATM   25  C14 UNL     1      29.306  -5.051 -14.154  1.00  0.00     0.215 C 
BRANCH  25  26
HETATM   26  N2  UNL     1      28.794  -3.737 -14.228  1.00  0.00    -0.072 N 
ATOM     27  H23 UNL     1      27.775  -3.756 -14.285  1.00  0.00     0.274 HD
ATOM     28  H22 UNL     1      28.910  -3.261 -13.334  1.00  0.00     0.274 HD
ATOM     29  H21 UNL     1      29.182  -3.173 -14.983  1.00  0.00     0.274 HD
ENDBRANCH  25  26
ENDBRANCH  17  18
ENDBRANCH   3  17
BRANCH   2  30
HETATM   30  O1  UNL     1      26.580  -7.955 -16.080  1.00  0.00    -0.392 OA
ATOM     31  H1  UNL     1      26.521  -7.083 -16.452  1.00  0.00     0.210 HD
ENDBRANCH   2  30
BRANCH   1  32
HETATM   32  C3  UNL     1      29.518  -9.449 -16.813  1.00  0.00     0.039 C 
BRANCH  32  33
HETATM   33  C2  UNL     1      30.277  -8.181 -16.756  1.00  0.00    -0.036 C 
HETATM   34  C1  UNL     1      31.390  -8.131 -16.051  1.00  0.00     0.007 C 
ENDBRANCH  32  33
ENDBRANCH   1  32
BRANCH   1  35
HETATM   35  C5  UNL     1      27.300 -10.303 -16.925  1.00  0.00    -0.011 C 
HETATM   36  C6  UNL     1      26.013  -9.524 -17.004  1.00  0.00     0.010 C 
HETATM   37  C7  UNL     1      27.714 -10.410 -18.348  1.00  0.00     0.010 C 
ENDBRANCH   1  35
BRANCH  12  38
HETATM   38  O4  UNL     1      31.338 -11.863 -11.858  1.00  0.00    -0.386 OA
ATOM     39  H4  UNL     1      31.908 -12.542 -12.197  1.00  0.00     0.210 HD
ENDBRANCH  12  38
BRANCH  13  40
HETATM   40  O5  UNL     1      30.821 -13.337 -14.034  1.00  0.00    -0.392 OA
ATOM     41  H5  UNL     1      31.123 -13.600 -13.173  1.00  0.00     0.210 HD
ENDBRANCH  13  40
BRANCH  10  42
HETATM   42  O3  UNL     1      28.650 -13.863  -9.760  1.00  0.00    -0.395 OA
ATOM     43  H3  UNL     1      29.219 -14.013  -9.015  1.00  0.00     0.210 HD
ENDBRANCH  10  42
TORSDOF 10
ENDMDL
