MODEL 1
REMARK VINA RESULT: -7.131132580      0.000      0.000
REMARK  10 active torsions:
REMARK  status: ('A' for Active; 'I' for Inactive)
REMARK    1  A    between atoms: C2_2  and  O1_3 
REMARK    2  A    between atoms: C5_7  and  O2_8 
REMARK    3  A    between atoms: O2_8  and  C6_9 
REMARK    4  A    between atoms: C8_11  and  O3_12 
REMARK    5  A    between atoms: C9_14  and  C10_15 
REMARK    6  A    between atoms: C11_18  and  O6_19 
REMARK    7  A    between atoms: O6_19  and  C12_20 
REMARK    8  A    between atoms: C14_22  and  O7_23 
REMARK    9  A    between atoms: C16_26  and  O8_27 
REMARK   10  A    between atoms: C17_29  and  O9_30 
ROOT
HETATM    1  C6  UNL     1       9.579  19.359  82.872  1.00  0.00     0.155 C 
HETATM    2  C7  UNL     1       8.293  20.133  82.724  1.00  0.00     0.067 C 
HETATM    3  C8  UNL     1       7.172  19.115  82.652  1.00  0.00     0.137 C 
HETATM    4  C9  UNL     1       7.268  18.050  83.687  1.00  0.00     0.147 C 
HETATM    5  C11 UNL     1       8.272  18.366  84.753  1.00  0.00     0.170 C 
HETATM    6  C17 UNL     1       9.625  18.747  84.248  1.00  0.00     0.177 C 
ENDROOT
BRANCH   5   7
HETATM    7  O6  UNL     1       8.405  17.309  85.642  1.00  0.00    -0.374 OA
BRANCH   7   8
HETATM    8  C12 UNL     1       8.046  17.644  86.943  1.00  0.00     0.153 C 
HETATM    9  C13 UNL     1       8.926  17.008  87.975  1.00  0.00     0.066 C 
HETATM   10  C14 UNL     1       8.048  15.974  88.692  1.00  0.00     0.123 C 
HETATM   11  C15 UNL     1       6.677  16.606  88.599  1.00  0.00     0.066 C 
HETATM   12  C16 UNL     1       6.660  17.117  87.183  1.00  0.00     0.149 C 
BRANCH  10  13
HETATM   13  O7  UNL     1       8.032  14.805  87.922  1.00  0.00    -0.395 OA
ATOM     14  H7  UNL     1       8.343  14.090  88.464  1.00  0.00     0.210 HD
ENDBRANCH  10  13
BRANCH  12  15
HETATM   15  O8  UNL     1       5.749  18.158  87.016  1.00  0.00    -0.393 OA
ATOM     16  H8  UNL     1       4.889  17.859  87.289  1.00  0.00     0.210 HD
ENDBRANCH  12  15
ENDBRANCH   7   8
ENDBRANCH   5   7
BRANCH   4  17
HETATM   17  C10 UNL     1       7.450  16.741  83.051  1.00  0.00     0.182 C 
HETATM   18  O4  UNL     1       8.250  16.452  82.154  1.00  0.00    -0.648 OA
HETATM   19  O5  UNL     1       6.624  15.701  83.515  1.00  0.00    -0.648 OA
ENDBRANCH   4  17
BRANCH   6  20
HETATM   20  O9  UNL     1      10.489  17.651  84.261  1.00  0.00    -0.390 OA
ATOM     21  H9  UNL     1      10.544  17.287  85.136  1.00  0.00     0.210 HD
ENDBRANCH   6  20
BRANCH   3  22
HETATM   22  O3  UNL     1       5.974  19.854  82.756  1.00  0.00    -0.394 OA
ATOM     23  H3  UNL     1       5.304  19.320  82.347  1.00  0.00     0.210 HD
ENDBRANCH   3  22
BRANCH   1  24
HETATM   24  O2  UNL     1      10.695  20.022  82.495  1.00  0.00    -0.378 OA
BRANCH  24  25
HETATM   25  C5  UNL     1      11.421  19.540  81.461  1.00  0.00     0.125 C 
HETATM   26  C4  UNL     1      10.828  18.333  80.775  1.00  0.00     0.035 C 
HETATM   27  C3  UNL     1      12.002  17.623  80.131  1.00  0.00     0.040 C 
HETATM   28  C2  UNL     1      13.109  17.845  81.100  1.00  0.00     0.057 C 
HETATM   29  C1  UNL     1      14.401  18.229  80.373  1.00  0.00     0.045 C 
HETATM   30  C18 UNL     1      12.696  18.925  82.059  1.00  0.00     0.069 C 
BRANCH  28  31
HETATM   31  O1  UNL     1      13.375  16.628  81.748  1.00  0.00    -0.390 OA
ATOM     32  H1  UNL     1      13.260  16.794  82.676  1.00  0.00     0.210 HD
ENDBRANCH  28  31
ENDBRANCH  24  25
ENDBRANCH   1  24
TORSDOF 10
ENDMDL
MODEL 2
REMARK VINA RESULT: -6.991610244      1.294      2.210
REMARK  10 active torsions:
REMARK  status: ('A' for Active; 'I' for Inactive)
REMARK    1  A    between atoms: C2_2  and  O1_3 
REMARK    2  A    between atoms: C5_7  and  O2_8 
REMARK    3  A    between atoms: O2_8  and  C6_9 
REMARK    4  A    between atoms: C8_11  and  O3_12 
REMARK    5  A    between atoms: C9_14  and  C10_15 
REMARK    6  A    between atoms: C11_18  and  O6_19 
REMARK    7  A    between atoms: O6_19  and  C12_20 
REMARK    8  A    between atoms: C14_22  and  O7_23 
REMARK    9  A    between atoms: C16_26  and  O8_27 
REMARK   10  A    between atoms: C17_29  and  O9_30 
ROOT
HETATM    1  C6  UNL     1       9.855  18.043  82.059  1.00  0.00     0.155 C 
HETATM    2  C7  UNL     1      10.637  19.182  82.665  1.00  0.00     0.067 C 
HETATM    3  C8  UNL     1       9.635  20.088  83.352  1.00  0.00     0.137 C 
HETATM    4  C9  UNL     1       8.645  19.356  84.188  1.00  0.00     0.147 C 
HETATM    5  C11 UNL     1       9.020  17.922  84.409  1.00  0.00     0.170 C 
HETATM    6  C17 UNL     1       9.342  17.159  83.167  1.00  0.00     0.177 C 
ENDROOT
BRANCH   5   7
HETATM    7  O6  UNL     1       8.027  17.249  85.107  1.00  0.00    -0.374 OA
BRANCH   7   8
HETATM    8  C12 UNL     1       7.855  17.723  86.403  1.00  0.00     0.153 C 
HETATM    9  C13 UNL     1       8.840  17.144  87.373  1.00  0.00     0.066 C 
HETATM   10  C14 UNL     1       8.026  16.228  88.296  1.00  0.00     0.123 C 
HETATM   11  C15 UNL     1       6.679  16.916  88.316  1.00  0.00     0.066 C 
HETATM   12  C16 UNL     1       6.495  17.291  86.869  1.00  0.00     0.149 C 
BRANCH  10  13
HETATM   13  O7  UNL     1       7.866  14.994  87.656  1.00  0.00    -0.395 OA
ATOM     14  H7  UNL     1       8.697  14.535  87.686  1.00  0.00     0.210 HD
ENDBRANCH  10  13
BRANCH  12  15
HETATM   15  O8  UNL     1       5.609  18.356  86.717  1.00  0.00    -0.393 OA
ATOM     16  H8  UNL     1       5.074  18.201  85.947  1.00  0.00     0.210 HD
ENDBRANCH  12  15
ENDBRANCH   7   8
ENDBRANCH   5   7
BRANCH   4  17
HETATM   17  C10 UNL     1       7.291  19.554  83.660  1.00  0.00     0.182 C 
HETATM   18  O4  UNL     1       6.841  19.139  82.586  1.00  0.00    -0.648 OA
HETATM   19  O5  UNL     1       6.409  20.296  84.466  1.00  0.00    -0.648 OA
ENDBRANCH   4  17
BRANCH   6  20
HETATM   20  O9  UNL     1       8.237  16.429  82.729  1.00  0.00    -0.390 OA
ATOM     21  H9  UNL     1       8.396  15.498  82.832  1.00  0.00     0.210 HD
ENDBRANCH   6  20
BRANCH   3  22
HETATM   22  O3  UNL     1      10.399  21.003  84.107  1.00  0.00    -0.394 OA
ATOM     23  H3  UNL     1      10.550  21.748  83.537  1.00  0.00     0.210 HD
ENDBRANCH   3  22
BRANCH   1  24
HETATM   24  O2  UNL     1      10.471  17.400  81.043  1.00  0.00    -0.378 OA
BRANCH  24  25
HETATM   25  C5  UNL     1      11.568  17.961  80.487  1.00  0.00     0.125 C 
HETATM   26  C4  UNL     1      11.689  17.781  78.993  1.00  0.00     0.035 C 
HETATM   27  C3  UNL     1      13.170  17.903  78.694  1.00  0.00     0.040 C 
HETATM   28  C2  UNL     1      13.811  17.283  79.884  1.00  0.00     0.057 C 
HETATM   29  C1  UNL     1      14.995  18.126  80.367  1.00  0.00     0.045 C 
HETATM   30  C18 UNL     1      12.779  17.145  80.967  1.00  0.00     0.069 C 
BRANCH  28  31
HETATM   31  O1  UNL     1      14.348  16.045  79.497  1.00  0.00    -0.390 OA
ATOM     32  H1  UNL     1      13.858  15.774  78.730  1.00  0.00     0.210 HD
ENDBRANCH  28  31
ENDBRANCH  24  25
ENDBRANCH   1  24
TORSDOF 10
ENDMDL
MODEL 3
REMARK VINA RESULT: -6.974146698      1.374      2.094
REMARK  10 active torsions:
REMARK  status: ('A' for Active; 'I' for Inactive)
REMARK    1  A    between atoms: C2_2  and  O1_3 
REMARK    2  A    between atoms: C5_7  and  O2_8 
REMARK    3  A    between atoms: O2_8  and  C6_9 
REMARK    4  A    between atoms: C8_11  and  O3_12 
REMARK    5  A    between atoms: C9_14  and  C10_15 
REMARK    6  A    between atoms: C11_18  and  O6_19 
REMARK    7  A    between atoms: O6_19  and  C12_20 
REMARK    8  A    between atoms: C14_22  and  O7_23 
REMARK    9  A    between atoms: C16_26  and  O8_27 
REMARK   10  A    between atoms: C17_29  and  O9_30 
ROOT
HETATM    1  C6  UNL     1      10.143  18.828  82.051  1.00  0.00     0.155 C 
HETATM    2  C7  UNL     1      10.170  20.265  82.508  1.00  0.00     0.067 C 
HETATM    3  C8  UNL     1       8.745  20.638  82.870  1.00  0.00     0.137 C 
HETATM    4  C9  UNL     1       8.057  19.618  83.707  1.00  0.00     0.147 C 
HETATM    5  C11 UNL     1       8.996  18.588  84.255  1.00  0.00     0.170 C 
HETATM    6  C17 UNL     1       9.881  17.941  83.241  1.00  0.00     0.177 C 
ENDROOT
BRANCH   5   7
HETATM    7  O6  UNL     1       8.306  17.601  84.945  1.00  0.00    -0.374 OA
BRANCH   7   8
HETATM    8  C12 UNL     1       7.978  17.973  86.245  1.00  0.00     0.153 C 
HETATM    9  C13 UNL     1       8.853  17.327  87.276  1.00  0.00     0.066 C 
HETATM   10  C14 UNL     1       7.952  16.338  88.026  1.00  0.00     0.123 C 
HETATM   11  C15 UNL     1       6.602  17.014  87.941  1.00  0.00     0.066 C 
HETATM   12  C16 UNL     1       6.580  17.499  86.516  1.00  0.00     0.149 C 
BRANCH  10  13
HETATM   13  O7  UNL     1       7.885  15.156  87.280  1.00  0.00    -0.395 OA
ATOM     14  H7  UNL     1       7.909  15.386  86.359  1.00  0.00     0.210 HD
ENDBRANCH  10  13
BRANCH  12  15
HETATM   15  O8  UNL     1       5.702  18.567  86.342  1.00  0.00    -0.393 OA
ATOM     16  H8  UNL     1       4.909  18.395  86.837  1.00  0.00     0.210 HD
ENDBRANCH  12  15
ENDBRANCH   7   8
ENDBRANCH   5   7
BRANCH   4  17
HETATM   17  C10 UNL     1       6.904  19.066  82.986  1.00  0.00     0.182 C 
HETATM   18  O4  UNL     1       6.327  17.996  83.209  1.00  0.00    -0.648 OA
HETATM   19  O5  UNL     1       6.403  19.841  81.925  1.00  0.00    -0.648 OA
ENDBRANCH   4  17
BRANCH   6  20
HETATM   20  O9  UNL     1       9.352  16.719  82.825  1.00  0.00    -0.390 OA
ATOM     21  H9  UNL     1       9.050  16.219  83.575  1.00  0.00     0.210 HD
ENDBRANCH   6  20
BRANCH   3  22
HETATM   22  O3  UNL     1       8.829  21.890  83.515  1.00  0.00    -0.394 OA
ATOM     23  H3  UNL     1       8.409  22.511  82.931  1.00  0.00     0.210 HD
ENDBRANCH   3  22
BRANCH   1  24
HETATM   24  O2  UNL     1      11.180  18.455  81.268  1.00  0.00    -0.378 OA
BRANCH  24  25
HETATM   25  C5  UNL     1      12.360  18.150  81.852  1.00  0.00     0.125 C 
HETATM   26  C4  UNL     1      13.443  19.188  81.679  1.00  0.00     0.035 C 
HETATM   27  C3  UNL     1      14.749  18.433  81.832  1.00  0.00     0.040 C 
HETATM   28  C2  UNL     1      14.451  17.109  81.221  1.00  0.00     0.057 C 
HETATM   29  C1  UNL     1      15.004  15.972  82.087  1.00  0.00     0.045 C 
HETATM   30  C18 UNL     1      12.963  16.980  81.060  1.00  0.00     0.069 C 
BRANCH  28  31
HETATM   31  O1  UNL     1      15.131  17.029  79.996  1.00  0.00    -0.390 OA
ATOM     32  H1  UNL     1      15.829  17.671  80.041  1.00  0.00     0.210 HD
ENDBRANCH  28  31
ENDBRANCH  24  25
ENDBRANCH   1  24
TORSDOF 10
ENDMDL
MODEL 4
REMARK VINA RESULT: -6.943984216      1.306      1.713
REMARK  10 active torsions:
REMARK  status: ('A' for Active; 'I' for Inactive)
REMARK    1  A    between atoms: C2_2  and  O1_3 
REMARK    2  A    between atoms: C5_7  and  O2_8 
REMARK    3  A    between atoms: O2_8  and  C6_9 
REMARK    4  A    between atoms: C8_11  and  O3_12 
REMARK    5  A    between atoms: C9_14  and  C10_15 
REMARK    6  A    between atoms: C11_18  and  O6_19 
REMARK    7  A    between atoms: O6_19  and  C12_20 
REMARK    8  A    between atoms: C14_22  and  O7_23 
REMARK    9  A    between atoms: C16_26  and  O8_27 
REMARK   10  A    between atoms: C17_29  and  O9_30 
ROOT
HETATM    1  C6  UNL     1       9.354  19.375  82.763  1.00  0.00     0.155 C 
HETATM    2  C7  UNL     1       8.031  20.094  82.682  1.00  0.00     0.067 C 
HETATM    3  C8  UNL     1       6.950  19.031  82.698  1.00  0.00     0.137 C 
HETATM    4  C9  UNL     1       7.153  17.991  83.744  1.00  0.00     0.147 C 
HETATM    5  C11 UNL     1       8.208  18.368  84.739  1.00  0.00     0.170 C 
HETATM    6  C17 UNL     1       9.510  18.792  84.144  1.00  0.00     0.177 C 
ENDROOT
BRANCH   5   7
HETATM    7  O6  UNL     1       8.438  17.335  85.637  1.00  0.00    -0.374 OA
BRANCH   7   8
HETATM    8  C12 UNL     1       8.086  17.659  86.942  1.00  0.00     0.153 C 
HETATM    9  C13 UNL     1       8.964  17.004  87.964  1.00  0.00     0.066 C 
HETATM   10  C14 UNL     1       8.078  15.971  88.673  1.00  0.00     0.123 C 
HETATM   11  C15 UNL     1       6.713  16.617  88.592  1.00  0.00     0.066 C 
HETATM   12  C16 UNL     1       6.697  17.143  87.181  1.00  0.00     0.149 C 
BRANCH  10  13
HETATM   13  O7  UNL     1       8.049  14.811  87.891  1.00  0.00    -0.395 OA
ATOM     14  H7  UNL     1       8.822  14.298  88.095  1.00  0.00     0.210 HD
ENDBRANCH  10  13
BRANCH  12  15
HETATM   15  O8  UNL     1       5.795  18.194  87.029  1.00  0.00    -0.393 OA
ATOM     16  H8  UNL     1       5.238  18.234  87.797  1.00  0.00     0.210 HD
ENDBRANCH  12  15
ENDBRANCH   7   8
ENDBRANCH   5   7
BRANCH   4  17
HETATM   17  C10 UNL     1       7.349  16.678  83.120  1.00  0.00     0.182 C 
HETATM   18  O4  UNL     1       8.148  16.390  82.222  1.00  0.00    -0.648 OA
HETATM   19  O5  UNL     1       6.537  15.634  83.599  1.00  0.00    -0.648 OA
ENDBRANCH   4  17
BRANCH   6  20
HETATM   20  O9  UNL     1      10.417  17.732  84.121  1.00  0.00    -0.390 OA
ATOM     21  H9  UNL     1      10.245  17.168  83.376  1.00  0.00     0.210 HD
ENDBRANCH   6  20
BRANCH   3  22
HETATM   22  O3  UNL     1       5.732  19.725  82.865  1.00  0.00    -0.394 OA
ATOM     23  H3  UNL     1       5.942  20.496  83.379  1.00  0.00     0.210 HD
ENDBRANCH   3  22
BRANCH   1  24
HETATM   24  O2  UNL     1      10.417  20.073  82.305  1.00  0.00    -0.378 OA
BRANCH  24  25
HETATM   25  C5  UNL     1      10.917  19.774  81.086  1.00  0.00     0.125 C 
HETATM   26  C4  UNL     1      10.408  20.640  79.959  1.00  0.00     0.035 C 
HETATM   27  C3  UNL     1      10.570  19.802  78.706  1.00  0.00     0.040 C 
HETATM   28  C2  UNL     1      10.290  18.420  79.181  1.00  0.00     0.057 C 
HETATM   29  C1  UNL     1      11.309  17.430  78.608  1.00  0.00     0.045 C 
HETATM   30  C18 UNL     1      10.327  18.414  80.683  1.00  0.00     0.069 C 
BRANCH  28  31
HETATM   31  O1  UNL     1       9.041  18.028  78.675  1.00  0.00    -0.390 OA
ATOM     32  H1  UNL     1       8.657  18.807  78.289  1.00  0.00     0.210 HD
ENDBRANCH  28  31
ENDBRANCH  24  25
ENDBRANCH   1  24
TORSDOF 10
ENDMDL
MODEL 5
REMARK VINA RESULT: -6.773325987      1.953      7.163
REMARK  10 active torsions:
REMARK  status: ('A' for Active; 'I' for Inactive)
REMARK    1  A    between atoms: C2_2  and  O1_3 
REMARK    2  A    between atoms: C5_7  and  O2_8 
REMARK    3  A    between atoms: O2_8  and  C6_9 
REMARK    4  A    between atoms: C8_11  and  O3_12 
REMARK    5  A    between atoms: C9_14  and  C10_15 
REMARK    6  A    between atoms: C11_18  and  O6_19 
REMARK    7  A    between atoms: O6_19  and  C12_20 
REMARK    8  A    between atoms: C14_22  and  O7_23 
REMARK    9  A    between atoms: C16_26  and  O8_27 
REMARK   10  A    between atoms: C17_29  and  O9_30 
ROOT
HETATM    1  C6  UNL     1       6.777  17.589  83.461  1.00  0.00     0.155 C 
HETATM    2  C7  UNL     1       6.264  18.715  82.599  1.00  0.00     0.067 C 
HETATM    3  C8  UNL     1       7.188  19.896  82.821  1.00  0.00     0.137 C 
HETATM    4  C9  UNL     1       8.633  19.539  82.772  1.00  0.00     0.147 C 
HETATM    5  C11 UNL     1       8.872  18.164  82.230  1.00  0.00     0.170 C 
HETATM    6  C17 UNL     1       8.074  17.083  82.883  1.00  0.00     0.177 C 
ENDROOT
BRANCH   5   7
HETATM    7  O6  UNL     1      10.218  17.830  82.292  1.00  0.00    -0.374 OA
BRANCH   7   8
HETATM    8  C12 UNL     1      10.995  18.529  81.376  1.00  0.00     0.153 C 
HETATM    9  C13 UNL     1      11.299  17.735  80.142  1.00  0.00     0.066 C 
HETATM   10  C14 UNL     1      12.802  17.432  80.201  1.00  0.00     0.123 C 
HETATM   11  C15 UNL     1      13.338  18.638  80.939  1.00  0.00     0.066 C 
HETATM   12  C16 UNL     1      12.315  18.823  82.028  1.00  0.00     0.149 C 
BRANCH  10  13
HETATM   13  O7  UNL     1      12.989  16.313  81.020  1.00  0.00    -0.395 OA
ATOM     14  H7  UNL     1      13.785  15.874  80.743  1.00  0.00     0.210 HD
ENDBRANCH  10  13
BRANCH  12  15
HETATM   15  O8  UNL     1      12.297  20.131  82.509  1.00  0.00    -0.393 OA
ATOM     16  H8  UNL     1      12.414  20.727  81.779  1.00  0.00     0.210 HD
ENDBRANCH  12  15
ENDBRANCH   7   8
ENDBRANCH   5   7
BRANCH   4  17
HETATM   17  C10 UNL     1       9.262  19.797  84.072  1.00  0.00     0.182 C 
HETATM   18  O4  UNL     1       9.102  19.158  85.118  1.00  0.00    -0.648 OA
HETATM   19  O5  UNL     1      10.144  20.891  84.132  1.00  0.00    -0.648 OA
ENDBRANCH   4  17
BRANCH   6  20
HETATM   20  O9  UNL     1       8.822  16.436  83.867  1.00  0.00    -0.390 OA
ATOM     21  H9  UNL     1       9.603  16.938  84.068  1.00  0.00     0.210 HD
ENDBRANCH   6  20
BRANCH   3  22
HETATM   22  O3  UNL     1       6.840  20.847  81.838  1.00  0.00    -0.394 OA
ATOM     23  H3  UNL     1       5.972  21.154  82.071  1.00  0.00     0.210 HD
ENDBRANCH   3  22
BRANCH   1  24
HETATM   24  O2  UNL     1       5.867  16.636  83.763  1.00  0.00    -0.378 OA
BRANCH  24  25
HETATM   25  C5  UNL     1       5.654  16.329  85.062  1.00  0.00     0.125 C 
HETATM   26  C4  UNL     1       4.476  15.420  85.317  1.00  0.00     0.035 C 
HETATM   27  C3  UNL     1       4.056  15.700  86.746  1.00  0.00     0.040 C 
HETATM   28  C2  UNL     1       4.315  17.158  86.899  1.00  0.00     0.057 C 
HETATM   29  C1  UNL     1       4.996  17.453  88.238  1.00  0.00     0.045 C 
HETATM   30  C18 UNL     1       5.173  17.614  85.753  1.00  0.00     0.069 C 
BRANCH  28  31
HETATM   31  O1  UNL     1       3.078  17.820  86.938  1.00  0.00    -0.390 OA
ATOM     32  H1  UNL     1       3.095  18.450  86.226  1.00  0.00     0.210 HD
ENDBRANCH  28  31
ENDBRANCH  24  25
ENDBRANCH   1  24
TORSDOF 10
ENDMDL
