MODEL 1
REMARK VINA RESULT: -7.939996149      0.000      0.000
REMARK  8 active torsions:
REMARK  status: ('A' for Active; 'I' for Inactive)
REMARK    1  A    between atoms: N1_1  and  N2_4 
REMARK    2  A    between atoms: C1_6  and  C2_8 
REMARK    3  A    between atoms: C5_11  and  S1_12 
REMARK    4  A    between atoms: S1_12  and  N4_15 
REMARK    5  A    between atoms: N4_15  and  C6_17 
REMARK    6  A    between atoms: C9_20  and  S2_21 
REMARK    7  A    between atoms: S2_21  and  N5_22 
REMARK    8  A    between atoms: C13_30  and  O5_31 
ROOT
HETATM    1  S1  UNL     1       4.783  16.518  87.573  1.00  0.00     0.263 S 
HETATM    2  O1  UNL     1       4.296  17.641  88.451  1.00  0.00    -0.200 OA
HETATM    3  O2  UNL     1       3.603  15.719  87.054  1.00  0.00    -0.200 OA
ENDROOT
BRANCH   1   4
HETATM    4  C5  UNL     1       5.527  17.260  86.151  1.00  0.00     0.082 A 
HETATM    5  C4  UNL     1       5.696  18.612  86.042  1.00  0.00     0.026 A 
HETATM    6  C3  UNL     1       6.299  19.161  84.909  1.00  0.00     0.019 A 
HETATM    7  C2  UNL     1       6.733  18.374  83.889  1.00  0.00     0.040 A 
HETATM    8  C13 UNL     1       6.558  17.015  84.013  1.00  0.00     0.080 A 
HETATM    9  C12 UNL     1       5.971  16.439  85.107  1.00  0.00     0.062 A 
BRANCH   7  10
HETATM   10  C1  UNL     1       7.384  18.893  82.654  1.00  0.00     0.143 C 
HETATM   11  N2  UNL     1       8.480  18.524  82.401  1.00  0.00    -0.294 N 
ATOM     12  H2  UNL     1       8.759  17.867  83.128  1.00  0.00     0.187 HD
HETATM   13  N3  UNL     1       6.611  19.821  81.894  1.00  0.00    -0.080 NA
BRANCH  11  14
HETATM   14  N1  UNL     1       9.523  18.628  81.516  1.00  0.00    -0.344 N 
ATOM     15  H12 UNL     1       9.448  19.560  81.108  1.00  0.00     0.176 HD
ATOM     16  H11 UNL     1      10.330  18.148  81.115  1.00  0.00     0.176 HD
ENDBRANCH  11  14
ENDBRANCH   7  10
BRANCH   8  17
HETATM   17  O5  UNL     1       7.008  16.203  82.950  1.00  0.00    -0.360 OA
ATOM     18  H5  UNL     1       6.769  16.465  82.068  1.00  0.00     0.217 HD
ENDBRANCH   8  17
ENDBRANCH   1   4
BRANCH   1  19
HETATM   19  N4  UNL     1       5.931  15.516  88.328  1.00  0.00    -0.281 N 
ATOM     20  H4  UNL     1       5.717  14.528  88.464  1.00  0.00     0.179 HD
BRANCH  19  21
HETATM   21  C6  UNL     1       7.183  16.024  88.776  1.00  0.00     0.042 A 
HETATM   22  C7  UNL     1       8.219  16.321  87.922  1.00  0.00     0.031 A 
HETATM   23  C8  UNL     1       9.422  16.802  88.395  1.00  0.00     0.027 A 
HETATM   24  C9  UNL     1       9.618  17.001  89.764  1.00  0.00     0.079 A 
HETATM   25  C10 UNL     1       8.592  16.711  90.647  1.00  0.00     0.027 A 
HETATM   26  C11 UNL     1       7.410  16.234  90.137  1.00  0.00     0.031 A 
BRANCH  24  27
HETATM   27  S2  UNL     1      11.151  17.587  90.359  1.00  0.00     0.256 S 
HETATM   28  O3  UNL     1      11.110  17.736  91.849  1.00  0.00    -0.201 OA
HETATM   29  O4  UNL     1      11.518  18.902  89.692  1.00  0.00    -0.201 OA
BRANCH  27  30
HETATM   30  N5  UNL     1      12.402  16.472  89.964  1.00  0.00    -0.324 N 
ATOM     31  H52 UNL     1      12.302  15.713  89.289  1.00  0.00     0.169 HD
ATOM     32  H51 UNL     1      13.243  16.685  90.501  1.00  0.00     0.169 HD
ENDBRANCH  27  30
ENDBRANCH  24  27
ENDBRANCH  19  21
ENDBRANCH   1  19
TORSDOF 8
ENDMDL
MODEL 2
REMARK VINA RESULT: -7.629005546      1.332      1.755
REMARK  8 active torsions:
REMARK  status: ('A' for Active; 'I' for Inactive)
REMARK    1  A    between atoms: N1_1  and  N2_4 
REMARK    2  A    between atoms: C1_6  and  C2_8 
REMARK    3  A    between atoms: C5_11  and  S1_12 
REMARK    4  A    between atoms: S1_12  and  N4_15 
REMARK    5  A    between atoms: N4_15  and  C6_17 
REMARK    6  A    between atoms: C9_20  and  S2_21 
REMARK    7  A    between atoms: S2_21  and  N5_22 
REMARK    8  A    between atoms: C13_30  and  O5_31 
ROOT
HETATM    1  S1  UNL     1       5.304  16.909  86.683  1.00  0.00     0.263 S 
HETATM    2  O1  UNL     1       4.901  18.264  87.203  1.00  0.00    -0.200 OA
HETATM    3  O2  UNL     1       4.101  16.210  86.080  1.00  0.00    -0.200 OA
ENDROOT
BRANCH   1   4
HETATM    4  C5  UNL     1       6.426  17.183  85.345  1.00  0.00     0.082 A 
HETATM    5  C4  UNL     1       6.674  16.229  84.398  1.00  0.00     0.026 A 
HETATM    6  C3  UNL     1       7.558  16.487  83.348  1.00  0.00     0.019 A 
HETATM    7  C2  UNL     1       8.193  17.685  83.238  1.00  0.00     0.040 A 
HETATM    8  C13 UNL     1       7.933  18.636  84.198  1.00  0.00     0.080 A 
HETATM    9  C12 UNL     1       7.073  18.421  85.242  1.00  0.00     0.062 A 
BRANCH   7  10
HETATM   10  C1  UNL     1       9.147  18.025  82.145  1.00  0.00     0.143 C 
HETATM   11  N2  UNL     1      10.253  17.611  82.217  1.00  0.00    -0.294 N 
ATOM     12  H2  UNL     1      10.317  17.054  83.069  1.00  0.00     0.187 HD
HETATM   13  N3  UNL     1       8.623  18.852  81.107  1.00  0.00    -0.080 NA
BRANCH  11  14
HETATM   14  N1  UNL     1      11.483  17.582  81.610  1.00  0.00    -0.344 N 
ATOM     15  H12 UNL     1      11.556  18.456  81.091  1.00  0.00     0.176 HD
ATOM     16  H11 UNL     1      12.337  17.038  81.478  1.00  0.00     0.176 HD
ENDBRANCH  11  14
ENDBRANCH   7  10
BRANCH   8  17
HETATM   17  O5  UNL     1       8.597  19.876  84.080  1.00  0.00    -0.360 OA
ATOM     18  H5  UNL     1       8.136  20.649  84.383  1.00  0.00     0.217 HD
ENDBRANCH   8  17
ENDBRANCH   1   4
BRANCH   1  19
HETATM   19  N4  UNL     1       6.072  15.936  87.848  1.00  0.00    -0.281 N 
ATOM     20  H4  UNL     1       5.638  15.056  88.126  1.00  0.00     0.179 HD
BRANCH  19  21
HETATM   21  C6  UNL     1       7.306  16.322  88.443  1.00  0.00     0.042 A 
HETATM   22  C7  UNL     1       8.436  16.599  87.711  1.00  0.00     0.031 A 
HETATM   23  C8  UNL     1       9.616  16.959  88.326  1.00  0.00     0.027 A 
HETATM   24  C9  UNL     1       9.694  17.053  89.718  1.00  0.00     0.079 A 
HETATM   25  C10 UNL     1       8.570  16.780  90.481  1.00  0.00     0.027 A 
HETATM   26  C11 UNL     1       7.414  16.424  89.831  1.00  0.00     0.031 A 
BRANCH  24  27
HETATM   27  S2  UNL     1      11.197  17.486  90.491  1.00  0.00     0.256 S 
HETATM   28  O3  UNL     1      11.045  17.456  91.982  1.00  0.00    -0.201 OA
HETATM   29  O4  UNL     1      11.668  18.852  90.022  1.00  0.00    -0.201 OA
BRANCH  27  30
HETATM   30  N5  UNL     1      12.429  16.366  90.054  1.00  0.00    -0.324 N 
ATOM     31  H52 UNL     1      12.255  15.394  89.797  1.00  0.00     0.169 HD
ATOM     32  H51 UNL     1      13.343  16.819  90.091  1.00  0.00     0.169 HD
ENDBRANCH  27  30
ENDBRANCH  24  27
ENDBRANCH  19  21
ENDBRANCH   1  19
TORSDOF 8
ENDMDL
MODEL 3
REMARK VINA RESULT: -7.506876265      1.505      1.833
REMARK  8 active torsions:
REMARK  status: ('A' for Active; 'I' for Inactive)
REMARK    1  A    between atoms: N1_1  and  N2_4 
REMARK    2  A    between atoms: C1_6  and  C2_8 
REMARK    3  A    between atoms: C5_11  and  S1_12 
REMARK    4  A    between atoms: S1_12  and  N4_15 
REMARK    5  A    between atoms: N4_15  and  C6_17 
REMARK    6  A    between atoms: C9_20  and  S2_21 
REMARK    7  A    between atoms: S2_21  and  N5_22 
REMARK    8  A    between atoms: C13_30  and  O5_31 
ROOT
HETATM    1  S1  UNL     1       4.802  16.998  87.496  1.00  0.00     0.263 S 
HETATM    2  O1  UNL     1       4.442  17.741  88.756  1.00  0.00    -0.200 OA
HETATM    3  O2  UNL     1       3.575  16.307  86.935  1.00  0.00    -0.200 OA
ENDROOT
BRANCH   1   4
HETATM    4  C5  UNL     1       5.265  18.213  86.297  1.00  0.00     0.082 A 
HETATM    5  C4  UNL     1       4.414  19.208  85.905  1.00  0.00     0.026 A 
HETATM    6  C3  UNL     1       4.820  20.156  84.964  1.00  0.00     0.019 A 
HETATM    7  C2  UNL     1       6.063  20.118  84.415  1.00  0.00     0.040 A 
HETATM    8  C13 UNL     1       6.909  19.111  84.819  1.00  0.00     0.080 A 
HETATM    9  C12 UNL     1       6.549  18.164  85.739  1.00  0.00     0.062 A 
BRANCH   7  10
HETATM   10  C1  UNL     1       6.559  21.097  83.408  1.00  0.00     0.143 C 
HETATM   11  N2  UNL     1       7.130  22.059  83.795  1.00  0.00    -0.294 N 
ATOM     12  H2  UNL     1       7.178  21.999  84.812  1.00  0.00     0.187 HD
HETATM   13  N3  UNL     1       6.272  20.780  82.046  1.00  0.00    -0.080 NA
BRANCH  11  14
HETATM   14  N1  UNL     1       7.754  23.222  83.420  1.00  0.00    -0.344 N 
ATOM     15  H12 UNL     1       7.298  23.514  82.555  1.00  0.00     0.176 HD
ATOM     16  H11 UNL     1       8.480  23.897  83.663  1.00  0.00     0.176 HD
ENDBRANCH  11  14
ENDBRANCH   7  10
BRANCH   8  17
HETATM   17  O5  UNL     1       8.198  19.076  84.244  1.00  0.00    -0.360 OA
ATOM     18  H5  UNL     1       8.293  18.622  83.415  1.00  0.00     0.217 HD
ENDBRANCH   8  17
ENDBRANCH   1   4
BRANCH   1  19
HETATM   19  N4  UNL     1       6.094  15.910  87.696  1.00  0.00    -0.281 N 
ATOM     20  H4  UNL     1       5.994  14.952  87.360  1.00  0.00     0.179 HD
BRANCH  19  21
HETATM   21  C6  UNL     1       7.310  16.305  88.321  1.00  0.00     0.042 A 
HETATM   22  C7  UNL     1       8.438  16.649  87.614  1.00  0.00     0.031 A 
HETATM   23  C8  UNL     1       9.601  17.017  88.257  1.00  0.00     0.027 A 
HETATM   24  C9  UNL     1       9.663  17.049  89.652  1.00  0.00     0.079 A 
HETATM   25  C10 UNL     1       8.542  16.708  90.390  1.00  0.00     0.027 A 
HETATM   26  C11 UNL     1       7.403  16.347  89.713  1.00  0.00     0.031 A 
BRANCH  24  27
HETATM   27  S2  UNL     1      11.146  17.492  90.460  1.00  0.00     0.256 S 
HETATM   28  O3  UNL     1      10.962  17.453  91.946  1.00  0.00    -0.201 OA
HETATM   29  O4  UNL     1      11.615  18.864  90.007  1.00  0.00    -0.201 OA
BRANCH  27  30
HETATM   30  N5  UNL     1      12.397  16.384  90.043  1.00  0.00    -0.324 N 
ATOM     31  H52 UNL     1      13.238  16.234  90.601  1.00  0.00     0.169 HD
ATOM     32  H51 UNL     1      12.169  15.911  89.169  1.00  0.00     0.169 HD
ENDBRANCH  27  30
ENDBRANCH  24  27
ENDBRANCH  19  21
ENDBRANCH   1  19
TORSDOF 8
ENDMDL
MODEL 4
REMARK VINA RESULT: -7.457032593      3.820      7.731
REMARK  8 active torsions:
REMARK  status: ('A' for Active; 'I' for Inactive)
REMARK    1  A    between atoms: N1_1  and  N2_4 
REMARK    2  A    between atoms: C1_6  and  C2_8 
REMARK    3  A    between atoms: C5_11  and  S1_12 
REMARK    4  A    between atoms: S1_12  and  N4_15 
REMARK    5  A    between atoms: N4_15  and  C6_17 
REMARK    6  A    between atoms: C9_20  and  S2_21 
REMARK    7  A    between atoms: S2_21  and  N5_22 
REMARK    8  A    between atoms: C13_30  and  O5_31 
ROOT
HETATM    1  S1  UNL     1       8.134  18.969  83.457  1.00  0.00     0.263 S 
HETATM    2  O1  UNL     1       8.980  20.011  84.140  1.00  0.00    -0.200 OA
HETATM    3  O2  UNL     1       9.018  18.020  82.672  1.00  0.00    -0.200 OA
ENDROOT
BRANCH   1   4
HETATM    4  C5  UNL     1       7.387  17.995  84.729  1.00  0.00     0.082 A 
HETATM    5  C4  UNL     1       7.589  18.254  86.056  1.00  0.00     0.026 A 
HETATM    6  C3  UNL     1       6.973  17.470  87.032  1.00  0.00     0.019 A 
HETATM    7  C2  UNL     1       6.160  16.434  86.695  1.00  0.00     0.040 A 
HETATM    8  C13 UNL     1       5.965  16.184  85.356  1.00  0.00     0.080 A 
HETATM    9  C12 UNL     1       6.551  16.930  84.369  1.00  0.00     0.062 A 
BRANCH   7  10
HETATM   10  C1  UNL     1       5.471  15.558  87.685  1.00  0.00     0.143 C 
HETATM   11  N2  UNL     1       6.090  14.681  88.183  1.00  0.00    -0.294 N 
ATOM     12  H2  UNL     1       7.039  14.725  87.812  1.00  0.00     0.187 HD
HETATM   13  N3  UNL     1       4.097  15.861  87.924  1.00  0.00    -0.080 NA
BRANCH  11  14
HETATM   14  N1  UNL     1       6.039  13.628  89.062  1.00  0.00    -0.344 N 
ATOM     15  H12 UNL     1       6.455  13.971  89.928  1.00  0.00     0.176 HD
ATOM     16  H11 UNL     1       5.752  12.657  89.186  1.00  0.00     0.176 HD
ENDBRANCH  11  14
ENDBRANCH   7  10
BRANCH   8  17
HETATM   17  O5  UNL     1       5.122  15.105  85.013  1.00  0.00    -0.360 OA
ATOM     18  H5  UNL     1       5.003  14.920  84.088  1.00  0.00     0.217 HD
ENDBRANCH   8  17
ENDBRANCH   1   4
BRANCH   1  19
HETATM   19  N4  UNL     1       6.905  19.627  82.482  1.00  0.00    -0.281 N 
ATOM     20  H4  UNL     1       7.059  19.713  81.477  1.00  0.00     0.179 HD
BRANCH  19  21
HETATM   21  C6  UNL     1       5.667  20.058  83.035  1.00  0.00     0.042 A 
HETATM   22  C7  UNL     1       4.457  19.504  82.687  1.00  0.00     0.031 A 
HETATM   23  C8  UNL     1       3.277  19.958  83.238  1.00  0.00     0.027 A 
HETATM   24  C9  UNL     1       3.281  20.999  84.170  1.00  0.00     0.079 A 
HETATM   25  C10 UNL     1       4.485  21.575  84.540  1.00  0.00     0.027 A 
HETATM   26  C11 UNL     1       5.638  21.096  83.969  1.00  0.00     0.031 A 
BRANCH  24  27
HETATM   27  S2  UNL     1       1.783  21.584  84.846  1.00  0.00     0.256 S 
HETATM   28  O3  UNL     1       1.793  21.444  86.337  1.00  0.00    -0.201 OA
HETATM   29  O4  UNL     1       0.598  20.850  84.240  1.00  0.00    -0.201 OA
BRANCH  27  30
HETATM   30  N5  UNL     1       1.575  23.250  84.463  1.00  0.00    -0.324 N 
ATOM     31  H52 UNL     1       0.674  23.683  84.260  1.00  0.00     0.169 HD
ATOM     32  H51 UNL     1       2.477  23.726  84.472  1.00  0.00     0.169 HD
ENDBRANCH  27  30
ENDBRANCH  24  27
ENDBRANCH  19  21
ENDBRANCH   1  19
TORSDOF 8
ENDMDL
MODEL 5
REMARK VINA RESULT: -7.447030257      2.453      3.114
REMARK  8 active torsions:
REMARK  status: ('A' for Active; 'I' for Inactive)
REMARK    1  A    between atoms: N1_1  and  N2_4 
REMARK    2  A    between atoms: C1_6  and  C2_8 
REMARK    3  A    between atoms: C5_11  and  S1_12 
REMARK    4  A    between atoms: S1_12  and  N4_15 
REMARK    5  A    between atoms: N4_15  and  C6_17 
REMARK    6  A    between atoms: C9_20  and  S2_21 
REMARK    7  A    between atoms: S2_21  and  N5_22 
REMARK    8  A    between atoms: C13_30  and  O5_31 
ROOT
HETATM    1  S1  UNL     1       4.764  16.701  87.488  1.00  0.00     0.263 S 
HETATM    2  O1  UNL     1       4.791  17.751  88.568  1.00  0.00    -0.200 OA
HETATM    3  O2  UNL     1       3.647  15.712  87.758  1.00  0.00    -0.200 OA
ENDROOT
BRANCH   1   4
HETATM    4  C5  UNL     1       4.332  17.521  85.983  1.00  0.00     0.082 A 
HETATM    5  C4  UNL     1       5.215  17.651  84.947  1.00  0.00     0.026 A 
HETATM    6  C3  UNL     1       4.833  18.295  83.769  1.00  0.00     0.019 A 
HETATM    7  C2  UNL     1       3.583  18.807  83.618  1.00  0.00     0.040 A 
HETATM    8  C13 UNL     1       2.705  18.668  84.668  1.00  0.00     0.080 A 
HETATM    9  C12 UNL     1       3.041  18.044  85.839  1.00  0.00     0.062 A 
BRANCH   7  10
HETATM   10  C1  UNL     1       3.111  19.504  82.388  1.00  0.00     0.143 C 
HETATM   11  N2  UNL     1       2.563  18.865  81.557  1.00  0.00    -0.294 N 
ATOM     12  H2  UNL     1       2.514  17.903  81.892  1.00  0.00     0.187 HD
HETATM   13  N3  UNL     1       3.391  20.902  82.327  1.00  0.00    -0.080 NA
BRANCH  11  14
HETATM   14  N1  UNL     1       1.968  18.903  80.321  1.00  0.00    -0.344 N 
ATOM     15  H12 UNL     1       2.719  18.752  79.647  1.00  0.00     0.176 HD
ATOM     16  H11 UNL     1       1.086  19.020  79.822  1.00  0.00     0.176 HD
ENDBRANCH  11  14
ENDBRANCH   7  10
BRANCH   8  17
HETATM   17  O5  UNL     1       1.409  19.204  84.505  1.00  0.00    -0.360 OA
ATOM     18  H5  UNL     1       0.794  18.709  83.977  1.00  0.00     0.217 HD
ENDBRANCH   8  17
ENDBRANCH   1   4
BRANCH   1  19
HETATM   19  N4  UNL     1       6.256  15.914  87.272  1.00  0.00    -0.281 N 
ATOM     20  H4  UNL     1       6.330  15.168  86.580  1.00  0.00     0.179 HD
BRANCH  19  21
HETATM   21  C6  UNL     1       7.404  16.271  88.034  1.00  0.00     0.042 A 
HETATM   22  C7  UNL     1       7.464  16.144  89.402  1.00  0.00     0.031 A 
HETATM   23  C8  UNL     1       8.591  16.512  90.106  1.00  0.00     0.027 A 
HETATM   24  C9  UNL     1       9.708  17.026  89.442  1.00  0.00     0.079 A 
HETATM   25  C10 UNL     1       9.676  17.165  88.065  1.00  0.00     0.027 A 
HETATM   26  C11 UNL     1       8.535  16.787  87.399  1.00  0.00     0.031 A 
BRANCH  24  27
HETATM   27  S2  UNL     1      11.122  17.512  90.341  1.00  0.00     0.256 S 
HETATM   28  O3  UNL     1      10.865  17.413  91.814  1.00  0.00    -0.201 OA
HETATM   29  O4  UNL     1      11.545  18.921  89.959  1.00  0.00    -0.201 OA
BRANCH  27  30
HETATM   30  N5  UNL     1      12.448  16.482  89.957  1.00  0.00    -0.324 N 
ATOM     31  H52 UNL     1      12.690  16.189  89.010  1.00  0.00     0.169 HD
ATOM     32  H51 UNL     1      12.943  16.216  90.809  1.00  0.00     0.169 HD
ENDBRANCH  27  30
ENDBRANCH  24  27
ENDBRANCH  19  21
ENDBRANCH   1  19
TORSDOF 8
ENDMDL
