MODEL 1
REMARK VINA RESULT: -6.521653416      0.000      0.000
REMARK  6 active torsions:
REMARK  status: ('A' for Active; 'I' for Inactive)
REMARK    1  A    between atoms: O1_2  and  C2_3 
REMARK    2  A    between atoms: C6_7  and  C7_8 
REMARK    3  A    between atoms: C7_8  and  O2_9 
REMARK    4  A    between atoms: C7_8  and  O3_11 
REMARK    5  A    between atoms: C11_18  and  O4_19 
REMARK    6  A    between atoms: O4_19  and  C12_20 
ROOT
HETATM    1  C2  UNL     1      33.580 -12.133  -3.035  1.00  0.00     0.104 A 
HETATM    2  C3  UNL     1      34.215 -10.902  -3.226  1.00  0.00     0.040 A 
HETATM    3  C4  UNL     1      35.514 -10.706  -2.813  1.00  0.00     0.017 A 
HETATM    4  C5  UNL     1      36.209 -11.727  -2.204  1.00  0.00     0.005 A 
HETATM    5  C6  UNL     1      37.501 -11.558  -1.791  1.00  0.00     0.010 A 
HETATM    6  C8  UNL     1      38.121 -12.658  -1.188  1.00  0.00     0.030 A 
HETATM    7  C9  UNL     1      37.450 -13.845  -1.027  1.00  0.00     0.089 A 
HETATM    8  N1  UNL     1      36.183 -14.013  -1.431  1.00  0.00    -0.363 N 
ATOM      9  H1  UNL     1      35.698 -14.902  -1.304  1.00  0.00     0.165 HD
HETATM   10  C10 UNL     1      35.580 -12.968  -2.009  1.00  0.00     0.080 A 
HETATM   11  C11 UNL     1      34.259 -13.158  -2.431  1.00  0.00     0.140 A 
ENDROOT
BRANCH   5  12
HETATM   12  C7  UNL     1      38.216 -10.280  -1.946  1.00  0.00     0.289 C 
BRANCH  12  13
HETATM   13  O2  UNL     1      38.476  -9.829  -0.615  1.00  0.00    -0.367 OA
ATOM     14  H2  UNL     1      39.296 -10.241  -0.366  1.00  0.00     0.213 HD
ENDBRANCH  12  13
BRANCH  12  15
HETATM   15  O3  UNL     1      39.447 -10.433  -2.559  1.00  0.00    -0.367 OA
ATOM     16  H3  UNL     1      39.368 -10.704  -3.467  1.00  0.00     0.213 HD
ENDBRANCH  12  15
ENDBRANCH   5  12
BRANCH  11  17
HETATM   17  O4  UNL     1      33.602 -14.363  -2.258  1.00  0.00    -0.274 OA
BRANCH  17  18
HETATM   18  C12 UNL     1      32.665 -14.622  -1.296  1.00  0.00     0.260 C 
HETATM   19  C13 UNL     1      32.982 -14.312   0.131  1.00  0.00     0.126 C 
HETATM   20  O5  UNL     1      31.568 -15.112  -1.653  1.00  0.00    -0.265 OA
ENDBRANCH  17  18
ENDBRANCH  11  17
BRANCH   1  21
HETATM   21  O1  UNL     1      32.280 -12.372  -3.433  1.00  0.00    -0.353 OA
HETATM   22  C1  UNL     1      31.162 -11.652  -2.992  1.00  0.00     0.210 C 
ENDBRANCH   1  21
TORSDOF 6
ENDMDL
MODEL 2
REMARK VINA RESULT: -6.510495815      4.462      6.366
REMARK  6 active torsions:
REMARK  status: ('A' for Active; 'I' for Inactive)
REMARK    1  A    between atoms: O1_2  and  C2_3 
REMARK    2  A    between atoms: C6_7  and  C7_8 
REMARK    3  A    between atoms: C7_8  and  O2_9 
REMARK    4  A    between atoms: C7_8  and  O3_11 
REMARK    5  A    between atoms: C11_18  and  O4_19 
REMARK    6  A    between atoms: O4_19  and  C12_20 
ROOT
HETATM    1  C2  UNL     1      31.400  -9.710  -3.325  1.00  0.00     0.104 A 
HETATM    2  C3  UNL     1      31.983 -10.211  -2.157  1.00  0.00     0.040 A 
HETATM    3  C4  UNL     1      32.065 -11.568  -1.933  1.00  0.00     0.017 A 
HETATM    4  C5  UNL     1      31.571 -12.454  -2.864  1.00  0.00     0.005 A 
HETATM    5  C6  UNL     1      31.646 -13.805  -2.667  1.00  0.00     0.010 A 
HETATM    6  C8  UNL     1      31.121 -14.621  -3.676  1.00  0.00     0.030 A 
HETATM    7  C9  UNL     1      30.561 -14.075  -4.804  1.00  0.00     0.089 A 
HETATM    8  N1  UNL     1      30.486 -12.751  -5.000  1.00  0.00    -0.363 N 
ATOM      9  H1  UNL     1      30.067 -12.361  -5.844  1.00  0.00     0.165 HD
HETATM   10  C10 UNL     1      30.985 -11.960  -4.043  1.00  0.00     0.080 A 
HETATM   11  C11 UNL     1      30.906 -10.581  -4.261  1.00  0.00     0.140 A 
ENDROOT
BRANCH   5  12
HETATM   12  C7  UNL     1      32.228 -14.391  -1.449  1.00  0.00     0.289 C 
BRANCH  12  13
HETATM   13  O2  UNL     1      31.201 -15.219  -0.900  1.00  0.00    -0.367 OA
ATOM     14  H2  UNL     1      30.757 -15.599  -1.649  1.00  0.00     0.213 HD
ENDBRANCH  12  13
BRANCH  12  15
HETATM   15  O3  UNL     1      33.301 -15.220  -1.722  1.00  0.00    -0.367 OA
ATOM     16  H3  UNL     1      33.526 -15.777  -0.985  1.00  0.00     0.213 HD
ENDBRANCH  12  15
ENDBRANCH   5  12
BRANCH  11  17
HETATM   17  O4  UNL     1      30.337 -10.052  -5.406  1.00  0.00    -0.274 OA
BRANCH  17  18
HETATM   18  C12 UNL     1      31.022  -9.675  -6.528  1.00  0.00     0.260 C 
HETATM   19  C13 UNL     1      32.408 -10.192  -6.743  1.00  0.00     0.126 C 
HETATM   20  O5  UNL     1      30.455  -8.906  -7.339  1.00  0.00    -0.265 OA
ENDBRANCH  17  18
ENDBRANCH  11  17
BRANCH   1  21
HETATM   21  O1  UNL     1      31.299  -8.360  -3.588  1.00  0.00    -0.353 OA
HETATM   22  C1  UNL     1      30.148  -7.587  -3.383  1.00  0.00     0.210 C 
ENDBRANCH   1  21
TORSDOF 6
ENDMDL
MODEL 3
REMARK VINA RESULT: -6.509957089      1.078      1.317
REMARK  6 active torsions:
REMARK  status: ('A' for Active; 'I' for Inactive)
REMARK    1  A    between atoms: O1_2  and  C2_3 
REMARK    2  A    between atoms: C6_7  and  C7_8 
REMARK    3  A    between atoms: C7_8  and  O2_9 
REMARK    4  A    between atoms: C7_8  and  O3_11 
REMARK    5  A    between atoms: C11_18  and  O4_19 
REMARK    6  A    between atoms: O4_19  and  C12_20 
ROOT
HETATM    1  C2  UNL     1      33.930 -11.909  -2.808  1.00  0.00     0.104 A 
HETATM    2  C3  UNL     1      34.664 -10.777  -3.177  1.00  0.00     0.040 A 
HETATM    3  C4  UNL     1      35.933 -10.567  -2.684  1.00  0.00     0.017 A 
HETATM    4  C5  UNL     1      36.498 -11.475  -1.816  1.00  0.00     0.005 A 
HETATM    5  C6  UNL     1      37.758 -11.292  -1.317  1.00  0.00     0.010 A 
HETATM    6  C8  UNL     1      38.243 -12.275  -0.448  1.00  0.00     0.030 A 
HETATM    7  C9  UNL     1      37.478 -13.367  -0.121  1.00  0.00     0.089 A 
HETATM    8  N1  UNL     1      36.243 -13.549  -0.609  1.00  0.00    -0.363 N 
ATOM      9  H1  UNL     1      35.687 -14.367  -0.356  1.00  0.00     0.165 HD
HETATM   10  C10 UNL     1      35.768 -12.616  -1.441  1.00  0.00     0.080 A 
HETATM   11  C11 UNL     1      34.480 -12.821  -1.947  1.00  0.00     0.140 A 
ENDROOT
BRANCH   5  12
HETATM   12  C7  UNL     1      38.571 -10.111  -1.652  1.00  0.00     0.289 C 
BRANCH  12  13
HETATM   13  O2  UNL     1      39.292  -9.799  -0.458  1.00  0.00    -0.367 OA
ATOM     14  H2  UNL     1      39.524  -8.880  -0.537  1.00  0.00     0.213 HD
ENDBRANCH  12  13
BRANCH  12  15
HETATM   15  O3  UNL     1      39.517 -10.379  -2.626  1.00  0.00    -0.367 OA
ATOM     16  H3  UNL     1      39.330  -9.932  -3.444  1.00  0.00     0.213 HD
ENDBRANCH  12  15
ENDBRANCH   5  12
BRANCH  11  17
HETATM   17  O4  UNL     1      33.726 -13.929  -1.604  1.00  0.00    -0.274 OA
BRANCH  17  18
HETATM   18  C12 UNL     1      33.832 -15.167  -2.177  1.00  0.00     0.260 C 
HETATM   19  C13 UNL     1      32.833 -15.579  -3.208  1.00  0.00     0.126 C 
HETATM   20  O5  UNL     1      34.772 -15.910  -1.812  1.00  0.00    -0.265 OA
ENDBRANCH  17  18
ENDBRANCH  11  17
BRANCH   1  21
HETATM   21  O1  UNL     1      32.657 -12.157  -3.279  1.00  0.00    -0.353 OA
HETATM   22  C1  UNL     1      31.496 -11.514  -2.829  1.00  0.00     0.210 C 
ENDBRANCH   1  21
TORSDOF 6
ENDMDL
MODEL 4
REMARK VINA RESULT: -6.456494953      4.007      5.574
REMARK  6 active torsions:
REMARK  status: ('A' for Active; 'I' for Inactive)
REMARK    1  A    between atoms: O1_2  and  C2_3 
REMARK    2  A    between atoms: C6_7  and  C7_8 
REMARK    3  A    between atoms: C7_8  and  O2_9 
REMARK    4  A    between atoms: C7_8  and  O3_11 
REMARK    5  A    between atoms: C11_18  and  O4_19 
REMARK    6  A    between atoms: O4_19  and  C12_20 
ROOT
HETATM    1  C2  UNL     1      32.730 -13.780  -1.048  1.00  0.00     0.104 A 
HETATM    2  C3  UNL     1      32.859 -12.403  -0.842  1.00  0.00     0.040 A 
HETATM    3  C4  UNL     1      32.336 -11.501  -1.742  1.00  0.00     0.017 A 
HETATM    4  C5  UNL     1      31.673 -11.949  -2.864  1.00  0.00     0.005 A 
HETATM    5  C6  UNL     1      31.140 -11.074  -3.769  1.00  0.00     0.010 A 
HETATM    6  C8  UNL     1      30.481 -11.628  -4.872  1.00  0.00     0.030 A 
HETATM    7  C9  UNL     1      30.384 -12.989  -5.024  1.00  0.00     0.089 A 
HETATM    8  N1  UNL     1      30.906 -13.849  -4.138  1.00  0.00    -0.363 N 
ATOM      9  H1  UNL     1      30.824 -14.858  -4.266  1.00  0.00     0.165 HD
HETATM   10  C10 UNL     1      31.537 -13.331  -3.079  1.00  0.00     0.080 A 
HETATM   11  C11 UNL     1      32.073 -14.239  -2.159  1.00  0.00     0.140 A 
ENDROOT
BRANCH   5  12
HETATM   12  C7  UNL     1      31.261  -9.614  -3.617  1.00  0.00     0.289 C 
BRANCH  12  13
HETATM   13  O2  UNL     1      31.072  -9.081  -4.929  1.00  0.00    -0.367 OA
ATOM     14  H2  UNL     1      30.170  -9.280  -5.154  1.00  0.00     0.213 HD
ENDBRANCH  12  13
BRANCH  12  15
HETATM   15  O3  UNL     1      30.261  -9.080  -2.825  1.00  0.00    -0.367 OA
ATOM     16  H3  UNL     1      30.605  -8.582  -2.092  1.00  0.00     0.213 HD
ENDBRANCH  12  15
ENDBRANCH   5  12
BRANCH  11  17
HETATM   17  O4  UNL     1      31.963 -15.607  -2.332  1.00  0.00    -0.274 OA
BRANCH  17  18
HETATM   18  C12 UNL     1      32.879 -16.400  -2.966  1.00  0.00     0.260 C 
HETATM   19  C13 UNL     1      34.138 -15.786  -3.486  1.00  0.00     0.126 C 
HETATM   20  O5  UNL     1      32.623 -17.621  -3.086  1.00  0.00    -0.265 OA
ENDBRANCH  17  18
ENDBRANCH  11  17
BRANCH   1  21
HETATM   21  O1  UNL     1      33.240 -14.716  -0.172  1.00  0.00    -0.353 OA
HETATM   22  C1  UNL     1      34.596 -14.859   0.150  1.00  0.00     0.210 C 
ENDBRANCH   1  21
TORSDOF 6
ENDMDL
MODEL 5
REMARK VINA RESULT: -6.450379638      3.470      5.632
REMARK  6 active torsions:
REMARK  status: ('A' for Active; 'I' for Inactive)
REMARK    1  A    between atoms: O1_2  and  C2_3 
REMARK    2  A    between atoms: C6_7  and  C7_8 
REMARK    3  A    between atoms: C7_8  and  O2_9 
REMARK    4  A    between atoms: C7_8  and  O3_11 
REMARK    5  A    between atoms: C11_18  and  O4_19 
REMARK    6  A    between atoms: O4_19  and  C12_20 
ROOT
HETATM    1  C2  UNL     1      31.719 -14.314  -3.074  1.00  0.00     0.104 A 
HETATM    2  C3  UNL     1      31.216 -14.023  -4.346  1.00  0.00     0.040 A 
HETATM    3  C4  UNL     1      30.989 -12.722  -4.736  1.00  0.00     0.017 A 
HETATM    4  C5  UNL     1      31.258 -11.684  -3.872  1.00  0.00     0.005 A 
HETATM    5  C6  UNL     1      31.046 -10.383  -4.237  1.00  0.00     0.010 A 
HETATM    6  C8  UNL     1      31.356  -9.401  -3.290  1.00  0.00     0.030 A 
HETATM    7  C9  UNL     1      31.849  -9.744  -2.055  1.00  0.00     0.089 A 
HETATM    8  N1  UNL     1      32.057 -11.018  -1.694  1.00  0.00    -0.363 N 
ATOM      9  H1  UNL     1      32.424 -11.256  -0.772  1.00  0.00     0.165 HD
HETATM   10  C10 UNL     1      31.765 -11.966  -2.592  1.00  0.00     0.080 A 
HETATM   11  C11 UNL     1      31.992 -13.291  -2.205  1.00  0.00     0.140 A 
ENDROOT
BRANCH   5  12
HETATM   12  C7  UNL     1      30.499 -10.015  -5.554  1.00  0.00     0.289 C 
BRANCH  12  13
HETATM   13  O2  UNL     1      29.849  -8.759  -5.355  1.00  0.00    -0.367 OA
ATOM     14  H2  UNL     1      29.134  -8.744  -5.982  1.00  0.00     0.213 HD
ENDBRANCH  12  13
BRANCH  12  15
HETATM   15  O3  UNL     1      31.489  -9.804  -6.497  1.00  0.00    -0.367 OA
ATOM     16  H3  UNL     1      32.034  -9.054  -6.289  1.00  0.00     0.213 HD
ENDBRANCH  12  15
ENDBRANCH   5  12
BRANCH  11  17
HETATM   17  O4  UNL     1      32.489 -13.613  -0.955  1.00  0.00    -0.274 OA
BRANCH  17  18
HETATM   18  C12 UNL     1      33.808 -13.576  -0.594  1.00  0.00     0.260 C 
HETATM   19  C13 UNL     1      34.508 -14.854  -0.264  1.00  0.00     0.126 C 
HETATM   20  O5  UNL     1      34.380 -12.462  -0.555  1.00  0.00    -0.265 OA
ENDBRANCH  17  18
ENDBRANCH  11  17
BRANCH   1  21
HETATM   21  O1  UNL     1      31.960 -15.603  -2.645  1.00  0.00    -0.353 OA
HETATM   22  C1  UNL     1      32.931 -16.459  -3.182  1.00  0.00     0.210 C 
ENDBRANCH   1  21
TORSDOF 6
ENDMDL
