MODEL 1
REMARK VINA RESULT: -5.461404020      0.000      0.000
REMARK  18 active torsions:
REMARK  status: ('A' for Active; 'I' for Inactive)
REMARK    1  A    between atoms: C2_2  and  O2_4 
REMARK    2  A    between atoms: O2_4  and  C3_5 
REMARK    3  A    between atoms: C3_5  and  C4_6 
REMARK    4  A    between atoms: C4_6  and  O3_7 
REMARK    5  A    between atoms: N1_9  and  N2_11 
REMARK    6  A    between atoms: N3_13  and  N4_15 
REMARK    7  A    between atoms: N4_15  and  O4_16 
REMARK    8  A    between atoms: N4_15  and  C5_18 
REMARK    9  A    between atoms: C5_18  and  N5_20 
REMARK   10  A    between atoms: C7_22  and  O5_23 
REMARK   11  A    between atoms: C7_22  and  C8_25 
REMARK   12  A    between atoms: C8_25  and  O6_26 
REMARK   13  A    between atoms: C9_28  and  O7_30 
REMARK   14  A    between atoms: C11_32  and  O8_33 
REMARK   15  A    between atoms: C12_35  and  O9_36 
REMARK   16  A    between atoms: C12_35  and  C13_38 
REMARK   17  A    between atoms: C13_38  and  O10_39 
REMARK   18  A    between atoms: C13_38  and  O11_41 
ROOT
HETATM    1  N5  UNL     1      -3.337  38.817  29.344  1.00  0.00    -0.314 N 
HETATM    2  C6  UNL     1      -3.648  37.511  28.864  1.00  0.00     0.172 C 
HETATM    3  C7  UNL     1      -4.908  37.352  28.137  1.00  0.00     0.128 C 
HETATM    4  C9  UNL     1      -5.982  38.350  28.248  1.00  0.00     0.119 C 
HETATM    5  C10 UNL     1      -6.587  38.811  26.931  1.00  0.00     0.052 C 
HETATM    6  C11 UNL     1      -5.675  39.534  29.115  1.00  0.00     0.216 C 
HETATM    7  C12 UNL     1      -4.211  39.911  29.090  1.00  0.00     0.215 C 
ENDROOT
BRANCH   1   8
HETATM    8  C5  UNL     1      -2.145  38.985  30.075  1.00  0.00     0.223 C 
HETATM    9  S1  UNL     1      -1.920  38.159  31.477  1.00  0.00    -0.037 SA
BRANCH   8  10
HETATM   10  N4  UNL     1      -1.109  39.833  29.659  1.00  0.00    -0.119 N 
BRANCH  10  11
HETATM   11  N3  UNL     1      -0.818  40.948  30.508  1.00  0.00    -0.199 N 
HETATM   12  N2  UNL     1       0.172  41.658  30.167  1.00  0.00    -0.224 N 
ATOM     13  H2  UNL     1       0.718  41.435  29.334  1.00  0.00     0.210 HD
ATOM     14  H3  UNL     1      -1.374  41.158  31.337  1.00  0.00     0.212 HD
BRANCH  12  15
HETATM   15  N1  UNL     1       0.489  42.737  30.951  1.00  0.00    -0.266 N 
HETATM   16  C4  UNL     1      -0.105  43.854  30.834  1.00  0.00     0.156 C 
ATOM     17  H1  UNL     1       1.224  42.640  31.651  1.00  0.00     0.190 HD
BRANCH  16  18
HETATM   18  C3  UNL     1      -1.168  44.163  29.894  1.00  0.00     0.264 C 
BRANCH  18  19
HETATM   19  O2  UNL     1      -2.425  43.674  30.286  1.00  0.00    -0.314 OA
BRANCH  19  20
HETATM   20  C2  UNL     1      -3.022  44.292  31.381  1.00  0.00     0.255 C 
HETATM   21  C1  UNL     1      -3.842  43.558  32.370  1.00  0.00     0.126 C 
HETATM   22  O1  UNL     1      -2.868  45.544  31.559  1.00  0.00    -0.266 OA
ENDBRANCH  19  20
ENDBRANCH  18  19
ENDBRANCH  16  18
BRANCH  16  23
HETATM   23  O3  UNL     1       0.313  44.874  31.699  1.00  0.00    -0.347 OA
ATOM     24  H3  UNL     1       1.024  44.679  32.299  1.00  0.00     0.219 HD
ENDBRANCH  16  23
ENDBRANCH  12  15
ENDBRANCH  10  11
BRANCH  10  25
HETATM   25  O4  UNL     1      -0.346  39.757  28.571  1.00  0.00    -0.265 OA
ATOM     26  H4  UNL     1      -0.103  38.873  28.324  1.00  0.00     0.247 HD
ENDBRANCH  10  25
ENDBRANCH   8  10
ENDBRANCH   1   8
BRANCH   7  27
HETATM   27  O9  UNL     1      -4.052  40.862  30.132  1.00  0.00    -0.364 OA
ATOM     28  H9  UNL     1      -4.751  40.735  30.762  1.00  0.00     0.213 HD
ENDBRANCH   7  27
BRANCH   7  29
HETATM   29  C13 UNL     1      -3.850  40.664  27.841  1.00  0.00     0.313 C 
BRANCH  29  30
HETATM   30  O10 UNL     1      -2.903  40.042  27.040  1.00  0.00    -0.367 OA
ATOM     31  H10 UNL     1      -2.223  40.616  26.708  1.00  0.00     0.212 HD
ENDBRANCH  29  30
BRANCH  29  32
HETATM   32  O11 UNL     1      -3.322  41.927  28.131  1.00  0.00    -0.367 OA
ATOM     33  H11 UNL     1      -3.458  42.539  27.416  1.00  0.00     0.212 HD
ENDBRANCH  29  32
ENDBRANCH   7  29
BRANCH   3  34
HETATM   34  O5  UNL     1      -5.405  36.052  28.566  1.00  0.00    -0.383 OA
ATOM     35  H5  UNL     1      -5.221  35.479  27.831  1.00  0.00     0.210 HD
ENDBRANCH   3  34
BRANCH   3  36
HETATM   36  C8  UNL     1      -4.557  37.002  26.666  1.00  0.00     0.206 C 
BRANCH  36  37
HETATM   37  O6  UNL     1      -3.205  37.223  26.434  1.00  0.00    -0.398 OA
ATOM     38  H6  UNL     1      -2.863  36.560  25.846  1.00  0.00     0.209 HD
ENDBRANCH  36  37
ENDBRANCH   3  36
BRANCH   6  39
HETATM   39  O8  UNL     1      -6.097  39.349  30.428  1.00  0.00    -0.387 OA
ATOM     40  H8  UNL     1      -5.705  38.581  30.827  1.00  0.00     0.210 HD
ENDBRANCH   6  39
BRANCH   4  41
HETATM   41  O7  UNL     1      -7.077  37.722  28.907  1.00  0.00    -0.384 OA
ATOM     42  H7  UNL     1      -6.774  37.456  29.767  1.00  0.00     0.210 HD
ENDBRANCH   4  41
TORSDOF 18
ENDMDL
MODEL 2
REMARK VINA RESULT: -5.299230020      1.714      2.209
REMARK  18 active torsions:
REMARK  status: ('A' for Active; 'I' for Inactive)
REMARK    1  A    between atoms: C2_2  and  O2_4 
REMARK    2  A    between atoms: O2_4  and  C3_5 
REMARK    3  A    between atoms: C3_5  and  C4_6 
REMARK    4  A    between atoms: C4_6  and  O3_7 
REMARK    5  A    between atoms: N1_9  and  N2_11 
REMARK    6  A    between atoms: N3_13  and  N4_15 
REMARK    7  A    between atoms: N4_15  and  O4_16 
REMARK    8  A    between atoms: N4_15  and  C5_18 
REMARK    9  A    between atoms: C5_18  and  N5_20 
REMARK   10  A    between atoms: C7_22  and  O5_23 
REMARK   11  A    between atoms: C7_22  and  C8_25 
REMARK   12  A    between atoms: C8_25  and  O6_26 
REMARK   13  A    between atoms: C9_28  and  O7_30 
REMARK   14  A    between atoms: C11_32  and  O8_33 
REMARK   15  A    between atoms: C12_35  and  O9_36 
REMARK   16  A    between atoms: C12_35  and  C13_38 
REMARK   17  A    between atoms: C13_38  and  O10_39 
REMARK   18  A    between atoms: C13_38  and  O11_41 
ROOT
HETATM    1  N5  UNL     1      -2.492  38.919  28.381  1.00  0.00    -0.314 N 
HETATM    2  C6  UNL     1      -3.484  38.779  27.368  1.00  0.00     0.172 C 
HETATM    3  C7  UNL     1      -4.881  38.749  27.804  1.00  0.00     0.128 C 
HETATM    4  C9  UNL     1      -5.236  38.458  29.201  1.00  0.00     0.119 C 
HETATM    5  C10 UNL     1      -6.237  39.410  29.834  1.00  0.00     0.052 C 
HETATM    6  C11 UNL     1      -4.078  38.237  30.128  1.00  0.00     0.216 C 
HETATM    7  C12 UNL     1      -2.863  39.054  29.748  1.00  0.00     0.215 C 
ENDROOT
BRANCH   1   8
HETATM    8  C5  UNL     1      -1.139  38.916  27.986  1.00  0.00     0.223 C 
HETATM    9  S1  UNL     1      -0.388  37.496  27.646  1.00  0.00    -0.037 SA
BRANCH   8  10
HETATM   10  N4  UNL     1      -0.382  40.089  27.855  1.00  0.00    -0.119 N 
BRANCH  10  11
HETATM   11  N3  UNL     1       0.280  40.556  29.035  1.00  0.00    -0.199 N 
HETATM   12  N2  UNL     1       0.157  41.790  29.286  1.00  0.00    -0.224 N 
ATOM     13  H2  UNL     1      -0.385  42.400  28.672  1.00  0.00     0.210 HD
ATOM     14  H3  UNL     1       0.817  39.932  29.638  1.00  0.00     0.212 HD
BRANCH  12  15
HETATM   15  N1  UNL     1       0.774  42.283  30.406  1.00  0.00    -0.266 N 
HETATM   16  C4  UNL     1       0.458  43.404  30.913  1.00  0.00     0.156 C 
ATOM     17  H1  UNL     1       1.510  41.732  30.847  1.00  0.00     0.190 HD
BRANCH  16  18
HETATM   18  C3  UNL     1      -0.561  44.312  30.415  1.00  0.00     0.264 C 
BRANCH  18  19
HETATM   19  O2  UNL     1      -1.868  43.813  30.541  1.00  0.00    -0.314 OA
BRANCH  19  20
HETATM   20  C2  UNL     1      -2.687  44.440  31.476  1.00  0.00     0.255 C 
HETATM   21  C1  UNL     1      -3.733  43.721  32.237  1.00  0.00     0.126 C 
HETATM   22  O1  UNL     1      -2.548  45.686  31.702  1.00  0.00    -0.266 OA
ENDBRANCH  19  20
ENDBRANCH  18  19
ENDBRANCH  16  18
BRANCH  16  23
HETATM   23  O3  UNL     1       1.165  43.789  32.060  1.00  0.00    -0.347 OA
ATOM     24  H3  UNL     1       0.672  43.897  32.866  1.00  0.00     0.219 HD
ENDBRANCH  16  23
ENDBRANCH  12  15
ENDBRANCH  10  11
BRANCH  10  25
HETATM   25  O4  UNL     1      -0.186  40.847  26.779  1.00  0.00    -0.265 OA
ATOM     26  H4  UNL     1      -0.340  40.404  25.953  1.00  0.00     0.247 HD
ENDBRANCH  10  25
ENDBRANCH   8  10
ENDBRANCH   1   8
BRANCH   7  27
HETATM   27  O9  UNL     1      -1.807  38.549  30.551  1.00  0.00    -0.364 OA
ATOM     28  H9  UNL     1      -1.580  39.208  31.196  1.00  0.00     0.213 HD
ENDBRANCH   7  27
BRANCH   7  29
HETATM   29  C13 UNL     1      -3.000  40.489  30.173  1.00  0.00     0.313 C 
BRANCH  29  30
HETATM   30  O10 UNL     1      -2.934  41.410  29.138  1.00  0.00    -0.367 OA
ATOM     31  H10 UNL     1      -3.775  41.656  28.770  1.00  0.00     0.212 HD
ENDBRANCH  29  30
BRANCH  29  32
HETATM   32  O11 UNL     1      -1.994  40.862  31.071  1.00  0.00    -0.367 OA
ATOM     33  H11 UNL     1      -1.841  41.800  31.059  1.00  0.00     0.212 HD
ENDBRANCH  29  32
ENDBRANCH   7  29
BRANCH   3  34
HETATM   34  O5  UNL     1      -5.506  37.767  26.928  1.00  0.00    -0.383 OA
ATOM     35  H5  UNL     1      -5.526  36.972  27.448  1.00  0.00     0.210 HD
ENDBRANCH   3  34
BRANCH   3  36
HETATM   36  C8  UNL     1      -5.567  40.030  27.260  1.00  0.00     0.206 C 
BRANCH  36  37
HETATM   37  O6  UNL     1      -4.606  40.956  26.872  1.00  0.00    -0.398 OA
ATOM     38  H6  UNL     1      -4.642  41.718  27.438  1.00  0.00     0.209 HD
ENDBRANCH  36  37
ENDBRANCH   3  36
BRANCH   6  39
HETATM   39  O8  UNL     1      -3.735  36.893  30.232  1.00  0.00    -0.387 OA
ATOM     40  H8  UNL     1      -2.837  36.772  30.517  1.00  0.00     0.210 HD
ENDBRANCH   6  39
BRANCH   4  41
HETATM   41  O7  UNL     1      -5.922  37.210  29.212  1.00  0.00    -0.384 OA
ATOM     42  H7  UNL     1      -6.434  37.162  28.414  1.00  0.00     0.210 HD
ENDBRANCH   4  41
TORSDOF 18
ENDMDL
MODEL 3
REMARK VINA RESULT: -5.132527597      4.989      7.202
REMARK  18 active torsions:
REMARK  status: ('A' for Active; 'I' for Inactive)
REMARK    1  A    between atoms: C2_2  and  O2_4 
REMARK    2  A    between atoms: O2_4  and  C3_5 
REMARK    3  A    between atoms: C3_5  and  C4_6 
REMARK    4  A    between atoms: C4_6  and  O3_7 
REMARK    5  A    between atoms: N1_9  and  N2_11 
REMARK    6  A    between atoms: N3_13  and  N4_15 
REMARK    7  A    between atoms: N4_15  and  O4_16 
REMARK    8  A    between atoms: N4_15  and  C5_18 
REMARK    9  A    between atoms: C5_18  and  N5_20 
REMARK   10  A    between atoms: C7_22  and  O5_23 
REMARK   11  A    between atoms: C7_22  and  C8_25 
REMARK   12  A    between atoms: C8_25  and  O6_26 
REMARK   13  A    between atoms: C9_28  and  O7_30 
REMARK   14  A    between atoms: C11_32  and  O8_33 
REMARK   15  A    between atoms: C12_35  and  O9_36 
REMARK   16  A    between atoms: C12_35  and  C13_38 
REMARK   17  A    between atoms: C13_38  and  O10_39 
REMARK   18  A    between atoms: C13_38  and  O11_41 
ROOT
HETATM    1  N5  UNL     1      -5.901  39.791  26.733  1.00  0.00    -0.314 N 
HETATM    2  C6  UNL     1      -6.647  38.969  27.627  1.00  0.00     0.172 C 
HETATM    3  C7  UNL     1      -5.887  38.196  28.611  1.00  0.00     0.128 C 
HETATM    4  C9  UNL     1      -4.449  37.943  28.433  1.00  0.00     0.119 C 
HETATM    5  C10 UNL     1      -3.581  38.216  29.651  1.00  0.00     0.052 C 
HETATM    6  C11 UNL     1      -3.832  38.559  27.213  1.00  0.00     0.216 C 
HETATM    7  C12 UNL     1      -4.484  39.867  26.827  1.00  0.00     0.215 C 
ENDROOT
BRANCH   1   8
HETATM    8  C5  UNL     1      -6.611  40.518  25.757  1.00  0.00     0.223 C 
HETATM    9  S1  UNL     1      -6.847  39.872  24.265  1.00  0.00    -0.037 SA
BRANCH   8  10
HETATM   10  N4  UNL     1      -7.149  41.790  25.996  1.00  0.00    -0.119 N 
BRANCH  10  11
HETATM   11  N3  UNL     1      -8.478  41.831  26.526  1.00  0.00    -0.199 N 
HETATM   12  N2  UNL     1      -8.904  42.974  26.862  1.00  0.00    -0.224 N 
ATOM     13  H2  UNL     1      -8.321  43.805  26.755  1.00  0.00     0.210 HD
ATOM     14  H3  UNL     1      -9.048  40.990  26.626  1.00  0.00     0.212 HD
BRANCH  12  15
HETATM   15  N1  UNL     1     -10.172  43.062  27.375  1.00  0.00    -0.266 N 
HETATM   16  C4  UNL     1     -11.033  43.874  26.912  1.00  0.00     0.156 C 
ATOM     17  H1  UNL     1     -10.433  42.456  28.152  1.00  0.00     0.190 HD
BRANCH  16  18
HETATM   18  C3  UNL     1     -10.829  44.803  25.814  1.00  0.00     0.264 C 
BRANCH  18  19
HETATM   19  O2  UNL     1     -10.854  44.193  24.549  1.00  0.00    -0.314 OA
BRANCH  19  20
HETATM   20  C2  UNL     1      -9.667  44.211  23.824  1.00  0.00     0.255 C 
HETATM   21  C1  UNL     1      -9.171  45.419  23.126  1.00  0.00     0.126 C 
HETATM   22  O1  UNL     1      -8.959  43.155  23.744  1.00  0.00    -0.266 OA
ENDBRANCH  19  20
ENDBRANCH  18  19
ENDBRANCH  16  18
BRANCH  16  23
HETATM   23  O3  UNL     1     -12.293  43.860  27.525  1.00  0.00    -0.347 OA
ATOM     24  H3  UNL     1     -12.387  44.326  28.348  1.00  0.00     0.219 HD
ENDBRANCH  16  23
ENDBRANCH  12  15
ENDBRANCH  10  11
BRANCH  10  25
HETATM   25  O4  UNL     1      -6.600  42.987  25.797  1.00  0.00    -0.265 OA
ATOM     26  H4  UNL     1      -6.154  43.345  26.555  1.00  0.00     0.247 HD
ENDBRANCH  10  25
ENDBRANCH   8  10
ENDBRANCH   1   8
BRANCH   7  27
HETATM   27  O9  UNL     1      -3.966  40.179  25.542  1.00  0.00    -0.364 OA
ATOM     28  H9  UNL     1      -4.470  40.899  25.183  1.00  0.00     0.213 HD
ENDBRANCH   7  27
BRANCH   7  29
HETATM   29  C13 UNL     1      -4.020  41.000  27.699  1.00  0.00     0.313 C 
BRANCH  29  30
HETATM   30  O10 UNL     1      -4.119  42.257  27.120  1.00  0.00    -0.367 OA
ATOM     31  H10 UNL     1      -4.524  42.918  27.670  1.00  0.00     0.212 HD
ENDBRANCH  29  30
BRANCH  29  32
HETATM   32  O11 UNL     1      -2.676  40.860  28.061  1.00  0.00    -0.367 OA
ATOM     33  H11 UNL     1      -2.330  41.657  28.448  1.00  0.00     0.212 HD
ENDBRANCH  29  32
ENDBRANCH   7  29
BRANCH   3  34
HETATM   34  O5  UNL     1      -6.597  36.928  28.692  1.00  0.00    -0.383 OA
ATOM     35  H5  UNL     1      -7.244  36.979  27.997  1.00  0.00     0.210 HD
ENDBRANCH   3  34
BRANCH   3  36
HETATM   36  C8  UNL     1      -6.233  38.758  30.015  1.00  0.00     0.206 C 
BRANCH  36  37
HETATM   37  O6  UNL     1      -6.870  37.783  30.774  1.00  0.00    -0.398 OA
ATOM     38  H6  UNL     1      -7.812  37.894  30.721  1.00  0.00     0.209 HD
ENDBRANCH  36  37
ENDBRANCH   3  36
BRANCH   6  39
HETATM   39  O8  UNL     1      -3.830  37.689  26.127  1.00  0.00    -0.387 OA
ATOM     40  H8  UNL     1      -4.655  37.227  26.035  1.00  0.00     0.210 HD
ENDBRANCH   6  39
BRANCH   4  41
HETATM   41  O7  UNL     1      -4.288  36.544  28.225  1.00  0.00    -0.384 OA
ATOM     42  H7  UNL     1      -5.123  36.132  28.414  1.00  0.00     0.210 HD
ENDBRANCH   4  41
TORSDOF 18
ENDMDL
MODEL 4
REMARK VINA RESULT: -5.104669188      5.024      7.860
REMARK  18 active torsions:
REMARK  status: ('A' for Active; 'I' for Inactive)
REMARK    1  A    between atoms: C2_2  and  O2_4 
REMARK    2  A    between atoms: O2_4  and  C3_5 
REMARK    3  A    between atoms: C3_5  and  C4_6 
REMARK    4  A    between atoms: C4_6  and  O3_7 
REMARK    5  A    between atoms: N1_9  and  N2_11 
REMARK    6  A    between atoms: N3_13  and  N4_15 
REMARK    7  A    between atoms: N4_15  and  O4_16 
REMARK    8  A    between atoms: N4_15  and  C5_18 
REMARK    9  A    between atoms: C5_18  and  N5_20 
REMARK   10  A    between atoms: C7_22  and  O5_23 
REMARK   11  A    between atoms: C7_22  and  C8_25 
REMARK   12  A    between atoms: C8_25  and  O6_26 
REMARK   13  A    between atoms: C9_28  and  O7_30 
REMARK   14  A    between atoms: C11_32  and  O8_33 
REMARK   15  A    between atoms: C12_35  and  O9_36 
REMARK   16  A    between atoms: C12_35  and  C13_38 
REMARK   17  A    between atoms: C13_38  and  O10_39 
REMARK   18  A    between atoms: C13_38  and  O11_41 
ROOT
HETATM    1  N5  UNL     1      -1.451  34.428  32.267  1.00  0.00    -0.314 N 
HETATM    2  C6  UNL     1      -1.953  33.970  33.520  1.00  0.00     0.172 C 
HETATM    3  C7  UNL     1      -1.405  34.596  34.725  1.00  0.00     0.128 C 
HETATM    4  C9  UNL     1      -0.135  35.338  34.687  1.00  0.00     0.119 C 
HETATM    5  C10 UNL     1      -0.155  36.704  35.353  1.00  0.00     0.052 C 
HETATM    6  C11 UNL     1       0.517  35.431  33.341  1.00  0.00     0.216 C 
HETATM    7  C12 UNL     1      -0.484  35.470  32.209  1.00  0.00     0.215 C 
ENDROOT
BRANCH   1   8
HETATM    8  C5  UNL     1      -1.940  33.815  31.097  1.00  0.00     0.223 C 
HETATM    9  S1  UNL     1      -1.711  32.206  30.857  1.00  0.00    -0.037 SA
BRANCH   8  10
HETATM   10  N4  UNL     1      -2.638  34.518  30.104  1.00  0.00    -0.119 N 
BRANCH  10  11
HETATM   11  N3  UNL     1      -4.061  34.366  30.096  1.00  0.00    -0.199 N 
HETATM   12  N2  UNL     1      -4.730  35.436  30.005  1.00  0.00    -0.224 N 
ATOM     13  H2  UNL     1      -4.266  36.342  29.942  1.00  0.00     0.210 HD
ATOM     14  H3  UNL     1      -4.508  33.451  30.159  1.00  0.00     0.212 HD
BRANCH  12  15
HETATM   15  N1  UNL     1      -6.097  35.339  29.994  1.00  0.00    -0.266 N 
HETATM   16  C4  UNL     1      -6.847  36.364  30.046  1.00  0.00     0.156 C 
ATOM     17  H1  UNL     1      -6.526  34.416  29.942  1.00  0.00     0.190 HD
BRANCH  16  18
HETATM   18  C3  UNL     1      -6.404  37.745  30.123  1.00  0.00     0.264 C 
BRANCH  18  19
HETATM   19  O2  UNL     1      -5.548  38.120  29.075  1.00  0.00    -0.314 OA
BRANCH  19  20
HETATM   20  C2  UNL     1      -4.330  38.688  29.436  1.00  0.00     0.255 C 
HETATM   21  C1  UNL     1      -4.185  40.117  29.797  1.00  0.00     0.126 C 
HETATM   22  O1  UNL     1      -3.281  37.966  29.466  1.00  0.00    -0.266 OA
ENDBRANCH  19  20
ENDBRANCH  18  19
ENDBRANCH  16  18
BRANCH  16  23
HETATM   23  O3  UNL     1      -8.228  36.125  30.024  1.00  0.00    -0.347 OA
ATOM     24  H3  UNL     1      -8.518  35.224  29.946  1.00  0.00     0.219 HD
ENDBRANCH  16  23
ENDBRANCH  12  15
ENDBRANCH  10  11
BRANCH  10  25
HETATM   25  O4  UNL     1      -2.165  35.315  29.148  1.00  0.00    -0.265 OA
ATOM     26  H4  UNL     1      -1.778  36.122  29.466  1.00  0.00     0.247 HD
ENDBRANCH  10  25
ENDBRANCH   8  10
ENDBRANCH   1   8
BRANCH   7  27
HETATM   27  O9  UNL     1       0.282  35.304  31.025  1.00  0.00    -0.364 OA
ATOM     28  H9  UNL     1      -0.263  35.532  30.281  1.00  0.00     0.213 HD
ENDBRANCH   7  27
BRANCH   7  29
HETATM   29  C13 UNL     1      -1.106  36.831  32.061  1.00  0.00     0.313 C 
BRANCH  29  30
HETATM   30  O10 UNL     1      -2.493  36.840  32.077  1.00  0.00    -0.367 OA
ATOM     31  H10 UNL     1      -2.902  36.626  31.246  1.00  0.00     0.212 HD
ENDBRANCH  29  30
BRANCH  29  32
HETATM   32  O11 UNL     1      -0.742  37.439  30.855  1.00  0.00    -0.367 OA
ATOM     33  H11 UNL     1      -1.286  38.195  30.663  1.00  0.00     0.212 HD
ENDBRANCH  29  32
ENDBRANCH   7  29
BRANCH   3  34
HETATM   34  O5  UNL     1      -1.301  33.501  35.679  1.00  0.00    -0.383 OA
ATOM     35  H5  UNL     1      -1.125  33.932  36.508  1.00  0.00     0.210 HD
ENDBRANCH   3  34
BRANCH   3  36
HETATM   36  C8  UNL     1      -2.553  35.396  35.398  1.00  0.00     0.206 C 
BRANCH  36  37
HETATM   37  O6  UNL     1      -3.544  35.681  34.467  1.00  0.00    -0.398 OA
ATOM     38  H6  UNL     1      -3.479  36.587  34.189  1.00  0.00     0.209 HD
ENDBRANCH  36  37
ENDBRANCH   3  36
BRANCH   6  39
HETATM   39  O8  UNL     1       1.435  34.407  33.128  1.00  0.00    -0.387 OA
ATOM     40  H8  UNL     1       1.329  34.000  32.277  1.00  0.00     0.210 HD
ENDBRANCH   6  39
BRANCH   4  41
HETATM   41  O7  UNL     1       0.804  34.608  35.470  1.00  0.00    -0.384 OA
ATOM     42  H7  UNL     1       1.573  34.467  34.930  1.00  0.00     0.210 HD
ENDBRANCH   4  41
TORSDOF 18
ENDMDL
MODEL 5
REMARK VINA RESULT: -5.033277783      3.334      5.250
REMARK  18 active torsions:
REMARK  status: ('A' for Active; 'I' for Inactive)
REMARK    1  A    between atoms: C2_2  and  O2_4 
REMARK    2  A    between atoms: O2_4  and  C3_5 
REMARK    3  A    between atoms: C3_5  and  C4_6 
REMARK    4  A    between atoms: C4_6  and  O3_7 
REMARK    5  A    between atoms: N1_9  and  N2_11 
REMARK    6  A    between atoms: N3_13  and  N4_15 
REMARK    7  A    between atoms: N4_15  and  O4_16 
REMARK    8  A    between atoms: N4_15  and  C5_18 
REMARK    9  A    between atoms: C5_18  and  N5_20 
REMARK   10  A    between atoms: C7_22  and  O5_23 
REMARK   11  A    between atoms: C7_22  and  C8_25 
REMARK   12  A    between atoms: C8_25  and  O6_26 
REMARK   13  A    between atoms: C9_28  and  O7_30 
REMARK   14  A    between atoms: C11_32  and  O8_33 
REMARK   15  A    between atoms: C12_35  and  O9_36 
REMARK   16  A    between atoms: C12_35  and  C13_38 
REMARK   17  A    between atoms: C13_38  and  O10_39 
REMARK   18  A    between atoms: C13_38  and  O11_41 
ROOT
HETATM    1  N5  UNL     1      -3.280  37.690  29.683  1.00  0.00    -0.314 N 
HETATM    2  C6  UNL     1      -4.460  37.099  30.223  1.00  0.00     0.172 C 
HETATM    3  C7  UNL     1      -5.735  37.733  29.884  1.00  0.00     0.128 C 
HETATM    4  C9  UNL     1      -5.789  39.114  29.380  1.00  0.00     0.119 C 
HETATM    5  C10 UNL     1      -6.646  39.326  28.142  1.00  0.00     0.052 C 
HETATM    6  C11 UNL     1      -4.462  39.790  29.210  1.00  0.00     0.216 C 
HETATM    7  C12 UNL     1      -3.360  38.826  28.831  1.00  0.00     0.215 C 
ENDROOT
BRANCH   1   8
HETATM    8  C5  UNL     1      -2.039  37.116  30.024  1.00  0.00     0.223 C 
HETATM    9  S1  UNL     1      -1.701  35.571  29.581  1.00  0.00    -0.037 SA
BRANCH   8  10
HETATM   10  N4  UNL     1      -1.047  37.811  30.732  1.00  0.00    -0.119 N 
BRANCH  10  11
HETATM   11  N3  UNL     1      -1.408  38.290  32.031  1.00  0.00    -0.199 N 
HETATM   12  N2  UNL     1      -0.694  37.875  32.990  1.00  0.00    -0.224 N 
ATOM     13  H2  UNL     1       0.086  37.239  32.828  1.00  0.00     0.210 HD
ATOM     14  H3  UNL     1      -2.192  38.927  32.175  1.00  0.00     0.212 HD
BRANCH  12  15
HETATM   15  N1  UNL     1      -1.003  38.308  34.254  1.00  0.00    -0.266 N 
HETATM   16  C4  UNL     1      -1.547  37.547  35.114  1.00  0.00     0.156 C 
ATOM     17  H1  UNL     1      -0.790  39.271  34.511  1.00  0.00     0.190 HD
BRANCH  16  18
HETATM   18  C3  UNL     1      -1.916  36.157  34.914  1.00  0.00     0.264 C 
BRANCH  18  19
HETATM   19  O2  UNL     1      -2.597  35.924  33.707  1.00  0.00    -0.314 OA
BRANCH  19  20
HETATM   20  C2  UNL     1      -2.442  34.664  33.137  1.00  0.00     0.255 C 
HETATM   21  C1  UNL     1      -1.199  33.870  33.267  1.00  0.00     0.126 C 
HETATM   22  O1  UNL     1      -3.399  34.151  32.470  1.00  0.00    -0.266 OA
ENDBRANCH  19  20
ENDBRANCH  18  19
ENDBRANCH  16  18
BRANCH  16  23
HETATM   23  O3  UNL     1      -1.807  38.114  36.369  1.00  0.00    -0.347 OA
ATOM     24  H3  UNL     1      -1.914  39.057  36.412  1.00  0.00     0.219 HD
ENDBRANCH  16  23
ENDBRANCH  12  15
ENDBRANCH  10  11
BRANCH  10  25
HETATM   25  O4  UNL     1       0.200  38.098  30.366  1.00  0.00    -0.265 OA
ATOM     26  H4  UNL     1       0.830  37.408  30.540  1.00  0.00     0.247 HD
ENDBRANCH  10  25
ENDBRANCH   8  10
ENDBRANCH   1   8
BRANCH   7  27
HETATM   27  O9  UNL     1      -2.156  39.567  28.956  1.00  0.00    -0.364 OA
ATOM     28  H9  UNL     1      -2.350  40.379  29.409  1.00  0.00     0.213 HD
ENDBRANCH   7  27
BRANCH   7  29
HETATM   29  C13 UNL     1      -3.419  38.456  27.375  1.00  0.00     0.313 C 
BRANCH  29  30
HETATM   30  O10 UNL     1      -3.714  37.123  27.126  1.00  0.00    -0.367 OA
ATOM     31  H10 UNL     1      -4.636  36.939  26.985  1.00  0.00     0.212 HD
ENDBRANCH  29  30
BRANCH  29  32
HETATM   32  O11 UNL     1      -2.202  38.697  26.729  1.00  0.00    -0.367 OA
ATOM     33  H11 UNL     1      -1.635  37.934  26.749  1.00  0.00     0.212 HD
ENDBRANCH  29  32
ENDBRANCH   7  29
BRANCH   3  34
HETATM   34  O5  UNL     1      -6.519  37.630  31.106  1.00  0.00    -0.383 OA
ATOM     35  H5  UNL     1      -7.061  36.861  30.971  1.00  0.00     0.210 HD
ENDBRANCH   3  34
BRANCH   3  36
HETATM   36  C8  UNL     1      -6.531  36.735  29.001  1.00  0.00     0.206 C 
BRANCH  36  37
HETATM   37  O6  UNL     1      -7.732  36.407  29.618  1.00  0.00    -0.398 OA
ATOM     38  H6  UNL     1      -7.623  35.628  30.150  1.00  0.00     0.209 HD
ENDBRANCH  36  37
ENDBRANCH   3  36
BRANCH   6  39
HETATM   39  O8  UNL     1      -4.092  40.516  30.337  1.00  0.00    -0.387 OA
ATOM     40  H8  UNL     1      -3.888  41.421  30.132  1.00  0.00     0.210 HD
ENDBRANCH   6  39
BRANCH   4  41
HETATM   41  O7  UNL     1      -6.446  39.900  30.369  1.00  0.00    -0.384 OA
ATOM     42  H7  UNL     1      -5.772  40.340  30.874  1.00  0.00     0.210 HD
ENDBRANCH   4  41
TORSDOF 18
ENDMDL
