MODEL 1
REMARK VINA RESULT: -8.273629223      0.000      0.000
REMARK  11 active torsions:
REMARK  status: ('A' for Active; 'I' for Inactive)
REMARK    1  A    between atoms: N1_1  and  C1_4 
REMARK    2  A    between atoms: C1_4  and  N2_5 
REMARK    3  A    between atoms: N2_5  and  N3_7 
REMARK       I    between atoms: C2_9  and  N4_10 
REMARK       I    between atoms: C2_9  and  N7_17 
REMARK    4  A    between atoms: N4_10  and  N5_12 
REMARK       I    between atoms: N5_12  and  C3_14 
REMARK    5  A    between atoms: N7_17  and  N8_19 
REMARK    6  A    between atoms: C5_25  and  S1_26 
REMARK    7  A    between atoms: S1_26  and  C6_27 
REMARK    8  A    between atoms: C6_27  and  C7_28 
REMARK    9  A    between atoms: C8_33  and  C9_34 
REMARK   10  A    between atoms: C10_40  and  N15_41 
REMARK   11  A    between atoms: N16_44  and  N17_45 
ROOT
HETATM    1  N8  UNL     1      -7.036  30.567  -9.288  1.00  0.00    -0.212 N 
HETATM    2  C4  UNL     1      -7.174  30.228 -10.576  1.00  0.00     0.226 A 
HETATM    3  N9  UNL     1      -7.469  28.898 -10.672  1.00  0.00    -0.292 N 
ATOM      4  H9  UNL     1      -7.626  28.372 -11.531  1.00  0.00     0.187 HD
HETATM    5  N10 UNL     1      -7.512  28.423  -9.445  1.00  0.00    -0.277 N 
ATOM      6  H10 UNL     1      -7.710  27.457  -9.183  1.00  0.00     0.189 HD
HETATM    7  C5  UNL     1      -7.250  29.434  -8.597  1.00  0.00     0.182 A 
ENDROOT
BRANCH   7   8
HETATM    8  S1  UNL     1      -7.211  29.228  -6.821  1.00  0.00    -0.083 SA
BRANCH   8   9
HETATM    9  C6  UNL     1      -5.547  29.037  -6.201  1.00  0.00     0.162 C 
BRANCH   9  10
HETATM   10  C7  UNL     1      -5.102  27.669  -5.945  1.00  0.00     0.129 A 
HETATM   11  N11 UNL     1      -4.974  26.723  -6.884  1.00  0.00    -0.285 N 
HETATM   12  N12 UNL     1      -4.547  25.620  -6.331  1.00  0.00    -0.281 N 
ATOM     13  H11 UNL     1      -5.179  26.844  -7.876  1.00  0.00     0.188 HD
HETATM   14  C8  UNL     1      -4.389  25.860  -4.968  1.00  0.00     0.175 A 
ATOM     15  H12 UNL     1      -4.362  24.740  -6.810  1.00  0.00     0.188 HD
HETATM   16  N16 UNL     1      -4.733  27.121  -4.743  1.00  0.00    -0.228 N 
BRANCH  14  17
HETATM   17  C9  UNL     1      -3.917  24.787  -4.111  1.00  0.00     0.149 A 
HETATM   18  N13 UNL     1      -4.317  24.581  -2.809  1.00  0.00    -0.234 N 
HETATM   19  O2  UNL     1      -3.729  23.552  -2.321  1.00  0.00    -0.155 OA
ATOM     20  H13 UNL     1      -4.985  25.164  -2.305  1.00  0.00     0.197 HD
HETATM   21  N14 UNL     1      -2.953  23.033  -3.188  1.00  0.00    -0.224 N 
HETATM   22  C10 UNL     1      -3.039  23.785  -4.344  1.00  0.00     0.154 A 
ATOM     23  H14 UNL     1      -2.370  22.207  -3.053  1.00  0.00     0.198 HD
BRANCH  22  24
HETATM   24  N15 UNL     1      -2.371  23.507  -5.402  1.00  0.00    -0.382 N 
ATOM     25 2H15 UNL     1      -1.977  24.226  -6.009  1.00  0.00     0.157 HD
ATOM     26 1H15 UNL     1      -2.126  22.602  -5.801  1.00  0.00     0.157 HD
ENDBRANCH  22  24
ENDBRANCH  14  17
BRANCH  16  27
HETATM   27  N17 UNL     1      -4.750  27.838  -3.564  1.00  0.00    -0.335 N 
ATOM     28 2H17 UNL     1      -4.049  27.902  -2.825  1.00  0.00     0.177 HD
ATOM     29 1H17 UNL     1      -5.535  28.430  -3.293  1.00  0.00     0.177 HD
ENDBRANCH  16  27
ENDBRANCH   9  10
ENDBRANCH   8   9
ENDBRANCH   7   8
BRANCH   1  30
HETATM   30  N7  UNL     1      -6.719  31.820  -8.729  1.00  0.00    -0.120 N 
HETATM   31  C2  UNL     1      -7.694  32.659  -8.132  1.00  0.00     0.727 C 
HETATM   32  N3  UNL     1      -8.797  32.829  -8.810  1.00  0.00    -0.121 N 
HETATM   33  N4  UNL     1      -7.485  33.277  -6.872  1.00  0.00    -0.126 N 
ATOM     34  H3  UNL     1      -8.939  32.381  -9.715  1.00  0.00     0.206 HD
ATOM     35  H4  UNL     1      -7.467  32.729  -6.011  1.00  0.00     0.206 HD
ATOM     36  H7  UNL     1      -5.749  32.136  -8.755  1.00  0.00     0.206 HD
BRANCH  32  37
HETATM   37  N2  UNL     1      -9.768  33.646  -8.248  1.00  0.00    -0.236 N 
ATOM     38  H2  UNL     1      -9.517  34.484  -7.723  1.00  0.00     0.199 HD
BRANCH  37  39
HETATM   39  C1  UNL     1     -10.993  33.306  -8.413  1.00  0.00     0.061 C 
BRANCH  39  40
HETATM   40  N1  UNL     1     -12.247  33.183  -8.528  1.00  0.00    -0.350 N 
ATOM     41  H12 UNL     1     -12.222  33.865  -9.285  1.00  0.00     0.167 HD
ATOM     42  H11 UNL     1     -13.243  32.966  -8.484  1.00  0.00     0.167 HD
ENDBRANCH  39  40
ENDBRANCH  37  39
ENDBRANCH  32  37
BRANCH  33  43
HETATM   43  N5  UNL     1      -7.306  34.663  -6.851  1.00  0.00    -0.240 N 
HETATM   44  C3  UNL     1      -7.001  35.321  -5.632  1.00  0.00     0.347 C 
HETATM   45  N6  UNL     1      -6.823  36.725  -5.631  1.00  0.00    -0.038 NA
HETATM   46  O1  UNL     1      -6.895  34.647  -4.583  1.00  0.00    -0.249 OA
ATOM     47  H5  UNL     1      -7.395  35.201  -7.713  1.00  0.00     0.192 HD
ENDBRANCH  33  43
ENDBRANCH   1  30
TORSDOF 11
ENDMDL
MODEL 2
REMARK VINA RESULT: -8.186394349      4.045      8.630
REMARK  11 active torsions:
REMARK  status: ('A' for Active; 'I' for Inactive)
REMARK    1  A    between atoms: N1_1  and  C1_4 
REMARK    2  A    between atoms: C1_4  and  N2_5 
REMARK    3  A    between atoms: N2_5  and  N3_7 
REMARK       I    between atoms: C2_9  and  N4_10 
REMARK       I    between atoms: C2_9  and  N7_17 
REMARK    4  A    between atoms: N4_10  and  N5_12 
REMARK       I    between atoms: N5_12  and  C3_14 
REMARK    5  A    between atoms: N7_17  and  N8_19 
REMARK    6  A    between atoms: C5_25  and  S1_26 
REMARK    7  A    between atoms: S1_26  and  C6_27 
REMARK    8  A    between atoms: C6_27  and  C7_28 
REMARK    9  A    between atoms: C8_33  and  C9_34 
REMARK   10  A    between atoms: C10_40  and  N15_41 
REMARK   11  A    between atoms: N16_44  and  N17_45 
ROOT
HETATM    1  N8  UNL     1     -10.842  28.697 -10.964  1.00  0.00    -0.212 N 
HETATM    2  C4  UNL     1     -11.472  27.518 -10.872  1.00  0.00     0.226 A 
HETATM    3  N9  UNL     1     -12.766  27.656 -11.285  1.00  0.00    -0.292 N 
ATOM      4  H9  UNL     1     -13.474  26.922 -11.319  1.00  0.00     0.187 HD
HETATM    5  N10 UNL     1     -12.929  28.916 -11.631  1.00  0.00    -0.277 N 
ATOM      6  H10 UNL     1     -13.790  29.334 -11.983  1.00  0.00     0.189 HD
HETATM    7  C5  UNL     1     -11.761  29.555 -11.438  1.00  0.00     0.182 A 
ENDROOT
BRANCH   7   8
HETATM    8  S1  UNL     1     -11.536  31.295 -11.787  1.00  0.00    -0.083 SA
BRANCH   8   9
HETATM    9  C6  UNL     1     -11.700  32.303 -10.322  1.00  0.00     0.162 C 
BRANCH   9  10
HETATM   10  C7  UNL     1     -10.527  33.085  -9.937  1.00  0.00     0.129 A 
HETATM   11  N11 UNL     1      -9.377  33.119 -10.623  1.00  0.00    -0.285 N 
HETATM   12  N12 UNL     1      -8.539  33.918 -10.021  1.00  0.00    -0.281 N 
ATOM     13  H11 UNL     1      -9.186  32.600 -11.481  1.00  0.00     0.188 HD
HETATM   14  C8  UNL     1      -9.174  34.429  -8.892  1.00  0.00     0.175 A 
ATOM     15  H12 UNL     1      -7.589  34.131 -10.323  1.00  0.00     0.188 HD
HETATM   16  N16 UNL     1     -10.393  33.910  -8.850  1.00  0.00    -0.228 N 
BRANCH  14  17
HETATM   17  C9  UNL     1      -8.456  35.357  -8.036  1.00  0.00     0.149 A 
HETATM   18  N13 UNL     1      -8.236  35.182  -6.687  1.00  0.00    -0.234 N 
HETATM   19  O2  UNL     1      -7.567  36.167  -6.214  1.00  0.00    -0.155 OA
ATOM     20  H13 UNL     1      -8.559  34.382  -6.143  1.00  0.00     0.197 HD
HETATM   21  N14 UNL     1      -7.310  37.010  -7.134  1.00  0.00    -0.224 N 
HETATM   22  C10 UNL     1      -7.856  36.538  -8.312  1.00  0.00     0.154 A 
ATOM     23  H14 UNL     1      -6.793  37.882  -7.020  1.00  0.00     0.198 HD
BRANCH  22  24
HETATM   24  N15 UNL     1      -7.759  37.171  -9.422  1.00  0.00    -0.382 N 
ATOM     25 2H15 UNL     1      -7.273  36.788 -10.233  1.00  0.00     0.157 HD
ATOM     26 1H15 UNL     1      -8.117  38.089  -9.684  1.00  0.00     0.157 HD
ENDBRANCH  22  24
ENDBRANCH  14  17
BRANCH  16  27
HETATM   27  N17 UNL     1     -11.408  34.102  -7.934  1.00  0.00    -0.335 N 
ATOM     28 2H17 UNL     1     -11.624  33.590  -7.078  1.00  0.00     0.177 HD
ATOM     29 1H17 UNL     1     -12.102  34.843  -8.031  1.00  0.00     0.177 HD
ENDBRANCH  16  27
ENDBRANCH   9  10
ENDBRANCH   8   9
ENDBRANCH   7   8
BRANCH   1  30
HETATM   30  N7  UNL     1      -9.513  29.020 -10.632  1.00  0.00    -0.120 N 
HETATM   31  C2  UNL     1      -9.061  29.109  -9.290  1.00  0.00     0.727 C 
HETATM   32  N3  UNL     1      -9.818  29.791  -8.474  1.00  0.00    -0.121 N 
HETATM   33  N4  UNL     1      -7.857  28.493  -8.859  1.00  0.00    -0.126 N 
ATOM     34  H3  UNL     1     -10.682  30.230  -8.792  1.00  0.00     0.206 HD
ATOM     35  H4  UNL     1      -7.777  27.478  -8.792  1.00  0.00     0.206 HD
ATOM     36  H7  UNL     1      -8.849  29.197 -11.386  1.00  0.00     0.206 HD
BRANCH  32  37
HETATM   37  N2  UNL     1      -9.399  29.893  -7.154  1.00  0.00    -0.236 N 
ATOM     38  H2  UNL     1      -9.197  29.063  -6.597  1.00  0.00     0.199 HD
BRANCH  37  39
HETATM   39  C1  UNL     1      -9.275  31.071  -6.665  1.00  0.00     0.061 C 
BRANCH  39  40
HETATM   40  N1  UNL     1      -9.029  32.134  -6.023  1.00  0.00    -0.350 N 
ATOM     41  H12 UNL     1      -9.941  32.047  -5.575  1.00  0.00     0.167 HD
ATOM     42  H11 UNL     1      -8.675  32.990  -5.596  1.00  0.00     0.167 HD
ENDBRANCH  39  40
ENDBRANCH  37  39
ENDBRANCH  32  37
BRANCH  33  43
HETATM   43  N5  UNL     1      -6.785  29.327  -8.530  1.00  0.00    -0.240 N 
HETATM   44  C3  UNL     1      -6.151  29.201  -7.267  1.00  0.00     0.347 C 
HETATM   45  N6  UNL     1      -5.066  30.054  -6.951  1.00  0.00    -0.038 NA
HETATM   46  O1  UNL     1      -6.562  28.340  -6.458  1.00  0.00    -0.249 OA
ATOM     47  H5  UNL     1      -6.458  30.025  -9.198  1.00  0.00     0.192 HD
ENDBRANCH  33  43
ENDBRANCH   1  30
TORSDOF 11
ENDMDL
MODEL 3
REMARK VINA RESULT: -8.154986693      3.262      8.032
REMARK  11 active torsions:
REMARK  status: ('A' for Active; 'I' for Inactive)
REMARK    1  A    between atoms: N1_1  and  C1_4 
REMARK    2  A    between atoms: C1_4  and  N2_5 
REMARK    3  A    between atoms: N2_5  and  N3_7 
REMARK       I    between atoms: C2_9  and  N4_10 
REMARK       I    between atoms: C2_9  and  N7_17 
REMARK    4  A    between atoms: N4_10  and  N5_12 
REMARK       I    between atoms: N5_12  and  C3_14 
REMARK    5  A    between atoms: N7_17  and  N8_19 
REMARK    6  A    between atoms: C5_25  and  S1_26 
REMARK    7  A    between atoms: S1_26  and  C6_27 
REMARK    8  A    between atoms: C6_27  and  C7_28 
REMARK    9  A    between atoms: C8_33  and  C9_34 
REMARK   10  A    between atoms: C10_40  and  N15_41 
REMARK   11  A    between atoms: N16_44  and  N17_45 
ROOT
HETATM    1  N8  UNL     1      -9.486  29.147 -10.006  1.00  0.00    -0.212 N 
HETATM    2  C4  UNL     1     -10.493  28.347 -10.377  1.00  0.00     0.226 A 
HETATM    3  N9  UNL     1     -11.086  28.847 -11.501  1.00  0.00    -0.292 N 
ATOM      4  H9  UNL     1     -11.879  28.442 -12.000  1.00  0.00     0.187 HD
HETATM    5  N10 UNL     1     -10.444  29.951 -11.818  1.00  0.00    -0.277 N 
ATOM      6  H10 UNL     1     -10.650  30.557 -12.611  1.00  0.00     0.189 HD
HETATM    7  C5  UNL     1      -9.467  30.139 -10.912  1.00  0.00     0.182 A 
ENDROOT
BRANCH   7   8
HETATM    8  S1  UNL     1      -8.343  31.529 -10.969  1.00  0.00    -0.083 SA
BRANCH   8   9
HETATM    9  C6  UNL     1      -8.910  32.897  -9.970  1.00  0.00     0.162 C 
BRANCH   9  10
HETATM   10  C7  UNL     1      -8.269  33.060  -8.667  1.00  0.00     0.129 A 
HETATM   11  N11 UNL     1      -7.574  32.104  -8.037  1.00  0.00    -0.285 N 
HETATM   12  N12 UNL     1      -7.123  32.573  -6.905  1.00  0.00    -0.281 N 
ATOM     13  H11 UNL     1      -7.421  31.158  -8.386  1.00  0.00     0.188 HD
HETATM   14  C8  UNL     1      -7.544  33.896  -6.794  1.00  0.00     0.175 A 
ATOM     15  H12 UNL     1      -6.563  32.062  -6.223  1.00  0.00     0.188 HD
HETATM   16  N16 UNL     1      -8.247  34.184  -7.881  1.00  0.00    -0.228 N 
BRANCH  14  17
HETATM   17  C9  UNL     1      -7.173  34.660  -5.616  1.00  0.00     0.149 A 
HETATM   18  N13 UNL     1      -7.405  34.271  -4.315  1.00  0.00    -0.234 N 
HETATM   19  O2  UNL     1      -6.956  35.152  -3.500  1.00  0.00    -0.155 OA
ATOM     20  H13 UNL     1      -7.869  33.405  -4.040  1.00  0.00     0.197 HD
HETATM   21  N14 UNL     1      -6.432  36.121  -4.141  1.00  0.00    -0.224 N 
HETATM   22  C10 UNL     1      -6.546  35.853  -5.492  1.00  0.00     0.154 A 
ATOM     23  H14 UNL     1      -6.003  36.950  -3.730  1.00  0.00     0.198 HD
BRANCH  22  24
HETATM   24  N15 UNL     1      -6.105  36.647  -6.395  1.00  0.00    -0.382 N 
ATOM     25 2H15 UNL     1      -5.552  36.325  -7.189  1.00  0.00     0.157 HD
ATOM     26 1H15 UNL     1      -6.214  37.657  -6.487  1.00  0.00     0.157 HD
ENDBRANCH  22  24
ENDBRANCH  14  17
BRANCH  16  27
HETATM   27  N17 UNL     1      -8.874  35.358  -8.247  1.00  0.00    -0.335 N 
ATOM     28 2H17 UNL     1      -8.765  35.924  -9.088  1.00  0.00     0.177 HD
ATOM     29 1H17 UNL     1      -9.572  35.813  -7.659  1.00  0.00     0.177 HD
ENDBRANCH  16  27
ENDBRANCH   9  10
ENDBRANCH   8   9
ENDBRANCH   7   8
BRANCH   1  30
HETATM   30  N7  UNL     1      -8.618  29.027  -8.904  1.00  0.00    -0.120 N 
HETATM   31  C2  UNL     1      -7.358  28.381  -8.991  1.00  0.00     0.727 C 
HETATM   32  N3  UNL     1      -7.348  27.222  -9.592  1.00  0.00    -0.121 N 
HETATM   33  N4  UNL     1      -6.177  28.959  -8.456  1.00  0.00    -0.126 N 
ATOM     34  H3  UNL     1      -8.201  26.814  -9.974  1.00  0.00     0.206 HD
ATOM     35  H4  UNL     1      -5.754  29.785  -8.881  1.00  0.00     0.206 HD
ATOM     36  H7  UNL     1      -8.906  29.420  -8.008  1.00  0.00     0.206 HD
BRANCH  32  37
HETATM   37  N2  UNL     1      -6.127  26.569  -9.692  1.00  0.00    -0.236 N 
ATOM     38  H2  UNL     1      -5.554  26.387  -8.867  1.00  0.00     0.199 HD
BRANCH  37  39
HETATM   39  C1  UNL     1      -5.747  26.203 -10.860  1.00  0.00     0.061 C 
BRANCH  39  40
HETATM   40  N1  UNL     1      -5.381  26.060 -12.063  1.00  0.00    -0.350 N 
ATOM     41  H12 UNL     1      -6.363  26.079 -12.340  1.00  0.00     0.167 HD
ATOM     42  H11 UNL     1      -4.919  25.943 -12.965  1.00  0.00     0.167 HD
ENDBRANCH  39  40
ENDBRANCH  37  39
ENDBRANCH  32  37
BRANCH  33  43
HETATM   43  N5  UNL     1      -5.614  28.357  -7.328  1.00  0.00    -0.240 N 
HETATM   44  C3  UNL     1      -5.752  28.967  -6.055  1.00  0.00     0.347 C 
HETATM   45  N6  UNL     1      -5.175  28.342  -4.923  1.00  0.00    -0.038 NA
HETATM   46  O1  UNL     1      -6.381  30.045  -5.957  1.00  0.00    -0.249 OA
ATOM     47  H5  UNL     1      -5.104  27.478  -7.420  1.00  0.00     0.192 HD
ENDBRANCH  33  43
ENDBRANCH   1  30
TORSDOF 11
ENDMDL
MODEL 4
REMARK VINA RESULT: -8.079536934      3.865      5.412
REMARK  11 active torsions:
REMARK  status: ('A' for Active; 'I' for Inactive)
REMARK    1  A    between atoms: N1_1  and  C1_4 
REMARK    2  A    between atoms: C1_4  and  N2_5 
REMARK    3  A    between atoms: N2_5  and  N3_7 
REMARK       I    between atoms: C2_9  and  N4_10 
REMARK       I    between atoms: C2_9  and  N7_17 
REMARK    4  A    between atoms: N4_10  and  N5_12 
REMARK       I    between atoms: N5_12  and  C3_14 
REMARK    5  A    between atoms: N7_17  and  N8_19 
REMARK    6  A    between atoms: C5_25  and  S1_26 
REMARK    7  A    between atoms: S1_26  and  C6_27 
REMARK    8  A    between atoms: C6_27  and  C7_28 
REMARK    9  A    between atoms: C8_33  and  C9_34 
REMARK   10  A    between atoms: C10_40  and  N15_41 
REMARK   11  A    between atoms: N16_44  and  N17_45 
ROOT
HETATM    1  N8  UNL     1      -6.640  25.673 -11.079  1.00  0.00    -0.212 N 
HETATM    2  C4  UNL     1      -7.692  25.976 -11.851  1.00  0.00     0.226 A 
HETATM    3  N9  UNL     1      -7.603  25.299 -13.034  1.00  0.00    -0.292 N 
ATOM      4  H9  UNL     1      -8.266  25.341 -13.808  1.00  0.00     0.187 HD
HETATM    5  N10 UNL     1      -6.499  24.584 -12.987  1.00  0.00    -0.277 N 
ATOM      6  H10 UNL     1      -6.153  23.968 -13.723  1.00  0.00     0.189 HD
HETATM    7  C5  UNL     1      -5.909  24.806 -11.799  1.00  0.00     0.182 A 
ENDROOT
BRANCH   7   8
HETATM    8  S1  UNL     1      -4.374  24.025 -11.315  1.00  0.00    -0.083 SA
BRANCH   8   9
HETATM    9  C6  UNL     1      -4.602  22.859  -9.982  1.00  0.00     0.162 C 
BRANCH   9  10
HETATM   10  C7  UNL     1      -4.054  23.243  -8.683  1.00  0.00     0.129 A 
HETATM   11  N11 UNL     1      -3.537  24.446  -8.401  1.00  0.00    -0.285 N 
HETATM   12  N12 UNL     1      -3.148  24.467  -7.155  1.00  0.00    -0.281 N 
ATOM     13  H11 UNL     1      -3.459  25.223  -9.057  1.00  0.00     0.188 HD
HETATM   14  C8  UNL     1      -3.426  23.220  -6.600  1.00  0.00     0.175 A 
ATOM     15  H12 UNL     1      -2.718  25.256  -6.673  1.00  0.00     0.188 HD
HETATM   16  N16 UNL     1      -3.981  22.477  -7.547  1.00  0.00    -0.228 N 
BRANCH  14  17
HETATM   17  C9  UNL     1      -3.091  22.975  -5.208  1.00  0.00     0.149 A 
HETATM   18  N13 UNL     1      -2.241  21.987  -4.761  1.00  0.00    -0.234 N 
HETATM   19  O2  UNL     1      -2.143  22.029  -3.484  1.00  0.00    -0.155 OA
ATOM     20  H13 UNL     1      -1.759  21.318  -5.361  1.00  0.00     0.197 HD
HETATM   21  N14 UNL     1      -2.863  22.971  -3.016  1.00  0.00    -0.224 N 
HETATM   22  C10 UNL     1      -3.485  23.602  -4.076  1.00  0.00     0.154 A 
ATOM     23  H14 UNL     1      -2.962  23.217  -2.031  1.00  0.00     0.198 HD
BRANCH  22  24
HETATM   24  N15 UNL     1      -4.277  24.597  -3.921  1.00  0.00    -0.382 N 
ATOM     25 2H15 UNL     1      -4.238  25.428  -4.510  1.00  0.00     0.157 HD
ATOM     26 1H15 UNL     1      -5.028  24.736  -3.245  1.00  0.00     0.157 HD
ENDBRANCH  22  24
ENDBRANCH  14  17
BRANCH  16  27
HETATM   27  N17 UNL     1      -4.435  21.174  -7.500  1.00  0.00    -0.335 N 
ATOM     28 2H17 UNL     1      -5.383  20.814  -7.392  1.00  0.00     0.177 HD
ATOM     29 1H17 UNL     1      -3.810  20.372  -7.578  1.00  0.00     0.177 HD
ENDBRANCH  16  27
ENDBRANCH   9  10
ENDBRANCH   8   9
ENDBRANCH   7   8
BRANCH   1  30
HETATM   30  N7  UNL     1      -6.317  26.149  -9.794  1.00  0.00    -0.120 N 
HETATM   31  C2  UNL     1      -6.615  27.469  -9.371  1.00  0.00     0.727 C 
HETATM   32  N3  UNL     1      -6.297  28.424 -10.204  1.00  0.00    -0.121 N 
HETATM   33  N4  UNL     1      -7.222  27.739  -8.117  1.00  0.00    -0.126 N 
ATOM     34  H3  UNL     1      -5.861  28.221 -11.103  1.00  0.00     0.206 HD
ATOM     35  H4  UNL     1      -8.194  27.490  -7.936  1.00  0.00     0.206 HD
ATOM     36  H7  UNL     1      -5.851  25.518  -9.141  1.00  0.00     0.206 HD
BRANCH  32  37
HETATM   37  N2  UNL     1      -6.579  29.726  -9.814  1.00  0.00    -0.236 N 
ATOM     38  H2  UNL     1      -6.359  30.058  -8.875  1.00  0.00     0.199 HD
BRANCH  37  39
HETATM   39  C1  UNL     1      -7.126  30.496 -10.681  1.00  0.00     0.061 C 
BRANCH  39  40
HETATM   40  N1  UNL     1      -7.577  31.422 -11.417  1.00  0.00    -0.350 N 
ATOM     41  H12 UNL     1      -8.483  31.310 -10.962  1.00  0.00     0.167 HD
ATOM     42  H11 UNL     1      -7.773  32.173 -12.079  1.00  0.00     0.167 HD
ENDBRANCH  39  40
ENDBRANCH  37  39
ENDBRANCH  32  37
BRANCH  33  43
HETATM   43  N5  UNL     1      -6.440  28.360  -7.139  1.00  0.00    -0.240 N 
HETATM   44  C3  UNL     1      -5.465  27.612  -6.430  1.00  0.00     0.347 C 
HETATM   45  N6  UNL     1      -4.682  28.257  -5.442  1.00  0.00    -0.038 NA
HETATM   46  O1  UNL     1      -5.316  26.397  -6.692  1.00  0.00    -0.249 OA
ATOM     47  H5  UNL     1      -6.570  29.350  -6.934  1.00  0.00     0.192 HD
ENDBRANCH  33  43
ENDBRANCH   1  30
TORSDOF 11
ENDMDL
MODEL 5
REMARK VINA RESULT: -8.051842619      3.666      8.074
REMARK  11 active torsions:
REMARK  status: ('A' for Active; 'I' for Inactive)
REMARK    1  A    between atoms: N1_1  and  C1_4 
REMARK    2  A    between atoms: C1_4  and  N2_5 
REMARK    3  A    between atoms: N2_5  and  N3_7 
REMARK       I    between atoms: C2_9  and  N4_10 
REMARK       I    between atoms: C2_9  and  N7_17 
REMARK    4  A    between atoms: N4_10  and  N5_12 
REMARK       I    between atoms: N5_12  and  C3_14 
REMARK    5  A    between atoms: N7_17  and  N8_19 
REMARK    6  A    between atoms: C5_25  and  S1_26 
REMARK    7  A    between atoms: S1_26  and  C6_27 
REMARK    8  A    between atoms: C6_27  and  C7_28 
REMARK    9  A    between atoms: C8_33  and  C9_34 
REMARK   10  A    between atoms: C10_40  and  N15_41 
REMARK   11  A    between atoms: N16_44  and  N17_45 
ROOT
HETATM    1  N8  UNL     1     -10.557  29.836  -9.592  1.00  0.00    -0.212 N 
HETATM    2  C4  UNL     1     -11.190  28.894 -10.303  1.00  0.00     0.226 A 
HETATM    3  N9  UNL     1     -12.294  29.434 -10.900  1.00  0.00    -0.292 N 
ATOM      4  H9  UNL     1     -12.959  28.945 -11.499  1.00  0.00     0.187 HD
HETATM    5  N10 UNL     1     -12.336  30.704 -10.557  1.00  0.00    -0.277 N 
ATOM      6  H10 UNL     1     -13.045  31.378 -10.844  1.00  0.00     0.189 HD
HETATM    7  C5  UNL     1     -11.282  30.956  -9.761  1.00  0.00     0.182 A 
ENDROOT
BRANCH   7   8
HETATM    8  S1  UNL     1     -10.952  32.570  -9.065  1.00  0.00    -0.083 SA
BRANCH   8   9
HETATM    9  C6  UNL     1      -9.442  33.282  -9.699  1.00  0.00     0.162 C 
BRANCH   9  10
HETATM   10  C7  UNL     1      -8.712  34.169  -8.795  1.00  0.00     0.129 A 
HETATM   11  N11 UNL     1      -8.440  35.456  -9.048  1.00  0.00    -0.285 N 
HETATM   12  N12 UNL     1      -7.788  35.965  -8.038  1.00  0.00    -0.281 N 
ATOM     13  H11 UNL     1      -8.701  35.958  -9.897  1.00  0.00     0.188 HD
HETATM   14  C8  UNL     1      -7.629  34.964  -7.084  1.00  0.00     0.175 A 
ATOM     15  H12 UNL     1      -7.454  36.926  -7.962  1.00  0.00     0.188 HD
HETATM   16  N16 UNL     1      -8.200  33.865  -7.559  1.00  0.00    -0.228 N 
BRANCH  14  17
HETATM   17  C9  UNL     1      -6.932  35.270  -5.847  1.00  0.00     0.149 A 
HETATM   18  N13 UNL     1      -5.912  36.187  -5.720  1.00  0.00    -0.234 N 
HETATM   19  O2  UNL     1      -5.507  36.236  -4.505  1.00  0.00    -0.155 OA
ATOM     20  H13 UNL     1      -5.533  36.747  -6.483  1.00  0.00     0.197 HD
HETATM   21  N14 UNL     1      -6.170  35.420  -3.784  1.00  0.00    -0.224 N 
HETATM   22  C10 UNL     1      -7.089  34.782  -4.595  1.00  0.00     0.154 A 
ATOM     23  H14 UNL     1      -6.044  35.265  -2.784  1.00  0.00     0.198 HD
BRANCH  22  24
HETATM   24  N15 UNL     1      -7.908  33.901  -4.153  1.00  0.00    -0.382 N 
ATOM     25 2H15 UNL     1      -7.702  33.316  -3.344  1.00  0.00     0.157 HD
ATOM     26 1H15 UNL     1      -8.834  33.642  -4.491  1.00  0.00     0.157 HD
ENDBRANCH  22  24
ENDBRANCH  14  17
BRANCH  16  27
HETATM   27  N17 UNL     1      -8.312  32.610  -6.997  1.00  0.00    -0.335 N 
ATOM     28 2H17 UNL     1      -8.151  31.691  -7.408  1.00  0.00     0.177 HD
ATOM     29 1H17 UNL     1      -8.591  32.467  -6.026  1.00  0.00     0.177 HD
ENDBRANCH  16  27
ENDBRANCH   9  10
ENDBRANCH   8   9
ENDBRANCH   7   8
BRANCH   1  30
HETATM   30  N7  UNL     1      -9.394  29.723  -8.808  1.00  0.00    -0.120 N 
HETATM   31  C2  UNL     1      -8.111  29.507  -9.373  1.00  0.00     0.727 C 
HETATM   32  N3  UNL     1      -8.033  28.571 -10.280  1.00  0.00    -0.121 N 
HETATM   33  N4  UNL     1      -6.977  30.264  -8.977  1.00  0.00    -0.126 N 
ATOM     34  H3  UNL     1      -8.853  28.032 -10.559  1.00  0.00     0.206 HD
ATOM     35  H4  UNL     1      -6.889  31.251  -9.219  1.00  0.00     0.206 HD
ATOM     36  H7  UNL     1      -9.476  29.800  -7.794  1.00  0.00     0.206 HD
BRANCH  32  37
HETATM   37  N2  UNL     1      -6.788  28.340 -10.849  1.00  0.00    -0.236 N 
ATOM     38  H2  UNL     1      -6.316  29.057 -11.400  1.00  0.00     0.199 HD
BRANCH  37  39
HETATM   39  C1  UNL     1      -6.255  27.191 -10.655  1.00  0.00     0.061 C 
BRANCH  39  40
HETATM   40  N1  UNL     1      -5.709  26.123 -10.250  1.00  0.00    -0.350 N 
ATOM     41  H12 UNL     1      -4.868  26.660 -10.040  1.00  0.00     0.167 HD
ATOM     42  H11 UNL     1      -5.426  25.184  -9.968  1.00  0.00     0.167 HD
ENDBRANCH  39  40
ENDBRANCH  37  39
ENDBRANCH  32  37
BRANCH  33  43
HETATM   43  N5  UNL     1      -5.984  29.608  -8.243  1.00  0.00    -0.240 N 
HETATM   44  C3  UNL     1      -5.982  29.685  -6.826  1.00  0.00     0.347 C 
HETATM   45  N6  UNL     1      -4.969  29.014  -6.099  1.00  0.00    -0.038 NA
HETATM   46  O1  UNL     1      -6.876  30.343  -6.247  1.00  0.00    -0.249 OA
ATOM     47  H5  UNL     1      -5.262  29.074  -8.726  1.00  0.00     0.192 HD
ENDBRANCH  33  43
ENDBRANCH   1  30
TORSDOF 11
ENDMDL
