MODEL 1
REMARK VINA RESULT: -8.415155243      0.000      0.000
REMARK  11 active torsions:
REMARK  status: ('A' for Active; 'I' for Inactive)
REMARK    1  A    between atoms: N1_1  and  C1_4 
REMARK    2  A    between atoms: C4_12  and  C5_13 
REMARK    3  A    between atoms: C5_13  and  S1_14 
REMARK    4  A    between atoms: S1_14  and  C6_15 
REMARK    5  A    between atoms: C7_20  and  C8_21 
REMARK    6  A    between atoms: C8_21  and  C9_26 
REMARK    7  A    between atoms: N6_22  and  O2_24 
REMARK    8  A    between atoms: C9_26  and  O3_27 
REMARK    9  A    between atoms: C9_26  and  O4_29 
REMARK   10  A    between atoms: N7_33  and  N8_34 
REMARK   11  A    between atoms: C11_40  and  N11_41 
ROOT
HETATM    1  S1  UNL     1     -11.064  31.935 -10.008  1.00  0.00    -0.083 SA
ENDROOT
BRANCH   1   2
HETATM    2  C5  UNL     1     -11.643  33.250  -8.953  1.00  0.00     0.160 C 
BRANCH   2   3
HETATM    3  C4  UNL     1     -10.528  33.880  -8.226  1.00  0.00     0.108 A 
HETATM    4  N3  UNL     1      -9.832  34.982  -8.549  1.00  0.00    -0.324 N 
HETATM    5  C3  UNL     1      -8.902  35.167  -7.583  1.00  0.00     0.216 A 
ATOM      6  H3  UNL     1      -9.978  35.571  -9.369  1.00  0.00     0.169 HD
HETATM    7  C2  UNL     1      -7.985  36.195  -7.544  1.00  0.00     0.306 C 
HETATM    8  N10 UNL     1      -9.029  34.170  -6.659  1.00  0.00    -0.062 N 
HETATM    9  N2  UNL     1      -6.856  36.300  -6.795  1.00  0.00    -0.153 N 
HETATM   10  O1  UNL     1      -8.231  37.152  -8.298  1.00  0.00    -0.263 OA
HETATM   11  C1  UNL     1      -6.427  35.494  -5.828  1.00  0.00     0.693 C 
ATOM     12  H2  UNL     1      -6.260  37.101  -7.003  1.00  0.00     0.187 HD
HETATM   13  N12 UNL     1      -7.104  34.540  -5.163  1.00  0.00    -0.021 N 
HETATM   14  C11 UNL     1      -8.290  33.992  -5.551  1.00  0.00     0.713 C 
ATOM     15  H12 UNL     1      -6.695  34.197  -4.293  1.00  0.00     0.203 HD
HETATM   16  N9  UNL     1     -10.008  33.422  -7.077  1.00  0.00    -0.265 N 
ATOM     17  H9  UNL     1     -10.340  32.590  -6.591  1.00  0.00     0.189 HD
BRANCH  11  18
HETATM   18  N1  UNL     1      -5.203  35.650  -5.486  1.00  0.00    -0.234 N 
ATOM     19  H12 UNL     1      -4.820  36.586  -5.620  1.00  0.00     0.174 HD
ATOM     20  H11 UNL     1      -4.742  34.819  -5.116  1.00  0.00     0.174 HD
ENDBRANCH  11  18
BRANCH  14  21
HETATM   21  N11 UNL     1      -8.768  33.162  -4.693  1.00  0.00    -0.232 N 
ATOM     22 2H11 UNL     1      -8.820  33.546  -3.749  1.00  0.00     0.174 HD
ATOM     23 1H11 UNL     1      -9.026  32.247  -5.062  1.00  0.00     0.174 HD
ENDBRANCH  14  21
ENDBRANCH   2   3
ENDBRANCH   1   2
BRANCH   1  24
HETATM   24  C6  UNL     1      -9.720  30.991  -9.330  1.00  0.00     0.181 A 
HETATM   25  N4  UNL     1      -9.878  30.214  -8.225  1.00  0.00    -0.278 N 
HETATM   26  N5  UNL     1      -8.889  29.522  -7.764  1.00  0.00    -0.294 N 
ATOM     27  H4  UNL     1     -10.784  30.176  -7.758  1.00  0.00     0.189 HD
HETATM   28  C7  UNL     1      -7.624  29.486  -8.302  1.00  0.00     0.117 A 
ATOM     29  H5  UNL     1      -9.061  28.957  -6.933  1.00  0.00     0.187 HD
HETATM   30  C10 UNL     1      -7.451  30.261  -9.410  1.00  0.00     0.155 A 
HETATM   31  S2  UNL     1      -6.011  30.349 -10.155  1.00  0.00    -0.056 SA
HETATM   32  N7  UNL     1      -8.507  30.983  -9.883  1.00  0.00    -0.226 N 
BRANCH  28  33
HETATM   33  C8  UNL     1      -6.635  28.636  -7.671  1.00  0.00     0.117 C 
HETATM   34  N6  UNL     1      -6.521  27.416  -8.118  1.00  0.00    -0.266 N 
ATOM     35  H6  UNL     1      -5.820  26.830  -7.665  1.00  0.00     0.194 HD
BRANCH  34  36
HETATM   36  O2  UNL     1      -7.225  26.847  -9.108  1.00  0.00    -0.290 OA
ATOM     37  H2  UNL     1      -7.472  27.242  -9.937  1.00  0.00     0.244 HD
ENDBRANCH  34  36
BRANCH  33  38
HETATM   38  C9  UNL     1      -5.724  29.022  -6.601  1.00  0.00     0.309 C 
BRANCH  38  39
HETATM   39  O3  UNL     1      -4.948  30.171  -6.904  1.00  0.00    -0.366 OA
ATOM     40  H3  UNL     1      -4.054  29.970  -7.153  1.00  0.00     0.213 HD
ENDBRANCH  38  39
BRANCH  38  41
HETATM   41  O4  UNL     1      -4.746  27.993  -6.441  1.00  0.00    -0.366 OA
ATOM     42  H4  UNL     1      -3.887  28.396  -6.395  1.00  0.00     0.213 HD
ENDBRANCH  38  41
ENDBRANCH  33  38
ENDBRANCH  28  33
BRANCH  32  43
HETATM   43  N8  UNL     1      -8.262  31.738 -11.036  1.00  0.00    -0.335 N 
ATOM     44  H82 UNL     1      -8.320  32.751 -10.925  1.00  0.00     0.177 HD
ATOM     45  H81 UNL     1      -8.030  31.269 -11.911  1.00  0.00     0.177 HD
ENDBRANCH  32  43
ENDBRANCH   1  24
TORSDOF 11
ENDMDL
MODEL 2
REMARK VINA RESULT: -8.396536287      1.234      1.920
REMARK  11 active torsions:
REMARK  status: ('A' for Active; 'I' for Inactive)
REMARK    1  A    between atoms: N1_1  and  C1_4 
REMARK    2  A    between atoms: C4_12  and  C5_13 
REMARK    3  A    between atoms: C5_13  and  S1_14 
REMARK    4  A    between atoms: S1_14  and  C6_15 
REMARK    5  A    between atoms: C7_20  and  C8_21 
REMARK    6  A    between atoms: C8_21  and  C9_26 
REMARK    7  A    between atoms: N6_22  and  O2_24 
REMARK    8  A    between atoms: C9_26  and  O3_27 
REMARK    9  A    between atoms: C9_26  and  O4_29 
REMARK   10  A    between atoms: N7_33  and  N8_34 
REMARK   11  A    between atoms: C11_40  and  N11_41 
ROOT
HETATM    1  S1  UNL     1     -11.271  31.865  -9.691  1.00  0.00    -0.083 SA
ENDROOT
BRANCH   1   2
HETATM    2  C5  UNL     1     -11.499  33.477  -8.965  1.00  0.00     0.160 C 
BRANCH   2   3
HETATM    3  C4  UNL     1     -10.326  33.873  -8.168  1.00  0.00     0.108 A 
HETATM    4  N3  UNL     1      -9.772  33.242  -7.119  1.00  0.00    -0.324 N 
HETATM    5  C3  UNL     1      -8.718  33.989  -6.713  1.00  0.00     0.216 A 
ATOM      6  H3  UNL     1     -10.087  32.365  -6.705  1.00  0.00     0.169 HD
HETATM    7  C2  UNL     1      -7.882  33.683  -5.660  1.00  0.00     0.306 C 
HETATM    8  N10 UNL     1      -8.624  35.085  -7.520  1.00  0.00    -0.062 N 
HETATM    9  N2  UNL     1      -7.003  34.490  -5.011  1.00  0.00    -0.153 N 
HETATM   10  O1  UNL     1      -7.948  32.509  -5.256  1.00  0.00    -0.263 OA
HETATM   11  C1  UNL     1      -6.644  35.734  -5.312  1.00  0.00     0.693 C 
ATOM     12  H2  UNL     1      -6.560  34.088  -4.184  1.00  0.00     0.187 HD
HETATM   13  N12 UNL     1      -6.840  36.415  -6.457  1.00  0.00    -0.021 N 
HETATM   14  C11 UNL     1      -7.716  36.073  -7.443  1.00  0.00     0.713 C 
ATOM     15  H12 UNL     1      -6.285  37.259  -6.599  1.00  0.00     0.203 HD
HETATM   16  N9  UNL     1      -9.600  34.981  -8.374  1.00  0.00    -0.265 N 
ATOM     17  H9  UNL     1      -9.789  35.660  -9.111  1.00  0.00     0.189 HD
BRANCH  11  18
HETATM   18  N1  UNL     1      -6.029  36.368  -4.385  1.00  0.00    -0.234 N 
ATOM     19  H12 UNL     1      -5.755  35.813  -3.575  1.00  0.00     0.174 HD
ATOM     20  H11 UNL     1      -5.880  37.362  -4.559  1.00  0.00     0.174 HD
ENDBRANCH  11  18
BRANCH  14  21
HETATM   21  N11 UNL     1      -7.647  36.844  -8.470  1.00  0.00    -0.232 N 
ATOM     22 2H11 UNL     1      -8.367  36.650  -9.166  1.00  0.00     0.174 HD
ATOM     23 1H11 UNL     1      -6.895  37.532  -8.454  1.00  0.00     0.174 HD
ENDBRANCH  14  21
ENDBRANCH   2   3
ENDBRANCH   1   2
BRANCH   1  24
HETATM   24  C6  UNL     1      -9.863  30.975  -9.072  1.00  0.00     0.181 A 
HETATM   25  N4  UNL     1      -9.929  30.241  -7.928  1.00  0.00    -0.278 N 
HETATM   26  N5  UNL     1      -8.896  29.589  -7.510  1.00  0.00    -0.294 N 
ATOM     27  H4  UNL     1     -10.799  30.206  -7.398  1.00  0.00     0.189 HD
HETATM   28  C7  UNL     1      -7.670  29.554  -8.132  1.00  0.00     0.117 A 
ATOM     29  H5  UNL     1      -8.998  29.054  -6.647  1.00  0.00     0.187 HD
HETATM   30  C10 UNL     1      -7.590  30.285  -9.280  1.00  0.00     0.155 A 
HETATM   31  S2  UNL     1      -6.206  30.370 -10.126  1.00  0.00    -0.056 SA
HETATM   32  N7  UNL     1      -8.691  30.968  -9.706  1.00  0.00    -0.226 N 
BRANCH  28  33
HETATM   33  C8  UNL     1      -6.621  28.749  -7.538  1.00  0.00     0.117 C 
HETATM   34  N6  UNL     1      -6.499  27.520  -7.958  1.00  0.00    -0.266 N 
ATOM     35  H6  UNL     1      -5.756  26.967  -7.531  1.00  0.00     0.194 HD
BRANCH  34  36
HETATM   36  O2  UNL     1      -7.242  26.905  -8.890  1.00  0.00    -0.290 OA
ATOM     37  H2  UNL     1      -7.527  25.999  -8.890  1.00  0.00     0.244 HD
ENDBRANCH  34  36
BRANCH  33  38
HETATM   38  C9  UNL     1      -5.662  29.191  -6.534  1.00  0.00     0.309 C 
BRANCH  38  39
HETATM   39  O3  UNL     1      -4.915  30.332  -6.926  1.00  0.00    -0.366 OA
ATOM     40  H3  UNL     1      -4.939  31.038  -6.290  1.00  0.00     0.213 HD
ENDBRANCH  38  39
BRANCH  38  41
HETATM   41  O4  UNL     1      -4.665  28.179  -6.380  1.00  0.00    -0.366 OA
ATOM     42  H4  UNL     1      -3.811  28.593  -6.372  1.00  0.00     0.213 HD
ENDBRANCH  38  41
ENDBRANCH  33  38
ENDBRANCH  28  33
BRANCH  32  43
HETATM   43  N8  UNL     1      -8.542  31.679 -10.903  1.00  0.00    -0.335 N 
ATOM     44  H82 UNL     1      -8.852  32.651 -10.884  1.00  0.00     0.177 HD
ATOM     45  H81 UNL     1      -8.133  31.223 -11.718  1.00  0.00     0.177 HD
ENDBRANCH  32  43
ENDBRANCH   1  24
TORSDOF 11
ENDMDL
MODEL 3
REMARK VINA RESULT: -8.305998554      4.415      9.272
REMARK  11 active torsions:
REMARK  status: ('A' for Active; 'I' for Inactive)
REMARK    1  A    between atoms: N1_1  and  C1_4 
REMARK    2  A    between atoms: C4_12  and  C5_13 
REMARK    3  A    between atoms: C5_13  and  S1_14 
REMARK    4  A    between atoms: S1_14  and  C6_15 
REMARK    5  A    between atoms: C7_20  and  C8_21 
REMARK    6  A    between atoms: C8_21  and  C9_26 
REMARK    7  A    between atoms: N6_22  and  O2_24 
REMARK    8  A    between atoms: C9_26  and  O3_27 
REMARK    9  A    between atoms: C9_26  and  O4_29 
REMARK   10  A    between atoms: N7_33  and  N8_34 
REMARK   11  A    between atoms: C11_40  and  N11_41 
ROOT
HETATM    1  S1  UNL     1      -6.172  27.903  -7.185  1.00  0.00    -0.083 SA
ENDROOT
BRANCH   1   2
HETATM    2  C5  UNL     1      -5.103  27.971  -5.760  1.00  0.00     0.160 C 
BRANCH   2   3
HETATM    3  C4  UNL     1      -4.637  26.626  -5.379  1.00  0.00     0.108 A 
HETATM    4  N3  UNL     1      -4.592  26.069  -4.157  1.00  0.00    -0.324 N 
HETATM    5  C3  UNL     1      -4.082  24.823  -4.304  1.00  0.00     0.216 A 
ATOM      6  H3  UNL     1      -4.886  26.503  -3.283  1.00  0.00     0.169 HD
HETATM    7  C2  UNL     1      -3.875  23.920  -3.283  1.00  0.00     0.306 C 
HETATM    8  N10 UNL     1      -3.815  24.614  -5.626  1.00  0.00    -0.062 N 
HETATM    9  N2  UNL     1      -3.122  22.790  -3.288  1.00  0.00    -0.153 N 
HETATM   10  O1  UNL     1      -4.459  24.183  -2.218  1.00  0.00    -0.263 OA
HETATM   11  C1  UNL     1      -2.502  22.213  -4.313  1.00  0.00     0.693 C 
ATOM     12  H2  UNL     1      -3.018  22.323  -2.387  1.00  0.00     0.187 HD
HETATM   13  N12 UNL     1      -2.670  22.431  -5.631  1.00  0.00    -0.021 N 
HETATM   14  C11 UNL     1      -3.296  23.507  -6.184  1.00  0.00     0.713 C 
ATOM     15  H12 UNL     1      -2.296  21.730  -6.272  1.00  0.00     0.203 HD
HETATM   16  N9  UNL     1      -4.158  25.712  -6.235  1.00  0.00    -0.265 N 
ATOM     17  H9  UNL     1      -4.073  25.859  -7.240  1.00  0.00     0.189 HD
BRANCH  11  18
HETATM   18  N1  UNL     1      -1.628  21.331  -4.001  1.00  0.00    -0.234 N 
ATOM     19  H12 UNL     1      -1.377  21.285  -3.013  1.00  0.00     0.174 HD
ATOM     20  H11 UNL     1      -1.276  20.769  -4.776  1.00  0.00     0.174 HD
ENDBRANCH  11  18
BRANCH  14  21
HETATM   21  N11 UNL     1      -3.397  23.431  -7.464  1.00  0.00    -0.232 N 
ATOM     22 2H11 UNL     1      -3.713  24.301  -7.893  1.00  0.00     0.174 HD
ATOM     23 1H11 UNL     1      -3.154  22.529  -7.871  1.00  0.00     0.174 HD
ENDBRANCH  14  21
ENDBRANCH   2   3
ENDBRANCH   1   2
BRANCH   1  24
HETATM   24  C6  UNL     1      -6.991  29.434  -7.559  1.00  0.00     0.181 A 
HETATM   25  N4  UNL     1      -7.303  30.333  -6.588  1.00  0.00    -0.278 N 
HETATM   26  N5  UNL     1      -7.883  31.448  -6.890  1.00  0.00    -0.294 N 
ATOM     27  H4  UNL     1      -7.079  30.126  -5.614  1.00  0.00     0.189 HD
HETATM   28  C7  UNL     1      -8.235  31.844  -8.158  1.00  0.00     0.117 A 
ATOM     29  H5  UNL     1      -8.095  32.087  -6.124  1.00  0.00     0.187 HD
HETATM   30  C10 UNL     1      -7.928  30.951  -9.142  1.00  0.00     0.155 A 
HETATM   31  S2  UNL     1      -8.298  31.255 -10.695  1.00  0.00    -0.056 SA
HETATM   32  N7  UNL     1      -7.316  29.780  -8.805  1.00  0.00    -0.226 N 
BRANCH  28  33
HETATM   33  C8  UNL     1      -8.859  33.141  -8.323  1.00  0.00     0.117 C 
HETATM   34  N6  UNL     1     -10.154  33.206  -8.174  1.00  0.00    -0.266 N 
ATOM     35  H6  UNL     1     -10.578  34.126  -8.292  1.00  0.00     0.194 HD
BRANCH  34  36
HETATM   36  O2  UNL     1     -10.987  32.196  -7.883  1.00  0.00    -0.290 OA
ATOM     37  H2  UNL     1     -11.247  31.898  -7.019  1.00  0.00     0.244 HD
ENDBRANCH  34  36
BRANCH  33  38
HETATM   38  C9  UNL     1      -8.175  34.396  -8.607  1.00  0.00     0.309 C 
BRANCH  38  39
HETATM   39  O3  UNL     1      -8.610  35.476  -7.796  1.00  0.00    -0.366 OA
ATOM     40  H3  UNL     1      -8.229  36.311  -8.040  1.00  0.00     0.213 HD
ENDBRANCH  38  39
BRANCH  38  41
HETATM   41  O4  UNL     1      -8.518  34.813  -9.929  1.00  0.00    -0.366 OA
ATOM     42  H4  UNL     1      -9.382  35.208  -9.908  1.00  0.00     0.213 HD
ENDBRANCH  38  41
ENDBRANCH  33  38
ENDBRANCH  28  33
BRANCH  32  43
HETATM   43  N8  UNL     1      -7.011  28.922  -9.869  1.00  0.00    -0.335 N 
ATOM     44  H82 UNL     1      -7.499  28.026  -9.871  1.00  0.00     0.177 HD
ATOM     45  H81 UNL     1      -6.347  29.217 -10.584  1.00  0.00     0.177 HD
ENDBRANCH  32  43
ENDBRANCH   1  24
TORSDOF 11
ENDMDL
MODEL 4
REMARK VINA RESULT: -8.179254321      1.421      2.386
REMARK  11 active torsions:
REMARK  status: ('A' for Active; 'I' for Inactive)
REMARK    1  A    between atoms: N1_1  and  C1_4 
REMARK    2  A    between atoms: C4_12  and  C5_13 
REMARK    3  A    between atoms: C5_13  and  S1_14 
REMARK    4  A    between atoms: S1_14  and  C6_15 
REMARK    5  A    between atoms: C7_20  and  C8_21 
REMARK    6  A    between atoms: C8_21  and  C9_26 
REMARK    7  A    between atoms: N6_22  and  O2_24 
REMARK    8  A    between atoms: C9_26  and  O3_27 
REMARK    9  A    between atoms: C9_26  and  O4_29 
REMARK   10  A    between atoms: N7_33  and  N8_34 
REMARK   11  A    between atoms: C11_40  and  N11_41 
ROOT
HETATM    1  S1  UNL     1     -11.217  32.133  -9.890  1.00  0.00    -0.083 SA
ENDROOT
BRANCH   1   2
HETATM    2  C5  UNL     1     -11.518  33.591  -8.910  1.00  0.00     0.160 C 
BRANCH   2   3
HETATM    3  C4  UNL     1     -10.330  33.958  -8.121  1.00  0.00     0.108 A 
HETATM    4  N3  UNL     1      -9.772  33.300  -7.091  1.00  0.00    -0.324 N 
HETATM    5  C3  UNL     1      -8.704  34.026  -6.684  1.00  0.00     0.216 A 
ATOM      6  H3  UNL     1     -10.093  32.418  -6.691  1.00  0.00     0.169 HD
HETATM    7  C2  UNL     1      -7.859  33.689  -5.648  1.00  0.00     0.306 C 
HETATM    8  N10 UNL     1      -8.606  35.136  -7.471  1.00  0.00    -0.062 N 
HETATM    9  N2  UNL     1      -6.962  34.473  -4.995  1.00  0.00    -0.153 N 
HETATM   10  O1  UNL     1      -7.934  32.509  -5.266  1.00  0.00    -0.263 OA
HETATM   11  C1  UNL     1      -6.591  35.718  -5.276  1.00  0.00     0.693 C 
ATOM     12  H2  UNL     1      -6.514  34.049  -4.181  1.00  0.00     0.187 HD
HETATM   13  N12 UNL     1      -6.792  36.423  -6.405  1.00  0.00    -0.021 N 
HETATM   14  C11 UNL     1      -7.685  36.111  -7.387  1.00  0.00     0.713 C 
ATOM     15  H12 UNL     1      -6.229  37.264  -6.538  1.00  0.00     0.203 HD
HETATM   16  N9  UNL     1      -9.593  35.061  -8.315  1.00  0.00    -0.265 N 
ATOM     17  H9  UNL     1      -9.783  35.756  -9.036  1.00  0.00     0.189 HD
BRANCH  11  18
HETATM   18  N1  UNL     1      -5.956  36.326  -4.345  1.00  0.00    -0.234 N 
ATOM     19  H12 UNL     1      -5.729  35.766  -3.523  1.00  0.00     0.174 HD
ATOM     20  H11 UNL     1      -5.747  37.308  -4.527  1.00  0.00     0.174 HD
ENDBRANCH  11  18
BRANCH  14  21
HETATM   21  N11 UNL     1      -7.619  36.901  -8.399  1.00  0.00    -0.232 N 
ATOM     22 2H11 UNL     1      -8.532  37.123  -8.794  1.00  0.00     0.174 HD
ATOM     23 1H11 UNL     1      -6.680  37.194  -8.669  1.00  0.00     0.174 HD
ENDBRANCH  14  21
ENDBRANCH   2   3
ENDBRANCH   1   2
BRANCH   1  24
HETATM   24  C6  UNL     1      -9.857  31.139  -9.323  1.00  0.00     0.181 A 
HETATM   25  N4  UNL     1     -10.001  30.242  -8.311  1.00  0.00    -0.278 N 
HETATM   26  N5  UNL     1      -9.001  29.518  -7.931  1.00  0.00    -0.294 N 
ATOM     27  H4  UNL     1     -10.905  30.141  -7.848  1.00  0.00     0.189 HD
HETATM   28  C7  UNL     1      -7.737  29.559  -8.472  1.00  0.00     0.117 A 
ATOM     29  H5  UNL     1      -9.162  28.862  -7.167  1.00  0.00     0.187 HD
HETATM   30  C10 UNL     1      -7.579  30.454  -9.488  1.00  0.00     0.155 A 
HETATM   31  S2  UNL     1      -6.142  30.644 -10.222  1.00  0.00    -0.056 SA
HETATM   32  N7  UNL     1      -8.647  31.209  -9.876  1.00  0.00    -0.226 N 
BRANCH  28  33
HETATM   33  C8  UNL     1      -6.735  28.658  -7.940  1.00  0.00     0.117 C 
HETATM   34  N6  UNL     1      -6.199  28.969  -6.793  1.00  0.00    -0.266 N 
ATOM     35  H6  UNL     1      -5.495  28.325  -6.431  1.00  0.00     0.194 HD
BRANCH  34  36
HETATM   36  O2  UNL     1      -6.471  30.043  -6.036  1.00  0.00    -0.290 OA
ATOM     37  H2  UNL     1      -5.867  30.728  -5.774  1.00  0.00     0.244 HD
ENDBRANCH  34  36
BRANCH  33  38
HETATM   38  C9  UNL     1      -6.287  27.412  -8.550  1.00  0.00     0.309 C 
BRANCH  38  39
HETATM   39  O3  UNL     1      -7.341  26.641  -9.104  1.00  0.00    -0.366 OA
ATOM     40  H3  UNL     1      -8.111  26.595  -8.549  1.00  0.00     0.213 HD
ENDBRANCH  38  39
BRANCH  38  41
HETATM   41  O4  UNL     1      -5.761  26.568  -7.525  1.00  0.00    -0.366 OA
ATOM     42  H4  UNL     1      -5.103  27.053  -7.040  1.00  0.00     0.213 HD
ENDBRANCH  38  41
ENDBRANCH  33  38
ENDBRANCH  28  33
BRANCH  32  43
HETATM   43  N8  UNL     1      -8.416  32.090 -10.939  1.00  0.00    -0.335 N 
ATOM     44  H82 UNL     1      -7.437  32.286 -11.150  1.00  0.00     0.177 HD
ATOM     45  H81 UNL     1      -9.204  32.481 -11.455  1.00  0.00     0.177 HD
ENDBRANCH  32  43
ENDBRANCH   1  24
TORSDOF 11
ENDMDL
MODEL 5
REMARK VINA RESULT: -8.057237256      4.457      9.245
REMARK  11 active torsions:
REMARK  status: ('A' for Active; 'I' for Inactive)
REMARK    1  A    between atoms: N1_1  and  C1_4 
REMARK    2  A    between atoms: C4_12  and  C5_13 
REMARK    3  A    between atoms: C5_13  and  S1_14 
REMARK    4  A    between atoms: S1_14  and  C6_15 
REMARK    5  A    between atoms: C7_20  and  C8_21 
REMARK    6  A    between atoms: C8_21  and  C9_26 
REMARK    7  A    between atoms: N6_22  and  O2_24 
REMARK    8  A    between atoms: C9_26  and  O3_27 
REMARK    9  A    between atoms: C9_26  and  O4_29 
REMARK   10  A    between atoms: N7_33  and  N8_34 
REMARK   11  A    between atoms: C11_40  and  N11_41 
ROOT
HETATM    1  S1  UNL     1      -6.155  27.845  -7.465  1.00  0.00    -0.083 SA
ENDROOT
BRANCH   1   2
HETATM    2  C5  UNL     1      -5.194  27.961  -5.969  1.00  0.00     0.160 C 
BRANCH   2   3
HETATM    3  C4  UNL     1      -4.709  26.636  -5.544  1.00  0.00     0.108 A 
HETATM    4  N3  UNL     1      -4.661  26.119  -4.305  1.00  0.00    -0.324 N 
HETATM    5  C3  UNL     1      -4.132  24.877  -4.410  1.00  0.00     0.216 A 
ATOM      6  H3  UNL     1      -4.965  26.577  -3.446  1.00  0.00     0.169 HD
HETATM    7  C2  UNL     1      -3.916  24.010  -3.360  1.00  0.00     0.306 C 
HETATM    8  N10 UNL     1      -3.856  24.630  -5.723  1.00  0.00    -0.062 N 
HETATM    9  N2  UNL     1      -3.146  22.892  -3.325  1.00  0.00    -0.153 N 
HETATM   10  O1  UNL     1      -4.509  24.298  -2.306  1.00  0.00    -0.263 OA
HETATM   11  C1  UNL     1      -2.513  22.292  -4.329  1.00  0.00     0.693 C 
ATOM     12  H2  UNL     1      -3.039  22.455  -2.409  1.00  0.00     0.187 HD
HETATM   13  N12 UNL     1      -2.678  22.465  -5.654  1.00  0.00    -0.021 N 
HETATM   14  C11 UNL     1      -3.318  23.513  -6.243  1.00  0.00     0.713 C 
ATOM     15  H12 UNL     1      -2.291  21.749  -6.270  1.00  0.00     0.203 HD
HETATM   16  N9  UNL     1      -4.213  25.702  -6.368  1.00  0.00    -0.265 N 
ATOM     17  H9  UNL     1      -4.126  25.818  -7.377  1.00  0.00     0.189 HD
BRANCH  11  18
HETATM   18  N1  UNL     1      -1.628  21.433  -3.985  1.00  0.00    -0.234 N 
ATOM     19  H12 UNL     1      -1.722  20.506  -4.401  1.00  0.00     0.174 HD
ATOM     20  H11 UNL     1      -0.922  21.770  -3.330  1.00  0.00     0.174 HD
ENDBRANCH  11  18
BRANCH  14  21
HETATM   21  N11 UNL     1      -3.413  23.395  -7.520  1.00  0.00    -0.232 N 
ATOM     22 2H11 UNL     1      -3.628  22.444  -7.820  1.00  0.00     0.174 HD
ATOM     23 1H11 UNL     1      -3.262  24.251  -8.054  1.00  0.00     0.174 HD
ENDBRANCH  14  21
ENDBRANCH   2   3
ENDBRANCH   1   2
BRANCH   1  24
HETATM   24  C6  UNL     1      -7.179  29.261  -7.789  1.00  0.00     0.181 A 
HETATM   25  N4  UNL     1      -7.815  29.926  -6.788  1.00  0.00    -0.278 N 
HETATM   26  N5  UNL     1      -8.538  30.964  -7.048  1.00  0.00    -0.294 N 
ATOM     27  H4  UNL     1      -7.721  29.603  -5.825  1.00  0.00     0.189 HD
HETATM   28  C7  UNL     1      -8.744  31.498  -8.299  1.00  0.00     0.117 A 
ATOM     29  H5  UNL     1      -8.995  31.426  -6.262  1.00  0.00     0.187 HD
HETATM   30  C10 UNL     1      -8.111  30.840  -9.312  1.00  0.00     0.155 A 
HETATM   31  S2  UNL     1      -8.268  31.328 -10.854  1.00  0.00    -0.056 SA
HETATM   32  N7  UNL     1      -7.351  29.747  -9.018  1.00  0.00    -0.226 N 
BRANCH  28  33
HETATM   33  C8  UNL     1      -9.569  32.684  -8.412  1.00  0.00     0.117 C 
HETATM   34  N6  UNL     1      -8.993  33.835  -8.199  1.00  0.00    -0.266 N 
ATOM     35  H6  UNL     1      -9.586  34.661  -8.283  1.00  0.00     0.194 HD
BRANCH  34  36
HETATM   36  O2  UNL     1      -7.708  34.052  -7.883  1.00  0.00    -0.290 OA
ATOM     37  H2  UNL     1      -7.113  33.448  -7.455  1.00  0.00     0.244 HD
ENDBRANCH  34  36
BRANCH  33  38
HETATM   38  C9  UNL     1     -10.979  32.720  -8.775  1.00  0.00     0.309 C 
BRANCH  38  39
HETATM   39  O3  UNL     1     -11.795  33.375  -7.816  1.00  0.00    -0.366 OA
ATOM     40  H3  UNL     1     -11.306  33.914  -7.206  1.00  0.00     0.213 HD
ENDBRANCH  38  39
BRANCH  38  41
HETATM   41  O4  UNL     1     -11.482  31.383  -8.783  1.00  0.00    -0.366 OA
ATOM     42  H4  UNL     1     -12.334  31.382  -9.203  1.00  0.00     0.213 HD
ENDBRANCH  38  41
ENDBRANCH  33  38
ENDBRANCH  28  33
BRANCH  32  43
HETATM   43  N8  UNL     1      -6.715  29.136 -10.105  1.00  0.00    -0.335 N 
ATOM     44  H82 UNL     1      -6.388  29.765 -10.840  1.00  0.00     0.177 HD
ATOM     45  H81 UNL     1      -6.592  28.124 -10.118  1.00  0.00     0.177 HD
ENDBRANCH  32  43
ENDBRANCH   1  24
TORSDOF 11
ENDMDL
