MODEL 1
REMARK VINA RESULT: -7.798009340      0.000      0.000
REMARK  13 active torsions:
REMARK  status: ('A' for Active; 'I' for Inactive)
REMARK    1  A    between atoms: O1_3  and  C2_4 
REMARK    2  A    between atoms: C2_4  and  N2_5 
REMARK    3  A    between atoms: C2_4  and  C3_9 
REMARK    4  A    between atoms: N5_14  and  C4_15 
REMARK    5  A    between atoms: C5_18  and  C6_19 
REMARK    6  A    between atoms: C6_19  and  O3_21 
REMARK    7  A    between atoms: O3_21  and  C7_22 
REMARK    8  A    between atoms: C7_22  and  C8_23 
REMARK    9  A    between atoms: C10_31  and  C11_32 
REMARK   10  A    between atoms: C11_32  and  N9_33 
REMARK   11  A    between atoms: C11_32  and  N10_37 
REMARK   12  A    between atoms: C12_43  and  N12_44 
REMARK   13  A    between atoms: C13_47  and  O6_48 
ROOT
HETATM    1  N1  UNL     1      -5.807  36.151  -5.631  1.00  0.00    -0.164 NA
HETATM    2  C1  UNL     1      -6.429  35.186  -5.811  1.00  0.00     0.231 C 
HETATM    3  O1  UNL     1      -7.179  34.060  -6.025  1.00  0.00    -0.243 OA
ENDROOT
BRANCH   3   4
HETATM    4  C2  UNL     1      -8.566  33.999  -5.679  1.00  0.00     0.393 C 
BRANCH   4   5
HETATM    5  N2  UNL     1      -8.762  33.106  -4.553  1.00  0.00    -0.046 N 
ATOM      6  H23 UNL     1      -9.627  32.572  -4.636  1.00  0.00     0.277 HD
ATOM      7  H22 UNL     1      -8.103  32.327  -4.565  1.00  0.00     0.277 HD
ATOM      8  H21 UNL     1      -8.719  33.628  -3.678  1.00  0.00     0.277 HD
ENDBRANCH   4   5
BRANCH   4   9
HETATM    9  C3  UNL     1      -9.341  33.459  -6.833  1.00  0.00     0.137 A 
HETATM   10  N3  UNL     1     -10.202  34.091  -7.640  1.00  0.00    -0.281 N 
HETATM   11  N4  UNL     1     -10.651  33.225  -8.522  1.00  0.00    -0.232 N 
ATOM     12  H3  UNL     1     -10.464  35.075  -7.582  1.00  0.00     0.188 HD
HETATM   13  N5  UNL     1     -10.113  32.022  -8.329  1.00  0.00    -0.197 N 
ATOM     14  H4  UNL     1     -11.324  33.446  -9.257  1.00  0.00     0.209 HD
HETATM   15  C13 UNL     1      -9.290  32.163  -7.269  1.00  0.00     0.194 A 
BRANCH  13  16
HETATM   16  C4  UNL     1     -10.363  30.855  -9.082  1.00  0.00     0.175 A 
HETATM   17  N6  UNL     1      -9.428  29.936  -9.299  1.00  0.00    -0.331 N 
HETATM   18  C5  UNL     1      -9.631  28.803 -10.019  1.00  0.00     0.136 A 
ATOM     19  H6  UNL     1      -8.502  30.092  -8.901  1.00  0.00     0.168 HD
HETATM   20  C10 UNL     1     -10.881  28.626 -10.536  1.00  0.00     0.102 A 
HETATM   21  N11 UNL     1     -11.858  29.566 -10.321  1.00  0.00    -0.338 N 
HETATM   22  C12 UNL     1     -11.609  30.655  -9.613  1.00  0.00     0.146 A 
ATOM     23  H11 UNL     1     -12.789  29.423 -10.712  1.00  0.00     0.167 HD
BRANCH  18  24
HETATM   24  C6  UNL     1      -8.556  27.858 -10.218  1.00  0.00     0.312 C 
HETATM   25  O2  UNL     1      -8.138  27.711 -11.436  1.00  0.00    -0.258 OA
BRANCH  24  26
HETATM   26  O3  UNL     1      -7.909  27.087  -9.293  1.00  0.00    -0.308 OA
BRANCH  26  27
HETATM   27  C7  UNL     1      -6.520  27.078  -9.063  1.00  0.00     0.265 C 
BRANCH  27  28
HETATM   28  C8  UNL     1      -6.194  27.984  -7.930  1.00  0.00     0.168 A 
HETATM   29  N7  UNL     1      -6.275  29.339  -7.910  1.00  0.00    -0.277 N 
HETATM   30  N8  UNL     1      -5.889  29.696  -6.700  1.00  0.00    -0.243 N 
ATOM     31  H7  UNL     1      -6.572  29.952  -8.670  1.00  0.00     0.189 HD
HETATM   32  C9  UNL     1      -5.571  28.618  -5.964  1.00  0.00     0.385 A 
ATOM     33  H8  UNL     1      -5.840  30.660  -6.367  1.00  0.00     0.192 HD
HETATM   34  O4  UNL     1      -5.168  28.572  -4.778  1.00  0.00    -0.236 OA
HETATM   35  O5  UNL     1      -5.774  27.598  -6.760  1.00  0.00    -0.243 OA
ENDBRANCH  27  28
ENDBRANCH  26  27
ENDBRANCH  24  26
ENDBRANCH  18  24
BRANCH  20  36
HETATM   36  C11 UNL     1     -11.335  27.472 -11.333  1.00  0.00     0.429 C 
BRANCH  36  37
HETATM   37  N9  UNL     1     -12.806  27.460 -11.223  1.00  0.00    -0.045 N 
ATOM     38  H93 UNL     1     -13.258  26.799 -11.856  1.00  0.00     0.277 HD
ATOM     39  H92 UNL     1     -13.147  27.050 -10.354  1.00  0.00     0.277 HD
ATOM     40  H91 UNL     1     -13.102  28.426 -11.362  1.00  0.00     0.277 HD
ENDBRANCH  36  37
BRANCH  36  41
HETATM   41  N10 UNL     1     -10.983  27.759 -12.715  1.00  0.00    -0.045 N 
ATOM     42 3H10 UNL     1     -11.794  27.910 -13.314  1.00  0.00     0.277 HD
ATOM     43 2H10 UNL     1     -10.559  28.677 -12.841  1.00  0.00     0.277 HD
ATOM     44 1H10 UNL     1     -10.388  26.993 -13.029  1.00  0.00     0.277 HD
ENDBRANCH  36  41
ENDBRANCH  20  36
BRANCH  22  45
HETATM   45  N12 UNL     1     -12.571  31.535  -9.426  1.00  0.00    -0.382 N 
ATOM     46 2H12 UNL     1     -13.461  31.227  -9.035  1.00  0.00     0.157 HD
ATOM     47 1H12 UNL     1     -12.435  32.517  -9.666  1.00  0.00     0.157 HD
ENDBRANCH  22  45
ENDBRANCH  13  16
BRANCH  15  48
HETATM   48  O6  UNL     1      -8.534  31.126  -6.746  1.00  0.00    -0.343 OA
ATOM     49  H6  UNL     1      -8.806  30.226  -6.605  1.00  0.00     0.219 HD
ENDBRANCH  15  48
ENDBRANCH   4   9
ENDBRANCH   3   4
TORSDOF 13
ENDMDL
MODEL 2
REMARK VINA RESULT: -7.689402768      1.010      1.027
REMARK  13 active torsions:
REMARK  status: ('A' for Active; 'I' for Inactive)
REMARK    1  A    between atoms: O1_3  and  C2_4 
REMARK    2  A    between atoms: C2_4  and  N2_5 
REMARK    3  A    between atoms: C2_4  and  C3_9 
REMARK    4  A    between atoms: N5_14  and  C4_15 
REMARK    5  A    between atoms: C5_18  and  C6_19 
REMARK    6  A    between atoms: C6_19  and  O3_21 
REMARK    7  A    between atoms: O3_21  and  C7_22 
REMARK    8  A    between atoms: C7_22  and  C8_23 
REMARK    9  A    between atoms: C10_31  and  C11_32 
REMARK   10  A    between atoms: C11_32  and  N9_33 
REMARK   11  A    between atoms: C11_32  and  N10_37 
REMARK   12  A    between atoms: C12_43  and  N12_44 
REMARK   13  A    between atoms: C13_47  and  O6_48 
ROOT
HETATM    1  N1  UNL     1      -5.830  35.422  -5.661  1.00  0.00    -0.164 NA
HETATM    2  C1  UNL     1      -6.965  35.306  -5.879  1.00  0.00     0.231 C 
HETATM    3  O1  UNL     1      -8.305  35.156  -6.121  1.00  0.00    -0.243 OA
ENDROOT
BRANCH   3   4
HETATM    4  C2  UNL     1      -8.977  33.911  -5.907  1.00  0.00     0.393 C 
BRANCH   4   5
HETATM    5  N2  UNL     1      -8.090  32.970  -5.250  1.00  0.00    -0.046 N 
ATOM      6  H23 UNL     1      -8.525  32.055  -5.132  1.00  0.00     0.277 HD
ATOM      7  H22 UNL     1      -7.315  32.691  -5.852  1.00  0.00     0.277 HD
ATOM      8  H21 UNL     1      -7.764  33.354  -4.363  1.00  0.00     0.277 HD
ENDBRANCH   4   5
BRANCH   4   9
HETATM    9  C3  UNL     1      -9.372  33.328  -7.221  1.00  0.00     0.137 A 
HETATM   10  N3  UNL     1      -9.548  33.942  -8.397  1.00  0.00    -0.281 N 
HETATM   11  N4  UNL     1      -9.895  33.037  -9.287  1.00  0.00    -0.232 N 
ATOM     12  H3  UNL     1      -9.434  34.940  -8.574  1.00  0.00     0.188 HD
HETATM   13  N5  UNL     1      -9.956  31.825  -8.737  1.00  0.00    -0.197 N 
ATOM     14  H4  UNL     1     -10.091  33.237 -10.268  1.00  0.00     0.209 HD
HETATM   15  C13 UNL     1      -9.629  32.002  -7.441  1.00  0.00     0.194 A 
BRANCH  13  16
HETATM   16  C4  UNL     1     -10.294  30.619  -9.389  1.00  0.00     0.175 A 
HETATM   17  N6  UNL     1      -9.396  29.676  -9.649  1.00  0.00    -0.331 N 
HETATM   18  C5  UNL     1      -9.684  28.506 -10.274  1.00  0.00     0.136 A 
ATOM     19  H6  UNL     1      -8.431  29.841  -9.362  1.00  0.00     0.168 HD
HETATM   20  C10 UNL     1     -10.984  28.317 -10.644  1.00  0.00     0.102 A 
HETATM   21  N11 UNL     1     -11.924  29.282 -10.382  1.00  0.00    -0.338 N 
HETATM   22  C12 UNL     1     -11.592  30.408  -9.771  1.00  0.00     0.146 A 
ATOM     23  H11 UNL     1     -12.893  29.130 -10.663  1.00  0.00     0.167 HD
BRANCH  18  24
HETATM   24  C6  UNL     1      -8.644  27.536 -10.529  1.00  0.00     0.312 C 
HETATM   25  O2  UNL     1      -8.334  27.339 -11.773  1.00  0.00    -0.258 OA
BRANCH  24  26
HETATM   26  O3  UNL     1      -7.932  26.785  -9.635  1.00  0.00    -0.308 OA
BRANCH  26  27
HETATM   27  C7  UNL     1      -6.549  26.895  -9.394  1.00  0.00     0.265 C 
BRANCH  27  28
HETATM   28  C8  UNL     1      -6.319  27.705  -8.168  1.00  0.00     0.168 A 
HETATM   29  N7  UNL     1      -5.581  27.362  -7.082  1.00  0.00    -0.277 N 
HETATM   30  N8  UNL     1      -5.667  28.390  -6.259  1.00  0.00    -0.243 N 
ATOM     31  H7  UNL     1      -5.067  26.493  -6.933  1.00  0.00     0.189 HD
HETATM   32  C9  UNL     1      -6.430  29.361  -6.789  1.00  0.00     0.385 A 
ATOM     33  H8  UNL     1      -5.217  28.441  -5.345  1.00  0.00     0.192 HD
HETATM   34  O4  UNL     1      -6.732  30.474  -6.298  1.00  0.00    -0.236 OA
HETATM   35  O5  UNL     1      -6.803  28.894  -7.955  1.00  0.00    -0.243 OA
ENDBRANCH  27  28
ENDBRANCH  26  27
ENDBRANCH  24  26
ENDBRANCH  18  24
BRANCH  20  36
HETATM   36  C11 UNL     1     -11.529  27.125 -11.317  1.00  0.00     0.429 C 
BRANCH  36  37
HETATM   37  N9  UNL     1     -12.946  27.047 -10.911  1.00  0.00    -0.045 N 
ATOM     38  H93 UNL     1     -13.153  26.255 -10.303  1.00  0.00     0.277 HD
ATOM     39  H92 UNL     1     -13.225  27.779 -10.258  1.00  0.00     0.277 HD
ATOM     40  H91 UNL     1     -13.484  27.047 -11.778  1.00  0.00     0.277 HD
ENDBRANCH  36  37
BRANCH  36  41
HETATM   41  N10 UNL     1     -11.480  27.397 -12.745  1.00  0.00    -0.045 N 
ATOM     42 3H10 UNL     1     -12.145  26.844 -13.285  1.00  0.00     0.277 HD
ATOM     43 2H10 UNL     1     -11.846  28.316 -12.994  1.00  0.00     0.277 HD
ATOM     44 1H10 UNL     1     -10.512  27.257 -13.035  1.00  0.00     0.277 HD
ENDBRANCH  36  41
ENDBRANCH  20  36
BRANCH  22  45
HETATM   45  N12 UNL     1     -12.521  31.311  -9.536  1.00  0.00    -0.382 N 
ATOM     46 2H12 UNL     1     -13.311  31.391 -10.176  1.00  0.00     0.157 HD
ATOM     47 1H12 UNL     1     -12.460  31.926  -8.725  1.00  0.00     0.157 HD
ENDBRANCH  22  45
ENDBRANCH  13  16
BRANCH  15  48
HETATM   48  O6  UNL     1      -9.576  30.968  -6.519  1.00  0.00    -0.343 OA
ATOM     49  H6  UNL     1     -10.248  30.322  -6.336  1.00  0.00     0.219 HD
ENDBRANCH  15  48
ENDBRANCH   4   9
ENDBRANCH   3   4
TORSDOF 13
ENDMDL
MODEL 3
REMARK VINA RESULT: -7.563073109      1.420      1.633
REMARK  13 active torsions:
REMARK  status: ('A' for Active; 'I' for Inactive)
REMARK    1  A    between atoms: O1_3  and  C2_4 
REMARK    2  A    between atoms: C2_4  and  N2_5 
REMARK    3  A    between atoms: C2_4  and  C3_9 
REMARK    4  A    between atoms: N5_14  and  C4_15 
REMARK    5  A    between atoms: C5_18  and  C6_19 
REMARK    6  A    between atoms: C6_19  and  O3_21 
REMARK    7  A    between atoms: O3_21  and  C7_22 
REMARK    8  A    between atoms: C7_22  and  C8_23 
REMARK    9  A    between atoms: C10_31  and  C11_32 
REMARK   10  A    between atoms: C11_32  and  N9_33 
REMARK   11  A    between atoms: C11_32  and  N10_37 
REMARK   12  A    between atoms: C12_43  and  N12_44 
REMARK   13  A    between atoms: C13_47  and  O6_48 
ROOT
HETATM    1  N1  UNL     1      -5.428  35.796  -4.009  1.00  0.00    -0.164 NA
HETATM    2  C1  UNL     1      -6.361  35.404  -4.578  1.00  0.00     0.231 C 
HETATM    3  O1  UNL     1      -7.450  34.930  -5.260  1.00  0.00    -0.243 OA
ENDROOT
BRANCH   3   4
HETATM    4  C2  UNL     1      -7.353  34.467  -6.611  1.00  0.00     0.393 C 
BRANCH   4   5
HETATM    5  N2  UNL     1      -7.912  35.451  -7.519  1.00  0.00    -0.046 N 
ATOM      6  H23 UNL     1      -8.519  36.113  -7.036  1.00  0.00     0.277 HD
ATOM      7  H22 UNL     1      -7.206  36.108  -7.851  1.00  0.00     0.277 HD
ATOM      8  H21 UNL     1      -8.392  34.985  -8.290  1.00  0.00     0.277 HD
ENDBRANCH   4   5
BRANCH   4   9
HETATM    9  C3  UNL     1      -8.135  33.207  -6.761  1.00  0.00     0.137 A 
HETATM   10  N3  UNL     1      -8.665  32.425  -5.814  1.00  0.00    -0.281 N 
HETATM   11  N4  UNL     1      -9.271  31.417  -6.401  1.00  0.00    -0.232 N 
ATOM     12  H3  UNL     1      -8.609  32.583  -4.807  1.00  0.00     0.188 HD
HETATM   13  N5  UNL     1      -9.163  31.501  -7.727  1.00  0.00    -0.197 N 
ATOM     14  H4  UNL     1      -9.760  30.669  -5.908  1.00  0.00     0.209 HD
HETATM   15  C13 UNL     1      -8.450  32.622  -7.958  1.00  0.00     0.194 A 
BRANCH  13  16
HETATM   16  C4  UNL     1      -9.688  30.597  -8.675  1.00  0.00     0.175 A 
HETATM   17  N6  UNL     1      -9.026  29.513  -9.065  1.00  0.00    -0.331 N 
HETATM   18  C5  UNL     1      -9.498  28.622  -9.974  1.00  0.00     0.136 A 
ATOM     19  H6  UNL     1      -8.108  29.339  -8.655  1.00  0.00     0.168 HD
HETATM   20  C10 UNL     1     -10.730  28.884 -10.501  1.00  0.00     0.102 A 
HETATM   21  N11 UNL     1     -11.425  30.000 -10.109  1.00  0.00    -0.338 N 
HETATM   22  C12 UNL     1     -10.921  30.839  -9.219  1.00  0.00     0.146 A 
ATOM     23  H11 UNL     1     -12.345  30.186 -10.510  1.00  0.00     0.167 HD
BRANCH  18  24
HETATM   24  C6  UNL     1      -8.709  27.472 -10.352  1.00  0.00     0.312 C 
HETATM   25  O2  UNL     1      -8.788  27.103 -11.592  1.00  0.00    -0.258 OA
BRANCH  24  26
HETATM   26  O3  UNL     1      -7.882  26.707  -9.577  1.00  0.00    -0.308 OA
BRANCH  26  27
HETATM   27  C7  UNL     1      -6.493  26.893  -9.434  1.00  0.00     0.265 C 
BRANCH  27  28
HETATM   28  C8  UNL     1      -6.211  27.573  -8.141  1.00  0.00     0.168 A 
HETATM   29  N7  UNL     1      -5.468  27.099  -7.108  1.00  0.00    -0.277 N 
HETATM   30  N8  UNL     1      -5.502  28.046  -6.189  1.00  0.00    -0.243 N 
ATOM     31  H7  UNL     1      -4.986  26.202  -7.054  1.00  0.00     0.189 HD
HETATM   32  C9  UNL     1      -6.236  29.090  -6.608  1.00  0.00     0.385 A 
ATOM     33  H8  UNL     1      -5.034  27.992  -5.284  1.00  0.00     0.192 HD
HETATM   34  O4  UNL     1      -6.487  30.161  -6.006  1.00  0.00    -0.236 OA
HETATM   35  O5  UNL     1      -6.646  28.752  -7.805  1.00  0.00    -0.243 OA
ENDBRANCH  27  28
ENDBRANCH  26  27
ENDBRANCH  24  26
ENDBRANCH  18  24
BRANCH  20  36
HETATM   36  C11 UNL     1     -11.445  28.055 -11.488  1.00  0.00     0.429 C 
BRANCH  36  37
HETATM   37  N9  UNL     1     -12.881  28.281 -11.236  1.00  0.00    -0.045 N 
ATOM     38  H93 UNL     1     -13.230  27.802 -10.406  1.00  0.00     0.277 HD
ATOM     39  H92 UNL     1     -13.098  29.230 -10.930  1.00  0.00     0.277 HD
ATOM     40  H91 UNL     1     -13.359  28.010 -12.095  1.00  0.00     0.277 HD
ENDBRANCH  36  37
BRANCH  36  41
HETATM   41  N10 UNL     1     -11.121  28.598 -12.798  1.00  0.00    -0.045 N 
ATOM     42 3H10 UNL     1     -10.461  29.375 -12.761  1.00  0.00     0.277 HD
ATOM     43 2H10 UNL     1     -10.550  27.972 -13.364  1.00  0.00     0.277 HD
ATOM     44 1H10 UNL     1     -12.008  28.844 -13.238  1.00  0.00     0.277 HD
ENDBRANCH  36  41
ENDBRANCH  20  36
BRANCH  22  45
HETATM   45  N12 UNL     1     -11.618  31.900  -8.867  1.00  0.00    -0.382 N 
ATOM     46 2H12 UNL     1     -12.584  31.783  -8.561  1.00  0.00     0.157 HD
ATOM     47 1H12 UNL     1     -11.203  32.831  -8.894  1.00  0.00     0.157 HD
ENDBRANCH  22  45
ENDBRANCH  13  16
BRANCH  15  48
HETATM   48  O6  UNL     1      -8.118  33.067  -9.228  1.00  0.00    -0.343 OA
ATOM     49  H6  UNL     1      -7.560  32.636  -9.864  1.00  0.00     0.219 HD
ENDBRANCH  15  48
ENDBRANCH   4   9
ENDBRANCH   3   4
TORSDOF 13
ENDMDL
MODEL 4
REMARK VINA RESULT: -7.561739272      3.158      4.260
REMARK  13 active torsions:
REMARK  status: ('A' for Active; 'I' for Inactive)
REMARK    1  A    between atoms: O1_3  and  C2_4 
REMARK    2  A    between atoms: C2_4  and  N2_5 
REMARK    3  A    between atoms: C2_4  and  C3_9 
REMARK    4  A    between atoms: N5_14  and  C4_15 
REMARK    5  A    between atoms: C5_18  and  C6_19 
REMARK    6  A    between atoms: C6_19  and  O3_21 
REMARK    7  A    between atoms: O3_21  and  C7_22 
REMARK    8  A    between atoms: C7_22  and  C8_23 
REMARK    9  A    between atoms: C10_31  and  C11_32 
REMARK   10  A    between atoms: C11_32  and  N9_33 
REMARK   11  A    between atoms: C11_32  and  N10_37 
REMARK   12  A    between atoms: C12_43  and  N12_44 
REMARK   13  A    between atoms: C13_47  and  O6_48 
ROOT
HETATM    1  N1  UNL     1      -5.794  36.124  -5.412  1.00  0.00    -0.164 NA
HETATM    2  C1  UNL     1      -6.810  35.860  -5.908  1.00  0.00     0.231 C 
HETATM    3  O1  UNL     1      -8.013  35.537  -6.477  1.00  0.00    -0.243 OA
ENDROOT
BRANCH   3   4
HETATM    4  C2  UNL     1      -8.618  34.254  -6.289  1.00  0.00     0.393 C 
BRANCH   4   5
HETATM    5  N2  UNL     1      -8.209  33.689  -5.018  1.00  0.00    -0.046 N 
ATOM      6  H23 UNL     1      -7.677  32.827  -5.137  1.00  0.00     0.277 HD
ATOM      7  H22 UNL     1      -7.486  34.249  -4.566  1.00  0.00     0.277 HD
ATOM      8  H21 UNL     1      -9.020  33.555  -4.414  1.00  0.00     0.277 HD
ENDBRANCH   4   5
BRANCH   4   9
HETATM    9  C3  UNL     1      -8.167  33.330  -7.369  1.00  0.00     0.137 A 
HETATM   10  N3  UNL     1      -7.855  33.606  -8.641  1.00  0.00    -0.281 N 
HETATM   11  N4  UNL     1      -7.507  32.485  -9.234  1.00  0.00    -0.232 N 
ATOM     12  H3  UNL     1      -7.882  34.528  -9.076  1.00  0.00     0.188 HD
HETATM   13  N5  UNL     1      -7.577  31.456  -8.390  1.00  0.00    -0.197 N 
ATOM     14  H4  UNL     1      -7.223  32.413 -10.210  1.00  0.00     0.209 HD
HETATM   15  C13 UNL     1      -7.991  31.981  -7.218  1.00  0.00     0.194 A 
BRANCH  13  16
HETATM   16  C4  UNL     1      -7.278  30.107  -8.678  1.00  0.00     0.175 A 
HETATM   17  N6  UNL     1      -6.790  29.277  -7.763  1.00  0.00    -0.331 N 
HETATM   18  C5  UNL     1      -6.490  27.975  -8.003  1.00  0.00     0.136 A 
ATOM     19  H6  UNL     1      -6.630  29.640  -6.823  1.00  0.00     0.168 HD
HETATM   20  C10 UNL     1      -6.717  27.522  -9.270  1.00  0.00     0.102 A 
HETATM   21  N11 UNL     1      -7.221  28.367 -10.226  1.00  0.00    -0.338 N 
HETATM   22  C12 UNL     1      -7.496  29.630  -9.942  1.00  0.00     0.146 A 
ATOM     23  H11 UNL     1      -7.386  28.017 -11.170  1.00  0.00     0.167 HD
BRANCH  18  24
HETATM   24  C6  UNL     1      -5.951  27.141  -6.954  1.00  0.00     0.312 C 
HETATM   25  O2  UNL     1      -6.805  26.656  -6.108  1.00  0.00    -0.258 OA
BRANCH  24  26
HETATM   26  O3  UNL     1      -4.651  26.787  -6.721  1.00  0.00    -0.308 OA
BRANCH  26  27
HETATM   27  C7  UNL     1      -4.141  26.302  -5.502  1.00  0.00     0.265 C 
BRANCH  27  28
HETATM   28  C8  UNL     1      -3.611  24.926  -5.693  1.00  0.00     0.168 A 
HETATM   29  N7  UNL     1      -2.403  24.447  -5.299  1.00  0.00    -0.277 N 
HETATM   30  N8  UNL     1      -2.384  23.185  -5.683  1.00  0.00    -0.243 N 
ATOM     31  H7  UNL     1      -1.667  24.955  -4.809  1.00  0.00     0.189 HD
HETATM   32  C9  UNL     1      -3.531  22.858  -6.301  1.00  0.00     0.385 A 
ATOM     33  H8  UNL     1      -1.604  22.544  -5.531  1.00  0.00     0.192 HD
HETATM   34  O4  UNL     1      -3.866  21.755  -6.795  1.00  0.00    -0.236 OA
HETATM   35  O5  UNL     1      -4.246  23.955  -6.281  1.00  0.00    -0.243 OA
ENDBRANCH  27  28
ENDBRANCH  26  27
ENDBRANCH  24  26
ENDBRANCH  18  24
BRANCH  20  36
HETATM   36  C11 UNL     1      -6.482  26.150  -9.755  1.00  0.00     0.429 C 
BRANCH  36  37
HETATM   37  N9  UNL     1      -7.695  25.777 -10.509  1.00  0.00    -0.045 N 
ATOM     38  H93 UNL     1      -8.562  25.985 -10.014  1.00  0.00     0.277 HD
ATOM     39  H92 UNL     1      -7.870  26.370 -11.320  1.00  0.00     0.277 HD
ATOM     40  H91 UNL     1      -7.584  24.790 -10.741  1.00  0.00     0.277 HD
ENDBRANCH  36  37
BRANCH  36  41
HETATM   41  N10 UNL     1      -5.370  26.226 -10.691  1.00  0.00    -0.045 N 
ATOM     42 3H10 UNL     1      -4.498  26.526 -10.257  1.00  0.00     0.277 HD
ATOM     43 2H10 UNL     1      -5.047  25.312 -11.008  1.00  0.00     0.277 HD
ATOM     44 1H10 UNL     1      -5.672  26.833 -11.452  1.00  0.00     0.277 HD
ENDBRANCH  36  41
ENDBRANCH  20  36
BRANCH  22  45
HETATM   45  N12 UNL     1      -7.979  30.411 -10.886  1.00  0.00    -0.382 N 
ATOM     46 2H12 UNL     1      -8.384  31.311 -10.628  1.00  0.00     0.157 HD
ATOM     47 1H12 UNL     1      -7.951  30.128 -11.865  1.00  0.00     0.157 HD
ENDBRANCH  22  45
ENDBRANCH  13  16
BRANCH  15  48
HETATM   48  O6  UNL     1      -8.189  31.227  -6.072  1.00  0.00    -0.343 OA
ATOM     49  H6  UNL     1      -7.529  30.912  -5.465  1.00  0.00     0.219 HD
ENDBRANCH  15  48
ENDBRANCH   4   9
ENDBRANCH   3   4
TORSDOF 13
ENDMDL
MODEL 5
REMARK VINA RESULT: -7.397557035      4.390      8.348
REMARK  13 active torsions:
REMARK  status: ('A' for Active; 'I' for Inactive)
REMARK    1  A    between atoms: O1_3  and  C2_4 
REMARK    2  A    between atoms: C2_4  and  N2_5 
REMARK    3  A    between atoms: C2_4  and  C3_9 
REMARK    4  A    between atoms: N5_14  and  C4_15 
REMARK    5  A    between atoms: C5_18  and  C6_19 
REMARK    6  A    between atoms: C6_19  and  O3_21 
REMARK    7  A    between atoms: O3_21  and  C7_22 
REMARK    8  A    between atoms: C7_22  and  C8_23 
REMARK    9  A    between atoms: C10_31  and  C11_32 
REMARK   10  A    between atoms: C11_32  and  N9_33 
REMARK   11  A    between atoms: C11_32  and  N10_37 
REMARK   12  A    between atoms: C12_43  and  N12_44 
REMARK   13  A    between atoms: C13_47  and  O6_48 
ROOT
HETATM    1  N1  UNL     1      -5.825  20.912  -3.892  1.00  0.00    -0.164 NA
HETATM    2  C1  UNL     1      -4.798  21.345  -4.217  1.00  0.00     0.231 C 
HETATM    3  O1  UNL     1      -3.583  21.862  -4.582  1.00  0.00    -0.243 OA
ENDROOT
BRANCH   3   4
HETATM    4  C2  UNL     1      -3.042  23.032  -3.962  1.00  0.00     0.393 C 
BRANCH   4   5
HETATM    5  N2  UNL     1      -3.791  23.354  -2.762  1.00  0.00    -0.046 N 
ATOM      6  H23 UNL     1      -4.748  23.637  -2.974  1.00  0.00     0.277 HD
ATOM      7  H22 UNL     1      -4.000  22.523  -2.208  1.00  0.00     0.277 HD
ATOM      8  H21 UNL     1      -3.297  24.061  -2.217  1.00  0.00     0.277 HD
ENDBRANCH   4   5
BRANCH   4   9
HETATM    9  C3  UNL     1      -3.156  24.187  -4.898  1.00  0.00     0.137 A 
HETATM   10  N3  UNL     1      -2.233  24.704  -5.717  1.00  0.00    -0.281 N 
HETATM   11  N4  UNL     1      -2.771  25.717  -6.359  1.00  0.00    -0.232 N 
ATOM     12  H3  UNL     1      -1.275  24.369  -5.825  1.00  0.00     0.188 HD
HETATM   13  N5  UNL     1      -4.040  25.897  -5.992  1.00  0.00    -0.197 N 
ATOM     14  H4  UNL     1      -2.283  26.291  -7.047  1.00  0.00     0.209 HD
HETATM   15  C13 UNL     1      -4.286  24.939  -5.074  1.00  0.00     0.194 A 
BRANCH  13  16
HETATM   16  C4  UNL     1      -4.925  26.887  -6.471  1.00  0.00     0.175 A 
HETATM   17  N6  UNL     1      -5.474  26.824  -7.679  1.00  0.00    -0.331 N 
HETATM   18  C5  UNL     1      -6.327  27.757  -8.174  1.00  0.00     0.136 A 
ATOM     19  H6  UNL     1      -5.239  26.026  -8.271  1.00  0.00     0.168 HD
HETATM   20  C10 UNL     1      -6.620  28.809  -7.355  1.00  0.00     0.102 A 
HETATM   21  N11 UNL     1      -6.061  28.888  -6.105  1.00  0.00    -0.338 N 
HETATM   22  C12 UNL     1      -5.233  27.953  -5.669  1.00  0.00     0.146 A 
ATOM     23  H11 UNL     1      -6.287  29.680  -5.502  1.00  0.00     0.167 HD
BRANCH  18  24
HETATM   24  C6  UNL     1      -6.872  27.619  -9.505  1.00  0.00     0.312 C 
HETATM   25  O2  UNL     1      -6.790  28.662 -10.270  1.00  0.00    -0.258 OA
BRANCH  24  26
HETATM   26  O3  UNL     1      -7.471  26.532 -10.079  1.00  0.00    -0.308 OA
BRANCH  26  27
HETATM   27  C7  UNL     1      -6.890  25.698 -11.053  1.00  0.00     0.265 C 
BRANCH  27  28
HETATM   28  C8  UNL     1      -5.619  25.130 -10.531  1.00  0.00     0.168 A 
HETATM   29  N7  UNL     1      -4.380  25.253 -11.072  1.00  0.00    -0.277 N 
HETATM   30  N8  UNL     1      -3.576  24.588 -10.263  1.00  0.00    -0.243 N 
ATOM     31  H7  UNL     1      -4.123  25.754 -11.923  1.00  0.00     0.189 HD
HETATM   32  C9  UNL     1      -4.265  24.054  -9.241  1.00  0.00     0.385 A 
ATOM     33  H8  UNL     1      -2.569  24.491 -10.397  1.00  0.00     0.192 HD
HETATM   34  O4  UNL     1      -3.838  23.363  -8.286  1.00  0.00    -0.236 OA
HETATM   35  O5  UNL     1      -5.507  24.414  -9.450  1.00  0.00    -0.243 OA
ENDBRANCH  27  28
ENDBRANCH  26  27
ENDBRANCH  24  26
ENDBRANCH  18  24
BRANCH  20  36
HETATM   36  C11 UNL     1      -7.527  29.927  -7.672  1.00  0.00     0.429 C 
BRANCH  36  37
HETATM   37  N9  UNL     1      -8.843  29.543  -7.125  1.00  0.00    -0.045 N 
ATOM     38  H93 UNL     1      -9.431  29.040  -7.791  1.00  0.00     0.277 HD
ATOM     39  H92 UNL     1      -8.794  28.804  -6.423  1.00  0.00     0.277 HD
ATOM     40  H91 UNL     1      -9.263  30.406  -6.780  1.00  0.00     0.277 HD
ENDBRANCH  36  37
BRANCH  36  41
HETATM   41  N10 UNL     1      -7.043  31.077  -6.925  1.00  0.00    -0.045 N 
ATOM     42 3H10 UNL     1      -6.367  31.639  -7.443  1.00  0.00     0.277 HD
ATOM     43 2H10 UNL     1      -7.747  31.805  -6.804  1.00  0.00     0.277 HD
ATOM     44 1H10 UNL     1      -6.677  30.720  -6.043  1.00  0.00     0.277 HD
ENDBRANCH  36  41
ENDBRANCH  20  36
BRANCH  22  45
HETATM   45  N12 UNL     1      -4.715  28.062  -4.463  1.00  0.00    -0.382 N 
ATOM     46 2H12 UNL     1      -3.705  27.985  -4.344  1.00  0.00     0.157 HD
ATOM     47 1H12 UNL     1      -5.311  28.224  -3.651  1.00  0.00     0.157 HD
ENDBRANCH  22  45
ENDBRANCH  13  16
BRANCH  15  48
HETATM   48  O6  UNL     1      -5.510  24.786  -4.442  1.00  0.00    -0.343 OA
ATOM     49  H6  UNL     1      -6.373  24.808  -4.838  1.00  0.00     0.219 HD
ENDBRANCH  15  48
ENDBRANCH   4   9
ENDBRANCH   3   4
TORSDOF 13
ENDMDL
