MODEL 1
REMARK VINA RESULT: -5.564715003      0.000      0.000
REMARK  5 active torsions:
REMARK  status: ('A' for Active; 'I' for Inactive)
REMARK    1  A    between atoms: N1_2  and  C2_4 
REMARK    2  A    between atoms: C5_9  and  C6_10 
REMARK    3  A    between atoms: C6_10  and  O2_12 
REMARK    4  A    between atoms: C9_16  and  C10_17 
REMARK       I    between atoms: C10_17  and  N4_19 
REMARK    5  A    between atoms: N5_21  and  N6_23 
ROOT
HETATM    1  C2  UNL     1      19.768  11.029  32.297  1.00  0.00     0.118 A 
HETATM    2  N2  UNL     1      20.906  11.740  32.295  1.00  0.00    -0.345 N 
ATOM      3  H2  UNL     1      21.175  12.272  31.468  1.00  0.00     0.167 HD
HETATM    4  C3  UNL     1      21.704  11.750  33.404  1.00  0.00     0.025 A 
HETATM    5  C4  UNL     1      22.945  12.544  33.361  1.00  0.00     0.069 C 
HETATM    6  C5  UNL     1      21.391  11.055  34.540  1.00  0.00     0.087 A 
HETATM    7  C8  UNL     1      20.211  10.324  34.528  1.00  0.00     0.084 A 
HETATM    8  N3  UNL     1      19.850   9.578  35.710  1.00  0.00    -0.100 NA
HETATM    9  C9  UNL     1      19.407  10.312  33.415  1.00  0.00     0.102 A 
ENDROOT
BRANCH   9  10
HETATM   10  C10 UNL     1      18.173   9.521  33.459  1.00  0.00     0.276 C 
HETATM   11  O3  UNL     1      18.206   8.265  33.467  1.00  0.00    -0.266 OA
HETATM   12  N4  UNL     1      16.889  10.128  33.497  1.00  0.00    -0.251 N 
HETATM   13  N5  UNL     1      16.216  10.169  34.566  1.00  0.00    -0.238 N 
ATOM     14  H4  UNL     1      16.503  10.539  32.646  1.00  0.00     0.192 HD
ATOM     15  H5  UNL     1      15.296  10.609  34.575  1.00  0.00     0.208 HD
BRANCH  13  16
HETATM   16  N6  UNL     1      16.730   9.617  35.718  1.00  0.00    -0.261 N 
HETATM   17  C11 UNL     1      16.126   9.498  36.824  1.00  0.00     0.216 C 
HETATM   18  N7  UNL     1      16.766   8.910  37.939  1.00  0.00    -0.065 NA
HETATM   19  N8  UNL     1      14.796   9.951  36.966  1.00  0.00    -0.065 NA
ATOM     20  H6  UNL     1      17.689   9.271  35.676  1.00  0.00     0.190 HD
ENDBRANCH  13  16
ENDBRANCH   9  10
BRANCH   1  21
HETATM   21  N1  UNL     1      18.993  11.001  31.258  1.00  0.00    -0.380 N 
HETATM   22  C1  UNL     1      18.302  12.234  30.873  1.00  0.00     0.147 C 
ATOM     23  H1  UNL     1      18.866  10.142  30.723  1.00  0.00     0.160 HD
ENDBRANCH   1  21
BRANCH   6  24
HETATM   24  C6  UNL     1      22.189  11.023  35.749  1.00  0.00     0.296 C 
HETATM   25  O1  UNL     1      22.112  11.921  36.618  1.00  0.00    -0.259 OA
BRANCH  24  26
HETATM   26  O2  UNL     1      23.090   9.997  36.024  1.00  0.00    -0.322 OA
HETATM   27  C7  UNL     1      23.828   9.333  35.027  1.00  0.00     0.213 C 
ENDBRANCH  24  26
ENDBRANCH   6  24
TORSDOF 5
ENDMDL
MODEL 2
REMARK VINA RESULT: -5.472793801      2.526      3.920
REMARK  5 active torsions:
REMARK  status: ('A' for Active; 'I' for Inactive)
REMARK    1  A    between atoms: N1_2  and  C2_4 
REMARK    2  A    between atoms: C5_9  and  C6_10 
REMARK    3  A    between atoms: C6_10  and  O2_12 
REMARK    4  A    between atoms: C9_16  and  C10_17 
REMARK       I    between atoms: C10_17  and  N4_19 
REMARK    5  A    between atoms: N5_21  and  N6_23 
ROOT
HETATM    1  C2  UNL     1      19.046  11.903  35.200  1.00  0.00     0.118 A 
HETATM    2  N2  UNL     1      20.179  12.167  35.869  1.00  0.00    -0.345 N 
ATOM      3  H2  UNL     1      20.460  13.133  36.039  1.00  0.00     0.167 HD
HETATM    4  C3  UNL     1      20.956  11.140  36.324  1.00  0.00     0.025 A 
HETATM    5  C4  UNL     1      22.192  11.472  37.055  1.00  0.00     0.069 C 
HETATM    6  C5  UNL     1      20.627   9.827  36.125  1.00  0.00     0.087 A 
HETATM    7  C8  UNL     1      19.452   9.569  35.431  1.00  0.00     0.084 A 
HETATM    8  N3  UNL     1      19.075   8.194  35.203  1.00  0.00    -0.100 NA
HETATM    9  C9  UNL     1      18.670  10.600  34.973  1.00  0.00     0.102 A 
ENDROOT
BRANCH   9  10
HETATM   10  C10 UNL     1      17.441  10.267  34.245  1.00  0.00     0.276 C 
HETATM   11  O3  UNL     1      16.359  10.853  34.496  1.00  0.00    -0.266 OA
HETATM   12  N4  UNL     1      17.413   9.276  33.227  1.00  0.00    -0.251 N 
HETATM   13  N5  UNL     1      17.362   9.595  32.006  1.00  0.00    -0.238 N 
ATOM     14  H4  UNL     1      17.433   8.289  33.487  1.00  0.00     0.192 HD
ATOM     15  H5  UNL     1      17.342   8.870  31.288  1.00  0.00     0.208 HD
BRANCH  13  16
HETATM   16  N6  UNL     1      17.334  10.924  31.647  1.00  0.00    -0.261 N 
HETATM   17  C11 UNL     1      18.340  11.664  31.440  1.00  0.00     0.216 C 
HETATM   18  N7  UNL     1      18.179  13.021  31.075  1.00  0.00    -0.065 NA
HETATM   19  N8  UNL     1      19.648  11.147  31.568  1.00  0.00    -0.065 NA
ATOM     20  H6  UNL     1      16.415  11.353  31.539  1.00  0.00     0.190 HD
ENDBRANCH  13  16
ENDBRANCH   9  10
BRANCH   1  21
HETATM   21  N1  UNL     1      18.291  12.860  34.756  1.00  0.00    -0.380 N 
HETATM   22  C1  UNL     1      17.768  13.833  35.717  1.00  0.00     0.147 C 
ATOM     23  H1  UNL     1      18.067  12.932  33.764  1.00  0.00     0.160 HD
ENDBRANCH   1  21
BRANCH   6  24
HETATM   24  C6  UNL     1      21.403   8.690  36.579  1.00  0.00     0.296 C 
HETATM   25  O1  UNL     1      21.211   8.163  37.699  1.00  0.00    -0.259 OA
BRANCH  24  26
HETATM   26  O2  UNL     1      22.407   8.112  35.807  1.00  0.00    -0.322 OA
HETATM   27  C7  UNL     1      22.388   6.764  35.405  1.00  0.00     0.213 C 
ENDBRANCH  24  26
ENDBRANCH   6  24
TORSDOF 5
ENDMDL
MODEL 3
REMARK VINA RESULT: -5.433820048      3.559      4.808
REMARK  5 active torsions:
REMARK  status: ('A' for Active; 'I' for Inactive)
REMARK    1  A    between atoms: N1_2  and  C2_4 
REMARK    2  A    between atoms: C5_9  and  C6_10 
REMARK    3  A    between atoms: C6_10  and  O2_12 
REMARK    4  A    between atoms: C9_16  and  C10_17 
REMARK       I    between atoms: C10_17  and  N4_19 
REMARK    5  A    between atoms: N5_21  and  N6_23 
ROOT
HETATM    1  C2  UNL     1      18.128  12.706  35.781  1.00  0.00     0.118 A 
HETATM    2  N2  UNL     1      19.170  12.523  34.955  1.00  0.00    -0.345 N 
ATOM      3  H2  UNL     1      19.870  13.257  34.844  1.00  0.00     0.167 HD
HETATM    4  C3  UNL     1      19.294  11.351  34.265  1.00  0.00     0.025 A 
HETATM    5  C4  UNL     1      20.453  11.188  33.370  1.00  0.00     0.069 C 
HETATM    6  C5  UNL     1      18.385  10.334  34.377  1.00  0.00     0.087 A 
HETATM    7  C8  UNL     1      17.312  10.538  35.234  1.00  0.00     0.084 A 
HETATM    8  N3  UNL     1      16.334   9.485  35.375  1.00  0.00    -0.100 NA
HETATM    9  C9  UNL     1      17.186  11.715  35.929  1.00  0.00     0.102 A 
ENDROOT
BRANCH   9  10
HETATM   10  C10 UNL     1      16.031  11.875  36.819  1.00  0.00     0.276 C 
HETATM   11  O3  UNL     1      16.179  12.195  38.024  1.00  0.00    -0.266 OA
HETATM   12  N4  UNL     1      14.698  11.679  36.366  1.00  0.00    -0.251 N 
HETATM   13  N5  UNL     1      13.932  12.659  36.146  1.00  0.00    -0.238 N 
ATOM     14  H4  UNL     1      14.353  10.730  36.217  1.00  0.00     0.192 HD
ATOM     15  H5  UNL     1      12.979  12.501  35.821  1.00  0.00     0.208 HD
BRANCH  13  16
HETATM   16  N6  UNL     1      14.390  13.942  36.345  1.00  0.00    -0.261 N 
HETATM   17  C11 UNL     1      13.837  15.005  35.937  1.00  0.00     0.216 C 
HETATM   18  N7  UNL     1      14.409  16.270  36.208  1.00  0.00    -0.065 NA
HETATM   19  N8  UNL     1      12.633  14.950  35.201  1.00  0.00    -0.065 NA
ATOM     20  H6  UNL     1      15.258  14.046  36.872  1.00  0.00     0.190 HD
ENDBRANCH  13  16
ENDBRANCH   9  10
BRANCH   1  21
HETATM   21  N1  UNL     1      17.986  13.810  36.447  1.00  0.00    -0.380 N 
HETATM   22  C1  UNL     1      17.790  15.053  35.698  1.00  0.00     0.147 C 
ATOM     23  H1  UNL     1      18.011  13.812  37.467  1.00  0.00     0.160 HD
ENDBRANCH   1  21
BRANCH   6  24
HETATM   24  C6  UNL     1      18.454   9.067  33.676  1.00  0.00     0.296 C 
HETATM   25  O1  UNL     1      18.134   8.960  32.470  1.00  0.00    -0.259 OA
BRANCH  24  26
HETATM   26  O2  UNL     1      18.878   7.892  34.292  1.00  0.00    -0.322 OA
HETATM   27  C7  UNL     1      19.944   7.846  35.209  1.00  0.00     0.213 C 
ENDBRANCH  24  26
ENDBRANCH   6  24
TORSDOF 5
ENDMDL
MODEL 4
REMARK VINA RESULT: -5.413354487      2.540      4.208
REMARK  5 active torsions:
REMARK  status: ('A' for Active; 'I' for Inactive)
REMARK    1  A    between atoms: N1_2  and  C2_4 
REMARK    2  A    between atoms: C5_9  and  C6_10 
REMARK    3  A    between atoms: C6_10  and  O2_12 
REMARK    4  A    between atoms: C9_16  and  C10_17 
REMARK       I    between atoms: C10_17  and  N4_19 
REMARK    5  A    between atoms: N5_21  and  N6_23 
ROOT
HETATM    1  C2  UNL     1      21.504  10.642  34.335  1.00  0.00     0.118 A 
HETATM    2  N2  UNL     1      22.724  10.303  34.780  1.00  0.00    -0.345 N 
ATOM      3  H2  UNL     1      23.511  10.938  34.647  1.00  0.00     0.167 HD
HETATM    4  C3  UNL     1      22.910   9.107  35.410  1.00  0.00     0.025 A 
HETATM    5  C4  UNL     1      24.266   8.772  35.884  1.00  0.00     0.069 C 
HETATM    6  C5  UNL     1      21.890   8.218  35.615  1.00  0.00     0.087 A 
HETATM    7  C8  UNL     1      20.633   8.582  35.149  1.00  0.00     0.084 A 
HETATM    8  N3  UNL     1      19.534   7.667  35.349  1.00  0.00    -0.100 NA
HETATM    9  C9  UNL     1      20.444   9.784  34.516  1.00  0.00     0.102 A 
ENDROOT
BRANCH   9  10
HETATM   10  C10 UNL     1      19.095  10.115  34.045  1.00  0.00     0.276 C 
HETATM   11  O3  UNL     1      18.528  11.180  34.393  1.00  0.00    -0.266 OA
HETATM   12  N4  UNL     1      18.368   9.255  33.177  1.00  0.00    -0.251 N 
HETATM   13  N5  UNL     1      18.235   9.525  31.950  1.00  0.00    -0.238 N 
ATOM     14  H4  UNL     1      17.944   8.406  33.552  1.00  0.00     0.192 HD
ATOM     15  H5  UNL     1      17.710   8.897  31.342  1.00  0.00     0.208 HD
BRANCH  13  16
HETATM   16  N6  UNL     1      18.803  10.670  31.438  1.00  0.00    -0.261 N 
HETATM   17  C11 UNL     1      18.221  11.781  31.264  1.00  0.00     0.216 C 
HETATM   18  N7  UNL     1      18.916  12.888  30.727  1.00  0.00    -0.065 NA
HETATM   19  N8  UNL     1      16.859  11.937  31.606  1.00  0.00    -0.065 NA
ATOM     20  H6  UNL     1      19.787  10.619  31.173  1.00  0.00     0.190 HD
ENDBRANCH  13  16
ENDBRANCH   9  10
BRANCH   1  21
HETATM   21  N1  UNL     1      21.299  11.772  33.733  1.00  0.00    -0.380 N 
HETATM   22  C1  UNL     1      22.057  12.055  32.511  1.00  0.00     0.147 C 
ATOM     23  H1  UNL     1      20.628  12.447  34.099  1.00  0.00     0.160 HD
ENDBRANCH   1  21
BRANCH   6  24
HETATM   24  C6  UNL     1      22.017   6.934  36.275  1.00  0.00     0.296 C 
HETATM   25  O1  UNL     1      21.756   6.786  37.491  1.00  0.00    -0.259 OA
BRANCH  24  26
HETATM   26  O2  UNL     1      22.435   5.786  35.607  1.00  0.00    -0.322 OA
HETATM   27  C7  UNL     1      21.550   4.777  35.183  1.00  0.00     0.213 C 
ENDBRANCH  24  26
ENDBRANCH   6  24
TORSDOF 5
ENDMDL
MODEL 5
REMARK VINA RESULT: -5.216079151      3.800      7.425
REMARK  5 active torsions:
REMARK  status: ('A' for Active; 'I' for Inactive)
REMARK    1  A    between atoms: N1_2  and  C2_4 
REMARK    2  A    between atoms: C5_9  and  C6_10 
REMARK    3  A    between atoms: C6_10  and  O2_12 
REMARK    4  A    between atoms: C9_16  and  C10_17 
REMARK       I    between atoms: C10_17  and  N4_19 
REMARK    5  A    between atoms: N5_21  and  N6_23 
ROOT
HETATM    1  C2  UNL     1      15.308  10.242  37.294  1.00  0.00     0.118 A 
HETATM    2  N2  UNL     1      14.307  10.817  37.979  1.00  0.00    -0.345 N 
ATOM      3  H2  UNL     1      13.885  10.333  38.771  1.00  0.00     0.167 HD
HETATM    4  C3  UNL     1      13.855  12.053  37.614  1.00  0.00     0.025 A 
HETATM    5  C4  UNL     1      12.755  12.651  38.392  1.00  0.00     0.069 C 
HETATM    6  C5  UNL     1      14.385  12.747  36.561  1.00  0.00     0.087 A 
HETATM    7  C8  UNL     1      15.419  12.139  35.861  1.00  0.00     0.084 A 
HETATM    8  N3  UNL     1      16.002  12.844  34.744  1.00  0.00    -0.100 NA
HETATM    9  C9  UNL     1      15.875  10.897  36.227  1.00  0.00     0.102 A 
ENDROOT
BRANCH   9  10
HETATM   10  C10 UNL     1      16.970  10.304  35.451  1.00  0.00     0.276 C 
HETATM   11  O3  UNL     1      16.756   9.382  34.626  1.00  0.00    -0.266 OA
HETATM   12  N4  UNL     1      18.315  10.741  35.589  1.00  0.00    -0.251 N 
HETATM   13  N5  UNL     1      18.859  11.469  34.712  1.00  0.00    -0.238 N 
ATOM     14  H4  UNL     1      18.851  10.462  36.411  1.00  0.00     0.192 HD
ATOM     15  H5  UNL     1      19.826  11.773  34.827  1.00  0.00     0.208 HD
BRANCH  13  16
HETATM   16  N6  UNL     1      18.143  11.849  33.599  1.00  0.00    -0.261 N 
HETATM   17  C11 UNL     1      18.363  11.484  32.407  1.00  0.00     0.216 C 
HETATM   18  N7  UNL     1      17.551  11.947  31.346  1.00  0.00    -0.065 NA
HETATM   19  N8  UNL     1      19.427  10.603  32.112  1.00  0.00    -0.065 NA
ATOM     20  H6  UNL     1      17.361  12.486  33.750  1.00  0.00     0.190 HD
ENDBRANCH  13  16
ENDBRANCH   9  10
BRANCH   1  21
HETATM   21  N1  UNL     1      15.755   9.069  37.620  1.00  0.00    -0.380 N 
HETATM   22  C1  UNL     1      14.881   8.181  38.391  1.00  0.00     0.147 C 
ATOM     23  H1  UNL     1      16.692   8.772  37.346  1.00  0.00     0.160 HD
ENDBRANCH   1  21
BRANCH   6  24
HETATM   24  C6  UNL     1      13.955  14.059  36.120  1.00  0.00     0.296 C 
HETATM   25  O1  UNL     1      14.546  15.103  36.477  1.00  0.00    -0.259 OA
BRANCH  24  26
HETATM   26  O2  UNL     1      12.864  14.245  35.276  1.00  0.00    -0.322 OA
HETATM   27  C7  UNL     1      11.706  14.948  35.658  1.00  0.00     0.213 C 
ENDBRANCH  24  26
ENDBRANCH   6  24
TORSDOF 5
ENDMDL
