MODEL 1
REMARK VINA RESULT: -7.671385714      0.000      0.000
REMARK  5 active torsions:
REMARK  status: ('A' for Active; 'I' for Inactive)
REMARK    1  A    between atoms: C2_2  and  C3_3 
REMARK    2  A    between atoms: C2_2  and  C10_19 
REMARK       I    between atoms: C3_3  and  N1_5 
REMARK    3  A    between atoms: C5_7  and  N2_8 
REMARK    4  A    between atoms: N2_8  and  S1_10 
REMARK    5  A    between atoms: C10_19  and  C12_21 
ROOT
HETATM    1  C3  UNL     1      47.809  51.035  34.444  1.00  0.00     0.224 C 
HETATM    2  O1  UNL     1      47.820  52.205  33.883  1.00  0.00    -0.273 OA
HETATM    3  N1  UNL     1      47.227  50.026  33.658  1.00  0.00    -0.344 N 
HETATM    4  C4  UNL     1      46.681  50.340  32.335  1.00  0.00     0.152 C 
HETATM    5  C5  UNL     1      45.206  50.182  32.378  1.00  0.00     0.116 C 
HETATM    6  C7  UNL     1      44.785  49.037  33.235  1.00  0.00     0.108 C 
HETATM    7  C8  UNL     1      45.882  48.026  33.342  1.00  0.00     0.261 C 
HETATM    8  F1  UNL     1      45.401  47.039  34.216  1.00  0.00    -0.204 F 
HETATM    9  F2  UNL     1      46.208  47.480  32.142  1.00  0.00    -0.204 F 
HETATM   10  C9  UNL     1      47.115  48.623  34.001  1.00  0.00     0.204 C 
ENDROOT
BRANCH   1  11
HETATM   11  C2  UNL     1      48.397  50.965  35.782  1.00  0.00     0.078 C 
HETATM   12  C1  UNL     1      49.458  49.933  35.983  1.00  0.00     0.020 C 
BRANCH  11  13
HETATM   13  C10 UNL     1      47.367  50.973  36.844  1.00  0.00    -0.002 C 
HETATM   14  C11 UNL     1      45.958  50.706  36.415  1.00  0.00     0.011 C 
BRANCH  13  15
HETATM   15  C12 UNL     1      47.675  50.064  38.023  1.00  0.00    -0.010 C 
HETATM   16  C13 UNL     1      46.496  49.128  38.156  1.00  0.00     0.005 C 
HETATM   17  C14 UNL     1      46.540  48.223  39.339  1.00  0.00     0.000 C 
HETATM   18  C15 UNL     1      46.946  48.884  40.607  1.00  0.00     0.000 C 
HETATM   19  C16 UNL     1      48.126  49.818  40.418  1.00  0.00     0.000 C 
HETATM   20  C17 UNL     1      47.853  50.808  39.295  1.00  0.00     0.005 C 
ENDBRANCH  13  15
ENDBRANCH  11  13
ENDBRANCH   1  11
BRANCH   5  21
HETATM   21  N2  UNL     1      44.602  50.138  31.057  1.00  0.00    -0.313 N 
ATOM     22  H2  UNL     1      44.668  49.335  30.432  1.00  0.00     0.172 HD
BRANCH  21  23
HETATM   23  S1  UNL     1      43.760  51.592  30.661  1.00  0.00     0.223 S 
HETATM   24  C6  UNL     1      45.006  52.888  30.598  1.00  0.00     0.185 C 
HETATM   25  O2  UNL     1      43.122  51.521  29.328  1.00  0.00    -0.206 OA
HETATM   26  O3  UNL     1      42.835  51.937  31.771  1.00  0.00    -0.206 OA
ENDBRANCH  21  23
ENDBRANCH   5  21
TORSDOF 5
ENDMDL
MODEL 2
REMARK VINA RESULT: -7.562406445      2.866      3.648
REMARK  5 active torsions:
REMARK  status: ('A' for Active; 'I' for Inactive)
REMARK    1  A    between atoms: C2_2  and  C3_3 
REMARK    2  A    between atoms: C2_2  and  C10_19 
REMARK       I    between atoms: C3_3  and  N1_5 
REMARK    3  A    between atoms: C5_7  and  N2_8 
REMARK    4  A    between atoms: N2_8  and  S1_10 
REMARK    5  A    between atoms: C10_19  and  C12_21 
ROOT
HETATM    1  C3  UNL     1      46.034  49.421  34.760  1.00  0.00     0.224 C 
HETATM    2  O1  UNL     1      46.998  48.558  34.676  1.00  0.00    -0.273 OA
HETATM    3  N1  UNL     1      45.235  49.507  33.607  1.00  0.00    -0.344 N 
HETATM    4  C4  UNL     1      45.533  48.676  32.437  1.00  0.00     0.152 C 
HETATM    5  C5  UNL     1      45.990  49.555  31.332  1.00  0.00     0.116 C 
HETATM    6  C7  UNL     1      45.260  50.854  31.303  1.00  0.00     0.108 C 
HETATM    7  C8  UNL     1      43.923  50.722  31.961  1.00  0.00     0.261 C 
HETATM    8  F1  UNL     1      43.361  52.008  31.934  1.00  0.00    -0.204 F 
HETATM    9  F2  UNL     1      43.113  49.836  31.326  1.00  0.00    -0.204 F 
HETATM   10  C9  UNL     1      44.068  50.345  33.426  1.00  0.00     0.204 C 
ENDROOT
BRANCH   1  11
HETATM   11  C2  UNL     1      45.941  50.151  36.025  1.00  0.00     0.078 C 
HETATM   12  C1  UNL     1      45.549  51.589  35.929  1.00  0.00     0.020 C 
BRANCH  11  13
HETATM   13  C10 UNL     1      47.116  49.912  36.892  1.00  0.00    -0.002 C 
HETATM   14  C11 UNL     1      48.160  50.984  36.920  1.00  0.00     0.011 C 
BRANCH  13  15
HETATM   15  C12 UNL     1      46.771  49.560  38.330  1.00  0.00    -0.010 C 
HETATM   16  C13 UNL     1      47.796  50.258  39.195  1.00  0.00     0.005 C 
HETATM   17  C14 UNL     1      47.712  49.946  40.649  1.00  0.00     0.000 C 
HETATM   18  C15 UNL     1      47.525  48.505  40.961  1.00  0.00     0.000 C 
HETATM   19  C16 UNL     1      46.494  47.850  40.061  1.00  0.00     0.000 C 
HETATM   20  C17 UNL     1      46.822  48.101  38.597  1.00  0.00     0.005 C 
ENDBRANCH  13  15
ENDBRANCH  11  13
ENDBRANCH   1  11
BRANCH   5  21
HETATM   21  N2  UNL     1      45.989  48.888  30.041  1.00  0.00    -0.313 N 
ATOM     22  H2  UNL     1      45.234  48.977  29.360  1.00  0.00     0.172 HD
BRANCH  21  23
HETATM   23  S1  UNL     1      47.402  47.931  29.783  1.00  0.00     0.223 S 
HETATM   24  C6  UNL     1      47.787  48.071  28.032  1.00  0.00     0.185 C 
HETATM   25  O2  UNL     1      48.567  48.443  30.538  1.00  0.00    -0.206 OA
HETATM   26  O3  UNL     1      47.077  46.505  30.040  1.00  0.00    -0.206 OA
ENDBRANCH  21  23
ENDBRANCH   5  21
TORSDOF 5
ENDMDL
MODEL 3
REMARK VINA RESULT: -7.490426764      3.032      7.140
REMARK  5 active torsions:
REMARK  status: ('A' for Active; 'I' for Inactive)
REMARK    1  A    between atoms: C2_2  and  C3_3 
REMARK    2  A    between atoms: C2_2  and  C10_19 
REMARK       I    between atoms: C3_3  and  N1_5 
REMARK    3  A    between atoms: C5_7  and  N2_8 
REMARK    4  A    between atoms: N2_8  and  S1_10 
REMARK    5  A    between atoms: C10_19  and  C12_21 
ROOT
HETATM    1  C3  UNL     1      44.657  51.348  33.434  1.00  0.00     0.224 C 
HETATM    2  O1  UNL     1      45.028  52.457  33.995  1.00  0.00    -0.273 OA
HETATM    3  N1  UNL     1      45.243  50.198  33.989  1.00  0.00    -0.344 N 
HETATM    4  C4  UNL     1      46.197  50.314  35.096  1.00  0.00     0.152 C 
HETATM    5  C5  UNL     1      47.540  49.907  34.612  1.00  0.00     0.116 C 
HETATM    6  C7  UNL     1      47.473  48.774  33.645  1.00  0.00     0.108 C 
HETATM    7  C8  UNL     1      46.224  47.978  33.850  1.00  0.00     0.261 C 
HETATM    8  F1  UNL     1      46.238  46.991  32.852  1.00  0.00    -0.204 F 
HETATM    9  F2  UNL     1      46.162  47.409  35.081  1.00  0.00    -0.204 F 
HETATM   10  C9  UNL     1      44.987  48.826  33.601  1.00  0.00     0.204 C 
ENDROOT
BRANCH   1  11
HETATM   11  C2  UNL     1      43.705  51.480  32.330  1.00  0.00     0.078 C 
HETATM   12  C1  UNL     1      42.475  50.638  32.416  1.00  0.00     0.020 C 
BRANCH  11  13
HETATM   13  C10 UNL     1      44.372  51.426  31.010  1.00  0.00    -0.002 C 
HETATM   14  C11 UNL     1      45.854  51.629  30.997  1.00  0.00     0.011 C 
BRANCH  13  15
HETATM   15  C12 UNL     1      44.066  50.174  30.205  1.00  0.00    -0.010 C 
HETATM   16  C13 UNL     1      45.376  49.434  30.057  1.00  0.00     0.005 C 
HETATM   17  C14 UNL     1      45.323  48.225  29.189  1.00  0.00     0.000 C 
HETATM   18  C15 UNL     1      44.576  48.410  27.917  1.00  0.00     0.000 C 
HETATM   19  C16 UNL     1      43.276  49.164  28.118  1.00  0.00     0.000 C 
HETATM   20  C17 UNL     1      43.521  50.472  28.856  1.00  0.00     0.005 C 
ENDBRANCH  13  15
ENDBRANCH  11  13
ENDBRANCH   1  11
BRANCH   5  21
HETATM   21  N2  UNL     1      48.481  49.662  35.691  1.00  0.00    -0.313 N 
ATOM     22  H2  UNL     1      48.514  48.793  36.225  1.00  0.00     0.172 HD
BRANCH  21  23
HETATM   23  S1  UNL     1      49.536  50.999  35.973  1.00  0.00     0.223 S 
HETATM   24  C6  UNL     1      48.701  52.049  37.171  1.00  0.00     0.185 C 
HETATM   25  O2  UNL     1      50.823  50.576  36.568  1.00  0.00    -0.206 OA
HETATM   26  O3  UNL     1      49.663  51.790  34.722  1.00  0.00    -0.206 OA
ENDBRANCH  21  23
ENDBRANCH   5  21
TORSDOF 5
ENDMDL
MODEL 4
REMARK VINA RESULT: -7.420815084      3.843      6.534
REMARK  5 active torsions:
REMARK  status: ('A' for Active; 'I' for Inactive)
REMARK    1  A    between atoms: C2_2  and  C3_3 
REMARK    2  A    between atoms: C2_2  and  C10_19 
REMARK       I    between atoms: C3_3  and  N1_5 
REMARK    3  A    between atoms: C5_7  and  N2_8 
REMARK    4  A    between atoms: N2_8  and  S1_10 
REMARK    5  A    between atoms: C10_19  and  C12_21 
ROOT
HETATM    1  C3  UNL     1      49.080  49.829  33.956  1.00  0.00     0.224 C 
HETATM    2  O1  UNL     1      49.919  49.379  34.838  1.00  0.00    -0.273 OA
HETATM    3  N1  UNL     1      47.931  50.423  34.505  1.00  0.00    -0.344 N 
HETATM    4  C4  UNL     1      47.750  50.481  35.958  1.00  0.00     0.152 C 
HETATM    5  C5  UNL     1      46.616  49.599  36.333  1.00  0.00     0.116 C 
HETATM    6  C7  UNL     1      45.518  49.632  35.324  1.00  0.00     0.108 C 
HETATM    7  C8  UNL     1      45.550  50.911  34.550  1.00  0.00     0.261 C 
HETATM    8  F1  UNL     1      44.525  50.801  33.598  1.00  0.00    -0.204 F 
HETATM    9  F2  UNL     1      45.356  52.002  35.334  1.00  0.00    -0.204 F 
HETATM   10  C9  UNL     1      46.849  51.048  33.772  1.00  0.00     0.204 C 
ENDROOT
BRANCH   1  11
HETATM   11  C2  UNL     1      49.466  49.643  32.557  1.00  0.00     0.078 C 
HETATM   12  C1  UNL     1      49.957  50.859  31.841  1.00  0.00     0.020 C 
BRANCH  11  13
HETATM   13  C10 UNL     1      48.456  48.873  31.798  1.00  0.00    -0.002 C 
HETATM   14  C11 UNL     1      48.675  48.750  30.323  1.00  0.00     0.011 C 
BRANCH  13  15
HETATM   15  C12 UNL     1      48.186  47.482  32.347  1.00  0.00    -0.010 C 
HETATM   16  C13 UNL     1      48.619  46.510  31.273  1.00  0.00     0.005 C 
HETATM   17  C14 UNL     1      48.326  45.079  31.563  1.00  0.00     0.000 C 
HETATM   18  C15 UNL     1      46.967  44.825  32.108  1.00  0.00     0.000 C 
HETATM   19  C16 UNL     1      46.577  45.831  33.174  1.00  0.00     0.000 C 
HETATM   20  C17 UNL     1      46.753  47.253  32.662  1.00  0.00     0.005 C 
ENDBRANCH  13  15
ENDBRANCH  11  13
ENDBRANCH   1  11
BRANCH   5  21
HETATM   21  N2  UNL     1      46.137  49.836  37.684  1.00  0.00    -0.313 N 
ATOM     22  H2  UNL     1      45.255  50.303  37.897  1.00  0.00     0.172 HD
BRANCH  21  23
HETATM   23  S1  UNL     1      47.219  49.240  38.889  1.00  0.00     0.223 S 
HETATM   24  C6  UNL     1      46.188  48.505  40.166  1.00  0.00     0.185 C 
HETATM   25  O2  UNL     1      48.106  48.178  38.365  1.00  0.00    -0.206 OA
HETATM   26  O3  UNL     1      47.929  50.385  39.514  1.00  0.00    -0.206 OA
ENDBRANCH  21  23
ENDBRANCH   5  21
TORSDOF 5
ENDMDL
MODEL 5
REMARK VINA RESULT: -7.417063698      2.145      2.922
REMARK  5 active torsions:
REMARK  status: ('A' for Active; 'I' for Inactive)
REMARK    1  A    between atoms: C2_2  and  C3_3 
REMARK    2  A    between atoms: C2_2  and  C10_19 
REMARK       I    between atoms: C3_3  and  N1_5 
REMARK    3  A    between atoms: C5_7  and  N2_8 
REMARK    4  A    between atoms: N2_8  and  S1_10 
REMARK    5  A    between atoms: C10_19  and  C12_21 
ROOT
HETATM    1  C3  UNL     1      46.604  50.488  34.510  1.00  0.00     0.224 C 
HETATM    2  O1  UNL     1      47.794  50.989  34.378  1.00  0.00    -0.273 OA
HETATM    3  N1  UNL     1      45.957  50.213  33.294  1.00  0.00    -0.344 N 
HETATM    4  C4  UNL     1      46.619  50.508  32.020  1.00  0.00     0.152 C 
HETATM    5  C5  UNL     1      45.889  51.613  31.349  1.00  0.00     0.116 C 
HETATM    6  C7  UNL     1      44.415  51.525  31.555  1.00  0.00     0.108 C 
HETATM    7  C8  UNL     1      44.006  50.116  31.847  1.00  0.00     0.261 C 
HETATM    8  F1  UNL     1      42.624  50.167  32.086  1.00  0.00    -0.204 F 
HETATM    9  F2  UNL     1      44.280  49.269  30.821  1.00  0.00    -0.204 F 
HETATM   10  C9  UNL     1      44.649  49.613  33.129  1.00  0.00     0.204 C 
ENDROOT
BRANCH   1  11
HETATM   11  C2  UNL     1      46.143  50.297  35.886  1.00  0.00     0.078 C 
HETATM   12  C1  UNL     1      45.145  51.287  36.391  1.00  0.00     0.020 C 
BRANCH  11  13
HETATM   13  C10 UNL     1      47.264  50.054  36.820  1.00  0.00    -0.002 C 
HETATM   14  C11 UNL     1      48.267  51.155  36.967  1.00  0.00     0.011 C 
BRANCH  13  15
HETATM   15  C12 UNL     1      46.837  49.625  38.214  1.00  0.00    -0.010 C 
HETATM   16  C13 UNL     1      47.787  50.301  39.176  1.00  0.00     0.005 C 
HETATM   17  C14 UNL     1      47.617  49.916  40.605  1.00  0.00     0.000 C 
HETATM   18  C15 UNL     1      47.446  48.457  40.835  1.00  0.00     0.000 C 
HETATM   19  C16 UNL     1      46.492  47.825  39.840  1.00  0.00     0.000 C 
HETATM   20  C17 UNL     1      46.907  48.155  38.413  1.00  0.00     0.005 C 
ENDBRANCH  13  15
ENDBRANCH  11  13
ENDBRANCH   1  11
BRANCH   5  21
HETATM   21  N2  UNL     1      46.246  51.758  29.948  1.00  0.00    -0.313 N 
ATOM     22  H2  UNL     1      46.024  51.065  29.233  1.00  0.00     0.172 HD
BRANCH  21  23
HETATM   23  S1  UNL     1      47.087  53.230  29.624  1.00  0.00     0.223 S 
HETATM   24  C6  UNL     1      47.632  53.127  27.913  1.00  0.00     0.185 C 
HETATM   25  O2  UNL     1      46.206  54.413  29.741  1.00  0.00    -0.206 OA
HETATM   26  O3  UNL     1      48.312  53.286  30.463  1.00  0.00    -0.206 OA
ENDBRANCH  21  23
ENDBRANCH   5  21
TORSDOF 5
ENDMDL
