MODEL 1
REMARK VINA RESULT: -4.974450945      0.000      0.000
REMARK  1 active torsions:
REMARK  status: ('A' for Active; 'I' for Inactive)
REMARK    1  A    between atoms: O1_1  and  C1_3 
ROOT
HETATM    1  C1  UNL     1       9.571   5.995  42.603  1.00  0.00     0.064 A 
HETATM    2  C2  UNL     1       8.354   5.075  42.772  1.00  0.00     0.039 A 
HETATM    3  C3  UNL     1       7.483   6.086  42.019  1.00  0.00     0.011 A 
HETATM    4  C4  UNL     1       8.700   6.914  41.839  1.00  0.00     0.026 A 
HETATM    5  C5  UNL     1       9.174   7.153  40.434  1.00  0.00     0.019 C 
HETATM    6  C6  UNL     1       9.235   5.909  39.606  1.00  0.00     0.173 C 
HETATM    7  O2  UNL     1      10.559   5.499  39.540  1.00  0.00    -0.385 OA
HETATM    8  C7  UNL     1      11.192   6.054  40.679  1.00  0.00     0.124 C 
HETATM    9  C8  UNL     1      10.667   7.491  40.579  1.00  0.00     0.039 C 
HETATM   10  C9  UNL     1      10.668   5.342  41.867  1.00  0.00     0.070 C 
ENDROOT
BRANCH   1  11
HETATM   11  O1  UNL     1       9.988   6.532  43.841  1.00  0.00    -0.389 OA
ATOM     12  H1  UNL     1       9.406   7.224  44.133  1.00  0.00     0.210 HD
ENDBRANCH   1  11
TORSDOF 1
ENDMDL
MODEL 2
REMARK VINA RESULT: -4.902627332      4.507      6.032
REMARK  1 active torsions:
REMARK  status: ('A' for Active; 'I' for Inactive)
REMARK    1  A    between atoms: O1_1  and  C1_3 
ROOT
HETATM    1  C1  UNL     1       6.922  10.178  43.592  1.00  0.00     0.064 A 
HETATM    2  C2  UNL     1       7.586  11.504  43.987  1.00  0.00     0.039 A 
HETATM    3  C3  UNL     1       6.716  11.567  45.246  1.00  0.00     0.011 A 
HETATM    4  C4  UNL     1       6.143  10.259  44.847  1.00  0.00     0.026 A 
HETATM    5  C5  UNL     1       6.370   9.093  45.765  1.00  0.00     0.019 C 
HETATM    6  C6  UNL     1       7.792   8.951  46.209  1.00  0.00     0.173 C 
HETATM    7  O2  UNL     1       8.378   7.941  45.460  1.00  0.00    -0.385 OA
HETATM    8  C7  UNL     1       7.620   7.855  44.266  1.00  0.00     0.124 C 
HETATM    9  C8  UNL     1       6.209   7.854  44.869  1.00  0.00     0.039 C 
HETATM   10  C9  UNL     1       7.896   9.078  43.477  1.00  0.00     0.070 C 
ENDROOT
BRANCH   1  11
HETATM   11  O1  UNL     1       6.124  10.323  42.437  1.00  0.00    -0.389 OA
ATOM     12  H1  UNL     1       5.904   9.480  42.058  1.00  0.00     0.210 HD
ENDBRANCH   1  11
TORSDOF 1
ENDMDL
MODEL 3
REMARK VINA RESULT: -4.866167990      5.287      6.662
REMARK  1 active torsions:
REMARK  status: ('A' for Active; 'I' for Inactive)
REMARK    1  A    between atoms: O1_1  and  C1_3 
ROOT
HETATM    1  C1  UNL     1       7.528  10.408  43.834  1.00  0.00     0.064 A 
HETATM    2  C2  UNL     1       8.269  10.330  42.492  1.00  0.00     0.039 A 
HETATM    3  C3  UNL     1       7.064   9.619  41.867  1.00  0.00     0.011 A 
HETATM    4  C4  UNL     1       6.373   9.765  43.171  1.00  0.00     0.026 A 
HETATM    5  C5  UNL     1       5.127  10.602  43.204  1.00  0.00     0.019 C 
HETATM    6  C6  UNL     1       5.275  11.922  42.516  1.00  0.00     0.173 C 
HETATM    7  O2  UNL     1       5.456  12.896  43.487  1.00  0.00    -0.385 OA
HETATM    8  C7  UNL     1       5.970  12.221  44.622  1.00  0.00     0.124 C 
HETATM    9  C8  UNL     1       4.991  11.041  44.672  1.00  0.00     0.039 C 
HETATM   10  C9  UNL     1       7.350  11.796  44.295  1.00  0.00     0.070 C 
ENDROOT
BRANCH   1  11
HETATM   11  O1  UNL     1       8.134   9.583  44.807  1.00  0.00    -0.389 OA
ATOM     12  H1  UNL     1       7.506   9.297  45.460  1.00  0.00     0.210 HD
ENDBRANCH   1  11
TORSDOF 1
ENDMDL
MODEL 4
REMARK VINA RESULT: -4.862165801      7.394      8.452
REMARK  1 active torsions:
REMARK  status: ('A' for Active; 'I' for Inactive)
REMARK    1  A    between atoms: O1_1  and  C1_3 
ROOT
HETATM    1  C1  UNL     1       4.884  12.108  46.861  1.00  0.00     0.064 A 
HETATM    2  C2  UNL     1       3.350  12.169  46.851  1.00  0.00     0.039 A 
HETATM    3  C3  UNL     1       3.396  13.154  45.678  1.00  0.00     0.011 A 
HETATM    4  C4  UNL     1       4.873  13.021  45.698  1.00  0.00     0.026 A 
HETATM    5  C5  UNL     1       5.532  12.440  44.480  1.00  0.00     0.019 C 
HETATM    6  C6  UNL     1       4.879  11.188  43.988  1.00  0.00     0.173 C 
HETATM    7  O2  UNL     1       5.645  10.109  44.405  1.00  0.00    -0.385 OA
HETATM    8  C7  UNL     1       6.366  10.562  45.538  1.00  0.00     0.124 C 
HETATM    9  C8  UNL     1       6.879  11.898  44.987  1.00  0.00     0.039 C 
HETATM   10  C9  UNL     1       5.391  10.743  46.638  1.00  0.00     0.070 C 
ENDROOT
BRANCH   1  11
HETATM   11  O1  UNL     1       5.417  12.705  48.025  1.00  0.00    -0.389 OA
ATOM     12  H1  UNL     1       6.124  12.186  48.389  1.00  0.00     0.210 HD
ENDBRANCH   1  11
TORSDOF 1
ENDMDL
MODEL 5
REMARK VINA RESULT: -4.811270188      5.047      6.284
REMARK  1 active torsions:
REMARK  status: ('A' for Active; 'I' for Inactive)
REMARK    1  A    between atoms: O1_1  and  C1_3 
ROOT
HETATM    1  C1  UNL     1       7.115   9.140  44.066  1.00  0.00     0.064 A 
HETATM    2  C2  UNL     1       6.358   8.108  44.913  1.00  0.00     0.039 A 
HETATM    3  C3  UNL     1       6.586   8.965  46.163  1.00  0.00     0.011 A 
HETATM    4  C4  UNL     1       7.265   9.954  45.291  1.00  0.00     0.026 A 
HETATM    5  C5  UNL     1       6.645  11.318  45.178  1.00  0.00     0.019 C 
HETATM    6  C6  UNL     1       5.172  11.285  44.920  1.00  0.00     0.173 C 
HETATM    7  O2  UNL     1       4.965  11.536  43.571  1.00  0.00    -0.385 OA
HETATM    8  C7  UNL     1       6.170  11.173  42.921  1.00  0.00     0.124 C 
HETATM    9  C8  UNL     1       7.172  11.876  43.845  1.00  0.00     0.039 C 
HETATM   10  C9  UNL     1       6.281   9.697  42.987  1.00  0.00     0.070 C 
ENDROOT
BRANCH   1  11
HETATM   11  O1  UNL     1       8.342   8.622  43.595  1.00  0.00    -0.389 OA
ATOM     12  H1  UNL     1       9.041   9.261  43.672  1.00  0.00     0.210 HD
ENDBRANCH   1  11
TORSDOF 1
ENDMDL
