MODEL 1
REMARK VINA RESULT: -2.985901753      0.000      0.000
REMARK  0 active torsions:
REMARK  status: ('A' for Active; 'I' for Inactive)
ROOT
HETATM    1  C1  UNL     1       9.572   6.738  39.716  1.00  0.00     0.086 C 
HETATM    2  C2  UNL     1      10.023   5.304  39.701  1.00  0.00     0.103 C 
HETATM    3  S1  UNL     1      11.418   4.988  40.794  1.00  0.00    -0.064 SA
HETATM    4  N1  UNL     1      11.088   5.450  42.454  1.00  0.00    -0.169 NA
HETATM    5  C3  UNL     1       9.721   5.943  42.520  1.00  0.00     0.196 C 
HETATM    6  S2  UNL     1       9.661   7.404  41.416  1.00  0.00    -0.151 SA
ENDROOT
TORSDOF 0
ENDMDL
MODEL 2
REMARK VINA RESULT: -2.983593722      9.014      9.716
REMARK  0 active torsions:
REMARK  status: ('A' for Active; 'I' for Inactive)
ROOT
HETATM    1  C1  UNL     1       4.068  13.213  43.917  1.00  0.00     0.086 C 
HETATM    2  C2  UNL     1       4.724  11.863  43.992  1.00  0.00     0.103 C 
HETATM    3  S1  UNL     1       5.809  11.680  45.418  1.00  0.00    -0.064 SA
HETATM    4  N1  UNL     1       4.979  11.981  46.934  1.00  0.00    -0.169 NA
HETATM    5  C3  UNL     1       3.585  12.267  46.635  1.00  0.00     0.196 C 
HETATM    6  S2  UNL     1       3.596  13.774  45.592  1.00  0.00    -0.151 SA
ENDROOT
TORSDOF 0
ENDMDL
MODEL 3
REMARK VINA RESULT: -2.912396903      9.594     10.534
REMARK  0 active torsions:
REMARK  status: ('A' for Active; 'I' for Inactive)
ROOT
HETATM    1  C1  UNL     1       4.932  12.122  45.618  1.00  0.00     0.086 C 
HETATM    2  C2  UNL     1       3.583  12.717  45.909  1.00  0.00     0.103 C 
HETATM    3  S1  UNL     1       3.384  14.380  45.247  1.00  0.00    -0.064 SA
HETATM    4  N1  UNL     1       3.661  14.451  43.516  1.00  0.00    -0.169 NA
HETATM    5  C3  UNL     1       3.947  13.103  43.051  1.00  0.00     0.196 C 
HETATM    6  S2  UNL     1       5.468  12.581  43.931  1.00  0.00    -0.151 SA
ENDROOT
TORSDOF 0
ENDMDL
MODEL 4
REMARK VINA RESULT: -2.878878934      1.544      2.254
REMARK  0 active torsions:
REMARK  status: ('A' for Active; 'I' for Inactive)
ROOT
HETATM    1  C1  UNL     1       8.846   6.476  40.154  1.00  0.00     0.086 C 
HETATM    2  C2  UNL     1       9.528   7.224  41.266  1.00  0.00     0.103 C 
HETATM    3  S1  UNL     1      10.283   6.142  42.491  1.00  0.00    -0.064 SA
HETATM    4  N1  UNL     1      11.436   5.027  41.781  1.00  0.00    -0.169 NA
HETATM    5  C3  UNL     1      11.512   5.305  40.356  1.00  0.00     0.196 C 
HETATM    6  S2  UNL     1       9.829   5.004  39.696  1.00  0.00    -0.151 SA
ENDROOT
TORSDOF 0
ENDMDL
MODEL 5
REMARK VINA RESULT: -2.843712141      9.231     10.005
REMARK  0 active torsions:
REMARK  status: ('A' for Active; 'I' for Inactive)
ROOT
HETATM    1  C1  UNL     1       5.224  12.012  45.015  1.00  0.00     0.086 C 
HETATM    2  C2  UNL     1       5.760  12.431  43.674  1.00  0.00     0.103 C 
HETATM    3  S1  UNL     1       4.466  12.837  42.489  1.00  0.00    -0.064 SA
HETATM    4  N1  UNL     1       3.389  14.092  43.076  1.00  0.00    -0.169 NA
HETATM    5  C3  UNL     1       3.862  14.515  44.384  1.00  0.00     0.196 C 
HETATM    6  S2  UNL     1       3.770  13.030  45.454  1.00  0.00    -0.151 SA
ENDROOT
TORSDOF 0
ENDMDL
