MODEL 1
REMARK VINA RESULT: -4.059013349      0.000      0.000
REMARK  1 active torsions:
REMARK  status: ('A' for Active; 'I' for Inactive)
REMARK    1  A    between atoms: O1_1  and  N1_3 
ROOT
HETATM    1  N1  UNL     1       8.650   7.047  44.760  1.00  0.00    -0.190 NA
HETATM    2  C1  UNL     1       7.381   7.668  44.976  1.00  0.00     0.122 C 
HETATM    3  C2  UNL     1       7.462   9.040  44.292  1.00  0.00     0.027 C 
HETATM    4  C3  UNL     1       7.345   8.809  42.803  1.00  0.00     0.076 C 
HETATM    5  S1  UNL     1       8.513   7.543  42.221  1.00  0.00    -0.152 SA
HETATM    6  C4  UNL     1       8.596   6.279  43.553  1.00  0.00     0.194 C 
ENDROOT
BRANCH   1   7
HETATM    7  O1  UNL     1       9.211   6.479  45.796  1.00  0.00    -0.312 OA
ATOM      8  H1  UNL     1       8.781   6.597  46.634  1.00  0.00     0.237 HD
ENDBRANCH   1   7
TORSDOF 1
ENDMDL
MODEL 2
REMARK VINA RESULT: -3.916903406      1.574      1.706
REMARK  1 active torsions:
REMARK  status: ('A' for Active; 'I' for Inactive)
REMARK    1  A    between atoms: O1_1  and  N1_3 
ROOT
HETATM    1  N1  UNL     1       8.074   8.242  45.626  1.00  0.00    -0.190 NA
HETATM    2  C1  UNL     1       6.870   8.830  46.121  1.00  0.00     0.122 C 
HETATM    3  C2  UNL     1       6.647  10.101  45.290  1.00  0.00     0.027 C 
HETATM    4  C3  UNL     1       6.141   9.668  43.933  1.00  0.00     0.076 C 
HETATM    5  S1  UNL     1       7.200   8.390  43.192  1.00  0.00    -0.152 SA
HETATM    6  C4  UNL     1       7.750   7.319  44.581  1.00  0.00     0.194 C 
ENDROOT
BRANCH   1   7
HETATM    7  O1  UNL     1       8.944   7.843  46.517  1.00  0.00    -0.312 OA
ATOM      8  H1  UNL     1       9.548   8.496  46.848  1.00  0.00     0.237 HD
ENDBRANCH   1   7
TORSDOF 1
ENDMDL
MODEL 3
REMARK VINA RESULT: -3.835944080      5.825      6.291
REMARK  1 active torsions:
REMARK  status: ('A' for Active; 'I' for Inactive)
REMARK    1  A    between atoms: O1_1  and  N1_3 
ROOT
HETATM    1  N1  UNL     1       4.912  12.177  46.866  1.00  0.00    -0.190 NA
HETATM    2  C1  UNL     1       3.568  12.396  46.434  1.00  0.00     0.122 C 
HETATM    3  C2  UNL     1       3.624  13.583  45.463  1.00  0.00     0.027 C 
HETATM    4  C3  UNL     1       4.194  13.072  44.160  1.00  0.00     0.076 C 
HETATM    5  S1  UNL     1       5.745  12.158  44.413  1.00  0.00    -0.152 SA
HETATM    6  C4  UNL     1       5.538  11.235  45.989  1.00  0.00     0.194 C 
ENDROOT
BRANCH   1   7
HETATM    7  O1  UNL     1       5.099  12.003  48.148  1.00  0.00    -0.312 OA
ATOM      8  H1  UNL     1       5.311  11.123  48.434  1.00  0.00     0.237 HD
ENDBRANCH   1   7
TORSDOF 1
ENDMDL
MODEL 4
REMARK VINA RESULT: -3.785670240      2.667      3.011
REMARK  1 active torsions:
REMARK  status: ('A' for Active; 'I' for Inactive)
REMARK    1  A    between atoms: O1_1  and  N1_3 
ROOT
HETATM    1  N1  UNL     1      10.560   6.274  42.776  1.00  0.00    -0.190 NA
HETATM    2  C1  UNL     1       9.152   6.501  42.869  1.00  0.00     0.122 C 
HETATM    3  C2  UNL     1       8.849   7.668  41.919  1.00  0.00     0.027 C 
HETATM    4  C3  UNL     1       8.894   7.123  40.509  1.00  0.00     0.076 C 
HETATM    5  S1  UNL     1      10.423   6.194  40.191  1.00  0.00    -0.152 SA
HETATM    6  C4  UNL     1      10.812   5.306  41.752  1.00  0.00     0.194 C 
ENDROOT
BRANCH   1   7
HETATM    7  O1  UNL     1      11.207   6.124  43.902  1.00  0.00    -0.312 OA
ATOM      8  H1  UNL     1      11.030   6.758  44.586  1.00  0.00     0.237 HD
ENDBRANCH   1   7
TORSDOF 1
ENDMDL
MODEL 5
REMARK VINA RESULT: -3.699638010      2.267      2.619
REMARK  1 active torsions:
REMARK  status: ('A' for Active; 'I' for Inactive)
REMARK    1  A    between atoms: O1_1  and  N1_3 
ROOT
HETATM    1  N1  UNL     1      10.004   6.376  42.978  1.00  0.00    -0.190 NA
HETATM    2  C1  UNL     1       8.988   5.387  42.800  1.00  0.00     0.122 C 
HETATM    3  C2  UNL     1       7.657   6.092  43.097  1.00  0.00     0.027 C 
HETATM    4  C3  UNL     1       7.332   6.961  41.903  1.00  0.00     0.076 C 
HETATM    5  S1  UNL     1       8.730   8.028  41.443  1.00  0.00    -0.152 SA
HETATM    6  C4  UNL     1      10.247   7.029  41.727  1.00  0.00     0.194 C 
ENDROOT
BRANCH   1   7
HETATM    7  O1  UNL     1      11.055   6.023  43.672  1.00  0.00    -0.312 OA
ATOM      8  H1  UNL     1      11.899   6.116  43.247  1.00  0.00     0.237 HD
ENDBRANCH   1   7
TORSDOF 1
ENDMDL
