MODEL 1
REMARK VINA RESULT: -5.109662416      0.000      0.000
REMARK  2 active torsions:
REMARK  status: ('A' for Active; 'I' for Inactive)
REMARK    1  A    between atoms: C2_2  and  C3_3 
REMARK    2  A    between atoms: N1_7  and  O2_8 
ROOT
HETATM    1  C3  UNL     1       6.342  12.086  44.772  1.00  0.00     0.170 C 
HETATM    2  O1  UNL     1       5.991  11.759  46.103  1.00  0.00    -0.358 OA
HETATM    3  C4  UNL     1       4.845  12.539  46.261  1.00  0.00     0.218 C 
HETATM    4  C5  UNL     1       4.100  12.018  47.463  1.00  0.00     0.059 C 
HETATM    5  N1  UNL     1       4.082  12.370  45.032  1.00  0.00    -0.159 NA
HETATM    6  C6  UNL     1       5.055  11.839  44.063  1.00  0.00     0.063 C 
HETATM    7  C7  UNL     1       4.915  12.545  42.755  1.00  0.00     0.037 C 
HETATM    8  C8  UNL     1       4.772  10.370  43.837  1.00  0.00     0.037 C 
ENDROOT
BRANCH   1   9
HETATM    9  C2  UNL     1       7.472  11.281  44.309  1.00  0.00    -0.003 C 
HETATM   10  C1  UNL     1       8.491  11.874  43.695  1.00  0.00     0.009 C 
ENDBRANCH   1   9
BRANCH   5  11
HETATM   11  O2  UNL     1       3.791  13.632  44.593  1.00  0.00    -0.310 OA
ATOM     12  H2  UNL     1       4.624  14.029  44.369  1.00  0.00     0.237 HD
ENDBRANCH   5  11
TORSDOF 2
ENDMDL
MODEL 2
REMARK VINA RESULT: -5.036791254      2.657      3.992
REMARK  2 active torsions:
REMARK  status: ('A' for Active; 'I' for Inactive)
REMARK    1  A    between atoms: C2_2  and  C3_3 
REMARK    2  A    between atoms: N1_7  and  O2_8 
ROOT
HETATM    1  C3  UNL     1       6.132  10.349  43.396  1.00  0.00     0.170 C 
HETATM    2  O1  UNL     1       5.815  10.257  44.772  1.00  0.00    -0.358 OA
HETATM    3  C4  UNL     1       6.633   9.191  45.148  1.00  0.00     0.218 C 
HETATM    4  C5  UNL     1       6.742   9.208  46.651  1.00  0.00     0.059 C 
HETATM    5  N1  UNL     1       7.917   9.435  44.505  1.00  0.00    -0.159 NA
HETATM    6  C6  UNL     1       7.619  10.410  43.443  1.00  0.00     0.063 C 
HETATM    7  C7  UNL     1       8.303  10.013  42.176  1.00  0.00     0.037 C 
HETATM    8  C8  UNL     1       8.148  11.765  43.858  1.00  0.00     0.037 C 
ENDROOT
BRANCH   1   9
HETATM    9  C2  UNL     1       5.481  11.505  42.778  1.00  0.00    -0.003 C 
HETATM   10  C1  UNL     1       4.555  12.176  43.456  1.00  0.00     0.009 C 
ENDBRANCH   1   9
BRANCH   5  11
HETATM   11  O2  UNL     1       8.236   8.277  43.852  1.00  0.00    -0.310 OA
ATOM     12  H2  UNL     1       9.054   8.449  43.401  1.00  0.00     0.237 HD
ENDBRANCH   5  11
TORSDOF 2
ENDMDL
MODEL 3
REMARK VINA RESULT: -4.952312763      1.392      2.893
REMARK  2 active torsions:
REMARK  status: ('A' for Active; 'I' for Inactive)
REMARK    1  A    between atoms: C2_2  and  C3_3 
REMARK    2  A    between atoms: N1_7  and  O2_8 
ROOT
HETATM    1  C3  UNL     1       5.014  10.877  44.292  1.00  0.00     0.170 C 
HETATM    2  O1  UNL     1       4.249  12.013  44.648  1.00  0.00    -0.358 OA
HETATM    3  C4  UNL     1       4.291  11.919  46.040  1.00  0.00     0.218 C 
HETATM    4  C5  UNL     1       3.882  13.257  46.600  1.00  0.00     0.059 C 
HETATM    5  N1  UNL     1       5.669  11.587  46.370  1.00  0.00    -0.159 NA
HETATM    6  C6  UNL     1       6.241  11.084  45.110  1.00  0.00     0.063 C 
HETATM    7  C7  UNL     1       7.039   9.849  45.366  1.00  0.00     0.037 C 
HETATM    8  C8  UNL     1       7.169  12.133  44.538  1.00  0.00     0.037 C 
ENDROOT
BRANCH   1   9
HETATM    9  C2  UNL     1       5.232  10.816  42.846  1.00  0.00    -0.003 C 
HETATM   10  C1  UNL     1       4.690  11.742  42.062  1.00  0.00     0.009 C 
ENDBRANCH   1   9
BRANCH   5  11
HETATM   11  O2  UNL     1       5.607  10.499  47.196  1.00  0.00    -0.310 OA
ATOM     12  H2  UNL     1       6.500  10.326  47.467  1.00  0.00     0.237 HD
ENDBRANCH   5  11
TORSDOF 2
ENDMDL
MODEL 4
REMARK VINA RESULT: -4.790243126      7.406      8.763
REMARK  2 active torsions:
REMARK  status: ('A' for Active; 'I' for Inactive)
REMARK    1  A    between atoms: C2_2  and  C3_3 
REMARK    2  A    between atoms: N1_7  and  O2_8 
ROOT
HETATM    1  C3  UNL     1       9.306   5.611  40.822  1.00  0.00     0.170 C 
HETATM    2  O1  UNL     1       8.499   6.195  41.827  1.00  0.00    -0.358 OA
HETATM    3  C4  UNL     1       9.120   5.693  42.972  1.00  0.00     0.218 C 
HETATM    4  C5  UNL     1       8.661   6.525  44.141  1.00  0.00     0.059 C 
HETATM    5  N1  UNL     1      10.550   5.828  42.735  1.00  0.00    -0.159 NA
HETATM    6  C6  UNL     1      10.669   6.004  41.279  1.00  0.00     0.063 C 
HETATM    7  C7  UNL     1      11.776   5.154  40.748  1.00  0.00     0.037 C 
HETATM    8  C8  UNL     1      11.003   7.449  40.983  1.00  0.00     0.037 C 
ENDROOT
BRANCH   1   9
HETATM    9  C2  UNL     1       8.931   6.094  39.493  1.00  0.00    -0.003 C 
HETATM   10  C1  UNL     1       8.613   5.221  38.544  1.00  0.00     0.009 C 
ENDBRANCH   1   9
BRANCH   5  11
HETATM   11  O2  UNL     1      11.091   4.600  42.995  1.00  0.00    -0.310 OA
ATOM     12  H2  UNL     1      11.723   4.735  43.691  1.00  0.00     0.237 HD
ENDBRANCH   5  11
TORSDOF 2
ENDMDL
MODEL 5
REMARK VINA RESULT: -4.756713277      6.519      8.063
REMARK  2 active torsions:
REMARK  status: ('A' for Active; 'I' for Inactive)
REMARK    1  A    between atoms: C2_2  and  C3_3 
REMARK    2  A    between atoms: N1_7  and  O2_8 
ROOT
HETATM    1  C3  UNL     1       8.761   7.186  41.881  1.00  0.00     0.170 C 
HETATM    2  O1  UNL     1       9.501   6.565  40.847  1.00  0.00    -0.358 OA
HETATM    3  C4  UNL     1      10.641   6.174  41.552  1.00  0.00     0.218 C 
HETATM    4  C5  UNL     1      11.361   5.144  40.720  1.00  0.00     0.059 C 
HETATM    5  N1  UNL     1      10.155   5.619  42.807  1.00  0.00    -0.159 NA
HETATM    6  C6  UNL     1       8.778   6.125  42.927  1.00  0.00     0.063 C 
HETATM    7  C7  UNL     1       8.530   6.613  44.316  1.00  0.00     0.037 C 
HETATM    8  C8  UNL     1       7.813   4.995  42.646  1.00  0.00     0.037 C 
ENDROOT
BRANCH   1   9
HETATM    9  C2  UNL     1       7.431   7.581  41.417  1.00  0.00    -0.003 C 
HETATM   10  C1  UNL     1       6.986   8.807  41.674  1.00  0.00     0.009 C 
ENDBRANCH   1   9
BRANCH   5  11
HETATM   11  O2  UNL     1      10.858   6.253  43.794  1.00  0.00    -0.310 OA
ATOM     12  H2  UNL     1      11.754   5.948  43.714  1.00  0.00     0.237 HD
ENDBRANCH   5  11
TORSDOF 2
ENDMDL
