MODEL 1
REMARK VINA RESULT: -5.848260550      0.000      0.000
REMARK  1 active torsions:
REMARK  status: ('A' for Active; 'I' for Inactive)
REMARK    1  A    between atoms: C2_2  and  C3_3 
ROOT
HETATM    1  C3  UNL     1       6.682  10.985  44.366  1.00  0.00     0.196 C 
HETATM    2  C4  UNL     1       6.478  10.155  45.637  1.00  0.00     0.082 C 
HETATM    3  O1  UNL     1       5.676  10.660  43.484  1.00  0.00    -0.198 OA
HETATM    4  O2  UNL     1       4.617  11.184  44.077  1.00  0.00    -0.197 OA
HETATM    5  C5  UNL     1       5.077  12.434  44.480  1.00  0.00     0.200 C 
HETATM    6  C6  UNL     1       4.428  12.907  45.756  1.00  0.00     0.071 C 
HETATM    7  C7  UNL     1       3.352  13.890  45.360  1.00  0.00     0.006 C 
HETATM    8  C8  UNL     1       3.849  14.488  44.081  1.00  0.00     0.006 C 
HETATM    9  C9  UNL     1       4.687  13.440  43.422  1.00  0.00     0.071 C 
HETATM   10  O3  UNL     1       6.468  12.325  44.601  1.00  0.00    -0.314 OA
ENDROOT
BRANCH   1  11
HETATM   11  C2  UNL     1       8.061  10.665  43.862  1.00  0.00     0.066 C 
HETATM   12  C1  UNL     1       8.805  11.852  43.338  1.00  0.00     0.010 C 
ENDBRANCH   1  11
TORSDOF 1
ENDMDL
MODEL 2
REMARK VINA RESULT: -5.700193751      0.904      1.081
REMARK  1 active torsions:
REMARK  status: ('A' for Active; 'I' for Inactive)
REMARK    1  A    between atoms: C2_2  and  C3_3 
ROOT
HETATM    1  C3  UNL     1       7.160  11.097  44.017  1.00  0.00     0.196 C 
HETATM    2  C4  UNL     1       7.421   9.962  45.012  1.00  0.00     0.082 C 
HETATM    3  O1  UNL     1       6.058  10.753  43.267  1.00  0.00    -0.198 OA
HETATM    4  O2  UNL     1       5.086  10.839  44.158  1.00  0.00    -0.197 OA
HETATM    5  C5  UNL     1       5.377  12.031  44.817  1.00  0.00     0.200 C 
HETATM    6  C6  UNL     1       4.965  12.008  46.266  1.00  0.00     0.071 C 
HETATM    7  C7  UNL     1       3.658  12.758  46.361  1.00  0.00     0.006 C 
HETATM    8  C8  UNL     1       3.718  13.749  45.241  1.00  0.00     0.006 C 
HETATM    9  C9  UNL     1       4.565  13.131  44.174  1.00  0.00     0.071 C 
HETATM   10  O3  UNL     1       6.752  12.245  44.659  1.00  0.00    -0.314 OA
ENDROOT
BRANCH   1  11
HETATM   11  C2  UNL     1       8.418  11.260  43.212  1.00  0.00     0.066 C 
HETATM   12  C1  UNL     1       8.592  10.229  42.144  1.00  0.00     0.010 C 
ENDBRANCH   1  11
TORSDOF 1
ENDMDL
MODEL 3
REMARK VINA RESULT: -5.660912844      0.938      1.156
REMARK  1 active torsions:
REMARK  status: ('A' for Active; 'I' for Inactive)
REMARK    1  A    between atoms: C2_2  and  C3_3 
ROOT
HETATM    1  C3  UNL     1       6.548  11.219  43.940  1.00  0.00     0.196 C 
HETATM    2  C4  UNL     1       6.449  11.140  45.466  1.00  0.00     0.082 C 
HETATM    3  O1  UNL     1       5.465  10.550  43.412  1.00  0.00    -0.198 OA
HETATM    4  O2  UNL     1       4.467  11.352  43.739  1.00  0.00    -0.197 OA
HETATM    5  C5  UNL     1       4.971  12.613  43.431  1.00  0.00     0.200 C 
HETATM    6  C6  UNL     1       4.441  13.689  44.344  1.00  0.00     0.071 C 
HETATM    7  C7  UNL     1       3.343  14.400  43.589  1.00  0.00     0.006 C 
HETATM    8  C8  UNL     1       3.731  14.258  42.150  1.00  0.00     0.006 C 
HETATM    9  C9  UNL     1       4.499  12.979  42.043  1.00  0.00     0.071 C 
HETATM   10  O3  UNL     1       6.367  12.507  43.489  1.00  0.00    -0.314 OA
ENDROOT
BRANCH   1  11
HETATM   11  C2  UNL     1       7.875  10.621  43.564  1.00  0.00     0.066 C 
HETATM   12  C1  UNL     1       8.919  11.633  43.216  1.00  0.00     0.010 C 
ENDBRANCH   1  11
TORSDOF 1
ENDMDL
MODEL 4
REMARK VINA RESULT: -5.649087482      1.381      2.585
REMARK  1 active torsions:
REMARK  status: ('A' for Active; 'I' for Inactive)
REMARK    1  A    between atoms: C2_2  and  C3_3 
ROOT
HETATM    1  C3  UNL     1       6.313  10.742  44.742  1.00  0.00     0.196 C 
HETATM    2  C4  UNL     1       6.994   9.812  43.734  1.00  0.00     0.082 C 
HETATM    3  O1  UNL     1       7.015  11.927  44.763  1.00  0.00    -0.198 OA
HETATM    4  O2  UNL     1       6.729  12.431  43.575  1.00  0.00    -0.197 OA
HETATM    5  C5  UNL     1       5.359  12.210  43.468  1.00  0.00     0.200 C 
HETATM    6  C6  UNL     1       4.920  11.966  42.047  1.00  0.00     0.071 C 
HETATM    7  C7  UNL     1       4.331  13.263  41.543  1.00  0.00     0.006 C 
HETATM    8  C8  UNL     1       3.792  13.926  42.772  1.00  0.00     0.006 C 
HETATM    9  C9  UNL     1       4.647  13.467  43.910  1.00  0.00     0.071 C 
HETATM   10  O3  UNL     1       5.065  11.128  44.308  1.00  0.00    -0.314 OA
ENDROOT
BRANCH   1  11
HETATM   11  C2  UNL     1       6.305  10.016  46.058  1.00  0.00     0.066 C 
HETATM   12  C1  UNL     1       7.363   8.967  46.178  1.00  0.00     0.010 C 
ENDBRANCH   1  11
TORSDOF 1
ENDMDL
MODEL 5
REMARK VINA RESULT: -5.627520269      1.106      2.376
REMARK  1 active torsions:
REMARK  status: ('A' for Active; 'I' for Inactive)
REMARK    1  A    between atoms: C2_2  and  C3_3 
ROOT
HETATM    1  C3  UNL     1       6.269  10.348  43.958  1.00  0.00     0.196 C 
HETATM    2  C4  UNL     1       6.890  10.447  42.562  1.00  0.00     0.082 C 
HETATM    3  O1  UNL     1       6.954  11.211  44.785  1.00  0.00    -0.198 OA
HETATM    4  O2  UNL     1       6.577  12.388  44.318  1.00  0.00    -0.197 OA
HETATM    5  C5  UNL     1       5.206  12.226  44.141  1.00  0.00     0.200 C 
HETATM    6  C6  UNL     1       4.670  13.032  42.986  1.00  0.00     0.071 C 
HETATM    7  C7  UNL     1       4.028  14.266  43.575  1.00  0.00     0.006 C 
HETATM    8  C8  UNL     1       3.569  13.832  44.932  1.00  0.00     0.006 C 
HETATM    9  C9  UNL     1       4.509  12.755  45.373  1.00  0.00     0.071 C 
HETATM   10  O3  UNL     1       4.988  10.852  43.977  1.00  0.00    -0.314 OA
ENDROOT
BRANCH   1  11
HETATM   11  C2  UNL     1       6.365   8.906  44.370  1.00  0.00     0.066 C 
HETATM   12  C1  UNL     1       6.765   8.707  45.797  1.00  0.00     0.010 C 
ENDBRANCH   1  11
TORSDOF 1
ENDMDL
