MODEL 1
REMARK VINA RESULT: -4.126485661      0.000      0.000
REMARK  3 active torsions:
REMARK  status: ('A' for Active; 'I' for Inactive)
REMARK    1  A    between atoms: N1_3  and  C3_5 
REMARK    2  A    between atoms: C3_5  and  S2_7 
REMARK    3  A    between atoms: S2_7  and  C4_8 
ROOT
HETATM    1  C1  UNL     1       6.901  15.300  55.047  1.00  0.00     0.037 C 
HETATM    2  C2  UNL     1       7.999  15.352  54.535  1.00  0.00     0.001 C 
HETATM    3  N1  UNL     1       9.262  15.461  53.962  1.00  0.00    -0.301 N 
ATOM      4  H1  UNL     1       9.846  16.214  54.327  1.00  0.00     0.177 HD
ENDROOT
BRANCH   3   5
HETATM    5  C3  UNL     1       9.843  14.687  52.960  1.00  0.00     0.146 C 
HETATM    6  S1  UNL     1      11.153  15.438  52.191  1.00  0.00    -0.052 SA
BRANCH   5   7
HETATM    7  S2  UNL     1       9.412  13.085  52.405  1.00  0.00    -0.086 SA
BRANCH   7   8
HETATM    8  C4  UNL     1       7.836  12.854  51.655  1.00  0.00     0.205 C 
HETATM    9  C5  UNL     1       7.326  11.510  51.983  1.00  0.00     0.069 C 
HETATM   10  N2  UNL     1       6.927  10.452  52.259  1.00  0.00    -0.197 NA
ENDBRANCH   7   8
ENDBRANCH   5   7
ENDBRANCH   3   5
TORSDOF 3
ENDMDL
MODEL 2
REMARK VINA RESULT: -4.097342200      2.111      4.519
REMARK  3 active torsions:
REMARK  status: ('A' for Active; 'I' for Inactive)
REMARK    1  A    between atoms: N1_3  and  C3_5 
REMARK    2  A    between atoms: C3_5  and  S2_7 
REMARK    3  A    between atoms: S2_7  and  C4_8 
ROOT
HETATM    1  C1  UNL     1       7.291  11.537  51.820  1.00  0.00     0.037 C 
HETATM    2  C2  UNL     1       7.582  12.610  52.302  1.00  0.00     0.001 C 
HETATM    3  N1  UNL     1       7.879  13.864  52.828  1.00  0.00    -0.301 N 
ATOM      4  H1  UNL     1       7.124  14.549  52.782  1.00  0.00     0.177 HD
ENDROOT
BRANCH   3   5
HETATM    5  C3  UNL     1       9.061  14.317  53.409  1.00  0.00     0.146 C 
HETATM    6  S1  UNL     1       8.821  15.287  54.777  1.00  0.00    -0.052 SA
BRANCH   5   7
HETATM    7  S2  UNL     1      10.717  14.024  52.927  1.00  0.00    -0.086 SA
BRANCH   7   8
HETATM    8  C4  UNL     1      11.468  15.137  51.789  1.00  0.00     0.205 C 
HETATM    9  C5  UNL     1      11.120  16.523  52.153  1.00  0.00     0.069 C 
HETATM   10  N2  UNL     1      10.851  17.614  52.456  1.00  0.00    -0.197 NA
ENDBRANCH   7   8
ENDBRANCH   5   7
ENDBRANCH   3   5
TORSDOF 3
ENDMDL
MODEL 3
REMARK VINA RESULT: -3.987372066      9.747     10.579
REMARK  3 active torsions:
REMARK  status: ('A' for Active; 'I' for Inactive)
REMARK    1  A    between atoms: N1_3  and  C3_5 
REMARK    2  A    between atoms: C3_5  and  S2_7 
REMARK    3  A    between atoms: S2_7  and  C4_8 
ROOT
HETATM    1  C1  UNL     1       3.336  16.940  47.178  1.00  0.00     0.037 C 
HETATM    2  C2  UNL     1       3.215  16.118  46.296  1.00  0.00     0.001 C 
HETATM    3  N1  UNL     1       3.025  15.183  45.282  1.00  0.00    -0.301 N 
ATOM      4  H1  UNL     1       2.171  15.294  44.737  1.00  0.00     0.177 HD
ENDROOT
BRANCH   3   5
HETATM    5  C3  UNL     1       3.838  14.115  44.908  1.00  0.00     0.146 C 
HETATM    6  S1  UNL     1       3.889  12.864  46.048  1.00  0.00    -0.052 SA
BRANCH   5   7
HETATM    7  S2  UNL     1       4.788  13.901  43.454  1.00  0.00    -0.086 SA
BRANCH   7   8
HETATM    8  C4  UNL     1       3.988  13.278  42.015  1.00  0.00     0.205 C 
HETATM    9  C5  UNL     1       3.618  14.400  41.132  1.00  0.00     0.069 C 
HETATM   10  N2  UNL     1       3.343  15.291  40.436  1.00  0.00    -0.197 NA
ENDBRANCH   7   8
ENDBRANCH   5   7
ENDBRANCH   3   5
TORSDOF 3
ENDMDL
MODEL 4
REMARK VINA RESULT: -3.985325680      8.150      8.953
REMARK  3 active torsions:
REMARK  status: ('A' for Active; 'I' for Inactive)
REMARK    1  A    between atoms: N1_3  and  C3_5 
REMARK    2  A    between atoms: C3_5  and  S2_7 
REMARK    3  A    between atoms: S2_7  and  C4_8 
ROOT
HETATM    1  C1  UNL     1       3.984  12.162  47.156  1.00  0.00     0.037 C 
HETATM    2  C2  UNL     1       5.018  12.019  46.540  1.00  0.00     0.001 C 
HETATM    3  N1  UNL     1       6.204  11.904  45.821  1.00  0.00    -0.301 N 
ATOM      4  H1  UNL     1       6.726  12.771  45.694  1.00  0.00     0.177 HD
ENDROOT
BRANCH   3   5
HETATM    5  C3  UNL     1       6.780  10.771  45.249  1.00  0.00     0.146 C 
HETATM    6  S1  UNL     1       7.484  11.055  43.735  1.00  0.00    -0.052 SA
BRANCH   5   7
HETATM    7  S2  UNL     1       6.870   9.138  45.871  1.00  0.00    -0.086 SA
BRANCH   7   8
HETATM    8  C4  UNL     1       7.011   7.811  44.724  1.00  0.00     0.205 C 
HETATM    9  C5  UNL     1       8.281   7.097  44.951  1.00  0.00     0.069 C 
HETATM   10  N2  UNL     1       9.280   6.532  45.146  1.00  0.00    -0.197 NA
ENDBRANCH   7   8
ENDBRANCH   5   7
ENDBRANCH   3   5
TORSDOF 3
ENDMDL
MODEL 5
REMARK VINA RESULT: -3.944587248      9.194     10.697
REMARK  3 active torsions:
REMARK  status: ('A' for Active; 'I' for Inactive)
REMARK    1  A    between atoms: N1_3  and  C3_5 
REMARK    2  A    between atoms: C3_5  and  S2_7 
REMARK    3  A    between atoms: S2_7  and  C4_8 
ROOT
HETATM    1  C1  UNL     1       8.026  11.682  43.666  1.00  0.00     0.037 C 
HETATM    2  C2  UNL     1       7.047  11.672  44.380  1.00  0.00     0.001 C 
HETATM    3  N1  UNL     1       5.930  11.612  45.209  1.00  0.00    -0.301 N 
ATOM      4  H1  UNL     1       5.920  10.839  45.875  1.00  0.00     0.177 HD
ENDROOT
BRANCH   3   5
HETATM    5  C3  UNL     1       4.824  12.457  45.259  1.00  0.00     0.146 C 
HETATM    6  S1  UNL     1       3.923  12.319  46.686  1.00  0.00    -0.052 SA
BRANCH   5   7
HETATM    7  S2  UNL     1       4.258  13.613  44.073  1.00  0.00    -0.086 SA
BRANCH   7   8
HETATM    8  C4  UNL     1       4.218  13.127  42.382  1.00  0.00     0.205 C 
HETATM    9  C5  UNL     1       4.141  14.326  41.527  1.00  0.00     0.069 C 
HETATM   10  N2  UNL     1       4.093  15.279  40.861  1.00  0.00    -0.197 NA
ENDBRANCH   7   8
ENDBRANCH   5   7
ENDBRANCH   3   5
TORSDOF 3
ENDMDL
