MODEL 1
REMARK VINA RESULT: -6.062223441      0.000      0.000
REMARK  10 active torsions:
REMARK  status: ('A' for Active; 'I' for Inactive)
REMARK    1  A    between atoms: N1_1  and  N2_4 
REMARK    2  A    between atoms: N2_4  and  C1_5 
REMARK    3  A    between atoms: C1_5  and  O1_6 
REMARK    4  A    between atoms: C1_5  and  C2_8 
REMARK    5  A    between atoms: C2_8  and  O2_9 
REMARK    6  A    between atoms: C2_8  and  C3_11 
REMARK    7  A    between atoms: C4_15  and  O3_16 
REMARK    8  A    between atoms: C5_18  and  N4_19 
REMARK    9  A    between atoms: N4_19  and  C6_21 
REMARK   10  A    between atoms: C11_33  and  O7_34 
ROOT
HETATM    1  C3  UNL     1      26.877 -32.661   9.880  1.00  0.00     0.262 C 
HETATM    2  N3  UNL     1      26.508 -33.545   8.807  1.00  0.00    -0.036 N 
ATOM      3  H31 UNL     1      25.498 -33.549   8.662  1.00  0.00     0.281 HD
ATOM      4  H32 UNL     1      26.636 -34.521   9.071  1.00  0.00     0.281 HD
HETATM    5  C4  UNL     1      27.227 -33.228   7.561  1.00  0.00     0.349 C 
HETATM    6  C5  UNL     1      28.656 -32.992   7.766  1.00  0.00     0.211 C 
HETATM    7  C10 UNL     1      28.814 -31.748   8.595  1.00  0.00     0.184 C 
HETATM    8  O6  UNL     1      29.734 -30.985   8.548  1.00  0.00    -0.293 OA
HETATM    9  C11 UNL     1      27.711 -31.488   9.538  1.00  0.00     0.223 C 
ENDROOT
BRANCH   6  10
HETATM   10  N4  UNL     1      29.521 -33.040   6.661  1.00  0.00    -0.369 N 
ATOM     11  H4  UNL     1      30.368 -33.576   6.848  1.00  0.00     0.160 HD
BRANCH  10  12
HETATM   12  C6  UNL     1      29.488 -32.523   5.370  1.00  0.00     0.113 A 
HETATM   13  C7  UNL     1      29.691 -31.216   5.060  1.00  0.00     0.127 A 
HETATM   14  N5  UNL     1      29.609 -30.763   3.769  1.00  0.00    -0.316 N 
HETATM   15  C8  UNL     1      29.326 -31.588   2.762  1.00  0.00     0.327 A 
ATOM     16  H5  UNL     1      29.767 -29.775   3.575  1.00  0.00     0.170 HD
HETATM   17  O4  UNL     1      29.247 -31.188   1.571  1.00  0.00    -0.247 OA
HETATM   18  N6  UNL     1      29.120 -32.895   3.049  1.00  0.00    -0.274 N 
HETATM   19  C9  UNL     1      29.191 -33.371   4.293  1.00  0.00     0.277 A 
ATOM     20  H6  UNL     1      28.903 -33.538   2.288  1.00  0.00     0.173 HD
HETATM   21  O5  UNL     1      28.980 -34.611   4.445  1.00  0.00    -0.266 OA
ENDBRANCH  10  12
ENDBRANCH   6  10
BRANCH   5  22
HETATM   22  O3  UNL     1      26.926 -34.247   6.686  1.00  0.00    -0.368 OA
ATOM     23  H3  UNL     1      27.452 -34.987   6.962  1.00  0.00     0.212 HD
ENDBRANCH   5  22
BRANCH   9  24
HETATM   24  O7  UNL     1      28.146 -30.911  10.734  1.00  0.00    -0.386 OA
ATOM     25  H7  UNL     1      28.206 -29.972  10.599  1.00  0.00     0.210 HD
ENDBRANCH   9  24
BRANCH   1  26
HETATM   26  C2  UNL     1      27.230 -33.350  11.178  1.00  0.00     0.243 C 
BRANCH  26  27
HETATM   27  C1  UNL     1      25.994 -33.637  12.026  1.00  0.00     0.244 C 
BRANCH  27  28
HETATM   28  N2  UNL     1      25.946 -34.490  13.023  1.00  0.00    -0.309 NA
BRANCH  28  29
HETATM   29  N1  UNL     1      25.898 -35.367  14.049  1.00  0.00    -0.278 N 
ATOM     30  H12 UNL     1      25.913 -34.701  13.276  1.00  0.00     0.191 HD
ATOM     31  H11 UNL     1      25.861 -36.029  14.824  1.00  0.00     0.191 HD
ENDBRANCH  28  29
ENDBRANCH  27  28
BRANCH  27  32
HETATM   32  O1  UNL     1      25.003 -32.904  11.598  1.00  0.00    -0.335 OA
ATOM     33  H1  UNL     1      24.811 -32.015  11.871  1.00  0.00     0.220 HD
ENDBRANCH  27  32
ENDBRANCH  26  27
BRANCH  26  34
HETATM   34  O2  UNL     1      27.952 -34.491  11.072  1.00  0.00    -0.384 OA
ATOM     35  H2  UNL     1      28.772 -34.373  11.539  1.00  0.00     0.210 HD
ENDBRANCH  26  34
ENDBRANCH   1  26
TORSDOF 10
ENDMDL
MODEL 2
REMARK VINA RESULT: -5.997317745      0.969      1.129
REMARK  10 active torsions:
REMARK  status: ('A' for Active; 'I' for Inactive)
REMARK    1  A    between atoms: N1_1  and  N2_4 
REMARK    2  A    between atoms: N2_4  and  C1_5 
REMARK    3  A    between atoms: C1_5  and  O1_6 
REMARK    4  A    between atoms: C1_5  and  C2_8 
REMARK    5  A    between atoms: C2_8  and  O2_9 
REMARK    6  A    between atoms: C2_8  and  C3_11 
REMARK    7  A    between atoms: C4_15  and  O3_16 
REMARK    8  A    between atoms: C5_18  and  N4_19 
REMARK    9  A    between atoms: N4_19  and  C6_21 
REMARK   10  A    between atoms: C11_33  and  O7_34 
ROOT
HETATM    1  C3  UNL     1      26.851 -32.620   9.864  1.00  0.00     0.262 C 
HETATM    2  N3  UNL     1      26.462 -33.490   8.786  1.00  0.00    -0.036 N 
ATOM      3  H31 UNL     1      25.453 -33.466   8.637  1.00  0.00     0.281 HD
ATOM      4  H32 UNL     1      26.563 -34.470   9.047  1.00  0.00     0.281 HD
HETATM    5  C4  UNL     1      27.194 -33.188   7.544  1.00  0.00     0.349 C 
HETATM    6  C5  UNL     1      28.628 -32.991   7.755  1.00  0.00     0.211 C 
HETATM    7  C10 UNL     1      28.816 -31.755   8.589  1.00  0.00     0.184 C 
HETATM    8  O6  UNL     1      29.756 -31.016   8.548  1.00  0.00    -0.293 OA
HETATM    9  C11 UNL     1      27.716 -31.469   9.529  1.00  0.00     0.223 C 
ENDROOT
BRANCH   6  10
HETATM   10  N4  UNL     1      29.496 -33.058   6.653  1.00  0.00    -0.369 N 
ATOM     11  H4  UNL     1      30.329 -33.615   6.842  1.00  0.00     0.160 HD
BRANCH  10  12
HETATM   12  C6  UNL     1      29.480 -32.538   5.363  1.00  0.00     0.113 A 
HETATM   13  C7  UNL     1      29.703 -31.234   5.057  1.00  0.00     0.127 A 
HETATM   14  N5  UNL     1      29.637 -30.777   3.766  1.00  0.00    -0.316 N 
HETATM   15  C8  UNL     1      29.352 -31.597   2.755  1.00  0.00     0.327 A 
ATOM     16  H5  UNL     1      29.810 -29.791   3.575  1.00  0.00     0.170 HD
HETATM   17  O4  UNL     1      29.288 -31.194   1.564  1.00  0.00    -0.247 OA
HETATM   18  N6  UNL     1      29.127 -32.901   3.039  1.00  0.00    -0.274 N 
HETATM   19  C9  UNL     1      29.181 -33.380   4.282  1.00  0.00     0.277 A 
ATOM     20  H6  UNL     1      28.907 -33.540   2.275  1.00  0.00     0.173 HD
HETATM   21  O5  UNL     1      28.953 -34.618   4.430  1.00  0.00    -0.266 OA
ENDBRANCH  10  12
ENDBRANCH   6  10
BRANCH   5  22
HETATM   22  O3  UNL     1      26.869 -34.195   6.664  1.00  0.00    -0.368 OA
ATOM     23  H3  UNL     1      27.638 -34.321   6.121  1.00  0.00     0.212 HD
ENDBRANCH   5  22
BRANCH   9  24
HETATM   24  O7  UNL     1      28.163 -30.908  10.729  1.00  0.00    -0.386 OA
ATOM     25  H7  UNL     1      28.125 -29.962  10.639  1.00  0.00     0.210 HD
ENDBRANCH   9  24
BRANCH   1  26
HETATM   26  C2  UNL     1      27.180 -33.323  11.161  1.00  0.00     0.243 C 
BRANCH  26  27
HETATM   27  C1  UNL     1      25.936 -33.565  12.010  1.00  0.00     0.244 C 
BRANCH  27  28
HETATM   28  N2  UNL     1      24.733 -33.119  11.727  1.00  0.00    -0.309 NA
BRANCH  28  29
HETATM   29  N1  UNL     1      23.497 -32.661  11.437  1.00  0.00    -0.278 N 
ATOM     30  H12 UNL     1      24.439 -32.988  11.652  1.00  0.00     0.191 HD
ATOM     31  H11 UNL     1      22.563 -32.314  11.218  1.00  0.00     0.191 HD
ENDBRANCH  28  29
ENDBRANCH  27  28
BRANCH  27  32
HETATM   32  O1  UNL     1      26.261 -34.280  13.052  1.00  0.00    -0.335 OA
ATOM     33  H1  UNL     1      26.750 -35.094  13.038  1.00  0.00     0.220 HD
ENDBRANCH  27  32
ENDBRANCH  26  27
BRANCH  26  34
HETATM   34  O2  UNL     1      27.860 -34.490  11.052  1.00  0.00    -0.384 OA
ATOM     35  H2  UNL     1      28.275 -34.518  10.198  1.00  0.00     0.210 HD
ENDBRANCH  26  34
ENDBRANCH   1  26
TORSDOF 10
ENDMDL
MODEL 3
REMARK VINA RESULT: -5.637978775      2.764      3.641
REMARK  10 active torsions:
REMARK  status: ('A' for Active; 'I' for Inactive)
REMARK    1  A    between atoms: N1_1  and  N2_4 
REMARK    2  A    between atoms: N2_4  and  C1_5 
REMARK    3  A    between atoms: C1_5  and  O1_6 
REMARK    4  A    between atoms: C1_5  and  C2_8 
REMARK    5  A    between atoms: C2_8  and  O2_9 
REMARK    6  A    between atoms: C2_8  and  C3_11 
REMARK    7  A    between atoms: C4_15  and  O3_16 
REMARK    8  A    between atoms: C5_18  and  N4_19 
REMARK    9  A    between atoms: N4_19  and  C6_21 
REMARK   10  A    between atoms: C11_33  and  O7_34 
ROOT
HETATM    1  C3  UNL     1      26.597 -35.860  11.394  1.00  0.00     0.262 C 
HETATM    2  N3  UNL     1      27.028 -36.284  10.089  1.00  0.00    -0.036 N 
ATOM      3  H31 UNL     1      26.366 -36.942   9.676  1.00  0.00     0.281 HD
ATOM      4  H32 UNL     1      27.844 -36.893  10.148  1.00  0.00     0.281 HD
HETATM    5  C4  UNL     1      27.276 -35.142   9.193  1.00  0.00     0.349 C 
HETATM    6  C5  UNL     1      28.039 -34.067   9.830  1.00  0.00     0.211 C 
HETATM    7  C10 UNL     1      27.200 -33.482  10.930  1.00  0.00     0.184 C 
HETATM    8  O6  UNL     1      27.233 -32.348  11.312  1.00  0.00    -0.293 OA
HETATM    9  C11 UNL     1      26.268 -34.429  11.569  1.00  0.00     0.223 C 
ENDROOT
BRANCH   6  10
HETATM   10  N4  UNL     1      28.657 -33.098   9.023  1.00  0.00    -0.369 N 
ATOM     11  H4  UNL     1      29.495 -32.707   9.451  1.00  0.00     0.160 HD
BRANCH  10  12
HETATM   12  C6  UNL     1      28.386 -32.549   7.773  1.00  0.00     0.113 A 
HETATM   13  C7  UNL     1      27.139 -32.374   7.265  1.00  0.00     0.127 A 
HETATM   14  N5  UNL     1      26.941 -31.859   6.009  1.00  0.00    -0.316 N 
HETATM   15  C8  UNL     1      27.966 -31.508   5.235  1.00  0.00     0.327 A 
ATOM     16  H5  UNL     1      25.990 -31.743   5.661  1.00  0.00     0.170 HD
HETATM   17  O4  UNL     1      27.802 -31.035   4.080  1.00  0.00    -0.247 OA
HETATM   18  N6  UNL     1      29.218 -31.675   5.723  1.00  0.00    -0.274 N 
HETATM   19  C9  UNL     1      29.448 -32.173   6.938  1.00  0.00     0.277 A 
ATOM     20  H6  UNL     1      30.013 -31.410   5.141  1.00  0.00     0.173 HD
HETATM   21  O5  UNL     1      30.660 -32.285   7.292  1.00  0.00    -0.266 OA
ENDBRANCH  10  12
ENDBRANCH   6  10
BRANCH   5  22
HETATM   22  O3  UNL     1      27.852 -35.671   8.061  1.00  0.00    -0.368 OA
ATOM     23  H3  UNL     1      27.238 -36.321   7.740  1.00  0.00     0.212 HD
ENDBRANCH   5  22
BRANCH   9  24
HETATM   24  O7  UNL     1      26.109 -34.192  12.937  1.00  0.00    -0.386 OA
ATOM     25  H7  UNL     1      25.341 -33.644  13.050  1.00  0.00     0.210 HD
ENDBRANCH   9  24
BRANCH   1  26
HETATM   26  C2  UNL     1      27.335 -36.501  12.547  1.00  0.00     0.243 C 
BRANCH  26  27
HETATM   27  C1  UNL     1      27.356 -38.023  12.434  1.00  0.00     0.244 C 
BRANCH  27  28
HETATM   28  N2  UNL     1      28.430 -38.771  12.541  1.00  0.00    -0.309 NA
BRANCH  28  29
HETATM   29  N1  UNL     1      29.534 -39.541  12.652  1.00  0.00    -0.278 N 
ATOM     30  H12 UNL     1      28.700 -38.962  12.547  1.00  0.00     0.191 HD
ATOM     31  H11 UNL     1      30.367 -40.122  12.736  1.00  0.00     0.191 HD
ENDBRANCH  28  29
ENDBRANCH  27  28
BRANCH  27  32
HETATM   32  O1  UNL     1      26.143 -38.453  12.215  1.00  0.00    -0.335 OA
ATOM     33  H1  UNL     1      25.711 -39.159  12.678  1.00  0.00     0.220 HD
ENDBRANCH  27  32
ENDBRANCH  26  27
BRANCH  26  34
HETATM   34  O2  UNL     1      28.600 -36.069  12.761  1.00  0.00    -0.384 OA
ATOM     35  H2  UNL     1      28.761 -35.320  12.199  1.00  0.00     0.210 HD
ENDBRANCH  26  34
ENDBRANCH   1  26
TORSDOF 10
ENDMDL
MODEL 4
REMARK VINA RESULT: -5.613917341      3.393      5.372
REMARK  10 active torsions:
REMARK  status: ('A' for Active; 'I' for Inactive)
REMARK    1  A    between atoms: N1_1  and  N2_4 
REMARK    2  A    between atoms: N2_4  and  C1_5 
REMARK    3  A    between atoms: C1_5  and  O1_6 
REMARK    4  A    between atoms: C1_5  and  C2_8 
REMARK    5  A    between atoms: C2_8  and  O2_9 
REMARK    6  A    between atoms: C2_8  and  C3_11 
REMARK    7  A    between atoms: C4_15  and  O3_16 
REMARK    8  A    between atoms: C5_18  and  N4_19 
REMARK    9  A    between atoms: N4_19  and  C6_21 
REMARK   10  A    between atoms: C11_33  and  O7_34 
ROOT
HETATM    1  C3  UNL     1      26.996 -37.245  12.682  1.00  0.00     0.262 C 
HETATM    2  N3  UNL     1      27.276 -37.606  11.318  1.00  0.00    -0.036 N 
ATOM      3  H31 UNL     1      26.952 -38.551  11.111  1.00  0.00     0.281 HD
ATOM      4  H32 UNL     1      28.276 -37.744  11.169  1.00  0.00     0.281 HD
HETATM    5  C4  UNL     1      26.722 -36.630  10.365  1.00  0.00     0.349 C 
HETATM    6  C5  UNL     1      26.977 -35.242  10.751  1.00  0.00     0.211 C 
HETATM    7  C10 UNL     1      26.229 -34.962  12.024  1.00  0.00     0.184 C 
HETATM    8  O6  UNL     1      25.783 -33.903  12.359  1.00  0.00    -0.293 OA
HETATM    9  C11 UNL     1      26.054 -36.128  12.909  1.00  0.00     0.223 C 
ENDROOT
BRANCH   6  10
HETATM   10  N4  UNL     1      26.838 -34.228   9.788  1.00  0.00    -0.369 N 
ATOM     11  H4  UNL     1      25.864 -33.988   9.608  1.00  0.00     0.160 HD
BRANCH  10  12
HETATM   12  C6  UNL     1      27.727 -33.478   9.024  1.00  0.00     0.113 A 
HETATM   13  C7  UNL     1      28.169 -33.834   7.791  1.00  0.00     0.127 A 
HETATM   14  N5  UNL     1      29.074 -33.066   7.104  1.00  0.00    -0.316 N 
HETATM   15  C8  UNL     1      29.557 -31.937   7.619  1.00  0.00     0.327 A 
ATOM     16  H5  UNL     1      29.383 -33.366   6.180  1.00  0.00     0.170 HD
HETATM   17  O4  UNL     1      30.389 -31.221   7.002  1.00  0.00    -0.247 OA
HETATM   18  N6  UNL     1      29.129 -31.565   8.848  1.00  0.00    -0.274 N 
HETATM   19  C9  UNL     1      28.251 -32.286   9.545  1.00  0.00     0.277 A 
ATOM     20  H6  UNL     1      29.490 -30.702   9.255  1.00  0.00     0.173 HD
HETATM   21  O5  UNL     1      27.921 -31.842  10.685  1.00  0.00    -0.266 OA
ENDBRANCH  10  12
ENDBRANCH   6  10
BRANCH   5  22
HETATM   22  O3  UNL     1      27.214 -36.989   9.131  1.00  0.00    -0.368 OA
ATOM     23  H3  UNL     1      26.456 -37.210   8.605  1.00  0.00     0.212 HD
ENDBRANCH   5  22
BRANCH   9  24
HETATM   24  O7  UNL     1      26.110 -35.792  14.265  1.00  0.00    -0.386 OA
ATOM     25  H7  UNL     1      25.229 -35.857  14.616  1.00  0.00     0.210 HD
ENDBRANCH   9  24
BRANCH   1  26
HETATM   26  C2  UNL     1      28.191 -37.284  13.608  1.00  0.00     0.243 C 
BRANCH  26  27
HETATM   27  C1  UNL     1      28.789 -38.684  13.707  1.00  0.00     0.244 C 
BRANCH  27  28
HETATM   28  N2  UNL     1      29.368 -39.327  12.720  1.00  0.00    -0.309 NA
BRANCH  28  29
HETATM   29  N1  UNL     1      29.962 -39.990  11.704  1.00  0.00    -0.278 N 
ATOM     30  H12 UNL     1      29.494 -39.491  12.461  1.00  0.00     0.191 HD
ATOM     31  H11 UNL     1      30.411 -40.490  10.937  1.00  0.00     0.191 HD
ENDBRANCH  28  29
ENDBRANCH  27  28
BRANCH  27  32
HETATM   32  O1  UNL     1      28.632 -39.131  14.923  1.00  0.00    -0.335 OA
ATOM     33  H1  UNL     1      28.608 -40.044  15.182  1.00  0.00     0.220 HD
ENDBRANCH  27  32
ENDBRANCH  26  27
BRANCH  26  34
HETATM   34  O2  UNL     1      29.188 -36.409  13.334  1.00  0.00    -0.384 OA
ATOM     35  H2  UNL     1      29.112 -35.671  13.927  1.00  0.00     0.210 HD
ENDBRANCH  26  34
ENDBRANCH   1  26
TORSDOF 10
ENDMDL
MODEL 5
REMARK VINA RESULT: -5.540481607      3.709      7.164
REMARK  10 active torsions:
REMARK  status: ('A' for Active; 'I' for Inactive)
REMARK    1  A    between atoms: N1_1  and  N2_4 
REMARK    2  A    between atoms: N2_4  and  C1_5 
REMARK    3  A    between atoms: C1_5  and  O1_6 
REMARK    4  A    between atoms: C1_5  and  C2_8 
REMARK    5  A    between atoms: C2_8  and  O2_9 
REMARK    6  A    between atoms: C2_8  and  C3_11 
REMARK    7  A    between atoms: C4_15  and  O3_16 
REMARK    8  A    between atoms: C5_18  and  N4_19 
REMARK    9  A    between atoms: N4_19  and  C6_21 
REMARK   10  A    between atoms: C11_33  and  O7_34 
ROOT
HETATM    1  C3  UNL     1      27.421 -33.091   9.316  1.00  0.00     0.262 C 
HETATM    2  N3  UNL     1      26.870 -32.693   8.048  1.00  0.00    -0.036 N 
ATOM      3  H31 UNL     1      27.183 -33.310   7.298  1.00  0.00     0.281 HD
ATOM      4  H32 UNL     1      27.286 -31.820   7.722  1.00  0.00     0.281 HD
HETATM    5  C4  UNL     1      25.401 -32.603   8.091  1.00  0.00     0.349 C 
HETATM    6  C5  UNL     1      24.901 -31.913   9.280  1.00  0.00     0.211 C 
HETATM    7  C10 UNL     1      25.242 -32.742  10.485  1.00  0.00     0.184 C 
HETATM    8  O6  UNL     1      24.614 -32.797  11.501  1.00  0.00    -0.293 OA
HETATM    9  C11 UNL     1      26.473 -33.545  10.356  1.00  0.00     0.223 C 
ENDROOT
BRANCH   6  10
HETATM   10  N4  UNL     1      23.580 -31.434   9.287  1.00  0.00    -0.369 N 
ATOM     11  H4  UNL     1      22.914 -32.112   8.918  1.00  0.00     0.160 HD
BRANCH  10  12
HETATM   12  C6  UNL     1      22.973 -30.246   9.683  1.00  0.00     0.113 A 
HETATM   13  C7  UNL     1      23.247 -29.028   9.147  1.00  0.00     0.127 A 
HETATM   14  N5  UNL     1      22.639 -27.889   9.607  1.00  0.00    -0.316 N 
HETATM   15  C8  UNL     1      21.752 -27.929  10.600  1.00  0.00     0.327 A 
ATOM     16  H5  UNL     1      22.870 -26.992   9.180  1.00  0.00     0.170 HD
HETATM   17  O4  UNL     1      21.185 -26.892  11.034  1.00  0.00    -0.247 OA
HETATM   18  N6  UNL     1      21.465 -29.133  11.147  1.00  0.00    -0.274 N 
HETATM   19  C9  UNL     1      22.037 -30.262  10.726  1.00  0.00     0.277 A 
ATOM     20  H6  UNL     1      20.787 -29.180  11.908  1.00  0.00     0.173 HD
HETATM   21  O5  UNL     1      21.693 -31.332  11.312  1.00  0.00    -0.266 OA
ENDBRANCH  10  12
ENDBRANCH   6  10
BRANCH   5  22
HETATM   22  O3  UNL     1      25.026 -32.041   6.892  1.00  0.00    -0.368 OA
ATOM     23  H3  UNL     1      24.239 -31.542   7.076  1.00  0.00     0.212 HD
ENDBRANCH   5  22
BRANCH   9  24
HETATM   24  O7  UNL     1      27.177 -33.651  11.559  1.00  0.00    -0.386 OA
ATOM     25  H7  UNL     1      26.583 -33.421  12.264  1.00  0.00     0.210 HD
ENDBRANCH   9  24
BRANCH   1  26
HETATM   26  C2  UNL     1      28.564 -32.235   9.810  1.00  0.00     0.243 C 
BRANCH  26  27
HETATM   27  C1  UNL     1      29.454 -31.757   8.667  1.00  0.00     0.244 C 
BRANCH  27  28
HETATM   28  N2  UNL     1      29.738 -32.456   7.591  1.00  0.00    -0.309 NA
BRANCH  28  29
HETATM   29  N1  UNL     1      30.028 -33.174   6.485  1.00  0.00    -0.278 N 
ATOM     30  H12 UNL     1      29.788 -32.630   7.314  1.00  0.00     0.191 HD
ATOM     31  H11 UNL     1      30.248 -33.716   5.650  1.00  0.00     0.191 HD
ENDBRANCH  28  29
ENDBRANCH  27  28
BRANCH  27  32
HETATM   32  O1  UNL     1      29.883 -30.554   8.932  1.00  0.00    -0.335 OA
ATOM     33  H1  UNL     1      30.741 -30.209   8.718  1.00  0.00     0.220 HD
ENDBRANCH  27  32
ENDBRANCH  26  27
BRANCH  26  34
HETATM   34  O2  UNL     1      28.225 -31.163  10.566  1.00  0.00    -0.384 OA
ATOM     35  H2  UNL     1      27.294 -31.005  10.463  1.00  0.00     0.210 HD
ENDBRANCH  26  34
ENDBRANCH   1  26
TORSDOF 10
ENDMDL
