MODEL 1
REMARK VINA RESULT: -6.794145809      0.000      0.000
REMARK  11 active torsions:
REMARK  status: ('A' for Active; 'I' for Inactive)
REMARK    1  A    between atoms: C2_2  and  C3_3 
REMARK    2  A    between atoms: C3_3  and  C4_4 
REMARK    3  A    between atoms: C4_4  and  C5_5 
REMARK    4  A    between atoms: C5_5  and  C6_6 
REMARK    5  A    between atoms: C6_6  and  O2_8 
REMARK    6  A    between atoms: O2_8  and  C7_9 
REMARK    7  A    between atoms: C18_20  and  C19_21 
REMARK    8  A    between atoms: C19_21  and  C20_22 
REMARK    9  A    between atoms: C20_22  and  C21_23 
REMARK   10  A    between atoms: C23_26  and  O4_27 
REMARK   11  A    between atoms: N1_36  and  O5_38 
ROOT
HETATM    1  C7  UNL     1      -5.565  11.371 -23.128  1.00  0.00     0.132 C 
HETATM    2  C8  UNL     1      -5.202  12.724 -22.514  1.00  0.00     0.034 C 
HETATM    3  C9  UNL     1      -4.279  13.481 -23.398  1.00  0.00     0.016 C 
HETATM    4  C10 UNL     1      -4.934  13.798 -24.732  1.00  0.00    -0.022 C 
HETATM    5  C11 UNL     1      -3.850  13.644 -25.765  1.00  0.00     0.020 C 
HETATM    6  C12 UNL     1      -5.491  15.161 -24.759  1.00  0.00    -0.021 C 
HETATM    7  C13 UNL     1      -6.723  15.459 -25.138  1.00  0.00    -0.025 C 
HETATM    8  C14 UNL     1      -7.695  14.407 -25.589  1.00  0.00     0.017 C 
HETATM    9  C15 UNL     1      -8.743  14.926 -26.407  1.00  0.00     0.042 C 
HETATM   10  C16 UNL     1      -8.759  14.474 -27.852  1.00  0.00    -0.084 C 
HETATM   11  C17 UNL     1      -9.122  15.331 -28.698  1.00  0.00     0.015 C 
HETATM   12  C18 UNL     1      -8.329  13.120 -28.139  1.00  0.00     0.022 C 
HETATM   13  C25 UNL     1      -7.556  12.397 -27.052  1.00  0.00    -0.036 C 
HETATM   14  C26 UNL     1      -8.537  11.573 -26.259  1.00  0.00     0.016 C 
HETATM   15  C27 UNL     1      -6.586  11.499 -27.828  1.00  0.00     0.016 C 
HETATM   16  C28 UNL     1      -6.802  13.277 -26.147  1.00  0.00     0.007 C 
HETATM   17  C29 UNL     1      -6.108  12.817 -24.968  1.00  0.00     0.005 C 
HETATM   18  C30 UNL     1      -5.610  11.486 -24.662  1.00  0.00     0.038 C 
ENDROOT
BRANCH   1  19
HETATM   19  O2  UNL     1      -4.606  10.467 -22.660  1.00  0.00    -0.316 OA
BRANCH  19  20
HETATM   20  C6  UNL     1      -4.847   9.125 -22.488  1.00  0.00     0.259 C 
HETATM   21  O1  UNL     1      -5.486   8.799 -21.435  1.00  0.00    -0.265 OA
BRANCH  20  22
HETATM   22  C5  UNL     1      -4.381   8.147 -23.476  1.00  0.00     0.117 C 
BRANCH  22  23
HETATM   23  C4  UNL     1      -4.785   6.758 -23.097  1.00  0.00     0.069 C 
BRANCH  23  24
HETATM   24  C3  UNL     1      -3.670   5.817 -22.942  1.00  0.00     0.031 C 
HETATM   25  N1  UNL     1      -3.765   4.594 -22.758  1.00  0.00    -0.274 N 
ATOM     26  H1  UNL     1      -2.839   4.183 -22.640  1.00  0.00     0.193 HD
BRANCH  24  27
HETATM   27  C2  UNL     1      -2.303   6.395 -22.947  1.00  0.00     0.017 C 
HETATM   28  C1  UNL     1      -1.264   5.728 -23.345  1.00  0.00     0.013 C 
ENDBRANCH  24  27
BRANCH  25  29
HETATM   29  O5  UNL     1      -4.675   3.680 -22.669  1.00  0.00    -0.290 OA
ATOM     30  H5  UNL     1      -5.353   3.280 -23.201  1.00  0.00     0.244 HD
ENDBRANCH  25  29
ENDBRANCH  23  24
ENDBRANCH  22  23
ENDBRANCH  20  22
ENDBRANCH  19  20
ENDBRANCH   1  19
BRANCH  12  31
HETATM   31  C19 UNL     1      -9.386  12.245 -28.707  1.00  0.00     0.014 C 
BRANCH  31  32
HETATM   32  C20 UNL     1      -9.428  12.059 -30.180  1.00  0.00     0.041 C 
BRANCH  32  33
HETATM   33  C21 UNL     1      -9.318  10.563 -30.450  1.00  0.00    -0.031 A 
HETATM   34  C22 UNL     1     -10.335   9.647 -30.335  1.00  0.00     0.152 A 
HETATM   35  O3  UNL     1      -9.846   8.443 -30.657  1.00  0.00    -0.300 OA
HETATM   36  C23 UNL     1      -8.592   8.510 -30.969  1.00  0.00     0.183 A 
HETATM   37  C24 UNL     1      -8.219   9.842 -30.849  1.00  0.00     0.073 A 
BRANCH  36  38
HETATM   38  O4  UNL     1      -7.772   7.460 -31.352  1.00  0.00    -0.341 OA
ATOM     39  H4  UNL     1      -7.805   6.566 -31.032  1.00  0.00     0.220 HD
ENDBRANCH  36  38
ENDBRANCH  32  33
ENDBRANCH  31  32
ENDBRANCH  12  31
TORSDOF 11
ENDMDL
MODEL 2
REMARK VINA RESULT: -6.700037715      1.260      1.488
REMARK  11 active torsions:
REMARK  status: ('A' for Active; 'I' for Inactive)
REMARK    1  A    between atoms: C2_2  and  C3_3 
REMARK    2  A    between atoms: C3_3  and  C4_4 
REMARK    3  A    between atoms: C4_4  and  C5_5 
REMARK    4  A    between atoms: C5_5  and  C6_6 
REMARK    5  A    between atoms: C6_6  and  O2_8 
REMARK    6  A    between atoms: O2_8  and  C7_9 
REMARK    7  A    between atoms: C18_20  and  C19_21 
REMARK    8  A    between atoms: C19_21  and  C20_22 
REMARK    9  A    between atoms: C20_22  and  C21_23 
REMARK   10  A    between atoms: C23_26  and  O4_27 
REMARK   11  A    between atoms: N1_36  and  O5_38 
ROOT
HETATM    1  C7  UNL     1      -5.720  11.481 -22.839  1.00  0.00     0.132 C 
HETATM    2  C8  UNL     1      -5.321  12.876 -22.356  1.00  0.00     0.034 C 
HETATM    3  C9  UNL     1      -4.400  13.532 -23.320  1.00  0.00     0.016 C 
HETATM    4  C10 UNL     1      -5.073  13.739 -24.667  1.00  0.00    -0.022 C 
HETATM    5  C11 UNL     1      -4.010  13.470 -25.698  1.00  0.00     0.020 C 
HETATM    6  C12 UNL     1      -5.605  15.105 -24.809  1.00  0.00    -0.021 C 
HETATM    7  C13 UNL     1      -6.838  15.392 -25.194  1.00  0.00    -0.025 C 
HETATM    8  C14 UNL     1      -7.837  14.322 -25.532  1.00  0.00     0.017 C 
HETATM    9  C15 UNL     1      -8.890  14.786 -26.377  1.00  0.00     0.042 C 
HETATM   10  C16 UNL     1      -8.939  14.205 -27.774  1.00  0.00    -0.084 C 
HETATM   11  C17 UNL     1      -9.301  14.988 -28.689  1.00  0.00     0.015 C 
HETATM   12  C18 UNL     1      -8.540  12.822 -27.944  1.00  0.00     0.022 C 
HETATM   13  C25 UNL     1      -7.760  12.186 -26.808  1.00  0.00    -0.036 C 
HETATM   14  C26 UNL     1      -8.742  11.457 -25.927  1.00  0.00     0.016 C 
HETATM   15  C27 UNL     1      -6.821  11.202 -27.514  1.00  0.00     0.016 C 
HETATM   16  C28 UNL     1      -6.975  13.129 -25.998  1.00  0.00     0.007 C 
HETATM   17  C29 UNL     1      -6.268  12.764 -24.794  1.00  0.00     0.005 C 
HETATM   18  C30 UNL     1      -5.790  11.457 -24.376  1.00  0.00     0.038 C 
ENDROOT
BRANCH   1  19
HETATM   19  O2  UNL     1      -4.769  10.604 -22.305  1.00  0.00    -0.316 OA
BRANCH  19  20
HETATM   20  C6  UNL     1      -4.331   9.474 -22.953  1.00  0.00     0.259 C 
HETATM   21  O1  UNL     1      -3.318   9.618 -23.712  1.00  0.00    -0.265 OA
BRANCH  20  22
HETATM   22  C5  UNL     1      -5.014   8.190 -22.765  1.00  0.00     0.117 C 
BRANCH  22  23
HETATM   23  C4  UNL     1      -4.523   7.166 -23.739  1.00  0.00     0.069 C 
BRANCH  23  24
HETATM   24  C3  UNL     1      -3.457   6.298 -23.228  1.00  0.00     0.031 C 
HETATM   25  N1  UNL     1      -2.251   6.580 -23.164  1.00  0.00    -0.274 N 
ATOM     26  H1  UNL     1      -1.721   5.784 -22.811  1.00  0.00     0.193 HD
BRANCH  24  27
HETATM   27  C2  UNL     1      -3.853   4.931 -22.805  1.00  0.00     0.017 C 
HETATM   28  C1  UNL     1      -3.160   4.232 -21.961  1.00  0.00     0.013 C 
ENDBRANCH  24  27
BRANCH  25  29
HETATM   29  O5  UNL     1      -1.458   7.573 -23.407  1.00  0.00    -0.290 OA
ATOM     30  H5  UNL     1      -0.654   7.757 -23.878  1.00  0.00     0.244 HD
ENDBRANCH  25  29
ENDBRANCH  23  24
ENDBRANCH  22  23
ENDBRANCH  20  22
ENDBRANCH  19  20
ENDBRANCH   1  19
BRANCH  12  31
HETATM   31  C19 UNL     1      -9.622  11.921 -28.412  1.00  0.00     0.014 C 
BRANCH  31  32
HETATM   32  C20 UNL     1      -9.880  11.831 -29.872  1.00  0.00     0.041 C 
BRANCH  32  33
HETATM   33  C21 UNL     1      -8.966  10.744 -30.426  1.00  0.00    -0.031 A 
HETATM   34  C22 UNL     1      -7.785  10.950 -31.096  1.00  0.00     0.152 A 
HETATM   35  O3  UNL     1      -7.278   9.753 -31.419  1.00  0.00    -0.300 OA
HETATM   36  C23 UNL     1      -8.041   8.791 -31.011  1.00  0.00     0.183 A 
HETATM   37  C24 UNL     1      -9.125   9.381 -30.375  1.00  0.00     0.073 A 
BRANCH  36  38
HETATM   38  O4  UNL     1      -7.825   7.432 -31.172  1.00  0.00    -0.341 OA
ATOM     39  H4  UNL     1      -8.444   6.791 -31.500  1.00  0.00     0.220 HD
ENDBRANCH  36  38
ENDBRANCH  32  33
ENDBRANCH  31  32
ENDBRANCH  12  31
TORSDOF 11
ENDMDL
MODEL 3
REMARK VINA RESULT: -6.544743061      1.347      1.777
REMARK  11 active torsions:
REMARK  status: ('A' for Active; 'I' for Inactive)
REMARK    1  A    between atoms: C2_2  and  C3_3 
REMARK    2  A    between atoms: C3_3  and  C4_4 
REMARK    3  A    between atoms: C4_4  and  C5_5 
REMARK    4  A    between atoms: C5_5  and  C6_6 
REMARK    5  A    between atoms: C6_6  and  O2_8 
REMARK    6  A    between atoms: O2_8  and  C7_9 
REMARK    7  A    between atoms: C18_20  and  C19_21 
REMARK    8  A    between atoms: C19_21  and  C20_22 
REMARK    9  A    between atoms: C20_22  and  C21_23 
REMARK   10  A    between atoms: C23_26  and  O4_27 
REMARK   11  A    between atoms: N1_36  and  O5_38 
ROOT
HETATM    1  C7  UNL     1      -5.684  11.480 -22.809  1.00  0.00     0.132 C 
HETATM    2  C8  UNL     1      -5.295  12.868 -22.297  1.00  0.00     0.034 C 
HETATM    3  C9  UNL     1      -4.333  13.527 -23.218  1.00  0.00     0.016 C 
HETATM    4  C10 UNL     1      -4.953  13.752 -24.588  1.00  0.00    -0.022 C 
HETATM    5  C11 UNL     1      -3.852  13.486 -25.580  1.00  0.00     0.020 C 
HETATM    6  C12 UNL     1      -5.470  15.123 -24.736  1.00  0.00    -0.021 C 
HETATM    7  C13 UNL     1      -6.685  15.422 -25.165  1.00  0.00    -0.025 C 
HETATM    8  C14 UNL     1      -7.678  14.362 -25.552  1.00  0.00     0.017 C 
HETATM    9  C15 UNL     1      -8.694  14.841 -26.432  1.00  0.00     0.042 C 
HETATM   10  C16 UNL     1      -8.694  14.275 -27.836  1.00  0.00    -0.084 C 
HETATM   11  C17 UNL     1      -9.015  15.070 -28.756  1.00  0.00     0.015 C 
HETATM   12  C18 UNL     1      -8.297  12.891 -28.004  1.00  0.00     0.022 C 
HETATM   13  C25 UNL     1      -7.565  12.238 -26.845  1.00  0.00    -0.036 C 
HETATM   14  C26 UNL     1      -8.585  11.507 -26.011  1.00  0.00     0.016 C 
HETATM   15  C27 UNL     1      -6.606  11.255 -27.526  1.00  0.00     0.016 C 
HETATM   16  C28 UNL     1      -6.806  13.168 -25.997  1.00  0.00     0.007 C 
HETATM   17  C29 UNL     1      -6.148  12.786 -24.770  1.00  0.00     0.005 C 
HETATM   18  C30 UNL     1      -5.694  11.472 -24.347  1.00  0.00     0.038 C 
ENDROOT
BRANCH   1  19
HETATM   19  O2  UNL     1      -4.760  10.591 -22.248  1.00  0.00    -0.316 OA
BRANCH  19  20
HETATM   20  C6  UNL     1      -4.311   9.461 -22.887  1.00  0.00     0.259 C 
HETATM   21  O1  UNL     1      -3.312   9.612 -23.663  1.00  0.00    -0.265 OA
BRANCH  20  22
HETATM   22  C5  UNL     1      -4.967   8.167 -22.670  1.00  0.00     0.117 C 
BRANCH  22  23
HETATM   23  C4  UNL     1      -4.508   7.152 -23.668  1.00  0.00     0.069 C 
BRANCH  23  24
HETATM   24  C3  UNL     1      -3.412   6.293 -23.207  1.00  0.00     0.031 C 
HETATM   25  N1  UNL     1      -2.206   6.582 -23.208  1.00  0.00    -0.274 N 
ATOM     26  H1  UNL     1      -1.654   5.791 -22.877  1.00  0.00     0.193 HD
BRANCH  24  27
HETATM   27  C2  UNL     1      -3.778   4.927 -22.753  1.00  0.00     0.017 C 
HETATM   28  C1  UNL     1      -3.043   4.242 -21.934  1.00  0.00     0.013 C 
ENDBRANCH  24  27
BRANCH  25  29
HETATM   29  O5  UNL     1      -1.432   7.576 -23.499  1.00  0.00    -0.290 OA
ATOM     30  H5  UNL     1      -0.647   7.759 -24.003  1.00  0.00     0.244 HD
ENDBRANCH  25  29
ENDBRANCH  23  24
ENDBRANCH  22  23
ENDBRANCH  20  22
ENDBRANCH  19  20
ENDBRANCH   1  19
BRANCH  12  31
HETATM   31  C19 UNL     1      -9.366  12.002 -28.523  1.00  0.00     0.014 C 
BRANCH  31  32
HETATM   32  C20 UNL     1      -9.240  11.487 -29.911  1.00  0.00     0.041 C 
BRANCH  32  33
HETATM   33  C21 UNL     1     -10.080  10.218 -29.999  1.00  0.00    -0.031 A 
HETATM   34  C22 UNL     1      -9.812   9.130 -30.794  1.00  0.00     0.152 A 
HETATM   35  O3  UNL     1     -10.776   8.222 -30.591  1.00  0.00    -0.300 OA
HETATM   36  C23 UNL     1     -11.645   8.640 -29.728  1.00  0.00     0.183 A 
HETATM   37  C24 UNL     1     -11.237   9.906 -29.329  1.00  0.00     0.073 A 
BRANCH  36  38
HETATM   38  O4  UNL     1     -12.768   7.962 -29.283  1.00  0.00    -0.341 OA
ATOM     39  H4  UNL     1     -13.669   8.262 -29.323  1.00  0.00     0.220 HD
ENDBRANCH  36  38
ENDBRANCH  32  33
ENDBRANCH  31  32
ENDBRANCH  12  31
TORSDOF 11
ENDMDL
MODEL 4
REMARK VINA RESULT: -6.532174465      1.967      2.220
REMARK  11 active torsions:
REMARK  status: ('A' for Active; 'I' for Inactive)
REMARK    1  A    between atoms: C2_2  and  C3_3 
REMARK    2  A    between atoms: C3_3  and  C4_4 
REMARK    3  A    between atoms: C4_4  and  C5_5 
REMARK    4  A    between atoms: C5_5  and  C6_6 
REMARK    5  A    between atoms: C6_6  and  O2_8 
REMARK    6  A    between atoms: O2_8  and  C7_9 
REMARK    7  A    between atoms: C18_20  and  C19_21 
REMARK    8  A    between atoms: C19_21  and  C20_22 
REMARK    9  A    between atoms: C20_22  and  C21_23 
REMARK   10  A    between atoms: C23_26  and  O4_27 
REMARK   11  A    between atoms: N1_36  and  O5_38 
ROOT
HETATM    1  C7  UNL     1      -5.846  11.716 -23.004  1.00  0.00     0.132 C 
HETATM    2  C8  UNL     1      -5.530  13.163 -22.623  1.00  0.00     0.034 C 
HETATM    3  C9  UNL     1      -4.823  13.864 -23.727  1.00  0.00     0.016 C 
HETATM    4  C10 UNL     1      -5.694  13.946 -24.969  1.00  0.00    -0.022 C 
HETATM    5  C11 UNL     1      -4.763  13.739 -26.134  1.00  0.00     0.020 C 
HETATM    6  C12 UNL     1      -6.379  15.246 -25.074  1.00  0.00    -0.021 C 
HETATM    7  C13 UNL     1      -7.676  15.394 -25.287  1.00  0.00    -0.025 C 
HETATM    8  C14 UNL     1      -8.597  14.218 -25.449  1.00  0.00     0.017 C 
HETATM    9  C15 UNL     1      -9.799  14.540 -26.149  1.00  0.00     0.042 C 
HETATM   10  C16 UNL     1      -9.981  13.898 -27.507  1.00  0.00    -0.084 C 
HETATM   11  C17 UNL     1     -10.545  14.602 -28.383  1.00  0.00     0.015 C 
HETATM   12  C18 UNL     1      -9.469  12.555 -27.692  1.00  0.00     0.022 C 
HETATM   13  C25 UNL     1      -8.478  12.047 -26.661  1.00  0.00    -0.036 C 
HETATM   14  C26 UNL     1      -9.249  11.264 -25.629  1.00  0.00     0.016 C 
HETATM   15  C27 UNL     1      -7.550  11.130 -27.466  1.00  0.00     0.016 C 
HETATM   16  C28 UNL     1      -7.690  13.097 -25.999  1.00  0.00     0.007 C 
HETATM   17  C29 UNL     1      -6.789  12.854 -24.897  1.00  0.00     0.005 C 
HETATM   18  C30 UNL     1      -6.125  11.619 -24.514  1.00  0.00     0.038 C 
ENDROOT
BRANCH   1  19
HETATM   19  O2  UNL     1      -4.745  10.960 -22.587  1.00  0.00    -0.316 OA
BRANCH  19  20
HETATM   20  C6  UNL     1      -4.368   9.778 -23.178  1.00  0.00     0.259 C 
HETATM   21  O1  UNL     1      -3.351   9.832 -23.943  1.00  0.00    -0.265 OA
BRANCH  20  22
HETATM   22  C5  UNL     1      -5.115   8.542 -22.925  1.00  0.00     0.117 C 
BRANCH  22  23
HETATM   23  C4  UNL     1      -4.668   7.442 -23.835  1.00  0.00     0.069 C 
BRANCH  23  24
HETATM   24  C3  UNL     1      -3.663   6.542 -23.259  1.00  0.00     0.031 C 
HETATM   25  N1  UNL     1      -2.446   6.766 -23.170  1.00  0.00    -0.274 N 
ATOM     26  H1  UNL     1      -1.968   5.958 -22.771  1.00  0.00     0.193 HD
BRANCH  24  27
HETATM   27  C2  UNL     1      -4.141   5.216 -22.795  1.00  0.00     0.017 C 
HETATM   28  C1  UNL     1      -3.392   4.157 -22.814  1.00  0.00     0.013 C 
ENDBRANCH  24  27
BRANCH  25  29
HETATM   29  O5  UNL     1      -1.596   7.706 -23.428  1.00  0.00    -0.290 OA
ATOM     30  H5  UNL     1      -1.443   8.385 -24.074  1.00  0.00     0.244 HD
ENDBRANCH  25  29
ENDBRANCH  23  24
ENDBRANCH  22  23
ENDBRANCH  20  22
ENDBRANCH  19  20
ENDBRANCH   1  19
BRANCH  12  31
HETATM   31  C19 UNL     1     -10.507  11.533 -27.976  1.00  0.00     0.014 C 
BRANCH  31  32
HETATM   32  C20 UNL     1     -10.525  10.904 -29.322  1.00  0.00     0.041 C 
BRANCH  32  33
HETATM   33  C21 UNL     1     -11.529   9.758 -29.272  1.00  0.00    -0.031 A 
HETATM   34  C22 UNL     1     -12.646   9.700 -28.474  1.00  0.00     0.152 A 
HETATM   35  O3  UNL     1     -13.269   8.541 -28.718  1.00  0.00    -0.300 OA
HETATM   36  C23 UNL     1     -12.642   7.845 -29.610  1.00  0.00     0.183 A 
HETATM   37  C24 UNL     1     -11.529   8.585 -29.986  1.00  0.00     0.073 A 
BRANCH  36  38
HETATM   38  O4  UNL     1     -13.004   6.601 -30.101  1.00  0.00    -0.341 OA
ATOM     39  H4  UNL     1     -12.630   6.153 -30.852  1.00  0.00     0.220 HD
ENDBRANCH  36  38
ENDBRANCH  32  33
ENDBRANCH  31  32
ENDBRANCH  12  31
TORSDOF 11
ENDMDL
MODEL 5
REMARK VINA RESULT: -6.513321913      0.675      1.184
REMARK  11 active torsions:
REMARK  status: ('A' for Active; 'I' for Inactive)
REMARK    1  A    between atoms: C2_2  and  C3_3 
REMARK    2  A    between atoms: C3_3  and  C4_4 
REMARK    3  A    between atoms: C4_4  and  C5_5 
REMARK    4  A    between atoms: C5_5  and  C6_6 
REMARK    5  A    between atoms: C6_6  and  O2_8 
REMARK    6  A    between atoms: O2_8  and  C7_9 
REMARK    7  A    between atoms: C18_20  and  C19_21 
REMARK    8  A    between atoms: C19_21  and  C20_22 
REMARK    9  A    between atoms: C20_22  and  C21_23 
REMARK   10  A    between atoms: C23_26  and  O4_27 
REMARK   11  A    between atoms: N1_36  and  O5_38 
ROOT
HETATM    1  C7  UNL     1      -5.653  11.431 -22.890  1.00  0.00     0.132 C 
HETATM    2  C8  UNL     1      -5.250  12.799 -22.338  1.00  0.00     0.034 C 
HETATM    3  C9  UNL     1      -4.300  13.485 -23.252  1.00  0.00     0.016 C 
HETATM    4  C10 UNL     1      -4.941  13.758 -24.603  1.00  0.00    -0.022 C 
HETATM    5  C11 UNL     1      -3.858  13.523 -25.621  1.00  0.00     0.020 C 
HETATM    6  C12 UNL     1      -5.455  15.136 -24.697  1.00  0.00    -0.021 C 
HETATM    7  C13 UNL     1      -6.676  15.453 -25.096  1.00  0.00    -0.025 C 
HETATM    8  C14 UNL     1      -7.678  14.411 -25.502  1.00  0.00     0.017 C 
HETATM    9  C15 UNL     1      -8.707  14.923 -26.349  1.00  0.00     0.042 C 
HETATM   10  C16 UNL     1      -8.731  14.404 -27.771  1.00  0.00    -0.084 C 
HETATM   11  C17 UNL     1      -9.064  15.230 -28.658  1.00  0.00     0.015 C 
HETATM   12  C18 UNL     1      -8.343  13.025 -27.992  1.00  0.00     0.022 C 
HETATM   13  C25 UNL     1      -7.596  12.331 -26.868  1.00  0.00    -0.036 C 
HETATM   14  C26 UNL     1      -8.605  11.576 -26.042  1.00  0.00     0.016 C 
HETATM   15  C27 UNL     1      -6.651  11.368 -27.596  1.00  0.00     0.016 C 
HETATM   16  C28 UNL     1      -6.819  13.229 -26.001  1.00  0.00     0.007 C 
HETATM   17  C29 UNL     1      -6.143  12.804 -24.798  1.00  0.00     0.005 C 
HETATM   18  C30 UNL     1      -5.688  11.474 -24.427  1.00  0.00     0.038 C 
ENDROOT
BRANCH   1  19
HETATM   19  O2  UNL     1      -4.723  10.520 -22.374  1.00  0.00    -0.316 OA
BRANCH  19  20
HETATM   20  C6  UNL     1      -4.934   9.164 -22.331  1.00  0.00     0.259 C 
HETATM   21  O1  UNL     1      -5.701   8.743 -21.404  1.00  0.00    -0.265 OA
BRANCH  20  22
HETATM   22  C5  UNL     1      -4.296   8.274 -23.307  1.00  0.00     0.117 C 
BRANCH  22  23
HETATM   23  C4  UNL     1      -4.708   6.852 -23.097  1.00  0.00     0.069 C 
BRANCH  23  24
HETATM   24  C3  UNL     1      -3.596   5.909 -22.938  1.00  0.00     0.031 C 
HETATM   25  N1  UNL     1      -3.694   4.684 -22.772  1.00  0.00    -0.274 N 
ATOM     26  H1  UNL     1      -2.770   4.271 -22.646  1.00  0.00     0.193 HD
BRANCH  24  27
HETATM   27  C2  UNL     1      -2.229   6.486 -22.914  1.00  0.00     0.017 C 
HETATM   28  C1  UNL     1      -1.199   5.863 -23.395  1.00  0.00     0.013 C 
ENDBRANCH  24  27
BRANCH  25  29
HETATM   29  O5  UNL     1      -4.606   3.768 -22.709  1.00  0.00    -0.290 OA
ATOM     30  H5  UNL     1      -5.550   3.691 -22.639  1.00  0.00     0.244 HD
ENDBRANCH  25  29
ENDBRANCH  23  24
ENDBRANCH  22  23
ENDBRANCH  20  22
ENDBRANCH  19  20
ENDBRANCH   1  19
BRANCH  12  31
HETATM   31  C19 UNL     1      -9.423  12.157 -28.523  1.00  0.00     0.014 C 
BRANCH  31  32
HETATM   32  C20 UNL     1      -9.344  11.724 -29.942  1.00  0.00     0.041 C 
BRANCH  32  33
HETATM   33  C21 UNL     1     -10.050  10.377 -30.043  1.00  0.00    -0.031 A 
HETATM   34  C22 UNL     1      -9.623   9.298 -30.778  1.00  0.00     0.152 A 
HETATM   35  O3  UNL     1     -10.508   8.307 -30.611  1.00  0.00    -0.300 OA
HETATM   36  C23 UNL     1     -11.472   8.662 -29.824  1.00  0.00     0.183 A 
HETATM   37  C24 UNL     1     -11.217   9.973 -29.443  1.00  0.00     0.073 A 
BRANCH  36  38
HETATM   38  O4  UNL     1     -12.555   7.890 -29.433  1.00  0.00    -0.341 OA
ATOM     39  H4  UNL     1     -13.272   8.157 -28.871  1.00  0.00     0.220 HD
ENDBRANCH  36  38
ENDBRANCH  32  33
ENDBRANCH  31  32
ENDBRANCH  12  31
TORSDOF 11
ENDMDL
