MODEL 1
REMARK VINA RESULT: -6.948428521      0.000      0.000
REMARK  11 active torsions:
REMARK  status: ('A' for Active; 'I' for Inactive)
REMARK    1  A    between atoms: C2_2  and  C3_3 
REMARK    2  A    between atoms: C3_3  and  N1_4 
REMARK    3  A    between atoms: N1_4  and  C4_6 
REMARK    4  A    between atoms: C5_9  and  C6_10 
REMARK    5  A    between atoms: C6_10  and  N3_11 
REMARK    6  A    between atoms: N4_14  and  C9_15 
REMARK    7  A    between atoms: C9_15  and  C10_16 
REMARK    8  A    between atoms: C10_16  and  C11_17 
REMARK    9  A    between atoms: C11_17  and  C12_18 
REMARK   10  A    between atoms: C12_18  and  O1_19 
REMARK   11  A    between atoms: N5_21  and  O2_23 
ROOT
HETATM    1  N3  UNL     1       7.218  14.109  23.726  1.00  0.00     0.097 N 
HETATM    2  C7  UNL     1       7.195  12.780  24.255  1.00  0.00     0.292 C 
HETATM    3  C8  UNL     1       8.533  12.050  24.081  1.00  0.00     0.147 C 
HETATM    4  N4  UNL     1       9.645  12.841  24.459  1.00  0.00    -0.409 N 
HETATM    5  C13 UNL     1       9.662  14.140  23.861  1.00  0.00     0.147 C 
HETATM    6  C14 UNL     1       8.436  14.361  22.991  1.00  0.00     0.292 C 
ENDROOT
BRANCH   1   7
HETATM    7  C6  UNL     1       6.127  14.325  22.798  1.00  0.00     0.330 C 
BRANCH   7   8
HETATM    8  C5  UNL     1       5.331  15.548  23.204  1.00  0.00     0.046 A 
HETATM    9  N2  UNL     1       4.966  15.781  24.434  1.00  0.00    -0.338 N 
HETATM   10  C4  UNL     1       4.266  16.881  24.694  1.00  0.00     0.144 A 
ATOM     11  H2  UNL     1       5.213  15.133  25.181  1.00  0.00     0.168 HD
HETATM   12  S1  UNL     1       4.112  17.614  23.163  1.00  0.00    -0.064 SA
HETATM   13  C15 UNL     1       4.969  16.455  22.246  1.00  0.00     0.080 A 
BRANCH  10  14
HETATM   14  N1  UNL     1       3.794  17.318  25.835  1.00  0.00    -0.370 N 
ATOM     15  H1  UNL     1       4.407  17.444  26.640  1.00  0.00     0.161 HD
BRANCH  14  16
HETATM   16  C3  UNL     1       2.381  17.619  25.922  1.00  0.00     0.121 C 
BRANCH  16  17
HETATM   17  C2  UNL     1       2.154  19.101  26.175  1.00  0.00     0.015 C 
HETATM   18  C1  UNL     1       2.257  19.899  24.900  1.00  0.00     0.006 C 
ENDBRANCH  16  17
ENDBRANCH  14  16
ENDBRANCH  10  14
ENDBRANCH   7   8
ENDBRANCH   1   7
BRANCH   4  19
HETATM   19  C9  UNL     1       9.961  12.779  25.840  1.00  0.00     0.117 C 
BRANCH  19  20
HETATM   20  C10 UNL     1       9.859  14.121  26.515  1.00  0.00     0.027 C 
BRANCH  20  21
HETATM   21  C11 UNL     1       8.648  14.152  27.420  1.00  0.00     0.087 C 
BRANCH  21  22
HETATM   22  C12 UNL     1       8.452  15.560  27.840  1.00  0.00     0.135 C 
HETATM   23  N5  UNL     1       7.353  16.140  27.557  1.00  0.00    -0.251 N 
ATOM     24  H5  UNL     1       7.217  17.109  27.846  1.00  0.00     0.196 HD
BRANCH  22  25
HETATM   25  O1  UNL     1       9.475  16.189  28.526  1.00  0.00    -0.348 OA
ATOM     26  H1  UNL     1      10.211  16.526  28.028  1.00  0.00     0.219 HD
ENDBRANCH  22  25
BRANCH  23  27
HETATM   27  O2  UNL     1       6.354  15.510  26.881  1.00  0.00    -0.288 OA
ATOM     28  H2  UNL     1       5.544  15.948  26.651  1.00  0.00     0.244 HD
ENDBRANCH  23  27
ENDBRANCH  21  22
ENDBRANCH  20  21
ENDBRANCH  19  20
ENDBRANCH   4  19
TORSDOF 11
ENDMDL
MODEL 2
REMARK VINA RESULT: -6.886819852      3.655      7.385
REMARK  11 active torsions:
REMARK  status: ('A' for Active; 'I' for Inactive)
REMARK    1  A    between atoms: C2_2  and  C3_3 
REMARK    2  A    between atoms: C3_3  and  N1_4 
REMARK    3  A    between atoms: N1_4  and  C4_6 
REMARK    4  A    between atoms: C5_9  and  C6_10 
REMARK    5  A    between atoms: C6_10  and  N3_11 
REMARK    6  A    between atoms: N4_14  and  C9_15 
REMARK    7  A    between atoms: C9_15  and  C10_16 
REMARK    8  A    between atoms: C10_16  and  C11_17 
REMARK    9  A    between atoms: C11_17  and  C12_18 
REMARK   10  A    between atoms: C12_18  and  O1_19 
REMARK   11  A    between atoms: N5_21  and  O2_23 
ROOT
HETATM    1  N3  UNL     1       7.202  14.948  23.793  1.00  0.00     0.097 N 
HETATM    2  C7  UNL     1       6.049  14.487  23.082  1.00  0.00     0.292 C 
HETATM    3  C8  UNL     1       4.734  14.955  23.718  1.00  0.00     0.147 C 
HETATM    4  N4  UNL     1       4.740  16.332  24.045  1.00  0.00    -0.409 N 
HETATM    5  C13 UNL     1       5.879  16.741  24.809  1.00  0.00     0.147 C 
HETATM    6  C14 UNL     1       6.832  15.580  25.039  1.00  0.00     0.292 C 
ENDROOT
BRANCH   1   7
HETATM    7  C6  UNL     1       8.083  13.850  24.135  1.00  0.00     0.330 C 
BRANCH   7   8
HETATM    8  C5  UNL     1       9.172  13.712  23.091  1.00  0.00     0.046 A 
HETATM    9  N2  UNL     1       8.963  13.898  21.818  1.00  0.00    -0.338 N 
HETATM   10  C4  UNL     1       9.982  13.750  20.976  1.00  0.00     0.144 A 
ATOM     11  H2  UNL     1       8.037  14.151  21.475  1.00  0.00     0.168 HD
HETATM   12  S1  UNL     1      11.277  13.337  22.002  1.00  0.00    -0.064 SA
HETATM   13  C15 UNL     1      10.437  13.374  23.490  1.00  0.00     0.080 A 
BRANCH  10  14
HETATM   14  N1  UNL     1      10.012  13.882  19.673  1.00  0.00    -0.370 N 
ATOM     15  H1  UNL     1       9.163  13.777  19.117  1.00  0.00     0.161 HD
BRANCH  14  16
HETATM   16  C3  UNL     1      11.279  14.179  19.043  1.00  0.00     0.121 C 
BRANCH  16  17
HETATM   17  C2  UNL     1      11.340  15.632  18.599  1.00  0.00     0.015 C 
HETATM   18  C1  UNL     1      12.187  15.795  17.364  1.00  0.00     0.006 C 
ENDBRANCH  16  17
ENDBRANCH  14  16
ENDBRANCH  10  14
ENDBRANCH   7   8
ENDBRANCH   1   7
BRANCH   4  19
HETATM   19  C9  UNL     1       4.357  17.186  22.981  1.00  0.00     0.117 C 
BRANCH  19  20
HETATM   20  C10 UNL     1       3.391  18.254  23.419  1.00  0.00     0.027 C 
BRANCH  20  21
HETATM   21  C11 UNL     1       2.620  17.786  24.634  1.00  0.00     0.087 C 
BRANCH  21  22
HETATM   22  C12 UNL     1       2.236  18.995  25.401  1.00  0.00     0.135 C 
HETATM   23  N5  UNL     1       1.867  18.862  26.614  1.00  0.00    -0.251 N 
ATOM     24  H5  UNL     1       1.603  19.694  27.143  1.00  0.00     0.196 HD
BRANCH  22  25
HETATM   25  O1  UNL     1       2.294  20.222  24.766  1.00  0.00    -0.348 OA
ATOM     26  H1  UNL     1       1.479  20.628  24.494  1.00  0.00     0.219 HD
ENDBRANCH  22  25
BRANCH  23  27
HETATM   27  O2  UNL     1       1.813  17.650  27.227  1.00  0.00    -0.288 OA
ATOM     28  H2  UNL     1       1.105  17.035  27.073  1.00  0.00     0.244 HD
ENDBRANCH  23  27
ENDBRANCH  21  22
ENDBRANCH  20  21
ENDBRANCH  19  20
ENDBRANCH   4  19
TORSDOF 11
ENDMDL
MODEL 3
REMARK VINA RESULT: -6.821891419      1.443      1.623
REMARK  11 active torsions:
REMARK  status: ('A' for Active; 'I' for Inactive)
REMARK    1  A    between atoms: C2_2  and  C3_3 
REMARK    2  A    between atoms: C3_3  and  N1_4 
REMARK    3  A    between atoms: N1_4  and  C4_6 
REMARK    4  A    between atoms: C5_9  and  C6_10 
REMARK    5  A    between atoms: C6_10  and  N3_11 
REMARK    6  A    between atoms: N4_14  and  C9_15 
REMARK    7  A    between atoms: C9_15  and  C10_16 
REMARK    8  A    between atoms: C10_16  and  C11_17 
REMARK    9  A    between atoms: C11_17  and  C12_18 
REMARK   10  A    between atoms: C12_18  and  O1_19 
REMARK   11  A    between atoms: N5_21  and  O2_23 
ROOT
HETATM    1  N3  UNL     1       7.728  13.822  23.334  1.00  0.00     0.097 N 
HETATM    2  C7  UNL     1       7.564  12.444  23.682  1.00  0.00     0.292 C 
HETATM    3  C8  UNL     1       8.721  11.566  23.188  1.00  0.00     0.147 C 
HETATM    4  N4  UNL     1       9.992  12.121  23.469  1.00  0.00    -0.409 N 
HETATM    5  C13 UNL     1      10.136  13.481  23.050  1.00  0.00     0.147 C 
HETATM    6  C14 UNL     1       8.848  14.008  22.440  1.00  0.00     0.292 C 
ENDROOT
BRANCH   1   7
HETATM    7  C6  UNL     1       6.562  14.332  22.643  1.00  0.00     0.330 C 
BRANCH   7   8
HETATM    8  C5  UNL     1       5.901  15.418  23.467  1.00  0.00     0.046 A 
HETATM    9  N2  UNL     1       4.864  16.091  23.055  1.00  0.00    -0.338 N 
HETATM   10  C4  UNL     1       4.355  17.028  23.849  1.00  0.00     0.144 A 
ATOM     11  H2  UNL     1       4.452  15.902  22.142  1.00  0.00     0.168 HD
HETATM   12  S1  UNL     1       5.364  16.966  25.220  1.00  0.00    -0.064 SA
HETATM   13  C15 UNL     1       6.410  15.718  24.702  1.00  0.00     0.080 A 
BRANCH  10  14
HETATM   14  N1  UNL     1       3.332  17.822  23.651  1.00  0.00    -0.370 N 
ATOM     15  H1  UNL     1       3.099  18.151  22.714  1.00  0.00     0.161 HD
BRANCH  14  16
HETATM   16  C3  UNL     1       2.541  18.219  24.796  1.00  0.00     0.121 C 
BRANCH  16  17
HETATM   17  C2  UNL     1       2.588  19.725  24.995  1.00  0.00     0.015 C 
HETATM   18  C1  UNL     1       2.904  20.441  23.707  1.00  0.00     0.006 C 
ENDBRANCH  16  17
ENDBRANCH  14  16
ENDBRANCH  10  14
ENDBRANCH   7   8
ENDBRANCH   1   7
BRANCH   4  19
HETATM   19  C9  UNL     1      10.496  11.801  24.755  1.00  0.00     0.117 C 
BRANCH  19  20
HETATM   20  C10 UNL     1      10.713  13.022  25.609  1.00  0.00     0.027 C 
BRANCH  20  21
HETATM   21  C11 UNL     1       9.626  13.118  26.657  1.00  0.00     0.087 C 
BRANCH  21  22
HETATM   22  C12 UNL     1       9.612  14.518  27.145  1.00  0.00     0.135 C 
HETATM   23  N5  UNL     1       8.687  14.882  27.943  1.00  0.00    -0.251 N 
ATOM     24  H5  UNL     1       8.677  15.845  28.280  1.00  0.00     0.196 HD
BRANCH  22  25
HETATM   25  O1  UNL     1      10.607  15.375  26.713  1.00  0.00    -0.348 OA
ATOM     26  H1  UNL     1      11.197  15.744  27.360  1.00  0.00     0.219 HD
ENDBRANCH  22  25
BRANCH  23  27
HETATM   27  O2  UNL     1       7.713  14.029  28.361  1.00  0.00    -0.288 OA
ATOM     28  H2  UNL     1       7.335  14.078  29.231  1.00  0.00     0.244 HD
ENDBRANCH  23  27
ENDBRANCH  21  22
ENDBRANCH  20  21
ENDBRANCH  19  20
ENDBRANCH   4  19
TORSDOF 11
ENDMDL
MODEL 4
REMARK VINA RESULT: -6.807186395      3.349      4.593
REMARK  11 active torsions:
REMARK  status: ('A' for Active; 'I' for Inactive)
REMARK    1  A    between atoms: C2_2  and  C3_3 
REMARK    2  A    between atoms: C3_3  and  N1_4 
REMARK    3  A    between atoms: N1_4  and  C4_6 
REMARK    4  A    between atoms: C5_9  and  C6_10 
REMARK    5  A    between atoms: C6_10  and  N3_11 
REMARK    6  A    between atoms: N4_14  and  C9_15 
REMARK    7  A    between atoms: C9_15  and  C10_16 
REMARK    8  A    between atoms: C10_16  and  C11_17 
REMARK    9  A    between atoms: C11_17  and  C12_18 
REMARK   10  A    between atoms: C12_18  and  O1_19 
REMARK   11  A    between atoms: N5_21  and  O2_23 
ROOT
HETATM    1  N3  UNL     1       7.841  13.810  23.725  1.00  0.00     0.097 N 
HETATM    2  C7  UNL     1       9.048  14.479  24.101  1.00  0.00     0.292 C 
HETATM    3  C8  UNL     1      10.267  13.548  24.099  1.00  0.00     0.147 C 
HETATM    4  N4  UNL     1      10.348  12.749  22.933  1.00  0.00    -0.409 N 
HETATM    5  C13 UNL     1       9.139  12.049  22.626  1.00  0.00     0.147 C 
HETATM    6  C14 UNL     1       8.042  12.383  23.623  1.00  0.00     0.292 C 
ENDROOT
BRANCH   1   7
HETATM    7  C6  UNL     1       6.800  14.008  24.713  1.00  0.00     0.330 C 
BRANCH   7   8
HETATM    8  C5  UNL     1       5.908  15.163  24.305  1.00  0.00     0.046 A 
HETATM    9  N2  UNL     1       5.471  16.054  25.149  1.00  0.00    -0.338 N 
HETATM   10  C4  UNL     1       4.689  17.031  24.697  1.00  0.00     0.144 A 
ATOM     11  H2  UNL     1       5.724  16.004  26.135  1.00  0.00     0.168 HD
HETATM   12  S1  UNL     1       4.561  16.688  23.033  1.00  0.00    -0.064 SA
HETATM   13  C15 UNL     1       5.534  15.283  22.994  1.00  0.00     0.080 A 
BRANCH  10  14
HETATM   14  N1  UNL     1       4.137  18.024  25.348  1.00  0.00    -0.370 N 
ATOM     15  H1  UNL     1       4.708  18.689  25.870  1.00  0.00     0.161 HD
BRANCH  14  16
HETATM   16  C3  UNL     1       2.696  18.154  25.307  1.00  0.00     0.121 C 
BRANCH  16  17
HETATM   17  C2  UNL     1       2.285  19.598  25.071  1.00  0.00     0.015 C 
HETATM   18  C1  UNL     1       2.996  20.185  23.879  1.00  0.00     0.006 C 
ENDBRANCH  16  17
ENDBRANCH  14  16
ENDBRANCH  10  14
ENDBRANCH   7   8
ENDBRANCH   1   7
BRANCH   4  19
HETATM   19  C9  UNL     1      11.009  13.372  21.845  1.00  0.00     0.117 C 
BRANCH  19  20
HETATM   20  C10 UNL     1      10.124  13.505  20.634  1.00  0.00     0.027 C 
BRANCH  20  21
HETATM   21  C11 UNL     1      10.763  14.438  19.628  1.00  0.00     0.087 C 
BRANCH  21  22
HETATM   22  C12 UNL     1       9.948  15.676  19.600  1.00  0.00     0.135 C 
HETATM   23  N5  UNL     1      10.259  16.599  18.779  1.00  0.00    -0.251 N 
ATOM     24  H5  UNL     1       9.698  17.451  18.758  1.00  0.00     0.196 HD
BRANCH  22  25
HETATM   25  O1  UNL     1       8.879  15.778  20.471  1.00  0.00    -0.348 OA
ATOM     26  H1  UNL     1       8.191  16.403  20.271  1.00  0.00     0.219 HD
ENDBRANCH  22  25
BRANCH  23  27
HETATM   27  O2  UNL     1      11.314  16.487  17.927  1.00  0.00    -0.288 OA
ATOM     28  H2  UNL     1      11.463  17.105  17.222  1.00  0.00     0.244 HD
ENDBRANCH  23  27
ENDBRANCH  21  22
ENDBRANCH  20  21
ENDBRANCH  19  20
ENDBRANCH   4  19
TORSDOF 11
ENDMDL
MODEL 5
REMARK VINA RESULT: -6.761858976      2.154      3.572
REMARK  11 active torsions:
REMARK  status: ('A' for Active; 'I' for Inactive)
REMARK    1  A    between atoms: C2_2  and  C3_3 
REMARK    2  A    between atoms: C3_3  and  N1_4 
REMARK    3  A    between atoms: N1_4  and  C4_6 
REMARK    4  A    between atoms: C5_9  and  C6_10 
REMARK    5  A    between atoms: C6_10  and  N3_11 
REMARK    6  A    between atoms: N4_14  and  C9_15 
REMARK    7  A    between atoms: C9_15  and  C10_16 
REMARK    8  A    between atoms: C10_16  and  C11_17 
REMARK    9  A    between atoms: C11_17  and  C12_18 
REMARK   10  A    between atoms: C12_18  and  O1_19 
REMARK   11  A    between atoms: N5_21  and  O2_23 
ROOT
HETATM    1  N3  UNL     1       7.460  15.096  26.101  1.00  0.00     0.097 N 
HETATM    2  C7  UNL     1       8.867  15.279  25.911  1.00  0.00     0.292 C 
HETATM    3  C8  UNL     1       9.707  14.253  26.682  1.00  0.00     0.147 C 
HETATM    4  N4  UNL     1       9.236  12.927  26.526  1.00  0.00    -0.409 N 
HETATM    5  C13 UNL     1       7.837  12.775  26.783  1.00  0.00     0.147 C 
HETATM    6  C14 UNL     1       7.192  14.109  27.121  1.00  0.00     0.292 C 
ENDROOT
BRANCH   1   7
HETATM    7  C6  UNL     1       6.824  16.321  26.538  1.00  0.00     0.330 C 
BRANCH   7   8
HETATM    8  C5  UNL     1       5.610  16.613  25.680  1.00  0.00     0.046 A 
HETATM    9  N2  UNL     1       4.526  17.166  26.148  1.00  0.00    -0.338 N 
HETATM   10  C4  UNL     1       3.510  17.380  25.317  1.00  0.00     0.144 A 
ATOM     11  H2  UNL     1       4.460  17.428  27.131  1.00  0.00     0.168 HD
HETATM   12  S1  UNL     1       4.091  16.786  23.830  1.00  0.00    -0.064 SA
HETATM   13  C15 UNL     1       5.639  16.283  24.352  1.00  0.00     0.080 A 
BRANCH  10  14
HETATM   14  N1  UNL     1       2.337  17.912  25.556  1.00  0.00    -0.370 N 
ATOM     15  H1  UNL     1       1.504  17.328  25.637  1.00  0.00     0.161 HD
BRANCH  14  16
HETATM   16  C3  UNL     1       2.253  19.349  25.703  1.00  0.00     0.121 C 
BRANCH  16  17
HETATM   17  C2  UNL     1       3.373  20.041  24.943  1.00  0.00     0.015 C 
HETATM   18  C1  UNL     1       2.900  20.545  23.604  1.00  0.00     0.006 C 
ENDBRANCH  16  17
ENDBRANCH  14  16
ENDBRANCH  10  14
ENDBRANCH   7   8
ENDBRANCH   1   7
BRANCH   4  19
HETATM   19  C9  UNL     1       9.742  12.260  25.381  1.00  0.00     0.117 C 
BRANCH  19  20
HETATM   20  C10 UNL     1       8.651  11.823  24.441  1.00  0.00     0.027 C 
BRANCH  20  21
HETATM   21  C11 UNL     1       8.832  12.491  23.095  1.00  0.00     0.087 C 
BRANCH  21  22
HETATM   22  C12 UNL     1       7.673  13.393  22.896  1.00  0.00     0.135 C 
HETATM   23  N5  UNL     1       7.810  14.415  22.146  1.00  0.00    -0.251 N 
ATOM     24  H5  UNL     1       7.012  15.036  22.008  1.00  0.00     0.196 HD
BRANCH  22  25
HETATM   25  O1  UNL     1       6.485  13.087  23.534  1.00  0.00    -0.348 OA
ATOM     26  H1  UNL     1       5.671  13.216  23.059  1.00  0.00     0.219 HD
ENDBRANCH  22  25
BRANCH  23  27
HETATM   27  O2  UNL     1       8.984  14.705  21.524  1.00  0.00    -0.288 OA
ATOM     28  H2  UNL     1       9.129  14.522  20.604  1.00  0.00     0.244 HD
ENDBRANCH  23  27
ENDBRANCH  21  22
ENDBRANCH  20  21
ENDBRANCH  19  20
ENDBRANCH   4  19
TORSDOF 11
ENDMDL
