MODEL 1
REMARK VINA RESULT: -7.834364778      0.000      0.000
REMARK  10 active torsions:
REMARK  status: ('A' for Active; 'I' for Inactive)
REMARK    1  A    between atoms: O1_1  and  C1_3 
REMARK    2  A    between atoms: C4_6  and  C5_7 
REMARK    3  A    between atoms: C5_7  and  C6_8 
REMARK    4  A    between atoms: C6_8  and  C7_9 
REMARK    5  A    between atoms: C6_8  and  N3_27 
REMARK    6  A    between atoms: C7_9  and  O2_10 
REMARK    7  A    between atoms: C7_9  and  C8_12 
REMARK    8  A    between atoms: C8_12  and  N1_13 
REMARK    9  A    between atoms: N1_13  and  C9_15 
REMARK   10  A    between atoms: C12_18  and  N2_19 
ROOT
HETATM    1  C7  UNL     1       3.479   9.103  24.441  1.00  0.00     0.169 C 
ENDROOT
BRANCH   1   2
HETATM    2  C6  UNL     1       4.213   7.785  24.540  1.00  0.00     0.257 C 
BRANCH   2   3
HETATM    3  C5  UNL     1       5.042   7.508  23.355  1.00  0.00     0.077 C 
BRANCH   3   4
HETATM    4  C4  UNL     1       4.606   6.508  22.394  1.00  0.00    -0.056 A 
HETATM    5  C3  UNL     1       3.790   5.436  22.694  1.00  0.00     0.010 A 
HETATM    6  C2  UNL     1       3.418   4.464  21.799  1.00  0.00     0.037 A 
HETATM    7  C1  UNL     1       3.895   4.565  20.491  1.00  0.00     0.065 A 
HETATM    8  C25 UNL     1       4.703   5.617  20.174  1.00  0.00     0.037 A 
HETATM    9  C24 UNL     1       5.069   6.581  21.079  1.00  0.00     0.010 A 
BRANCH   7  10
HETATM   10  O1  UNL     1       3.546   3.609  19.552  1.00  0.00    -0.361 OA
ATOM     11  H1  UNL     1       2.690   3.637  19.141  1.00  0.00     0.217 HD
ENDBRANCH   7  10
ENDBRANCH   3   4
ENDBRANCH   2   3
BRANCH   2  12
HETATM   12  N3  UNL     1       5.012   7.801  25.782  1.00  0.00     0.096 N 
HETATM   13  C20 UNL     1       5.560   9.084  26.087  1.00  0.00     0.273 C 
HETATM   14  C21 UNL     1       6.784   8.829  26.949  1.00  0.00     0.032 C 
HETATM   15  C22 UNL     1       7.255   7.483  26.522  1.00  0.00     0.032 C 
HETATM   16  C23 UNL     1       6.190   6.998  25.568  1.00  0.00     0.273 C 
ENDBRANCH   2  12
ENDBRANCH   1   2
BRANCH   1  17
HETATM   17  O2  UNL     1       2.209   9.052  24.999  1.00  0.00    -0.392 OA
ATOM     18  H2  UNL     1       1.539   8.820  24.366  1.00  0.00     0.210 HD
ENDBRANCH   1  17
BRANCH   1  19
HETATM   19  C8  UNL     1       3.374   9.610  23.040  1.00  0.00     0.148 C 
BRANCH  19  20
HETATM   20  N1  UNL     1       3.981  10.886  22.887  1.00  0.00    -0.415 N 
ATOM     21  H1  UNL     1       4.208  11.469  23.692  1.00  0.00     0.153 HD
BRANCH  20  22
HETATM   22  C9  UNL     1       4.258  11.312  21.557  1.00  0.00     0.076 C 
HETATM   23  C10 UNL     1       4.865  10.197  20.718  1.00  0.00     0.027 C 
HETATM   24  C11 UNL     1       6.342  10.112  21.079  1.00  0.00     0.028 C 
HETATM   25  C12 UNL     1       7.051  11.354  20.660  1.00  0.00     0.088 C 
HETATM   26  C18 UNL     1       6.068  12.479  20.364  1.00  0.00     0.028 C 
HETATM   27  C19 UNL     1       5.163  12.542  21.592  1.00  0.00     0.027 C 
BRANCH  25  28
HETATM   28  N2  UNL     1       8.008  11.207  19.629  1.00  0.00    -0.369 N 
HETATM   29  C13 UNL     1       8.260  12.300  18.782  1.00  0.00     0.063 C 
HETATM   30  C14 UNL     1       9.142  11.895  17.636  1.00  0.00     0.045 C 
HETATM   31  C15 UNL     1       8.408  10.795  16.884  1.00  0.00     0.010 C 
HETATM   32  C16 UNL     1       8.171   9.595  17.776  1.00  0.00     0.045 C 
HETATM   33  C17 UNL     1       8.377   9.912  19.232  1.00  0.00     0.063 C 
ENDBRANCH  25  28
ENDBRANCH  20  22
ENDBRANCH  19  20
ENDBRANCH   1  19
TORSDOF 10
ENDMDL
MODEL 2
REMARK VINA RESULT: -7.478589369      3.363      7.612
REMARK  10 active torsions:
REMARK  status: ('A' for Active; 'I' for Inactive)
REMARK    1  A    between atoms: O1_1  and  C1_3 
REMARK    2  A    between atoms: C4_6  and  C5_7 
REMARK    3  A    between atoms: C5_7  and  C6_8 
REMARK    4  A    between atoms: C6_8  and  C7_9 
REMARK    5  A    between atoms: C6_8  and  N3_27 
REMARK    6  A    between atoms: C7_9  and  O2_10 
REMARK    7  A    between atoms: C7_9  and  C8_12 
REMARK    8  A    between atoms: C8_12  and  N1_13 
REMARK    9  A    between atoms: N1_13  and  C9_15 
REMARK   10  A    between atoms: C12_18  and  N2_19 
ROOT
HETATM    1  C7  UNL     1       4.887  10.913  21.345  1.00  0.00     0.169 C 
ENDROOT
BRANCH   1   2
HETATM    2  C6  UNL     1       5.446   9.752  20.555  1.00  0.00     0.257 C 
BRANCH   2   3
HETATM    3  C5  UNL     1       6.917   9.704  20.582  1.00  0.00     0.077 C 
BRANCH   3   4
HETATM    4  C4  UNL     1       7.672  10.223  19.453  1.00  0.00    -0.056 A 
HETATM    5  C3  UNL     1       8.074  11.537  19.317  1.00  0.00     0.010 A 
HETATM    6  C2  UNL     1       8.742  12.039  18.230  1.00  0.00     0.037 A 
HETATM    7  C1  UNL     1       9.041  11.163  17.185  1.00  0.00     0.065 A 
HETATM    8  C25 UNL     1       8.651   9.860  17.299  1.00  0.00     0.037 A 
HETATM    9  C24 UNL     1       7.982   9.371  18.392  1.00  0.00     0.010 A 
BRANCH   7  10
HETATM   10  O1  UNL     1       9.716  11.623  16.066  1.00  0.00    -0.361 OA
ATOM     11  H1  UNL     1      10.278  11.036  15.575  1.00  0.00     0.217 HD
ENDBRANCH   7  10
ENDBRANCH   3   4
ENDBRANCH   2   3
BRANCH   2  12
HETATM   12  N3  UNL     1       4.842   8.511  21.080  1.00  0.00     0.096 N 
HETATM   13  C20 UNL     1       5.570   7.944  22.170  1.00  0.00     0.273 C 
HETATM   14  C21 UNL     1       5.237   6.462  22.178  1.00  0.00     0.032 C 
HETATM   15  C22 UNL     1       4.928   6.151  20.755  1.00  0.00     0.032 C 
HETATM   16  C23 UNL     1       4.952   7.493  20.064  1.00  0.00     0.273 C 
ENDBRANCH   2  12
ENDBRANCH   1   2
BRANCH   1  17
HETATM   17  O2  UNL     1       4.408  11.932  20.534  1.00  0.00    -0.392 OA
ATOM     18  H2  UNL     1       4.920  12.044  19.742  1.00  0.00     0.210 HD
ENDBRANCH   1  17
BRANCH   1  19
HETATM   19  C8  UNL     1       5.867  11.486  22.315  1.00  0.00     0.148 C 
BRANCH  19  20
HETATM   20  N1  UNL     1       5.233  12.279  23.310  1.00  0.00    -0.415 N 
ATOM     21  H1  UNL     1       5.325  13.294  23.322  1.00  0.00     0.153 HD
BRANCH  20  22
HETATM   22  C9  UNL     1       4.463  11.588  24.289  1.00  0.00     0.076 C 
HETATM   23  C10 UNL     1       3.893  12.534  25.335  1.00  0.00     0.027 C 
HETATM   24  C11 UNL     1       5.010  12.844  26.323  1.00  0.00     0.028 C 
HETATM   25  C12 UNL     1       5.398  11.614  27.070  1.00  0.00     0.088 C 
HETATM   26  C18 UNL     1       4.872  10.361  26.385  1.00  0.00     0.028 C 
HETATM   27  C19 UNL     1       5.316  10.494  24.930  1.00  0.00     0.027 C 
BRANCH  25  28
HETATM   28  N2  UNL     1       5.117  11.614  28.456  1.00  0.00    -0.369 N 
HETATM   29  C13 UNL     1       5.565  12.696  29.235  1.00  0.00     0.063 C 
HETATM   30  C14 UNL     1       5.357  12.423  30.696  1.00  0.00     0.045 C 
HETATM   31  C15 UNL     1       6.147  11.165  31.026  1.00  0.00     0.010 C 
HETATM   32  C16 UNL     1       5.642   9.984  30.224  1.00  0.00     0.045 C 
HETATM   33  C17 UNL     1       4.769  10.403  29.074  1.00  0.00     0.063 C 
ENDBRANCH  25  28
ENDBRANCH  20  22
ENDBRANCH  19  20
ENDBRANCH   1  19
TORSDOF 10
ENDMDL
MODEL 3
REMARK VINA RESULT: -7.468581793      2.682      7.109
REMARK  10 active torsions:
REMARK  status: ('A' for Active; 'I' for Inactive)
REMARK    1  A    between atoms: O1_1  and  C1_3 
REMARK    2  A    between atoms: C4_6  and  C5_7 
REMARK    3  A    between atoms: C5_7  and  C6_8 
REMARK    4  A    between atoms: C6_8  and  C7_9 
REMARK    5  A    between atoms: C6_8  and  N3_27 
REMARK    6  A    between atoms: C7_9  and  O2_10 
REMARK    7  A    between atoms: C7_9  and  C8_12 
REMARK    8  A    between atoms: C8_12  and  N1_13 
REMARK    9  A    between atoms: N1_13  and  C9_15 
REMARK   10  A    between atoms: C12_18  and  N2_19 
ROOT
HETATM    1  C7  UNL     1       5.584  11.796  21.311  1.00  0.00     0.169 C 
ENDROOT
BRANCH   1   2
HETATM    2  C6  UNL     1       5.905  10.543  20.529  1.00  0.00     0.257 C 
BRANCH   2   3
HETATM    3  C5  UNL     1       7.353  10.334  20.363  1.00  0.00     0.077 C 
BRANCH   3   4
HETATM    4  C4  UNL     1       8.000  10.753  19.130  1.00  0.00    -0.056 A 
HETATM    5  C3  UNL     1       8.387  12.048  18.849  1.00  0.00     0.010 A 
HETATM    6  C2  UNL     1       8.952  12.454  17.666  1.00  0.00     0.037 A 
HETATM    7  C1  UNL     1       9.154  11.491  16.675  1.00  0.00     0.065 A 
HETATM    8  C25 UNL     1       8.778  10.205  16.933  1.00  0.00     0.037 A 
HETATM    9  C24 UNL     1       8.212   9.813  18.120  1.00  0.00     0.010 A 
BRANCH   7  10
HETATM   10  O1  UNL     1       9.723  11.853  15.465  1.00  0.00    -0.361 OA
ATOM     11  H1  UNL     1       9.331  11.561  14.650  1.00  0.00     0.217 HD
ENDBRANCH   7  10
ENDBRANCH   3   4
ENDBRANCH   2   3
BRANCH   2  12
HETATM   12  N3  UNL     1       5.257   9.403  21.207  1.00  0.00     0.096 N 
HETATM   13  C20 UNL     1       6.171   8.581  21.934  1.00  0.00     0.273 C 
HETATM   14  C21 UNL     1       5.529   7.208  22.025  1.00  0.00     0.032 C 
HETATM   15  C22 UNL     1       4.671   7.127  20.811  1.00  0.00     0.032 C 
HETATM   16  C23 UNL     1       4.759   8.503  20.196  1.00  0.00     0.273 C 
ENDBRANCH   2  12
ENDBRANCH   1   2
BRANCH   1  17
HETATM   17  O2  UNL     1       6.561  12.111  22.244  1.00  0.00    -0.392 OA
ATOM     18  H2  UNL     1       6.226  12.137  23.133  1.00  0.00     0.210 HD
ENDBRANCH   1  17
BRANCH   1  19
HETATM   19  C8  UNL     1       4.259  11.733  21.999  1.00  0.00     0.148 C 
BRANCH  19  20
HETATM   20  N1  UNL     1       4.272  12.415  23.246  1.00  0.00    -0.415 N 
ATOM     21  H1  UNL     1       4.702  13.333  23.348  1.00  0.00     0.153 HD
BRANCH  20  22
HETATM   22  C9  UNL     1       3.655  11.754  24.347  1.00  0.00     0.076 C 
HETATM   23  C10 UNL     1       4.629  11.530  25.493  1.00  0.00     0.027 C 
HETATM   24  C11 UNL     1       5.475  10.313  25.138  1.00  0.00     0.028 C 
HETATM   25  C12 UNL     1       4.626   9.088  25.093  1.00  0.00     0.088 C 
HETATM   26  C18 UNL     1       3.147   9.441  25.022  1.00  0.00     0.028 C 
HETATM   27  C19 UNL     1       3.038  10.440  23.872  1.00  0.00     0.027 C 
BRANCH  25  28
HETATM   28  N2  UNL     1       4.888   8.114  26.084  1.00  0.00    -0.369 N 
HETATM   29  C13 UNL     1       4.614   8.428  27.427  1.00  0.00     0.063 C 
HETATM   30  C14 UNL     1       5.142   7.361  28.343  1.00  0.00     0.045 C 
HETATM   31  C15 UNL     1       6.644   7.284  28.108  1.00  0.00     0.010 C 
HETATM   32  C16 UNL     1       6.947   6.903  26.675  1.00  0.00     0.045 C 
HETATM   33  C17 UNL     1       5.752   7.052  25.775  1.00  0.00     0.063 C 
ENDBRANCH  25  28
ENDBRANCH  20  22
ENDBRANCH  19  20
ENDBRANCH   1  19
TORSDOF 10
ENDMDL
MODEL 4
REMARK VINA RESULT: -7.455447403      1.318      1.862
REMARK  10 active torsions:
REMARK  status: ('A' for Active; 'I' for Inactive)
REMARK    1  A    between atoms: O1_1  and  C1_3 
REMARK    2  A    between atoms: C4_6  and  C5_7 
REMARK    3  A    between atoms: C5_7  and  C6_8 
REMARK    4  A    between atoms: C6_8  and  C7_9 
REMARK    5  A    between atoms: C6_8  and  N3_27 
REMARK    6  A    between atoms: C7_9  and  O2_10 
REMARK    7  A    between atoms: C7_9  and  C8_12 
REMARK    8  A    between atoms: C8_12  and  N1_13 
REMARK    9  A    between atoms: N1_13  and  C9_15 
REMARK   10  A    between atoms: C12_18  and  N2_19 
ROOT
HETATM    1  C7  UNL     1       5.388   9.587  24.617  1.00  0.00     0.169 C 
ENDROOT
BRANCH   1   2
HETATM    2  C6  UNL     1       4.464   8.412  24.396  1.00  0.00     0.257 C 
BRANCH   2   3
HETATM    3  C5  UNL     1       5.184   7.192  23.995  1.00  0.00     0.077 C 
BRANCH   3   4
HETATM    4  C4  UNL     1       4.698   6.411  22.870  1.00  0.00    -0.056 A 
HETATM    5  C3  UNL     1       3.690   5.470  22.945  1.00  0.00     0.010 A 
HETATM    6  C2  UNL     1       3.265   4.696  21.895  1.00  0.00     0.037 A 
HETATM    7  C1  UNL     1       3.892   4.871  20.660  1.00  0.00     0.065 A 
HETATM    8  C25 UNL     1       4.891   5.795  20.564  1.00  0.00     0.037 A 
HETATM    9  C24 UNL     1       5.308   6.561  21.623  1.00  0.00     0.010 A 
BRANCH   7  10
HETATM   10  O1  UNL     1       3.496   4.114  19.569  1.00  0.00    -0.361 OA
ATOM     11  H1  UNL     1       4.085   3.466  19.202  1.00  0.00     0.217 HD
ENDBRANCH   7  10
ENDBRANCH   3   4
ENDBRANCH   2   3
BRANCH   2  12
HETATM   12  N3  UNL     1       3.679   8.210  25.630  1.00  0.00     0.096 N 
HETATM   13  C20 UNL     1       3.925   6.952  26.258  1.00  0.00     0.273 C 
HETATM   14  C21 UNL     1       2.683   6.634  27.073  1.00  0.00     0.032 C 
HETATM   15  C22 UNL     1       1.584   7.327  26.346  1.00  0.00     0.032 C 
HETATM   16  C23 UNL     1       2.287   8.114  25.267  1.00  0.00     0.273 C 
ENDBRANCH   2  12
ENDBRANCH   1   2
BRANCH   1  17
HETATM   17  O2  UNL     1       5.569   9.881  25.961  1.00  0.00    -0.392 OA
ATOM     18  H2  UNL     1       5.755  10.800  26.114  1.00  0.00     0.210 HD
ENDBRANCH   1  17
BRANCH   1  19
HETATM   19  C8  UNL     1       4.945  10.823  23.906  1.00  0.00     0.148 C 
BRANCH  19  20
HETATM   20  N1  UNL     1       3.991  10.542  22.890  1.00  0.00    -0.415 N 
ATOM     21  H1  UNL     1       3.156   9.990  23.080  1.00  0.00     0.153 HD
BRANCH  20  22
HETATM   22  C9  UNL     1       4.258  11.067  21.593  1.00  0.00     0.076 C 
HETATM   23  C10 UNL     1       4.867  10.022  20.671  1.00  0.00     0.027 C 
HETATM   24  C11 UNL     1       6.347   9.920  21.017  1.00  0.00     0.028 C 
HETATM   25  C12 UNL     1       7.046  11.195  20.688  1.00  0.00     0.088 C 
HETATM   26  C18 UNL     1       6.055  12.332  20.483  1.00  0.00     0.028 C 
HETATM   27  C19 UNL     1       5.156  12.297  21.716  1.00  0.00     0.027 C 
BRANCH  25  28
HETATM   28  N2  UNL     1       7.998  11.131  19.645  1.00  0.00    -0.369 N 
HETATM   29  C13 UNL     1       8.239  12.287  18.880  1.00  0.00     0.063 C 
HETATM   30  C14 UNL     1       9.117  11.974  17.704  1.00  0.00     0.045 C 
HETATM   31  C15 UNL     1       8.386  10.927  16.875  1.00  0.00     0.010 C 
HETATM   32  C16 UNL     1       8.163   9.663  17.677  1.00  0.00     0.045 C 
HETATM   33  C17 UNL     1       8.374   9.872  19.151  1.00  0.00     0.063 C 
ENDBRANCH  25  28
ENDBRANCH  20  22
ENDBRANCH  19  20
ENDBRANCH   1  19
TORSDOF 10
ENDMDL
MODEL 5
REMARK VINA RESULT: -7.346837356      1.609      6.275
REMARK  10 active torsions:
REMARK  status: ('A' for Active; 'I' for Inactive)
REMARK    1  A    between atoms: O1_1  and  C1_3 
REMARK    2  A    between atoms: C4_6  and  C5_7 
REMARK    3  A    between atoms: C5_7  and  C6_8 
REMARK    4  A    between atoms: C6_8  and  C7_9 
REMARK    5  A    between atoms: C6_8  and  N3_27 
REMARK    6  A    between atoms: C7_9  and  O2_10 
REMARK    7  A    between atoms: C7_9  and  C8_12 
REMARK    8  A    between atoms: C8_12  and  N1_13 
REMARK    9  A    between atoms: N1_13  and  C9_15 
REMARK   10  A    between atoms: C12_18  and  N2_19 
ROOT
HETATM    1  C7  UNL     1       5.261  11.597  22.101  1.00  0.00     0.169 C 
ENDROOT
BRANCH   1   2
HETATM    2  C6  UNL     1       5.935  10.413  21.447  1.00  0.00     0.257 C 
BRANCH   2   3
HETATM    3  C5  UNL     1       5.029   9.663  20.561  1.00  0.00     0.077 C 
BRANCH   3   4
HETATM    4  C4  UNL     1       4.958   8.215  20.668  1.00  0.00    -0.056 A 
HETATM    5  C3  UNL     1       5.265   7.498  21.808  1.00  0.00     0.010 A 
HETATM    6  C2  UNL     1       5.248   6.129  21.895  1.00  0.00     0.037 A 
HETATM    7  C1  UNL     1       4.893   5.406  20.755  1.00  0.00     0.065 A 
HETATM    8  C25 UNL     1       4.588   6.096  19.618  1.00  0.00     0.037 A 
HETATM    9  C24 UNL     1       4.611   7.466  19.543  1.00  0.00     0.010 A 
BRANCH   7  10
HETATM   10  O1  UNL     1       4.860   4.022  20.795  1.00  0.00    -0.361 OA
ATOM     11  H1  UNL     1       4.035   3.563  20.683  1.00  0.00     0.217 HD
ENDBRANCH   7  10
ENDBRANCH   3   4
ENDBRANCH   2   3
BRANCH   2  12
HETATM   12  N3  UNL     1       7.127  10.907  20.728  1.00  0.00     0.096 N 
HETATM   13  C20 UNL     1       6.839  11.965  19.814  1.00  0.00     0.273 C 
HETATM   14  C21 UNL     1       7.936  11.930  18.764  1.00  0.00     0.032 C 
HETATM   15  C22 UNL     1       8.359  10.503  18.728  1.00  0.00     0.032 C 
HETATM   16  C23 UNL     1       7.593   9.856  19.858  1.00  0.00     0.273 C 
ENDBRANCH   2  12
ENDBRANCH   1   2
BRANCH   1  17
HETATM   17  O2  UNL     1       6.000  12.122  23.152  1.00  0.00    -0.392 OA
ATOM     18  H2  UNL     1       6.168  11.486  23.837  1.00  0.00     0.210 HD
ENDBRANCH   1  17
BRANCH   1  19
HETATM   19  C8  UNL     1       3.881  11.291  22.584  1.00  0.00     0.148 C 
BRANCH  19  20
HETATM   20  N1  UNL     1       3.684  11.701  23.932  1.00  0.00    -0.415 N 
ATOM     21  H1  UNL     1       3.837  12.665  24.224  1.00  0.00     0.153 HD
BRANCH  20  22
HETATM   22  C9  UNL     1       3.261  10.700  24.853  1.00  0.00     0.076 C 
HETATM   23  C10 UNL     1       4.258  10.513  25.986  1.00  0.00     0.027 C 
HETATM   24  C11 UNL     1       5.394   9.650  25.452  1.00  0.00     0.028 C 
HETATM   25  C12 UNL     1       4.898   8.281  25.130  1.00  0.00     0.088 C 
HETATM   26  C18 UNL     1       3.378   8.249  25.049  1.00  0.00     0.028 C 
HETATM   27  C19 UNL     1       3.012   9.391  24.105  1.00  0.00     0.027 C 
BRANCH  25  28
HETATM   28  N2  UNL     1       5.405   7.232  25.931  1.00  0.00    -0.369 N 
HETATM   29  C13 UNL     1       4.660   6.816  27.049  1.00  0.00     0.063 C 
HETATM   30  C14 UNL     1       5.446   5.847  27.883  1.00  0.00     0.045 C 
HETATM   31  C15 UNL     1       6.711   6.570  28.323  1.00  0.00     0.010 C 
HETATM   32  C16 UNL     1       7.542   6.982  27.127  1.00  0.00     0.045 C 
HETATM   33  C17 UNL     1       6.769   6.912  25.839  1.00  0.00     0.063 C 
ENDBRANCH  25  28
ENDBRANCH  20  22
ENDBRANCH  19  20
ENDBRANCH   1  19
TORSDOF 10
ENDMDL
