MODEL 1
REMARK VINA RESULT: -11.735928714      0.000      0.000
REMARK  5 active torsions:
REMARK  status: ('A' for Active; 'I' for Inactive)
REMARK    1  A    between atoms: C5_11  and  C6_12 
REMARK    2  A    between atoms: C6_12  and  C7_14 
REMARK    3  A    between atoms: C8_15  and  C9_16 
REMARK    4  A    between atoms: N5_27  and  C18_28 
REMARK    5  A    between atoms: C18_28  and  C20_30 
REMARK       I    between atoms: C20_30  and  N6_32 
REMARK       I    between atoms: N7_34  and  C21_36 
REMARK       I    between atoms: C21_36  and  N9_40 
REMARK       I    between atoms: N10_42  and  C22_44 
ROOT
HETATM    1  C1  UNL     1     -21.496 -41.919  21.409  1.00  0.00     0.020 C 
HETATM    2  C2  UNL     1     -20.774 -42.144  22.726  1.00  0.00     0.079 C 
HETATM    3  C3  UNL     1     -19.874 -40.952  22.935  1.00  0.00     0.074 C 
HETATM    4  C4  UNL     1     -18.435 -41.236  22.654  1.00  0.00     0.057 A 
HETATM    5  N1  UNL     1     -17.814 -40.456  21.733  1.00  0.00    -0.288 N 
ATOM      6  H1  UNL     1     -18.348 -39.715  21.280  1.00  0.00     0.188 HD
HETATM    7  N2  UNL     1     -16.552 -40.617  21.403  1.00  0.00    -0.242 N 
ATOM      8  H2  UNL     1     -16.115 -40.014  20.706  1.00  0.00     0.208 HD
HETATM    9  N3  UNL     1     -15.863 -41.572  21.989  1.00  0.00    -0.280 N 
ATOM     10  H3  UNL     1     -14.885 -41.689  21.725  1.00  0.00     0.188 HD
HETATM   11  C5  UNL     1     -16.369 -42.400  22.910  1.00  0.00     0.128 A 
HETATM   12  C15 UNL     1     -17.724 -42.233  23.269  1.00  0.00     0.085 A 
HETATM   13  N4  UNL     1     -18.266 -43.143  24.202  1.00  0.00    -0.385 N 
ATOM     14  H4  UNL     1     -18.093 -44.129  24.005  1.00  0.00     0.159 HD
HETATM   15  C16 UNL     1     -19.024 -42.875  25.385  1.00  0.00     0.140 C 
HETATM   16  C17 UNL     1     -20.302 -43.637  25.348  1.00  0.00     0.146 C 
HETATM   17  N5  UNL     1     -21.487 -42.853  25.093  1.00  0.00    -0.337 N 
HETATM   18  C23 UNL     1     -21.778 -42.261  23.839  1.00  0.00     0.224 C 
HETATM   19  O4  UNL     1     -22.941 -41.790  23.603  1.00  0.00    -0.273 OA
ENDROOT
BRANCH  17  20
HETATM   20  C18 UNL     1     -22.441 -42.668  26.166  1.00  0.00     0.177 C 
HETATM   21  C19 UNL     1     -21.859 -41.759  27.235  1.00  0.00     0.042 C 
BRANCH  20  22
HETATM   22  C20 UNL     1     -22.921 -43.909  26.780  1.00  0.00     0.259 C 
HETATM   23  O2  UNL     1     -22.945 -44.067  28.032  1.00  0.00    -0.269 OA
HETATM   24  N6  UNL     1     -23.384 -45.002  26.008  1.00  0.00    -0.254 N 
HETATM   25  N7  UNL     1     -23.864 -46.054  26.477  1.00  0.00    -0.129 N 
ATOM     26  H6  UNL     1     -23.320 -44.923  24.993  1.00  0.00     0.190 HD
HETATM   27  C21 UNL     1     -24.295 -47.079  25.597  1.00  0.00     0.705 C 
ATOM     28  H7  UNL     1     -23.947 -46.175  27.487  1.00  0.00     0.205 HD
HETATM   29  N8  UNL     1     -25.515 -47.527  25.592  1.00  0.00    -0.232 N 
HETATM   30  N9  UNL     1     -23.367 -47.642  24.690  1.00  0.00    -0.128 N 
ATOM     31  H82 UNL     1     -26.184 -47.122  26.246  1.00  0.00     0.174 HD
ATOM     32  H81 UNL     1     -25.825 -48.265  24.959  1.00  0.00     0.174 HD
HETATM   33  N10 UNL     1     -23.713 -47.869  23.506  1.00  0.00    -0.240 N 
ATOM     34  H9  UNL     1     -22.420 -47.862  24.998  1.00  0.00     0.205 HD
HETATM   35  C22 UNL     1     -22.853 -48.424  22.546  1.00  0.00     0.347 C 
ATOM     36  H10 UNL     1     -24.666 -47.638  23.227  1.00  0.00     0.192 HD
HETATM   37  N11 UNL     1     -23.424 -49.152  21.462  1.00  0.00    -0.038 NA
HETATM   38  O3  UNL     1     -21.610 -48.319  22.585  1.00  0.00    -0.249 OA
ENDBRANCH  20  22
ENDBRANCH  17  20
BRANCH  11  39
HETATM   39  C6  UNL     1     -15.513 -43.370  23.536  1.00  0.00     0.202 C 
HETATM   40  O1  UNL     1     -15.201 -44.413  22.830  1.00  0.00    -0.286 OA
BRANCH  39  41
HETATM   41  C7  UNL     1     -14.952 -43.340  24.833  1.00  0.00     0.058 C 
HETATM   42  C8  UNL     1     -14.343 -44.282  25.467  1.00  0.00     0.015 C 
BRANCH  42  43
HETATM   43  C9  UNL     1     -13.799 -44.109  26.840  1.00  0.00    -0.036 A 
HETATM   44  C10 UNL     1     -12.732 -43.291  27.120  1.00  0.00     0.011 A 
HETATM   45  C11 UNL     1     -12.260 -43.165  28.435  1.00  0.00     0.001 A 
HETATM   46  C12 UNL     1     -12.871 -43.868  29.443  1.00  0.00     0.000 A 
HETATM   47  C13 UNL     1     -13.942 -44.696  29.200  1.00  0.00     0.001 A 
HETATM   48  C14 UNL     1     -14.377 -44.795  27.903  1.00  0.00     0.011 A 
ENDBRANCH  42  43
ENDBRANCH  39  41
ENDBRANCH  11  39
TORSDOF 5
ENDMDL
MODEL 2
REMARK VINA RESULT: -11.727528910      2.665      4.450
REMARK  5 active torsions:
REMARK  status: ('A' for Active; 'I' for Inactive)
REMARK    1  A    between atoms: C5_11  and  C6_12 
REMARK    2  A    between atoms: C6_12  and  C7_14 
REMARK    3  A    between atoms: C8_15  and  C9_16 
REMARK    4  A    between atoms: N5_27  and  C18_28 
REMARK    5  A    between atoms: C18_28  and  C20_30 
REMARK       I    between atoms: C20_30  and  N6_32 
REMARK       I    between atoms: N7_34  and  C21_36 
REMARK       I    between atoms: C21_36  and  N9_40 
REMARK       I    between atoms: N10_42  and  C22_44 
ROOT
HETATM    1  C1  UNL     1     -21.283 -41.896  20.489  1.00  0.00     0.020 C 
HETATM    2  C2  UNL     1     -20.784 -41.971  21.921  1.00  0.00     0.079 C 
HETATM    3  C3  UNL     1     -19.942 -40.742  22.151  1.00  0.00     0.074 C 
HETATM    4  C4  UNL     1     -18.474 -41.014  22.139  1.00  0.00     0.057 A 
HETATM    5  N1  UNL     1     -17.718 -40.313  21.257  1.00  0.00    -0.288 N 
ATOM      6  H1  UNL     1     -18.178 -39.634  20.649  1.00  0.00     0.188 HD
HETATM    7  N2  UNL     1     -16.417 -40.472  21.154  1.00  0.00    -0.242 N 
ATOM      8  H2  UNL     1     -15.878 -39.929  20.479  1.00  0.00     0.208 HD
HETATM    9  N3  UNL     1     -15.825 -41.347  21.938  1.00  0.00    -0.280 N 
ATOM     10  H3  UNL     1     -14.816 -41.463  21.849  1.00  0.00     0.188 HD
HETATM   11  C5  UNL     1     -16.467 -42.093  22.843  1.00  0.00     0.128 A 
HETATM   12  C15 UNL     1     -17.864 -41.927  22.958  1.00  0.00     0.085 A 
HETATM   13  N4  UNL     1     -18.544 -42.755  23.879  1.00  0.00    -0.385 N 
ATOM     14  H4  UNL     1     -18.331 -43.750  23.814  1.00  0.00     0.159 HD
HETATM   15  C16 UNL     1     -19.488 -42.391  24.890  1.00  0.00     0.140 C 
HETATM   16  C17 UNL     1     -20.735 -43.186  24.723  1.00  0.00     0.146 C 
HETATM   17  N5  UNL     1     -21.870 -42.463  24.201  1.00  0.00    -0.337 N 
HETATM   18  C23 UNL     1     -21.956 -42.004  22.862  1.00  0.00     0.224 C 
HETATM   19  O4  UNL     1     -23.069 -41.590  22.394  1.00  0.00    -0.273 OA
ENDROOT
BRANCH  17  20
HETATM   20  C18 UNL     1     -22.989 -42.198  25.081  1.00  0.00     0.177 C 
HETATM   21  C19 UNL     1     -22.677 -41.018  25.986  1.00  0.00     0.042 C 
BRANCH  20  22
HETATM   22  C20 UNL     1     -23.417 -43.342  25.889  1.00  0.00     0.259 C 
HETATM   23  O2  UNL     1     -23.564 -44.492  25.389  1.00  0.00    -0.269 OA
HETATM   24  N6  UNL     1     -23.689 -43.228  27.273  1.00  0.00    -0.254 N 
HETATM   25  N7  UNL     1     -23.991 -44.180  28.021  1.00  0.00    -0.129 N 
ATOM     26  H6  UNL     1     -23.635 -42.299  27.689  1.00  0.00     0.190 HD
HETATM   27  C21 UNL     1     -24.241 -43.936  29.396  1.00  0.00     0.705 C 
ATOM     28  H7  UNL     1     -24.057 -45.126  27.648  1.00  0.00     0.205 HD
HETATM   29  N8  UNL     1     -23.563 -44.515  30.342  1.00  0.00    -0.232 N 
HETATM   30  N9  UNL     1     -25.266 -43.032  29.759  1.00  0.00    -0.128 N 
ATOM     31  H82 UNL     1     -22.824 -45.168  30.081  1.00  0.00     0.174 HD
ATOM     32  H81 UNL     1     -23.743 -44.340  31.331  1.00  0.00     0.174 HD
HETATM   33  N10 UNL     1     -25.071 -42.208  30.684  1.00  0.00    -0.240 N 
ATOM     34  H9  UNL     1     -26.161 -43.050  29.270  1.00  0.00     0.205 HD
HETATM   35  C22 UNL     1     -26.036 -41.279  31.103  1.00  0.00     0.347 C 
ATOM     36  H10 UNL     1     -24.167 -42.213  31.155  1.00  0.00     0.192 HD
HETATM   37  N11 UNL     1     -25.980 -40.800  32.444  1.00  0.00    -0.038 NA
HETATM   38  O3  UNL     1     -26.946 -40.844  30.369  1.00  0.00    -0.249 OA
ENDBRANCH  20  22
ENDBRANCH  17  20
BRANCH  11  39
HETATM   39  C6  UNL     1     -15.716 -42.974  23.695  1.00  0.00     0.202 C 
HETATM   40  O1  UNL     1     -14.779 -43.671  23.130  1.00  0.00    -0.286 OA
BRANCH  39  41
HETATM   41  C7  UNL     1     -15.858 -43.183  25.086  1.00  0.00     0.058 C 
HETATM   42  C8  UNL     1     -14.987 -43.633  25.923  1.00  0.00     0.015 C 
BRANCH  42  43
HETATM   43  C9  UNL     1     -15.276 -43.805  27.372  1.00  0.00    -0.036 A 
HETATM   44  C10 UNL     1     -14.479 -44.549  28.206  1.00  0.00     0.011 A 
HETATM   45  C11 UNL     1     -14.799 -44.678  29.566  1.00  0.00     0.001 A 
HETATM   46  C12 UNL     1     -15.918 -44.055  30.059  1.00  0.00     0.000 A 
HETATM   47  C13 UNL     1     -16.739 -43.301  29.254  1.00  0.00     0.001 A 
HETATM   48  C14 UNL     1     -16.396 -43.197  27.929  1.00  0.00     0.011 A 
ENDBRANCH  42  43
ENDBRANCH  39  41
ENDBRANCH  11  39
TORSDOF 5
ENDMDL
MODEL 3
REMARK VINA RESULT: -11.293520802      6.288     11.438
REMARK  5 active torsions:
REMARK  status: ('A' for Active; 'I' for Inactive)
REMARK    1  A    between atoms: C5_11  and  C6_12 
REMARK    2  A    between atoms: C6_12  and  C7_14 
REMARK    3  A    between atoms: C8_15  and  C9_16 
REMARK    4  A    between atoms: N5_27  and  C18_28 
REMARK    5  A    between atoms: C18_28  and  C20_30 
REMARK       I    between atoms: C20_30  and  N6_32 
REMARK       I    between atoms: N7_34  and  C21_36 
REMARK       I    between atoms: C21_36  and  N9_40 
REMARK       I    between atoms: N10_42  and  C22_44 
ROOT
HETATM    1  C1  UNL     1     -14.154 -46.499  31.787  1.00  0.00     0.020 C 
HETATM    2  C2  UNL     1     -13.514 -45.633  30.716  1.00  0.00     0.079 C 
HETATM    3  C3  UNL     1     -14.043 -44.236  30.917  1.00  0.00     0.074 C 
HETATM    4  C4  UNL     1     -15.086 -43.845  29.922  1.00  0.00     0.057 A 
HETATM    5  N1  UNL     1     -16.289 -43.443  30.406  1.00  0.00    -0.288 N 
ATOM      6  H1  UNL     1     -16.427 -43.420  31.416  1.00  0.00     0.188 HD
HETATM    7  N2  UNL     1     -17.282 -43.081  29.624  1.00  0.00    -0.242 N 
ATOM      8  H2  UNL     1     -18.174 -42.784  30.020  1.00  0.00     0.208 HD
HETATM    9  N3  UNL     1     -17.103 -43.110  28.321  1.00  0.00    -0.280 N 
ATOM     10  H3  UNL     1     -17.880 -42.828  27.725  1.00  0.00     0.188 HD
HETATM   11  C5  UNL     1     -15.963 -43.488  27.733  1.00  0.00     0.128 A 
HETATM   12  C15 UNL     1     -14.892 -43.878  28.566  1.00  0.00     0.085 A 
HETATM   13  N4  UNL     1     -13.710 -44.326  27.938  1.00  0.00    -0.385 N 
ATOM     14  H4  UNL     1     -13.838 -45.029  27.210  1.00  0.00     0.159 HD
HETATM   15  C16 UNL     1     -12.356 -43.931  28.180  1.00  0.00     0.140 C 
HETATM   16  C17 UNL     1     -11.522 -45.132  28.455  1.00  0.00     0.146 C 
HETATM   17  N5  UNL     1     -11.120 -45.310  29.830  1.00  0.00    -0.337 N 
HETATM   18  C23 UNL     1     -12.018 -45.668  30.867  1.00  0.00     0.224 C 
HETATM   19  O4  UNL     1     -11.573 -46.046  32.003  1.00  0.00    -0.273 OA
ENDROOT
BRANCH  17  20
HETATM   20  C18 UNL     1      -9.726 -45.128  30.175  1.00  0.00     0.177 C 
HETATM   21  C19 UNL     1      -8.944 -46.397  29.883  1.00  0.00     0.042 C 
BRANCH  20  22
HETATM   22  C20 UNL     1      -9.488 -44.707  31.558  1.00  0.00     0.259 C 
HETATM   23  O2  UNL     1      -8.518 -45.153  32.232  1.00  0.00    -0.269 OA
HETATM   24  N6  UNL     1     -10.328 -43.778  32.218  1.00  0.00    -0.254 N 
HETATM   25  N7  UNL     1     -10.135 -43.335  33.369  1.00  0.00    -0.129 N 
ATOM     26  H6  UNL     1     -11.152 -43.447  31.717  1.00  0.00     0.190 HD
HETATM   27  C21 UNL     1     -11.051 -42.405  33.923  1.00  0.00     0.705 C 
ATOM     28  H7  UNL     1      -9.324 -43.639  33.907  1.00  0.00     0.205 HD
HETATM   29  N8  UNL     1     -10.689 -41.222  34.323  1.00  0.00    -0.232 N 
HETATM   30  N9  UNL     1     -12.411 -42.772  34.049  1.00  0.00    -0.128 N 
ATOM     31  H82 UNL     1      -9.708 -40.958  34.233  1.00  0.00     0.174 HD
ATOM     32  H81 UNL     1     -11.349 -40.553  34.721  1.00  0.00     0.174 HD
HETATM   33  N10 UNL     1     -13.309 -41.948  33.751  1.00  0.00    -0.240 N 
ATOM     34  H9  UNL     1     -12.661 -43.703  34.382  1.00  0.00     0.205 HD
HETATM   35  C22 UNL     1     -14.679 -42.234  33.849  1.00  0.00     0.347 C 
ATOM     36  H10 UNL     1     -13.029 -41.025  33.421  1.00  0.00     0.192 HD
HETATM   37  N11 UNL     1     -15.587 -41.153  34.046  1.00  0.00    -0.038 NA
HETATM   38  O3  UNL     1     -15.155 -43.384  33.773  1.00  0.00    -0.249 OA
ENDBRANCH  20  22
ENDBRANCH  17  20
BRANCH  11  39
HETATM   39  C6  UNL     1     -15.850 -43.422  26.301  1.00  0.00     0.202 C 
HETATM   40  O1  UNL     1     -14.848 -44.049  25.767  1.00  0.00    -0.286 OA
BRANCH  39  41
HETATM   41  C7  UNL     1     -16.698 -42.762  25.383  1.00  0.00     0.058 C 
HETATM   42  C8  UNL     1     -17.974 -42.876  25.244  1.00  0.00     0.015 C 
BRANCH  42  43
HETATM   43  C9  UNL     1     -18.745 -42.115  24.226  1.00  0.00    -0.036 A 
HETATM   44  C10 UNL     1     -18.237 -41.803  22.989  1.00  0.00     0.011 A 
HETATM   45  C11 UNL     1     -19.009 -41.082  22.065  1.00  0.00     0.001 A 
HETATM   46  C12 UNL     1     -20.278 -40.686  22.408  1.00  0.00     0.000 A 
HETATM   47  C13 UNL     1     -20.819 -40.980  23.637  1.00  0.00     0.001 A 
HETATM   48  C14 UNL     1     -20.037 -41.687  24.515  1.00  0.00     0.011 A 
ENDBRANCH  42  43
ENDBRANCH  39  41
ENDBRANCH  11  39
TORSDOF 5
ENDMDL
MODEL 4
REMARK VINA RESULT: -11.014646155      3.284      5.050
REMARK  5 active torsions:
REMARK  status: ('A' for Active; 'I' for Inactive)
REMARK    1  A    between atoms: C5_11  and  C6_12 
REMARK    2  A    between atoms: C6_12  and  C7_14 
REMARK    3  A    between atoms: C8_15  and  C9_16 
REMARK    4  A    between atoms: N5_27  and  C18_28 
REMARK    5  A    between atoms: C18_28  and  C20_30 
REMARK       I    between atoms: C20_30  and  N6_32 
REMARK       I    between atoms: N7_34  and  C21_36 
REMARK       I    between atoms: C21_36  and  N9_40 
REMARK       I    between atoms: N10_42  and  C22_44 
ROOT
HETATM    1  C1  UNL     1     -21.276 -43.845  21.926  1.00  0.00     0.020 C 
HETATM    2  C2  UNL     1     -21.006 -43.202  23.275  1.00  0.00     0.079 C 
HETATM    3  C3  UNL     1     -20.119 -42.010  23.017  1.00  0.00     0.074 C 
HETATM    4  C4  UNL     1     -18.690 -42.240  23.385  1.00  0.00     0.057 A 
HETATM    5  N1  UNL     1     -17.759 -42.057  22.415  1.00  0.00    -0.288 N 
ATOM      6  H1  UNL     1     -18.069 -41.768  21.487  1.00  0.00     0.188 HD
HETATM    7  N2  UNL     1     -16.473 -42.235  22.624  1.00  0.00    -0.242 N 
ATOM      8  H2  UNL     1     -15.799 -42.089  21.873  1.00  0.00     0.208 HD
HETATM    9  N3  UNL     1     -16.073 -42.605  23.821  1.00  0.00    -0.280 N 
ATOM     10  H3  UNL     1     -15.074 -42.741  23.972  1.00  0.00     0.188 HD
HETATM   11  C5  UNL     1     -16.899 -42.815  24.852  1.00  0.00     0.128 A 
HETATM   12  C15 UNL     1     -18.281 -42.627  24.635  1.00  0.00     0.085 A 
HETATM   13  N4  UNL     1     -19.152 -42.901  25.712  1.00  0.00    -0.385 N 
ATOM     14  H4  UNL     1     -19.008 -43.797  26.176  1.00  0.00     0.159 HD
HETATM   15  C16 UNL     1     -20.208 -42.095  26.243  1.00  0.00     0.140 C 
HETATM   16  C17 UNL     1     -21.472 -42.881  26.276  1.00  0.00     0.146 C 
HETATM   17  N5  UNL     1     -22.457 -42.518  25.286  1.00  0.00    -0.337 N 
HETATM   18  C23 UNL     1     -22.306 -42.778  23.900  1.00  0.00     0.224 C 
HETATM   19  O4  UNL     1     -23.301 -42.658  23.110  1.00  0.00    -0.273 OA
ENDROOT
BRANCH  17  20
HETATM   20  C18 UNL     1     -23.673 -41.865  25.722  1.00  0.00     0.177 C 
HETATM   21  C19 UNL     1     -23.340 -40.650  26.572  1.00  0.00     0.042 C 
BRANCH  20  22
HETATM   22  C20 UNL     1     -24.609 -42.732  26.443  1.00  0.00     0.259 C 
HETATM   23  O2  UNL     1     -25.407 -43.500  25.838  1.00  0.00    -0.269 OA
HETATM   24  N6  UNL     1     -24.673 -42.760  27.857  1.00  0.00    -0.254 N 
HETATM   25  N7  UNL     1     -25.401 -43.525  28.523  1.00  0.00    -0.129 N 
ATOM     26  H6  UNL     1     -24.081 -42.107  28.370  1.00  0.00     0.190 HD
HETATM   27  C21 UNL     1     -25.375 -43.457  29.939  1.00  0.00     0.705 C 
ATOM     28  H7  UNL     1     -26.010 -44.194  28.052  1.00  0.00     0.205 HD
HETATM   29  N8  UNL     1     -25.071 -44.480  30.682  1.00  0.00    -0.232 N 
HETATM   30  N9  UNL     1     -25.694 -42.235  30.576  1.00  0.00    -0.128 N 
ATOM     31  H82 UNL     1     -24.842 -45.362  30.223  1.00  0.00     0.174 HD
ATOM     32  H81 UNL     1     -25.053 -44.431  31.701  1.00  0.00     0.174 HD
HETATM   33  N10 UNL     1     -25.008 -41.842  31.549  1.00  0.00    -0.240 N 
ATOM     34  H9  UNL     1     -26.478 -41.674  30.243  1.00  0.00     0.205 HD
HETATM   35  C22 UNL     1     -25.259 -40.643  32.234  1.00  0.00     0.347 C 
ATOM     36  H10 UNL     1     -24.229 -42.423  31.859  1.00  0.00     0.192 HD
HETATM   37  N11 UNL     1     -24.851 -40.540  33.596  1.00  0.00    -0.038 NA
HETATM   38  O3  UNL     1     -25.820 -39.655  31.719  1.00  0.00    -0.249 OA
ENDBRANCH  20  22
ENDBRANCH  17  20
BRANCH  11  39
HETATM   39  C6  UNL     1     -16.354 -43.157  26.138  1.00  0.00     0.202 C 
HETATM   40  O1  UNL     1     -17.056 -42.821  27.176  1.00  0.00    -0.286 OA
BRANCH  39  41
HETATM   41  C7  UNL     1     -15.141 -43.823  26.428  1.00  0.00     0.058 C 
HETATM   42  C8  UNL     1     -14.646 -44.123  27.579  1.00  0.00     0.015 C 
BRANCH  42  43
HETATM   43  C9  UNL     1     -13.348 -44.830  27.738  1.00  0.00    -0.036 A 
HETATM   44  C10 UNL     1     -13.084 -46.041  27.146  1.00  0.00     0.011 A 
HETATM   45  C11 UNL     1     -11.840 -46.665  27.330  1.00  0.00     0.001 A 
HETATM   46  C12 UNL     1     -10.888 -46.058  28.110  1.00  0.00     0.000 A 
HETATM   47  C13 UNL     1     -11.118 -44.846  28.718  1.00  0.00     0.001 A 
HETATM   48  C14 UNL     1     -12.344 -44.265  28.517  1.00  0.00     0.011 A 
ENDBRANCH  42  43
ENDBRANCH  39  41
ENDBRANCH  11  39
TORSDOF 5
ENDMDL
MODEL 5
REMARK VINA RESULT: -10.955438498      2.438      2.671
REMARK  5 active torsions:
REMARK  status: ('A' for Active; 'I' for Inactive)
REMARK    1  A    between atoms: C5_11  and  C6_12 
REMARK    2  A    between atoms: C6_12  and  C7_14 
REMARK    3  A    between atoms: C8_15  and  C9_16 
REMARK    4  A    between atoms: N5_27  and  C18_28 
REMARK    5  A    between atoms: C18_28  and  C20_30 
REMARK       I    between atoms: C20_30  and  N6_32 
REMARK       I    between atoms: N7_34  and  C21_36 
REMARK       I    between atoms: C21_36  and  N9_40 
REMARK       I    between atoms: N10_42  and  C22_44 
ROOT
HETATM    1  C1  UNL     1     -21.521 -41.626  21.300  1.00  0.00     0.020 C 
HETATM    2  C2  UNL     1     -20.825 -41.861  22.628  1.00  0.00     0.079 C 
HETATM    3  C3  UNL     1     -19.871 -40.711  22.826  1.00  0.00     0.074 C 
HETATM    4  C4  UNL     1     -18.444 -41.069  22.568  1.00  0.00     0.057 A 
HETATM    5  N1  UNL     1     -17.776 -40.337  21.641  1.00  0.00    -0.288 N 
ATOM      6  H1  UNL     1     -18.269 -39.580  21.167  1.00  0.00     0.188 HD
HETATM    7  N2  UNL     1     -16.520 -40.565  21.328  1.00  0.00    -0.242 N 
ATOM      8  H2  UNL     1     -16.047 -39.997  20.626  1.00  0.00     0.208 HD
HETATM    9  N3  UNL     1     -15.884 -41.542  21.940  1.00  0.00    -0.280 N 
ATOM     10  H3  UNL     1     -14.910 -41.710  21.690  1.00  0.00     0.188 HD
HETATM   11  C5  UNL     1     -16.440 -42.326  22.870  1.00  0.00     0.128 A 
HETATM   12  C15 UNL     1     -17.789 -42.088  23.209  1.00  0.00     0.085 A 
HETATM   13  N4  UNL     1     -18.385 -42.953  24.153  1.00  0.00    -0.385 N 
ATOM     14  H4  UNL     1     -18.258 -43.949  23.976  1.00  0.00     0.159 HD
HETATM   15  C16 UNL     1     -19.142 -42.626  25.321  1.00  0.00     0.140 C 
HETATM   16  C17 UNL     1     -20.455 -43.326  25.283  1.00  0.00     0.146 C 
HETATM   17  N5  UNL     1     -21.598 -42.491  25.000  1.00  0.00    -0.337 N 
HETATM   18  C23 UNL     1     -21.846 -41.909  23.731  1.00  0.00     0.224 C 
HETATM   19  O4  UNL     1     -22.982 -41.387  23.473  1.00  0.00    -0.273 OA
ENDROOT
BRANCH  17  20
HETATM   20  C18 UNL     1     -22.554 -42.240  26.058  1.00  0.00     0.177 C 
HETATM   21  C19 UNL     1     -22.668 -40.747  26.318  1.00  0.00     0.042 C 
BRANCH  20  22
HETATM   22  C20 UNL     1     -22.275 -42.941  27.314  1.00  0.00     0.259 C 
HETATM   23  O2  UNL     1     -21.172 -42.817  27.915  1.00  0.00    -0.269 OA
HETATM   24  N6  UNL     1     -23.223 -43.796  27.925  1.00  0.00    -0.254 N 
HETATM   25  N7  UNL     1     -23.065 -44.365  29.025  1.00  0.00    -0.129 N 
ATOM     26  H6  UNL     1     -24.100 -43.960  27.431  1.00  0.00     0.190 HD
HETATM   27  C21 UNL     1     -24.092 -45.200  29.534  1.00  0.00     0.705 C 
ATOM     28  H7  UNL     1     -22.204 -44.230  29.554  1.00  0.00     0.205 HD
HETATM   29  N8  UNL     1     -24.659 -44.987  30.685  1.00  0.00    -0.232 N 
HETATM   30  N9  UNL     1     -24.520 -46.309  28.768  1.00  0.00    -0.128 N 
ATOM     31  H82 UNL     1     -24.351 -44.188  31.238  1.00  0.00     0.174 HD
ATOM     32  H81 UNL     1     -25.398 -45.588  31.051  1.00  0.00     0.174 HD
HETATM   33  N10 UNL     1     -25.744 -46.566  28.673  1.00  0.00    -0.240 N 
ATOM     34  H9  UNL     1     -23.836 -46.898  28.294  1.00  0.00     0.205 HD
HETATM   35  C22 UNL     1     -26.249 -47.646  27.934  1.00  0.00     0.347 C 
ATOM     36  H10 UNL     1     -26.405 -45.959  29.158  1.00  0.00     0.192 HD
HETATM   37  N11 UNL     1     -27.507 -48.200  28.311  1.00  0.00    -0.038 NA
HETATM   38  O3  UNL     1     -25.659 -48.155  26.959  1.00  0.00    -0.249 OA
ENDBRANCH  20  22
ENDBRANCH  17  20
BRANCH  11  39
HETATM   39  C6  UNL     1     -15.639 -43.325  23.524  1.00  0.00     0.202 C 
HETATM   40  O1  UNL     1     -15.409 -44.414  22.858  1.00  0.00    -0.286 OA
BRANCH  39  41
HETATM   41  C7  UNL     1     -15.054 -43.278  24.810  1.00  0.00     0.058 C 
HETATM   42  C8  UNL     1     -14.495 -44.231  25.473  1.00  0.00     0.015 C 
BRANCH  42  43
HETATM   43  C9  UNL     1     -13.918 -44.039  26.829  1.00  0.00    -0.036 A 
HETATM   44  C10 UNL     1     -12.829 -43.237  27.067  1.00  0.00     0.011 A 
HETATM   45  C11 UNL     1     -12.324 -43.091  28.369  1.00  0.00     0.001 A 
HETATM   46  C12 UNL     1     -12.928 -43.758  29.405  1.00  0.00     0.000 A 
HETATM   47  C13 UNL     1     -14.020 -44.569  29.205  1.00  0.00     0.001 A 
HETATM   48  C14 UNL     1     -14.486 -44.688  27.920  1.00  0.00     0.011 A 
ENDBRANCH  42  43
ENDBRANCH  39  41
ENDBRANCH  11  39
TORSDOF 5
ENDMDL
