MODEL 1
REMARK VINA RESULT: -8.509927964      0.000      0.000
REMARK  8 active torsions:
REMARK  status: ('A' for Active; 'I' for Inactive)
REMARK    1  A    between atoms: O1_1  and  N1_3 
REMARK    2  A    between atoms: N1_3  and  C1_4 
REMARK    3  A    between atoms: N1_3  and  C9_12 
REMARK    4  A    between atoms: C1_4  and  C2_5 
REMARK    5  A    between atoms: C11_14  and  N2_15 
REMARK    6  A    between atoms: N2_15  and  C12_17 
REMARK    7  A    between atoms: C12_17  and  C13_18 
REMARK    8  A    between atoms: C13_18  and  C14_19 
ROOT
HETATM    1  C9  UNL     1     -18.837  28.151 -15.486  1.00  0.00     0.060 A 
HETATM    2  C10 UNL     1     -18.867  26.823 -15.886  1.00  0.00     0.063 A 
HETATM    3  C11 UNL     1     -19.245  25.789 -15.069  1.00  0.00     0.059 A 
HETATM    4  C19 UNL     1     -19.614  26.134 -13.764  1.00  0.00     0.086 A 
HETATM    5  N4  UNL     1     -20.030  25.411 -12.717  1.00  0.00    -0.298 N 
ATOM      6  H4  UNL     1     -20.149  24.398 -12.719  1.00  0.00     0.187 HD
HETATM    7  N5  UNL     1     -20.263  26.203 -11.676  1.00  0.00    -0.310 N 
ATOM      8  H5  UNL     1     -20.588  25.884 -10.763  1.00  0.00     0.186 HD
HETATM    9  C20 UNL     1     -20.011  27.487 -11.999  1.00  0.00     0.121 A 
HETATM   10  C21 UNL     1     -19.601  27.434 -13.319  1.00  0.00     0.013 A 
HETATM   11  C22 UNL     1     -19.218  28.432 -14.167  1.00  0.00     0.047 A 
ENDROOT
BRANCH   1  12
HETATM   12  N1  UNL     1     -18.468  29.233 -16.304  1.00  0.00    -0.258 N 
BRANCH  12  13
HETATM   13  O1  UNL     1     -18.648  29.255 -17.648  1.00  0.00    -0.287 OA
ATOM     14  H1  UNL     1     -19.510  28.995 -17.953  1.00  0.00     0.244 HD
ENDBRANCH  12  13
BRANCH  12  15
HETATM   15  C1  UNL     1     -17.857  30.430 -15.725  1.00  0.00     0.183 C 
BRANCH  15  16
HETATM   16  C2  UNL     1     -18.201  31.628 -16.503  1.00  0.00    -0.002 C 
HETATM   17  C3  UNL     1     -18.220  32.834 -16.008  1.00  0.00    -0.082 C 
HETATM   18  C4  UNL     1     -17.911  33.230 -14.627  1.00  0.00     0.034 C 
HETATM   19  C8  UNL     1     -18.595  33.980 -16.930  1.00  0.00     0.034 C 
HETATM   20  C5  UNL     1     -16.659  34.108 -14.608  1.00  0.00     0.004 C 
HETATM   21  C6  UNL     1     -16.496  34.809 -15.946  1.00  0.00     0.001 C 
HETATM   22  C7  UNL     1     -17.847  35.205 -16.516  1.00  0.00     0.004 C 
ENDBRANCH  15  16
ENDBRANCH  12  15
ENDBRANCH   1  12
BRANCH   3  23
HETATM   23  N2  UNL     1     -19.321  24.432 -15.451  1.00  0.00    -0.388 N 
ATOM     24  H2  UNL     1     -18.849  23.747 -14.860  1.00  0.00     0.159 HD
BRANCH  23  25
HETATM   25  C12 UNL     1     -20.025  23.938 -16.627  1.00  0.00     0.120 C 
BRANCH  25  26
HETATM   26  C13 UNL     1     -21.475  24.244 -16.444  1.00  0.00     0.024 C 
BRANCH  26  27
HETATM   27  C14 UNL     1     -22.219  23.243 -15.588  1.00  0.00    -0.010 C 
HETATM   28  C15 UNL     1     -23.233  22.495 -16.435  1.00  0.00     0.024 C 
HETATM   29  C16 UNL     1     -24.060  21.585 -15.595  1.00  0.00     0.114 C 
HETATM   30  N3  UNL     1     -24.068  21.860 -14.198  1.00  0.00    -0.421 N 
HETATM   31  C17 UNL     1     -24.015  23.234 -13.830  1.00  0.00     0.114 C 
ATOM     32  H3  UNL     1     -24.110  21.116 -13.502  1.00  0.00     0.153 HD
HETATM   33  C18 UNL     1     -23.048  24.064 -14.600  1.00  0.00     0.024 C 
ENDBRANCH  26  27
ENDBRANCH  25  26
ENDBRANCH  23  25
ENDBRANCH   3  23
TORSDOF 8
ENDMDL
MODEL 2
REMARK VINA RESULT: -8.507819854      1.306      1.839
REMARK  8 active torsions:
REMARK  status: ('A' for Active; 'I' for Inactive)
REMARK    1  A    between atoms: O1_1  and  N1_3 
REMARK    2  A    between atoms: N1_3  and  C1_4 
REMARK    3  A    between atoms: N1_3  and  C9_12 
REMARK    4  A    between atoms: C1_4  and  C2_5 
REMARK    5  A    between atoms: C11_14  and  N2_15 
REMARK    6  A    between atoms: N2_15  and  C12_17 
REMARK    7  A    between atoms: C12_17  and  C13_18 
REMARK    8  A    between atoms: C13_18  and  C14_19 
ROOT
HETATM    1  C9  UNL     1     -19.757  28.671 -15.613  1.00  0.00     0.060 A 
HETATM    2  C10 UNL     1     -20.160  27.408 -16.022  1.00  0.00     0.063 A 
HETATM    3  C11 UNL     1     -20.410  26.371 -15.161  1.00  0.00     0.059 A 
HETATM    4  C19 UNL     1     -20.236  26.642 -13.799  1.00  0.00     0.086 A 
HETATM    5  N4  UNL     1     -20.385  25.894 -12.699  1.00  0.00    -0.298 N 
ATOM      6  H4  UNL     1     -20.677  24.917 -12.692  1.00  0.00     0.187 HD
HETATM    7  N5  UNL     1     -20.098  26.609 -11.616  1.00  0.00    -0.310 N 
ATOM      8  H5  UNL     1     -20.137  26.258 -10.659  1.00  0.00     0.186 HD
HETATM    9  C20 UNL     1     -19.748  27.863 -11.962  1.00  0.00     0.121 A 
HETATM   10  C21 UNL     1     -19.837  27.875 -13.343  1.00  0.00     0.013 A 
HETATM   11  C22 UNL     1     -19.600  28.879 -14.237  1.00  0.00     0.047 A 
ENDROOT
BRANCH   1  12
HETATM   12  N1  UNL     1     -19.506  29.756 -16.471  1.00  0.00    -0.258 N 
BRANCH  12  13
HETATM   13  O1  UNL     1     -20.390  30.198 -17.400  1.00  0.00    -0.287 OA
ATOM     14  H1  UNL     1     -20.147  30.997 -17.854  1.00  0.00     0.244 HD
ENDBRANCH  12  13
BRANCH  12  15
HETATM   15  C1  UNL     1     -18.242  30.489 -16.395  1.00  0.00     0.183 C 
BRANCH  15  16
HETATM   16  C2  UNL     1     -18.386  31.847 -16.937  1.00  0.00    -0.002 C 
HETATM   17  C3  UNL     1     -18.348  32.927 -16.208  1.00  0.00    -0.082 C 
HETATM   18  C4  UNL     1     -18.159  33.007 -14.752  1.00  0.00     0.034 C 
HETATM   19  C8  UNL     1     -18.511  34.267 -16.903  1.00  0.00     0.034 C 
HETATM   20  C5  UNL     1     -16.841  33.717 -14.440  1.00  0.00     0.004 C 
HETATM   21  C6  UNL     1     -16.467  34.643 -15.585  1.00  0.00     0.001 C 
HETATM   22  C7  UNL     1     -17.703  35.293 -16.180  1.00  0.00     0.004 C 
ENDBRANCH  15  16
ENDBRANCH  12  15
ENDBRANCH   1  12
BRANCH   3  23
HETATM   23  N2  UNL     1     -20.856  25.085 -15.537  1.00  0.00    -0.388 N 
ATOM     24  H2  UNL     1     -20.186  24.318 -15.483  1.00  0.00     0.159 HD
BRANCH  23  25
HETATM   25  C12 UNL     1     -22.203  24.774 -15.996  1.00  0.00     0.120 C 
BRANCH  25  26
HETATM   26  C13 UNL     1     -23.136  25.730 -15.331  1.00  0.00     0.024 C 
BRANCH  26  27
HETATM   27  C14 UNL     1     -24.045  25.098 -14.300  1.00  0.00    -0.010 C 
HETATM   28  C15 UNL     1     -23.714  25.640 -12.920  1.00  0.00     0.024 C 
HETATM   29  C16 UNL     1     -24.516  24.951 -11.871  1.00  0.00     0.114 C 
HETATM   30  N3  UNL     1     -25.090  23.703 -12.244  1.00  0.00    -0.421 N 
HETATM   31  C17 UNL     1     -24.315  22.895 -13.122  1.00  0.00     0.114 C 
ATOM     32  H3  UNL     1     -26.003  23.406 -11.901  1.00  0.00     0.153 HD
HETATM   33  C18 UNL     1     -23.667  23.619 -14.251  1.00  0.00     0.024 C 
ENDBRANCH  26  27
ENDBRANCH  25  26
ENDBRANCH  23  25
ENDBRANCH   3  23
TORSDOF 8
ENDMDL
MODEL 3
REMARK VINA RESULT: -8.493167883      2.377      7.783
REMARK  8 active torsions:
REMARK  status: ('A' for Active; 'I' for Inactive)
REMARK    1  A    between atoms: O1_1  and  N1_3 
REMARK    2  A    between atoms: N1_3  and  C1_4 
REMARK    3  A    between atoms: N1_3  and  C9_12 
REMARK    4  A    between atoms: C1_4  and  C2_5 
REMARK    5  A    between atoms: C11_14  and  N2_15 
REMARK    6  A    between atoms: N2_15  and  C12_17 
REMARK    7  A    between atoms: C12_17  and  C13_18 
REMARK    8  A    between atoms: C13_18  and  C14_19 
ROOT
HETATM    1  C9  UNL     1     -20.205  24.450 -15.062  1.00  0.00     0.060 A 
HETATM    2  C10 UNL     1     -19.892  25.801 -15.114  1.00  0.00     0.063 A 
HETATM    3  C11 UNL     1     -19.774  26.600 -14.006  1.00  0.00     0.059 A 
HETATM    4  C19 UNL     1     -19.990  25.980 -12.771  1.00  0.00     0.086 A 
HETATM    5  N4  UNL     1     -19.960  26.432 -11.511  1.00  0.00    -0.298 N 
ATOM      6  H4  UNL     1     -19.754  27.393 -11.241  1.00  0.00     0.187 HD
HETATM    7  N5  UNL     1     -20.238  25.447 -10.663  1.00  0.00    -0.310 N 
ATOM      8  H5  UNL     1     -20.276  25.545  -9.648  1.00  0.00     0.186 HD
HETATM    9  C20 UNL     1     -20.462  24.300 -11.334  1.00  0.00     0.121 A 
HETATM   10  C21 UNL     1     -20.304  24.646 -12.665  1.00  0.00     0.013 A 
HETATM   11  C22 UNL     1     -20.411  23.888 -13.795  1.00  0.00     0.047 A 
ENDROOT
BRANCH   1  12
HETATM   12  N1  UNL     1     -20.320  23.604 -16.179  1.00  0.00    -0.258 N 
BRANCH  12  13
HETATM   13  O1  UNL     1     -19.261  23.006 -16.779  1.00  0.00    -0.287 OA
ATOM     14  H1  UNL     1     -18.970  23.401 -17.592  1.00  0.00     0.244 HD
ENDBRANCH  12  13
BRANCH  12  15
HETATM   15  C1  UNL     1     -21.630  23.312 -16.761  1.00  0.00     0.183 C 
BRANCH  15  16
HETATM   16  C2  UNL     1     -22.209  24.509 -17.386  1.00  0.00    -0.002 C 
HETATM   17  C3  UNL     1     -23.178  25.205 -16.861  1.00  0.00    -0.082 C 
HETATM   18  C4  UNL     1     -23.863  24.949 -15.587  1.00  0.00     0.034 C 
HETATM   19  C8  UNL     1     -23.678  26.421 -17.620  1.00  0.00     0.034 C 
HETATM   20  C5  UNL     1     -23.591  26.096 -14.613  1.00  0.00     0.004 C 
HETATM   21  C6  UNL     1     -23.280  27.368 -15.384  1.00  0.00     0.001 C 
HETATM   22  C7  UNL     1     -24.124  27.458 -16.642  1.00  0.00     0.004 C 
ENDBRANCH  15  16
ENDBRANCH  12  15
ENDBRANCH   1  12
BRANCH   3  23
HETATM   23  N2  UNL     1     -19.422  27.967 -14.018  1.00  0.00    -0.388 N 
ATOM     24  H2  UNL     1     -20.177  28.649 -14.094  1.00  0.00     0.159 HD
BRANCH  23  25
HETATM   25  C12 UNL     1     -18.060  28.475 -13.930  1.00  0.00     0.120 C 
BRANCH  25  26
HETATM   26  C13 UNL     1     -17.807  29.296 -15.151  1.00  0.00     0.024 C 
BRANCH  26  27
HETATM   27  C14 UNL     1     -18.122  30.767 -14.989  1.00  0.00    -0.010 C 
HETATM   28  C15 UNL     1     -17.991  31.472 -16.328  1.00  0.00     0.024 C 
HETATM   29  C16 UNL     1     -18.183  32.940 -16.177  1.00  0.00     0.114 C 
HETATM   30  N3  UNL     1     -18.035  33.457 -14.859  1.00  0.00    -0.421 N 
HETATM   31  C17 UNL     1     -17.046  32.833 -14.049  1.00  0.00     0.114 C 
ATOM     32  H3  UNL     1     -18.606  34.230 -14.515  1.00  0.00     0.153 HD
HETATM   33  C18 UNL     1     -17.009  31.346 -14.119  1.00  0.00     0.024 C 
ENDBRANCH  26  27
ENDBRANCH  25  26
ENDBRANCH  23  25
ENDBRANCH   3  23
TORSDOF 8
ENDMDL
MODEL 4
REMARK VINA RESULT: -8.450328846      1.847      2.369
REMARK  8 active torsions:
REMARK  status: ('A' for Active; 'I' for Inactive)
REMARK    1  A    between atoms: O1_1  and  N1_3 
REMARK    2  A    between atoms: N1_3  and  C1_4 
REMARK    3  A    between atoms: N1_3  and  C9_12 
REMARK    4  A    between atoms: C1_4  and  C2_5 
REMARK    5  A    between atoms: C11_14  and  N2_15 
REMARK    6  A    between atoms: N2_15  and  C12_17 
REMARK    7  A    between atoms: C12_17  and  C13_18 
REMARK    8  A    between atoms: C13_18  and  C14_19 
ROOT
HETATM    1  C9  UNL     1     -18.935  28.250 -15.558  1.00  0.00     0.060 A 
HETATM    2  C10 UNL     1     -19.252  26.984 -16.027  1.00  0.00     0.063 A 
HETATM    3  C11 UNL     1     -19.710  25.967 -15.228  1.00  0.00     0.059 A 
HETATM    4  C19 UNL     1     -19.849  26.264 -13.868  1.00  0.00     0.086 A 
HETATM    5  N4  UNL     1     -20.259  25.541 -12.818  1.00  0.00    -0.298 N 
ATOM      6  H4  UNL     1     -20.559  24.568 -12.862  1.00  0.00     0.187 HD
HETATM    7  N5  UNL     1     -20.217  26.275 -11.711  1.00  0.00    -0.310 N 
ATOM      8  H5  UNL     1     -20.480  25.944 -10.783  1.00  0.00     0.186 HD
HETATM    9  C20 UNL     1     -19.778  27.518 -11.989  1.00  0.00     0.121 A 
HETATM   10  C21 UNL     1     -19.547  27.503 -13.353  1.00  0.00     0.013 A 
HETATM   11  C22 UNL     1     -19.096  28.485 -14.186  1.00  0.00     0.047 A 
ENDROOT
BRANCH   1  12
HETATM   12  N1  UNL     1     -18.477  29.315 -16.354  1.00  0.00    -0.258 N 
BRANCH  12  13
HETATM   13  O1  UNL     1     -18.560  29.330 -17.708  1.00  0.00    -0.287 OA
ATOM     14  H1  UNL     1     -17.748  29.503 -18.169  1.00  0.00     0.244 HD
ENDBRANCH  12  13
BRANCH  12  15
HETATM   15  C1  UNL     1     -17.876  30.499 -15.740  1.00  0.00     0.183 C 
BRANCH  15  16
HETATM   16  C2  UNL     1     -18.207  31.713 -16.498  1.00  0.00    -0.002 C 
HETATM   17  C3  UNL     1     -18.199  32.912 -15.987  1.00  0.00    -0.082 C 
HETATM   18  C4  UNL     1     -17.867  33.284 -14.605  1.00  0.00     0.034 C 
HETATM   19  C8  UNL     1     -18.564  34.078 -16.890  1.00  0.00     0.034 C 
HETATM   20  C5  UNL     1     -16.600  34.139 -14.589  1.00  0.00     0.004 C 
HETATM   21  C6  UNL     1     -16.440  34.855 -15.920  1.00  0.00     0.001 C 
HETATM   22  C7  UNL     1     -17.789  35.283 -16.469  1.00  0.00     0.004 C 
ENDBRANCH  15  16
ENDBRANCH  12  15
ENDBRANCH   1  12
BRANCH   3  23
HETATM   23  N2  UNL     1     -20.076  24.679 -15.674  1.00  0.00    -0.388 N 
ATOM     24  H2  UNL     1     -19.332  23.995 -15.809  1.00  0.00     0.159 HD
BRANCH  23  25
HETATM   25  C12 UNL     1     -21.441  24.255 -15.957  1.00  0.00     0.120 C 
BRANCH  25  26
HETATM   26  C13 UNL     1     -21.829  24.839 -17.275  1.00  0.00     0.024 C 
BRANCH  26  27
HETATM   27  C14 UNL     1     -22.917  25.887 -17.196  1.00  0.00    -0.010 C 
HETATM   28  C15 UNL     1     -22.386  27.220 -17.691  1.00  0.00     0.024 C 
HETATM   29  C16 UNL     1     -23.401  28.295 -17.518  1.00  0.00     0.114 C 
HETATM   30  N3  UNL     1     -24.449  28.021 -16.595  1.00  0.00    -0.421 N 
HETATM   31  C17 UNL     1     -24.091  27.259 -15.448  1.00  0.00     0.114 C 
ATOM     32  H3  UNL     1     -25.402  28.352 -16.747  1.00  0.00     0.153 HD
HETATM   33  C18 UNL     1     -23.200  26.094 -15.709  1.00  0.00     0.024 C 
ENDBRANCH  26  27
ENDBRANCH  25  26
ENDBRANCH  23  25
ENDBRANCH   3  23
TORSDOF 8
ENDMDL
MODEL 5
REMARK VINA RESULT: -8.444424601      1.223      2.303
REMARK  8 active torsions:
REMARK  status: ('A' for Active; 'I' for Inactive)
REMARK    1  A    between atoms: O1_1  and  N1_3 
REMARK    2  A    between atoms: N1_3  and  C1_4 
REMARK    3  A    between atoms: N1_3  and  C9_12 
REMARK    4  A    between atoms: C1_4  and  C2_5 
REMARK    5  A    between atoms: C11_14  and  N2_15 
REMARK    6  A    between atoms: N2_15  and  C12_17 
REMARK    7  A    between atoms: C12_17  and  C13_18 
REMARK    8  A    between atoms: C13_18  and  C14_19 
ROOT
HETATM    1  C9  UNL     1     -19.463  28.546 -15.765  1.00  0.00     0.060 A 
HETATM    2  C10 UNL     1     -20.399  28.206 -14.798  1.00  0.00     0.063 A 
HETATM    3  C11 UNL     1     -20.467  26.972 -14.204  1.00  0.00     0.059 A 
HETATM    4  C19 UNL     1     -19.522  26.030 -14.623  1.00  0.00     0.086 A 
HETATM    5  N4  UNL     1     -19.291  24.759 -14.273  1.00  0.00    -0.298 N 
ATOM      6  H4  UNL     1     -19.826  24.239 -13.578  1.00  0.00     0.187 HD
HETATM    7  N5  UNL     1     -18.264  24.272 -14.962  1.00  0.00    -0.310 N 
ATOM      8  H5  UNL     1     -17.899  23.324 -14.872  1.00  0.00     0.186 HD
HETATM    9  C20 UNL     1     -17.775  25.209 -15.798  1.00  0.00     0.121 A 
HETATM   10  C21 UNL     1     -18.575  26.316 -15.577  1.00  0.00     0.013 A 
HETATM   11  C22 UNL     1     -18.544  27.558 -16.142  1.00  0.00     0.047 A 
ENDROOT
BRANCH   1  12
HETATM   12  N1  UNL     1     -19.359  29.805 -16.382  1.00  0.00    -0.258 N 
BRANCH  12  13
HETATM   13  O1  UNL     1     -20.310  30.319 -17.202  1.00  0.00    -0.287 OA
ATOM     14  H1  UNL     1     -20.848  29.685 -17.660  1.00  0.00     0.244 HD
ENDBRANCH  12  13
BRANCH  12  15
HETATM   15  C1  UNL     1     -18.188  30.651 -16.156  1.00  0.00     0.183 C 
BRANCH  15  16
HETATM   16  C2  UNL     1     -18.357  31.968 -16.787  1.00  0.00    -0.002 C 
HETATM   17  C3  UNL     1     -18.278  33.097 -16.141  1.00  0.00    -0.082 C 
HETATM   18  C4  UNL     1     -18.012  33.281 -14.707  1.00  0.00     0.034 C 
HETATM   19  C8  UNL     1     -18.476  34.384 -16.922  1.00  0.00     0.034 C 
HETATM   20  C5  UNL     1     -16.679  34.004 -14.518  1.00  0.00     0.004 C 
HETATM   21  C6  UNL     1     -16.364  34.843 -15.745  1.00  0.00     0.001 C 
HETATM   22  C7  UNL     1     -17.629  35.456 -16.320  1.00  0.00     0.004 C 
ENDBRANCH  15  16
ENDBRANCH  12  15
ENDBRANCH   1  12
BRANCH   3  23
HETATM   23  N2  UNL     1     -21.381  26.602 -13.193  1.00  0.00    -0.388 N 
ATOM     24  H2  UNL     1     -21.082  26.707 -12.224  1.00  0.00     0.159 HD
BRANCH  23  25
HETATM   25  C12 UNL     1     -22.720  26.081 -13.434  1.00  0.00     0.120 C 
BRANCH  25  26
HETATM   26  C13 UNL     1     -22.838  24.788 -12.696  1.00  0.00     0.024 C 
BRANCH  26  27
HETATM   27  C14 UNL     1     -22.836  23.563 -13.583  1.00  0.00    -0.010 C 
HETATM   28  C15 UNL     1     -22.670  23.977 -15.034  1.00  0.00     0.024 C 
HETATM   29  C16 UNL     1     -22.779  22.800 -15.939  1.00  0.00     0.114 C 
HETATM   30  N3  UNL     1     -23.404  21.645 -15.389  1.00  0.00    -0.421 N 
HETATM   31  C17 UNL     1     -24.474  21.884 -14.483  1.00  0.00     0.114 C 
ATOM     32  H3  UNL     1     -23.101  20.701 -15.631  1.00  0.00     0.153 HD
HETATM   33  C18 UNL     1     -24.241  22.970 -13.492  1.00  0.00     0.024 C 
ENDBRANCH  26  27
ENDBRANCH  25  26
ENDBRANCH  23  25
ENDBRANCH   3  23
TORSDOF 8
ENDMDL
