MODEL 1
REMARK VINA RESULT: -7.634239877      0.000      0.000
REMARK  4 active torsions:
REMARK  status: ('A' for Active; 'I' for Inactive)
REMARK    1  A    between atoms: C5_8  and  C6_9 
REMARK    2  A    between atoms: C6_9  and  O2_10 
REMARK    3  A    between atoms: C6_9  and  C7_12 
REMARK    4  A    between atoms: C13_20  and  C14_21 
ROOT
HETATM    1  C1  UNL     1      10.631   4.944  25.172  1.00  0.00     0.040 C 
HETATM    2  C2  UNL     1       9.312   4.586  24.467  1.00  0.00     0.049 C 
HETATM    3  C3  UNL     1       9.626   4.141  23.085  1.00  0.00     0.040 C 
HETATM    4  N1  UNL     1       8.647   3.557  25.273  1.00  0.00    -0.348 N 
ATOM      5  H1  UNL     1       9.181   2.842  25.768  1.00  0.00     0.163 HD
HETATM    6  C4  UNL     1       7.205   3.600  25.337  1.00  0.00     0.243 C 
HETATM    7  O1  UNL     1       6.741   3.067  26.374  1.00  0.00    -0.271 OA
HETATM    8  C5  UNL     1       6.553   4.233  24.226  1.00  0.00     0.199 C 
HETATM    9  N2  UNL     1       7.067   5.621  24.185  1.00  0.00    -0.397 N 
ATOM     10  H2  UNL     1       6.482   6.409  23.908  1.00  0.00     0.154 HD
HETATM   11  C13 UNL     1       8.415   5.781  24.555  1.00  0.00     0.138 C 
ENDROOT
BRANCH   8  12
HETATM   12  C6  UNL     1       5.118   4.285  24.035  1.00  0.00     0.153 C 
BRANCH  12  13
HETATM   13  O2  UNL     1       4.501   3.174  24.666  1.00  0.00    -0.393 OA
ATOM     14  H2  UNL     1       3.572   3.339  24.784  1.00  0.00     0.210 HD
ENDBRANCH  12  13
BRANCH  12  15
HETATM   15  C7  UNL     1       4.461   4.507  22.748  1.00  0.00     0.017 C 
HETATM   16  C8  UNL     1       4.105   6.018  22.640  1.00  0.00     0.007 C 
HETATM   17  C9  UNL     1       3.875   6.373  21.188  1.00  0.00     0.000 C 
HETATM   18  C10 UNL     1       3.222   5.172  20.504  1.00  0.00     0.000 C 
HETATM   19  C11 UNL     1       2.264   4.582  21.502  1.00  0.00     0.000 C 
HETATM   20  C12 UNL     1       3.104   3.851  22.557  1.00  0.00     0.007 C 
ENDBRANCH  12  15
ENDBRANCH   8  12
BRANCH  11  21
HETATM   21  C14 UNL     1       8.971   6.968  23.839  1.00  0.00    -0.010 A 
HETATM   22  C15 UNL     1       9.715   7.975  24.254  1.00  0.00     0.142 A 
HETATM   23  O3  UNL     1       9.710   8.507  22.977  1.00  0.00    -0.358 OA
HETATM   24  C16 UNL     1       8.915   7.472  22.451  1.00  0.00     0.212 A 
ENDBRANCH  11  21
TORSDOF 4
ENDMDL
MODEL 2
REMARK VINA RESULT: -7.533585936      1.794      3.166
REMARK  4 active torsions:
REMARK  status: ('A' for Active; 'I' for Inactive)
REMARK    1  A    between atoms: C5_8  and  C6_9 
REMARK    2  A    between atoms: C6_9  and  O2_10 
REMARK    3  A    between atoms: C6_9  and  C7_12 
REMARK    4  A    between atoms: C13_20  and  C14_21 
ROOT
HETATM    1  C1  UNL     1      10.753   6.388  22.816  1.00  0.00     0.040 C 
HETATM    2  C2  UNL     1       9.303   6.497  23.314  1.00  0.00     0.049 C 
HETATM    3  C3  UNL     1       9.296   7.307  24.560  1.00  0.00     0.040 C 
HETATM    4  N1  UNL     1       8.509   7.087  22.232  1.00  0.00    -0.348 N 
ATOM      5  H1  UNL     1       8.899   7.799  21.613  1.00  0.00     0.163 HD
HETATM    6  C4  UNL     1       7.151   6.619  22.080  1.00  0.00     0.243 C 
HETATM    7  O1  UNL     1       6.710   6.754  20.913  1.00  0.00    -0.271 OA
HETATM    8  C5  UNL     1       6.541   6.086  23.265  1.00  0.00     0.199 C 
HETATM    9  N2  UNL     1       7.391   4.949  23.688  1.00  0.00    -0.397 N 
ATOM     10  H2  UNL     1       7.001   4.107  24.112  1.00  0.00     0.154 HD
HETATM   11  C13 UNL     1       8.771   5.106  23.465  1.00  0.00     0.138 C 
ENDROOT
BRANCH   8  12
HETATM   12  C6  UNL     1       5.158   5.667  23.362  1.00  0.00     0.153 C 
BRANCH  12  13
HETATM   13  O2  UNL     1       5.027   4.640  24.332  1.00  0.00    -0.393 OA
ATOM     14  H2  UNL     1       5.309   4.955  25.183  1.00  0.00     0.210 HD
ENDBRANCH  12  13
BRANCH  12  15
HETATM   15  C7  UNL     1       4.313   5.330  22.217  1.00  0.00     0.017 C 
HETATM   16  C8  UNL     1       3.342   6.520  21.966  1.00  0.00     0.007 C 
HETATM   17  C9  UNL     1       2.803   6.433  20.555  1.00  0.00     0.000 C 
HETATM   18  C10 UNL     1       2.638   4.955  20.201  1.00  0.00     0.000 C 
HETATM   19  C11 UNL     1       2.152   4.270  21.449  1.00  0.00     0.000 C 
HETATM   20  C12 UNL     1       3.347   4.172  22.405  1.00  0.00     0.007 C 
ENDBRANCH  12  15
ENDBRANCH   8  12
BRANCH  11  21
HETATM   21  C14 UNL     1       9.515   4.318  24.492  1.00  0.00    -0.010 A 
HETATM   22  C15 UNL     1       9.258   4.062  25.760  1.00  0.00     0.142 A 
HETATM   23  O3  UNL     1      10.423   3.321  25.850  1.00  0.00    -0.358 OA
HETATM   24  C16 UNL     1      10.776   3.548  24.507  1.00  0.00     0.212 A 
ENDBRANCH  11  21
TORSDOF 4
ENDMDL
MODEL 3
REMARK VINA RESULT: -7.523918397      1.072      1.754
REMARK  4 active torsions:
REMARK  status: ('A' for Active; 'I' for Inactive)
REMARK    1  A    between atoms: C5_8  and  C6_9 
REMARK    2  A    between atoms: C6_9  and  O2_10 
REMARK    3  A    between atoms: C6_9  and  C7_12 
REMARK    4  A    between atoms: C13_20  and  C14_21 
ROOT
HETATM    1  C1  UNL     1       9.541   4.637  25.221  1.00  0.00     0.040 C 
HETATM    2  C2  UNL     1       8.328   4.543  24.281  1.00  0.00     0.049 C 
HETATM    3  C3  UNL     1       8.801   4.075  22.952  1.00  0.00     0.040 C 
HETATM    4  N1  UNL     1       7.356   3.639  24.904  1.00  0.00    -0.348 N 
ATOM      5  H1  UNL     1       7.656   2.828  25.446  1.00  0.00     0.163 HD
HETATM    6  C4  UNL     1       5.958   3.946  24.718  1.00  0.00     0.243 C 
HETATM    7  O1  UNL     1       5.226   3.488  25.630  1.00  0.00    -0.271 OA
HETATM    8  C5  UNL     1       5.640   4.711  23.546  1.00  0.00     0.199 C 
HETATM    9  N2  UNL     1       6.392   5.981  23.668  1.00  0.00    -0.397 N 
ATOM     10  H2  UNL     1       6.017   6.869  23.335  1.00  0.00     0.154 HD
HETATM   11  C13 UNL     1       7.658   5.882  24.274  1.00  0.00     0.138 C 
ENDROOT
BRANCH   8  12
HETATM   12  C6  UNL     1       4.295   5.032  23.112  1.00  0.00     0.153 C 
BRANCH  12  13
HETATM   13  O2  UNL     1       3.442   3.914  23.303  1.00  0.00    -0.393 OA
ATOM     14  H2  UNL     1       3.683   3.213  22.709  1.00  0.00     0.210 HD
ENDBRANCH  12  13
BRANCH  12  15
HETATM   15  C7  UNL     1       3.964   5.650  21.829  1.00  0.00     0.017 C 
HETATM   16  C8  UNL     1       2.956   4.723  21.091  1.00  0.00     0.007 C 
HETATM   17  C9  UNL     1       2.237   5.518  20.023  1.00  0.00     0.000 C 
HETATM   18  C10 UNL     1       3.223   6.533  19.446  1.00  0.00     0.000 C 
HETATM   19  C11 UNL     1       4.558   5.843  19.381  1.00  0.00     0.000 C 
HETATM   20  C12 UNL     1       5.091   5.756  20.817  1.00  0.00     0.007 C 
ENDBRANCH  12  15
ENDBRANCH   8  12
BRANCH  11  21
HETATM   21  C14 UNL     1       8.537   6.959  23.728  1.00  0.00    -0.010 A 
HETATM   22  C15 UNL     1       8.653   7.470  22.518  1.00  0.00     0.142 A 
HETATM   23  O3  UNL     1       9.635   8.330  22.972  1.00  0.00    -0.358 OA
HETATM   24  C16 UNL     1       9.580   7.841  24.290  1.00  0.00     0.212 A 
ENDBRANCH  11  21
TORSDOF 4
ENDMDL
MODEL 4
REMARK VINA RESULT: -7.012907746      2.073      4.013
REMARK  4 active torsions:
REMARK  status: ('A' for Active; 'I' for Inactive)
REMARK    1  A    between atoms: C5_8  and  C6_9 
REMARK    2  A    between atoms: C6_9  and  O2_10 
REMARK    3  A    between atoms: C6_9  and  C7_12 
REMARK    4  A    between atoms: C13_20  and  C14_21 
ROOT
HETATM    1  C1  UNL     1      11.151   6.669  24.188  1.00  0.00     0.040 C 
HETATM    2  C2  UNL     1       9.716   6.728  23.640  1.00  0.00     0.049 C 
HETATM    3  C3  UNL     1       8.845   7.341  24.676  1.00  0.00     0.040 C 
HETATM    4  N1  UNL     1       9.754   7.490  22.388  1.00  0.00    -0.348 N 
ATOM      5  H1  UNL     1      10.389   8.279  22.264  1.00  0.00     0.163 HD
HETATM    6  C4  UNL     1       8.855   7.075  21.337  1.00  0.00     0.243 C 
HETATM    7  O1  UNL     1       9.255   7.392  20.190  1.00  0.00    -0.271 OA
HETATM    8  C5  UNL     1       7.675   6.380  21.767  1.00  0.00     0.199 C 
HETATM    9  N2  UNL     1       8.148   5.177  22.490  1.00  0.00    -0.397 N 
ATOM     10  H2  UNL     1       7.649   4.288  22.450  1.00  0.00     0.154 HD
HETATM   11  C13 UNL     1       9.330   5.340  23.234  1.00  0.00     0.138 C 
ENDROOT
BRANCH   8  12
HETATM   12  C6  UNL     1       6.593   5.976  20.893  1.00  0.00     0.153 C 
BRANCH  12  13
HETATM   13  O2  UNL     1       6.584   6.781  19.724  1.00  0.00    -0.393 OA
ATOM     14  H2  UNL     1       7.267   6.499  19.127  1.00  0.00     0.210 HD
ENDBRANCH  12  13
BRANCH  12  15
HETATM   15  C7  UNL     1       5.210   5.776  21.324  1.00  0.00     0.017 C 
HETATM   16  C8  UNL     1       4.291   5.891  20.073  1.00  0.00     0.007 C 
HETATM   17  C9  UNL     1       2.961   5.235  20.371  1.00  0.00     0.000 C 
HETATM   18  C10 UNL     1       2.630   5.481  21.843  1.00  0.00     0.000 C 
HETATM   19  C11 UNL     1       3.094   6.877  22.157  1.00  0.00     0.000 C 
HETATM   20  C12 UNL     1       4.625   6.836  22.241  1.00  0.00     0.007 C 
ENDBRANCH  12  15
ENDBRANCH   8  12
BRANCH  11  21
HETATM   21  C14 UNL     1       9.306   4.392  24.388  1.00  0.00    -0.010 A 
HETATM   22  C15 UNL     1       8.323   3.980  25.165  1.00  0.00     0.142 A 
HETATM   23  O3  UNL     1       9.211   3.188  25.871  1.00  0.00    -0.358 OA
HETATM   24  C16 UNL     1      10.317   3.578  25.093  1.00  0.00     0.212 A 
ENDBRANCH  11  21
TORSDOF 4
ENDMDL
MODEL 5
REMARK VINA RESULT: -6.861712856      1.669      2.052
REMARK  4 active torsions:
REMARK  status: ('A' for Active; 'I' for Inactive)
REMARK    1  A    between atoms: C5_8  and  C6_9 
REMARK    2  A    between atoms: C6_9  and  O2_10 
REMARK    3  A    between atoms: C6_9  and  C7_12 
REMARK    4  A    between atoms: C13_20  and  C14_21 
ROOT
HETATM    1  C1  UNL     1       9.700   5.252  25.229  1.00  0.00     0.040 C 
HETATM    2  C2  UNL     1       8.694   5.230  24.066  1.00  0.00     0.049 C 
HETATM    3  C3  UNL     1       9.222   4.331  23.008  1.00  0.00     0.040 C 
HETATM    4  N1  UNL     1       7.404   4.794  24.609  1.00  0.00    -0.348 N 
ATOM      5  H1  UNL     1       7.348   4.102  25.357  1.00  0.00     0.163 HD
HETATM    6  C4  UNL     1       6.216   5.387  24.041  1.00  0.00     0.243 C 
HETATM    7  O1  UNL     1       5.237   5.381  24.826  1.00  0.00    -0.271 OA
HETATM    8  C5  UNL     1       6.348   5.878  22.699  1.00  0.00     0.199 C 
HETATM    9  N2  UNL     1       7.417   6.903  22.740  1.00  0.00    -0.397 N 
ATOM     10  H2  UNL     1       7.390   7.740  22.158  1.00  0.00     0.154 HD
HETATM   11  C13 UNL     1       8.471   6.646  23.635  1.00  0.00     0.138 C 
ENDROOT
BRANCH   8  12
HETATM   12  C6  UNL     1       5.257   6.407  21.905  1.00  0.00     0.153 C 
BRANCH  12  13
HETATM   13  O2  UNL     1       4.579   7.424  22.624  1.00  0.00    -0.393 OA
ATOM     14  H2  UNL     1       3.958   7.867  22.057  1.00  0.00     0.210 HD
ENDBRANCH  12  13
BRANCH  12  15
HETATM   15  C7  UNL     1       4.261   5.587  21.216  1.00  0.00     0.017 C 
HETATM   16  C8  UNL     1       3.086   6.513  20.787  1.00  0.00     0.007 C 
HETATM   17  C9  UNL     1       2.294   5.835  19.691  1.00  0.00     0.000 C 
HETATM   18  C10 UNL     1       2.293   4.332  19.967  1.00  0.00     0.000 C 
HETATM   19  C11 UNL     1       2.182   4.172  21.458  1.00  0.00     0.000 C 
HETATM   20  C12 UNL     1       3.546   4.541  22.054  1.00  0.00     0.007 C 
ENDBRANCH  12  15
ENDBRANCH   8  12
BRANCH  11  21
HETATM   21  C14 UNL     1       9.713   7.287  23.110  1.00  0.00    -0.010 A 
HETATM   22  C15 UNL     1      10.343   8.395  23.452  1.00  0.00     0.142 A 
HETATM   23  O3  UNL     1      11.298   8.155  22.480  1.00  0.00    -0.358 OA
HETATM   24  C16 UNL     1      10.689   6.962  22.049  1.00  0.00     0.212 A 
ENDBRANCH  11  21
TORSDOF 4
ENDMDL
