MODEL 1
REMARK VINA RESULT: -6.257379342      0.000      0.000
REMARK  8 active torsions:
REMARK  status: ('A' for Active; 'I' for Inactive)
REMARK    1  A    between atoms: O1_2  and  C2_3 
REMARK    2  A    between atoms: C2_3  and  C3_4 
REMARK    3  A    between atoms: C3_4  and  C4_5 
REMARK    4  A    between atoms: C7_9  and  C8_10 
REMARK    5  A    between atoms: C9_11  and  C10_12 
REMARK    6  A    between atoms: C10_12  and  O3_15 
REMARK    7  A    between atoms: C16_20  and  O4_21 
REMARK    8  A    between atoms: C20_26  and  O5_27 
ROOT
HETATM    1  C4  UNL     1       7.512   4.016  24.957  1.00  0.00     0.092 C 
HETATM    2  C5  UNL     1       8.913   4.464  24.563  1.00  0.00     0.163 C 
HETATM    3  O2  UNL     1       9.838   3.759  25.021  1.00  0.00    -0.292 OA
HETATM    4  C6  UNL     1       9.317   5.602  23.727  1.00  0.00    -0.001 C 
HETATM    5  C7  UNL     1      10.428   6.161  24.134  1.00  0.00     0.011 C 
HETATM    6  C13 UNL     1       8.574   6.075  22.542  1.00  0.00     0.010 C 
HETATM    7  C14 UNL     1       8.167   7.525  22.662  1.00  0.00     0.023 C 
HETATM    8  C15 UNL     1       9.561   5.998  21.363  1.00  0.00     0.023 C 
HETATM    9  C16 UNL     1       7.429   5.230  22.121  1.00  0.00     0.141 C 
HETATM   10  C17 UNL     1       6.342   4.883  23.014  1.00  0.00     0.006 C 
HETATM   11  C18 UNL     1       5.140   5.763  22.685  1.00  0.00     0.020 C 
HETATM   12  C19 UNL     1       5.828   3.452  22.735  1.00  0.00     0.020 C 
HETATM   13  C20 UNL     1       6.565   5.047  24.507  1.00  0.00     0.140 C 
ENDROOT
BRANCH   5  14
HETATM   14  C8  UNL     1      11.136   7.302  23.573  1.00  0.00    -0.000 C 
HETATM   15  C9  UNL     1      12.455   7.346  23.511  1.00  0.00     0.010 C 
BRANCH  15  16
HETATM   16  C10 UNL     1      13.138   8.510  22.939  1.00  0.00     0.068 C 
HETATM   17  C11 UNL     1      12.415   8.893  21.643  1.00  0.00     0.050 C 
HETATM   18  C12 UNL     1      14.576   8.181  22.517  1.00  0.00     0.050 C 
BRANCH  16  19
HETATM   19  O3  UNL     1      13.177   9.597  23.809  1.00  0.00    -0.387 OA
ATOM     20  H3  UNL     1      12.488   9.574  24.462  1.00  0.00     0.211 HD
ENDBRANCH  16  19
ENDBRANCH  15  16
ENDBRANCH   5  14
BRANCH   1  21
HETATM   21  C3  UNL     1       7.634   3.730  26.415  1.00  0.00     0.041 C 
BRANCH  21  22
HETATM   22  C2  UNL     1       7.612   2.328  26.869  1.00  0.00     0.168 C 
BRANCH  22  23
HETATM   23  O1  UNL     1       8.099   2.154  28.170  1.00  0.00    -0.396 OA
HETATM   24  C1  UNL     1       8.334   3.307  28.858  1.00  0.00     0.201 C 
ENDBRANCH  22  23
ENDBRANCH  21  22
ENDBRANCH   1  21
BRANCH   9  25
HETATM   25  O4  UNL     1       7.925   4.017  21.563  1.00  0.00    -0.394 OA
ATOM     26  H4  UNL     1       7.398   3.784  20.807  1.00  0.00     0.210 HD
ENDBRANCH   9  25
BRANCH  13  27
HETATM   27  O5  UNL     1       5.324   4.973  25.127  1.00  0.00    -0.394 OA
ATOM     28  H5  UNL     1       4.604   4.832  24.522  1.00  0.00     0.210 HD
ENDBRANCH  13  27
TORSDOF 8
ENDMDL
MODEL 2
REMARK VINA RESULT: -6.191081369      3.420      7.987
REMARK  8 active torsions:
REMARK  status: ('A' for Active; 'I' for Inactive)
REMARK    1  A    between atoms: O1_2  and  C2_3 
REMARK    2  A    between atoms: C2_3  and  C3_4 
REMARK    3  A    between atoms: C3_4  and  C4_5 
REMARK    4  A    between atoms: C7_9  and  C8_10 
REMARK    5  A    between atoms: C9_11  and  C10_12 
REMARK    6  A    between atoms: C10_12  and  O3_15 
REMARK    7  A    between atoms: C16_20  and  O4_21 
REMARK    8  A    between atoms: C20_26  and  O5_27 
ROOT
HETATM    1  C4  UNL     1       8.921   7.363  18.292  1.00  0.00     0.092 C 
HETATM    2  C5  UNL     1       8.151   6.354  19.132  1.00  0.00     0.163 C 
HETATM    3  O2  UNL     1       7.526   5.493  18.476  1.00  0.00    -0.292 OA
HETATM    4  C6  UNL     1       8.045   6.260  20.594  1.00  0.00    -0.001 C 
HETATM    5  C7  UNL     1       6.863   5.862  20.992  1.00  0.00     0.011 C 
HETATM    6  C13 UNL     1       9.142   6.564  21.535  1.00  0.00     0.010 C 
HETATM    7  C14 UNL     1       8.767   7.642  22.524  1.00  0.00     0.023 C 
HETATM    8  C15 UNL     1       9.366   5.281  22.355  1.00  0.00     0.023 C 
HETATM    9  C16 UNL     1      10.462   6.840  20.915  1.00  0.00     0.141 C 
HETATM   10  C17 UNL     1      10.656   7.870  19.914  1.00  0.00     0.006 C 
HETATM   11  C18 UNL     1      11.299   9.083  20.580  1.00  0.00     0.020 C 
HETATM   12  C19 UNL     1      11.707   7.435  18.867  1.00  0.00     0.020 C 
HETATM   13  C20 UNL     1       9.432   8.407  19.195  1.00  0.00     0.140 C 
ENDROOT
BRANCH   5  14
HETATM   14  C8  UNL     1       6.378   5.653  22.348  1.00  0.00    -0.000 C 
HETATM   15  C9  UNL     1       6.027   4.458  22.789  1.00  0.00     0.010 C 
BRANCH  15  16
HETATM   16  C10 UNL     1       5.542   4.281  24.162  1.00  0.00     0.068 C 
HETATM   17  C11 UNL     1       5.220   5.666  24.733  1.00  0.00     0.050 C 
HETATM   18  C12 UNL     1       6.627   3.708  25.083  1.00  0.00     0.050 C 
BRANCH  16  19
HETATM   19  O3  UNL     1       4.424   3.455  24.240  1.00  0.00    -0.387 OA
ATOM     20  H3  UNL     1       4.578   2.590  23.880  1.00  0.00     0.211 HD
ENDBRANCH  16  19
ENDBRANCH  15  16
ENDBRANCH   5  14
BRANCH   1  21
HETATM   21  C3  UNL     1       7.954   7.740  17.223  1.00  0.00     0.041 C 
BRANCH  21  22
HETATM   22  C2  UNL     1       8.426   7.816  15.830  1.00  0.00     0.168 C 
BRANCH  22  23
HETATM   23  O1  UNL     1       9.694   8.394  15.700  1.00  0.00    -0.396 OA
HETATM   24  C1  UNL     1      10.565   7.706  14.909  1.00  0.00     0.201 C 
ENDBRANCH  22  23
ENDBRANCH  21  22
ENDBRANCH   1  21
BRANCH   9  25
HETATM   25  O4  UNL     1      10.993   5.628  20.388  1.00  0.00    -0.394 OA
ATOM     26  H4  UNL     1      11.601   5.834  19.688  1.00  0.00     0.210 HD
ENDBRANCH   9  25
BRANCH  13  27
HETATM   27  O5  UNL     1       9.807   9.574  18.543  1.00  0.00    -0.394 OA
ATOM     28  H5  UNL     1      10.716   9.812  18.681  1.00  0.00     0.210 HD
ENDBRANCH  13  27
TORSDOF 8
ENDMDL
MODEL 3
REMARK VINA RESULT: -5.929214865      3.195      7.906
REMARK  8 active torsions:
REMARK  status: ('A' for Active; 'I' for Inactive)
REMARK    1  A    between atoms: O1_2  and  C2_3 
REMARK    2  A    between atoms: C2_3  and  C3_4 
REMARK    3  A    between atoms: C3_4  and  C4_5 
REMARK    4  A    between atoms: C7_9  and  C8_10 
REMARK    5  A    between atoms: C9_11  and  C10_12 
REMARK    6  A    between atoms: C10_12  and  O3_15 
REMARK    7  A    between atoms: C16_20  and  O4_21 
REMARK    8  A    between atoms: C20_26  and  O5_27 
ROOT
HETATM    1  C4  UNL     1       9.800   7.303  18.523  1.00  0.00     0.092 C 
HETATM    2  C5  UNL     1       8.819   6.333  19.169  1.00  0.00     0.163 C 
HETATM    3  O2  UNL     1       8.328   5.488  18.391  1.00  0.00    -0.292 OA
HETATM    4  C6  UNL     1       8.380   6.262  20.568  1.00  0.00    -0.001 C 
HETATM    5  C7  UNL     1       7.124   5.912  20.688  1.00  0.00     0.011 C 
HETATM    6  C13 UNL     1       9.245   6.536  21.733  1.00  0.00     0.010 C 
HETATM    7  C14 UNL     1       8.696   7.640  22.607  1.00  0.00     0.023 C 
HETATM    8  C15 UNL     1       9.226   5.256  22.588  1.00  0.00     0.023 C 
HETATM    9  C16 UNL     1      10.680   6.757  21.430  1.00  0.00     0.141 C 
HETATM   10  C17 UNL     1      11.138   7.766  20.496  1.00  0.00     0.006 C 
HETATM   11  C18 UNL     1      11.659   8.963  21.286  1.00  0.00     0.020 C 
HETATM   12  C19 UNL     1      12.382   7.280  19.717  1.00  0.00     0.020 C 
HETATM   13  C20 UNL     1      10.131   8.338  19.515  1.00  0.00     0.140 C 
ENDROOT
BRANCH   5  14
HETATM   14  C8  UNL     1       6.335   5.738  21.898  1.00  0.00    -0.000 C 
HETATM   15  C9  UNL     1       5.942   4.547  22.312  1.00  0.00     0.010 C 
BRANCH  15  16
HETATM   16  C10 UNL     1       5.148   4.405  23.537  1.00  0.00     0.068 C 
HETATM   17  C11 UNL     1       3.671   4.329  23.137  1.00  0.00     0.050 C 
HETATM   18  C12 UNL     1       5.259   5.643  24.438  1.00  0.00     0.050 C 
BRANCH  16  19
HETATM   19  O3  UNL     1       5.505   3.287  24.288  1.00  0.00    -0.387 OA
ATOM     20  H3  UNL     1       4.848   3.049  24.931  1.00  0.00     0.211 HD
ENDBRANCH  16  19
ENDBRANCH  15  16
ENDBRANCH   5  14
BRANCH   1  21
HETATM   21  C3  UNL     1       9.116   7.701  17.260  1.00  0.00     0.041 C 
BRANCH  21  22
HETATM   22  C2  UNL     1       8.031   8.696  17.321  1.00  0.00     0.168 C 
BRANCH  22  23
HETATM   23  O1  UNL     1       8.444   9.995  17.005  1.00  0.00    -0.396 OA
HETATM   24  C1  UNL     1       7.691  10.990  17.554  1.00  0.00     0.201 C 
ENDBRANCH  22  23
ENDBRANCH  21  22
ENDBRANCH   1  21
BRANCH   9  25
HETATM   25  O4  UNL     1      11.270   5.519  21.043  1.00  0.00    -0.394 OA
ATOM     26  H4  UNL     1      11.629   5.091  21.811  1.00  0.00     0.210 HD
ENDBRANCH   9  25
BRANCH  13  27
HETATM   27  O5  UNL     1      10.690   9.482  18.960  1.00  0.00    -0.394 OA
ATOM     28  H5  UNL     1      10.893  10.155  19.600  1.00  0.00     0.210 HD
ENDBRANCH  13  27
TORSDOF 8
ENDMDL
MODEL 4
REMARK VINA RESULT: -5.863242927      2.720      6.857
REMARK  8 active torsions:
REMARK  status: ('A' for Active; 'I' for Inactive)
REMARK    1  A    between atoms: O1_2  and  C2_3 
REMARK    2  A    between atoms: C2_3  and  C3_4 
REMARK    3  A    between atoms: C3_4  and  C4_5 
REMARK    4  A    between atoms: C7_9  and  C8_10 
REMARK    5  A    between atoms: C9_11  and  C10_12 
REMARK    6  A    between atoms: C10_12  and  O3_15 
REMARK    7  A    between atoms: C16_20  and  O4_21 
REMARK    8  A    between atoms: C20_26  and  O5_27 
ROOT
HETATM    1  C4  UNL     1      10.799   6.710  20.208  1.00  0.00     0.092 C 
HETATM    2  C5  UNL     1      10.549   6.567  21.703  1.00  0.00     0.163 C 
HETATM    3  O2  UNL     1      11.459   7.015  22.433  1.00  0.00    -0.292 OA
HETATM    4  C6  UNL     1       9.394   5.978  22.393  1.00  0.00    -0.001 C 
HETATM    5  C7  UNL     1       9.726   5.345  23.489  1.00  0.00     0.011 C 
HETATM    6  C13 UNL     1       7.996   6.085  21.927  1.00  0.00     0.010 C 
HETATM    7  C14 UNL     1       7.359   4.732  21.712  1.00  0.00     0.023 C 
HETATM    8  C15 UNL     1       7.216   6.754  23.073  1.00  0.00     0.023 C 
HETATM    9  C16 UNL     1       7.773   6.974  20.760  1.00  0.00     0.141 C 
HETATM   10  C17 UNL     1       8.477   6.807  19.504  1.00  0.00     0.006 C 
HETATM   11  C18 UNL     1       7.541   6.132  18.506  1.00  0.00     0.020 C 
HETATM   12  C19 UNL     1       8.774   8.176  18.848  1.00  0.00     0.020 C 
HETATM   13  C20 UNL     1       9.743   5.970  19.500  1.00  0.00     0.140 C 
ENDROOT
BRANCH   5  14
HETATM   14  C8  UNL     1       8.872   4.638  24.432  1.00  0.00    -0.000 C 
HETATM   15  C9  UNL     1       9.365   3.834  25.357  1.00  0.00     0.010 C 
BRANCH  15  16
HETATM   16  C10 UNL     1       8.476   3.137  26.291  1.00  0.00     0.068 C 
HETATM   17  C11 UNL     1       7.034   3.529  25.956  1.00  0.00     0.050 C 
HETATM   18  C12 UNL     1       8.693   3.596  27.739  1.00  0.00     0.050 C 
BRANCH  16  19
HETATM   19  O3  UNL     1       8.623   1.752  26.247  1.00  0.00    -0.387 OA
ATOM     20  H3  UNL     1       8.671   1.358  27.110  1.00  0.00     0.211 HD
ENDBRANCH  16  19
ENDBRANCH  15  16
ENDBRANCH   5  14
BRANCH   1  21
HETATM   21  C3  UNL     1      12.217   6.281  20.048  1.00  0.00     0.041 C 
BRANCH  21  22
HETATM   22  C2  UNL     1      13.094   7.044  19.144  1.00  0.00     0.168 C 
BRANCH  22  23
HETATM   23  O1  UNL     1      12.692   6.998  17.804  1.00  0.00    -0.396 OA
HETATM   24  C1  UNL     1      12.467   8.212  17.226  1.00  0.00     0.201 C 
ENDBRANCH  22  23
ENDBRANCH  21  22
ENDBRANCH   1  21
BRANCH   9  25
HETATM   25  O4  UNL     1       7.943   8.328  21.167  1.00  0.00    -0.394 OA
ATOM     26  H4  UNL     1       7.258   8.859  20.777  1.00  0.00     0.210 HD
ENDBRANCH   9  25
BRANCH  13  27
HETATM   27  O5  UNL     1      10.053   5.685  18.177  1.00  0.00    -0.394 OA
ATOM     28  H5  UNL     1       9.290   5.562  17.624  1.00  0.00     0.210 HD
ENDBRANCH  13  27
TORSDOF 8
ENDMDL
MODEL 5
REMARK VINA RESULT: -5.852218736      3.845      6.151
REMARK  8 active torsions:
REMARK  status: ('A' for Active; 'I' for Inactive)
REMARK    1  A    between atoms: O1_2  and  C2_3 
REMARK    2  A    between atoms: C2_3  and  C3_4 
REMARK    3  A    between atoms: C3_4  and  C4_5 
REMARK    4  A    between atoms: C7_9  and  C8_10 
REMARK    5  A    between atoms: C9_11  and  C10_12 
REMARK    6  A    between atoms: C10_12  and  O3_15 
REMARK    7  A    between atoms: C16_20  and  O4_21 
REMARK    8  A    between atoms: C20_26  and  O5_27 
ROOT
HETATM    1  C4  UNL     1       8.445   5.361  21.841  1.00  0.00     0.092 C 
HETATM    2  C5  UNL     1       8.033   6.246  20.672  1.00  0.00     0.163 C 
HETATM    3  O2  UNL     1       6.814   6.516  20.624  1.00  0.00    -0.292 OA
HETATM    4  C6  UNL     1       8.868   6.817  19.608  1.00  0.00    -0.001 C 
HETATM    5  C7  UNL     1       8.253   6.868  18.453  1.00  0.00     0.011 C 
HETATM    6  C13 UNL     1      10.250   7.302  19.797  1.00  0.00     0.010 C 
HETATM    7  C14 UNL     1      11.233   6.598  18.890  1.00  0.00     0.023 C 
HETATM    8  C15 UNL     1      10.245   8.780  19.367  1.00  0.00     0.023 C 
HETATM    9  C16 UNL     1      10.737   7.326  21.198  1.00  0.00     0.141 C 
HETATM   10  C17 UNL     1      10.732   6.153  22.049  1.00  0.00     0.006 C 
HETATM   11  C18 UNL     1      12.149   5.592  22.117  1.00  0.00     0.020 C 
HETATM   12  C19 UNL     1      10.424   6.533  23.516  1.00  0.00     0.020 C 
HETATM   13  C20 UNL     1       9.854   4.983  21.645  1.00  0.00     0.140 C 
ENDROOT
BRANCH   5  14
HETATM   14  C8  UNL     1       8.747   7.359  17.176  1.00  0.00    -0.000 C 
HETATM   15  C9  UNL     1       8.092   8.267  16.475  1.00  0.00     0.010 C 
BRANCH  15  16
HETATM   16  C10 UNL     1       8.617   8.742  15.191  1.00  0.00     0.068 C 
HETATM   17  C11 UNL     1       9.649   7.724  14.696  1.00  0.00     0.050 C 
HETATM   18  C12 UNL     1       9.390  10.060  15.340  1.00  0.00     0.050 C 
BRANCH  16  19
HETATM   19  O3  UNL     1       7.622   8.927  14.233  1.00  0.00    -0.387 OA
ATOM     20  H3  UNL     1       7.848   8.555  13.389  1.00  0.00     0.211 HD
ENDBRANCH  16  19
ENDBRANCH  15  16
ENDBRANCH   5  14
BRANCH   1  21
HETATM   21  C3  UNL     1       7.404   4.296  21.857  1.00  0.00     0.041 C 
BRANCH  21  22
HETATM   22  C2  UNL     1       6.638   4.067  23.095  1.00  0.00     0.168 C 
BRANCH  22  23
HETATM   23  O1  UNL     1       5.421   3.409  22.887  1.00  0.00    -0.396 OA
HETATM   24  C1  UNL     1       4.355   3.944  23.546  1.00  0.00     0.201 C 
ENDBRANCH  22  23
ENDBRANCH  21  22
ENDBRANCH   1  21
BRANCH   9  25
HETATM   25  O4  UNL     1      10.072   8.368  21.905  1.00  0.00    -0.394 OA
ATOM     26  H4  UNL     1      10.534   9.186  21.761  1.00  0.00     0.210 HD
ENDBRANCH   9  25
BRANCH  13  27
HETATM   27  O5  UNL     1      10.245   3.885  22.400  1.00  0.00    -0.394 OA
ATOM     28  H5  UNL     1      10.489   3.130  21.877  1.00  0.00     0.210 HD
ENDBRANCH  13  27
TORSDOF 8
ENDMDL
