MODEL 1
REMARK VINA RESULT: -8.022197067      0.000      0.000
REMARK  8 active torsions:
REMARK  status: ('A' for Active; 'I' for Inactive)
REMARK    1  A    between atoms: C2_5  and  C3_6 
REMARK    2  A    between atoms: C2_5  and  N5_21 
REMARK    3  A    between atoms: C3_6  and  S1_7 
REMARK    4  A    between atoms: S1_7  and  C4_9 
REMARK    5  A    between atoms: C4_9  and  C5_10 
REMARK       I    between atoms: C5_10  and  N3_12 
REMARK    6  A    between atoms: C8_15  and  C9_16 
REMARK    7  A    between atoms: N5_21  and  C12_23 
REMARK    8  A    between atoms: C12_23  and  C13_24 
ROOT
HETATM    1  N1  UNL     1      22.781   6.262  11.561  1.00  0.00    -0.172 NA
HETATM    2  C1  UNL     1      22.313   5.211  11.654  1.00  0.00     0.183 C 
HETATM    3  N2  UNL     1      21.759   3.926  11.785  1.00  0.00    -0.282 N 
ATOM      4  H2  UNL     1      22.374   3.113  11.817  1.00  0.00     0.179 HD
HETATM    5  C2  UNL     1      20.467   3.763  11.866  1.00  0.00     0.097 C 
ENDROOT
BRANCH   5   6
HETATM    6  C3  UNL     1      19.536   4.915  11.824  1.00  0.00     0.185 C 
BRANCH   6   7
HETATM    7  S1  UNL     1      18.629   4.991  13.374  1.00  0.00     0.030 S 
HETATM    8  O1  UNL     1      19.514   4.116  14.526  1.00  0.00    -0.257 OA
BRANCH   7   9
HETATM    9  C4  UNL     1      17.069   4.204  13.071  1.00  0.00     0.212 C 
BRANCH   9  10
HETATM   10  C5  UNL     1      16.056   4.607  14.079  1.00  0.00     0.231 C 
HETATM   11  O2  UNL     1      15.697   5.812  14.166  1.00  0.00    -0.272 OA
HETATM   12  N3  UNL     1      15.504   3.618  14.937  1.00  0.00    -0.351 N 
HETATM   13  C6  UNL     1      15.921   2.225  14.828  1.00  0.00     0.126 C 
HETATM   14  C11 UNL     1      14.522   3.897  15.955  1.00  0.00     0.126 C 
HETATM   15  C7  UNL     1      16.624   1.901  16.127  1.00  0.00     0.033 C 
HETATM   16  C8  UNL     1      15.597   1.985  17.224  1.00  0.00     0.078 C 
HETATM   17  C10 UNL     1      14.828   3.259  17.271  1.00  0.00     0.033 C 
BRANCH  16  18
HETATM   18  C9  UNL     1      14.776   0.774  17.218  1.00  0.00     0.235 C 
HETATM   19  N4  UNL     1      15.302  -0.549  17.290  1.00  0.00    -0.062 NA
HETATM   20  O3  UNL     1      13.528   0.872  17.147  1.00  0.00    -0.277 OA
ENDBRANCH  16  18
ENDBRANCH   9  10
ENDBRANCH   7   9
ENDBRANCH   6   7
ENDBRANCH   5   6
BRANCH   5  21
HETATM   21  N5  UNL     1      19.983   2.430  11.998  1.00  0.00    -0.376 N 
ATOM     22  H5  UNL     1      19.939   1.958  12.902  1.00  0.00     0.160 HD
BRANCH  21  23
HETATM   23  C12 UNL     1      19.553   1.781  10.764  1.00  0.00     0.153 C 
BRANCH  23  24
HETATM   24  C13 UNL     1      18.179   1.217  11.049  1.00  0.00     0.139 C 
HETATM   25  C14 UNL     1      18.085  -0.129  10.364  1.00  0.00     0.035 C 
HETATM   26  C15 UNL     1      17.142  -0.872  11.287  1.00  0.00     0.029 C 
HETATM   27  C16 UNL     1      17.117  -0.045  12.546  1.00  0.00     0.168 C 
HETATM   28  O4  UNL     1      18.069   0.962  12.414  1.00  0.00    -0.384 OA
ENDBRANCH  23  24
ENDBRANCH  21  23
ENDBRANCH   5  21
TORSDOF 8
ENDMDL
MODEL 2
REMARK VINA RESULT: -7.979621454      1.008      1.157
REMARK  8 active torsions:
REMARK  status: ('A' for Active; 'I' for Inactive)
REMARK    1  A    between atoms: C2_5  and  C3_6 
REMARK    2  A    between atoms: C2_5  and  N5_21 
REMARK    3  A    between atoms: C3_6  and  S1_7 
REMARK    4  A    between atoms: S1_7  and  C4_9 
REMARK    5  A    between atoms: C4_9  and  C5_10 
REMARK       I    between atoms: C5_10  and  N3_12 
REMARK    6  A    between atoms: C8_15  and  C9_16 
REMARK    7  A    between atoms: N5_21  and  C12_23 
REMARK    8  A    between atoms: C12_23  and  C13_24 
ROOT
HETATM    1  N1  UNL     1      22.586   6.610  11.912  1.00  0.00    -0.172 NA
HETATM    2  C1  UNL     1      22.068   5.578  11.927  1.00  0.00     0.183 C 
HETATM    3  N2  UNL     1      21.455   4.315  11.960  1.00  0.00    -0.282 N 
ATOM      4  H2  UNL     1      22.015   3.477  11.802  1.00  0.00     0.179 HD
HETATM    5  C2  UNL     1      20.175   4.201  12.190  1.00  0.00     0.097 C 
ENDROOT
BRANCH   5   6
HETATM    6  C3  UNL     1      19.322   5.390  12.425  1.00  0.00     0.185 C 
BRANCH   6   7
HETATM    7  S1  UNL     1      18.429   5.173  13.970  1.00  0.00     0.030 S 
HETATM    8  O1  UNL     1      19.199   3.933  14.834  1.00  0.00    -0.257 OA
BRANCH   7   9
HETATM    9  C4  UNL     1      16.784   4.682  13.525  1.00  0.00     0.212 C 
BRANCH   9  10
HETATM   10  C5  UNL     1      15.839   4.876  14.653  1.00  0.00     0.231 C 
HETATM   11  O2  UNL     1      15.448   6.035  14.957  1.00  0.00    -0.272 OA
HETATM   12  N3  UNL     1      15.387   3.741  15.379  1.00  0.00    -0.351 N 
HETATM   13  C6  UNL     1      15.840   2.403  15.019  1.00  0.00     0.126 C 
HETATM   14  C11 UNL     1      14.477   3.813  16.494  1.00  0.00     0.126 C 
HETATM   15  C7  UNL     1      16.650   1.910  16.196  1.00  0.00     0.033 C 
HETATM   16  C8  UNL     1      15.708   1.774  17.362  1.00  0.00     0.078 C 
HETATM   17  C10 UNL     1      14.903   2.990  17.667  1.00  0.00     0.033 C 
BRANCH  16  18
HETATM   18  C9  UNL     1      14.929   0.544  17.220  1.00  0.00     0.235 C 
HETATM   19  N4  UNL     1      13.557   0.508  16.836  1.00  0.00    -0.062 NA
HETATM   20  O3  UNL     1      15.472  -0.564  17.442  1.00  0.00    -0.277 OA
ENDBRANCH  16  18
ENDBRANCH   9  10
ENDBRANCH   7   9
ENDBRANCH   6   7
ENDBRANCH   5   6
BRANCH   5  21
HETATM   21  N5  UNL     1      19.627   2.887  12.209  1.00  0.00    -0.376 N 
ATOM     22  H5  UNL     1      19.115   2.526  13.014  1.00  0.00     0.160 HD
BRANCH  21  23
HETATM   23  C12 UNL     1      19.843   2.088  11.007  1.00  0.00     0.153 C 
BRANCH  23  24
HETATM   24  C13 UNL     1      19.008   0.839  11.183  1.00  0.00     0.139 C 
HETATM   25  C14 UNL     1      17.879   1.173  12.134  1.00  0.00     0.035 C 
HETATM   26  C15 UNL     1      16.785   0.250  11.639  1.00  0.00     0.029 C 
HETATM   27  C16 UNL     1      17.255  -0.198  10.280  1.00  0.00     0.168 C 
HETATM   28  O4  UNL     1      18.406   0.523   9.968  1.00  0.00    -0.384 OA
ENDBRANCH  23  24
ENDBRANCH  21  23
ENDBRANCH   5  21
TORSDOF 8
ENDMDL
MODEL 3
REMARK VINA RESULT: -7.908643323      1.765      1.908
REMARK  8 active torsions:
REMARK  status: ('A' for Active; 'I' for Inactive)
REMARK    1  A    between atoms: C2_5  and  C3_6 
REMARK    2  A    between atoms: C2_5  and  N5_21 
REMARK    3  A    between atoms: C3_6  and  S1_7 
REMARK    4  A    between atoms: S1_7  and  C4_9 
REMARK    5  A    between atoms: C4_9  and  C5_10 
REMARK       I    between atoms: C5_10  and  N3_12 
REMARK    6  A    between atoms: C8_15  and  C9_16 
REMARK    7  A    between atoms: N5_21  and  C12_23 
REMARK    8  A    between atoms: C12_23  and  C13_24 
ROOT
HETATM    1  N1  UNL     1      20.767   6.665  12.721  1.00  0.00    -0.172 NA
HETATM    2  C1  UNL     1      20.562   5.529  12.684  1.00  0.00     0.183 C 
HETATM    3  N2  UNL     1      20.311   4.147  12.663  1.00  0.00    -0.282 N 
ATOM      4  H2  UNL     1      20.822   3.532  13.296  1.00  0.00     0.179 HD
HETATM    5  C2  UNL     1      19.431   3.642  11.842  1.00  0.00     0.097 C 
ENDROOT
BRANCH   5   6
HETATM    6  C3  UNL     1      18.666   4.498  10.905  1.00  0.00     0.185 C 
BRANCH   6   7
HETATM    7  S1  UNL     1      16.940   4.516  11.406  1.00  0.00     0.030 S 
HETATM    8  O1  UNL     1      16.081   5.399  10.240  1.00  0.00    -0.257 OA
BRANCH   7   9
HETATM    9  C4  UNL     1      16.888   5.353  12.969  1.00  0.00     0.212 C 
BRANCH   9  10
HETATM   10  C5  UNL     1      15.673   4.986  13.739  1.00  0.00     0.231 C 
HETATM   11  O2  UNL     1      14.677   5.757  13.749  1.00  0.00    -0.272 OA
HETATM   12  N3  UNL     1      15.655   3.761  14.458  1.00  0.00    -0.351 N 
HETATM   13  C6  UNL     1      16.810   2.872  14.437  1.00  0.00     0.126 C 
HETATM   14  C11 UNL     1      14.534   3.308  15.243  1.00  0.00     0.126 C 
HETATM   15  C7  UNL     1      17.334   2.841  15.855  1.00  0.00     0.033 C 
HETATM   16  C8  UNL     1      16.277   2.194  16.709  1.00  0.00     0.078 C 
HETATM   17  C10 UNL     1      14.919   2.795  16.593  1.00  0.00     0.033 C 
BRANCH  16  18
HETATM   18  C9  UNL     1      16.320   0.743  16.525  1.00  0.00     0.235 C 
HETATM   19  N4  UNL     1      15.230  -0.131  16.808  1.00  0.00    -0.062 NA
HETATM   20  O3  UNL     1      17.367   0.204  16.093  1.00  0.00    -0.277 OA
ENDBRANCH  16  18
ENDBRANCH   9  10
ENDBRANCH   7   9
ENDBRANCH   6   7
ENDBRANCH   5   6
BRANCH   5  21
HETATM   21  N5  UNL     1      19.232   2.233  11.882  1.00  0.00    -0.376 N 
ATOM     22  H5  UNL     1      18.763   1.775  12.664  1.00  0.00     0.160 HD
BRANCH  21  23
HETATM   23  C12 UNL     1      19.737   1.484  10.736  1.00  0.00     0.153 C 
BRANCH  23  24
HETATM   24  C13 UNL     1      18.659   0.482  10.386  1.00  0.00     0.139 C 
HETATM   25  C14 UNL     1      18.596  -0.533  11.507  1.00  0.00     0.035 C 
HETATM   26  C15 UNL     1      17.133  -0.923  11.478  1.00  0.00     0.029 C 
HETATM   27  C16 UNL     1      16.472   0.149  10.652  1.00  0.00     0.168 C 
HETATM   28  O4  UNL     1      17.426   1.129  10.384  1.00  0.00    -0.384 OA
ENDBRANCH  23  24
ENDBRANCH  21  23
ENDBRANCH   5  21
TORSDOF 8
ENDMDL
MODEL 4
REMARK VINA RESULT: -7.696515279      1.565      1.752
REMARK  8 active torsions:
REMARK  status: ('A' for Active; 'I' for Inactive)
REMARK    1  A    between atoms: C2_5  and  C3_6 
REMARK    2  A    between atoms: C2_5  and  N5_21 
REMARK    3  A    between atoms: C3_6  and  S1_7 
REMARK    4  A    between atoms: S1_7  and  C4_9 
REMARK    5  A    between atoms: C4_9  and  C5_10 
REMARK       I    between atoms: C5_10  and  N3_12 
REMARK    6  A    between atoms: C8_15  and  C9_16 
REMARK    7  A    between atoms: N5_21  and  C12_23 
REMARK    8  A    between atoms: C12_23  and  C13_24 
ROOT
HETATM    1  N1  UNL     1      19.975   5.178   7.809  1.00  0.00    -0.172 NA
HETATM    2  C1  UNL     1      20.063   4.340   8.598  1.00  0.00     0.183 C 
HETATM    3  N2  UNL     1      20.194   3.318   9.554  1.00  0.00    -0.282 N 
ATOM      4  H2  UNL     1      20.691   2.461   9.311  1.00  0.00     0.179 HD
HETATM    5  C2  UNL     1      19.686   3.454  10.748  1.00  0.00     0.097 C 
ENDROOT
BRANCH   5   6
HETATM    6  C3  UNL     1      18.956   4.681  11.144  1.00  0.00     0.185 C 
BRANCH   6   7
HETATM    7  S1  UNL     1      17.440   4.214  11.990  1.00  0.00     0.030 S 
HETATM    8  O1  UNL     1      16.220   5.271  11.468  1.00  0.00    -0.257 OA
BRANCH   7   9
HETATM    9  C4  UNL     1      17.751   4.443  13.721  1.00  0.00     0.212 C 
BRANCH   9  10
HETATM   10  C5  UNL     1      16.501   4.762  14.456  1.00  0.00     0.231 C 
HETATM   11  O2  UNL     1      16.061   5.943  14.469  1.00  0.00    -0.272 OA
HETATM   12  N3  UNL     1      15.817   3.721  15.140  1.00  0.00    -0.351 N 
HETATM   13  C6  UNL     1      16.329   2.357  15.117  1.00  0.00     0.126 C 
HETATM   14  C11 UNL     1      14.602   3.918  15.891  1.00  0.00     0.126 C 
HETATM   15  C7  UNL     1      16.714   2.034  16.543  1.00  0.00     0.033 C 
HETATM   16  C8  UNL     1      15.448   2.032  17.358  1.00  0.00     0.078 C 
HETATM   17  C10 UNL     1      14.616   3.261  17.232  1.00  0.00     0.033 C 
BRANCH  16  18
HETATM   18  C9  UNL     1      14.725   0.779  17.134  1.00  0.00     0.235 C 
HETATM   19  N4  UNL     1      15.323  -0.512  17.212  1.00  0.00    -0.062 NA
HETATM   20  O3  UNL     1      13.503   0.809  16.856  1.00  0.00    -0.277 OA
ENDBRANCH  16  18
ENDBRANCH   9  10
ENDBRANCH   7   9
ENDBRANCH   6   7
ENDBRANCH   5   6
BRANCH   5  21
HETATM   21  N5  UNL     1      19.861   2.375  11.661  1.00  0.00    -0.376 N 
ATOM     22  H5  UNL     1      19.997   2.529  12.660  1.00  0.00     0.160 HD
BRANCH  21  23
HETATM   23  C12 UNL     1      19.836   1.036  11.080  1.00  0.00     0.153 C 
BRANCH  23  24
HETATM   24  C13 UNL     1      18.403   0.563  11.192  1.00  0.00     0.139 C 
HETATM   25  C14 UNL     1      18.392  -0.928  10.932  1.00  0.00     0.035 C 
HETATM   26  C15 UNL     1      17.224  -1.372  11.788  1.00  0.00     0.029 C 
HETATM   27  C16 UNL     1      16.962  -0.207  12.705  1.00  0.00     0.168 C 
HETATM   28  O4  UNL     1      17.975   0.728  12.506  1.00  0.00    -0.384 OA
ENDBRANCH  23  24
ENDBRANCH  21  23
ENDBRANCH   5  21
TORSDOF 8
ENDMDL
MODEL 5
REMARK VINA RESULT: -7.618073851      2.037      4.026
REMARK  8 active torsions:
REMARK  status: ('A' for Active; 'I' for Inactive)
REMARK    1  A    between atoms: C2_5  and  C3_6 
REMARK    2  A    between atoms: C2_5  and  N5_21 
REMARK    3  A    between atoms: C3_6  and  S1_7 
REMARK    4  A    between atoms: S1_7  and  C4_9 
REMARK    5  A    between atoms: C4_9  and  C5_10 
REMARK       I    between atoms: C5_10  and  N3_12 
REMARK    6  A    between atoms: C8_15  and  C9_16 
REMARK    7  A    between atoms: N5_21  and  C12_23 
REMARK    8  A    between atoms: C12_23  and  C13_24 
ROOT
HETATM    1  N1  UNL     1      16.789  -0.058  12.167  1.00  0.00    -0.172 NA
HETATM    2  C1  UNL     1      17.774   0.521  11.998  1.00  0.00     0.183 C 
HETATM    3  N2  UNL     1      18.981   1.206  11.781  1.00  0.00    -0.282 N 
ATOM      4  H2  UNL     1      19.862   0.774  12.057  1.00  0.00     0.179 HD
HETATM    5  C2  UNL     1      18.986   2.390  11.232  1.00  0.00     0.097 C 
ENDROOT
BRANCH   5   6
HETATM    6  C3  UNL     1      17.729   3.056  10.815  1.00  0.00     0.185 C 
BRANCH   6   7
HETATM    7  S1  UNL     1      17.560   4.603  11.714  1.00  0.00     0.030 S 
HETATM    8  O1  UNL     1      18.851   5.602  11.256  1.00  0.00    -0.257 OA
BRANCH   7   9
HETATM    9  C4  UNL     1      17.684   4.189  13.434  1.00  0.00     0.212 C 
BRANCH   9  10
HETATM   10  C5  UNL     1      16.450   4.562  14.171  1.00  0.00     0.231 C 
HETATM   11  O2  UNL     1      16.012   5.742  14.109  1.00  0.00    -0.272 OA
HETATM   12  N3  UNL     1      15.779   3.574  14.939  1.00  0.00    -0.351 N 
HETATM   13  C6  UNL     1      16.290   2.210  15.002  1.00  0.00     0.126 C 
HETATM   14  C11 UNL     1      14.580   3.826  15.698  1.00  0.00     0.126 C 
HETATM   15  C7  UNL     1      16.703   1.988  16.439  1.00  0.00     0.033 C 
HETATM   16  C8  UNL     1      15.453   2.045  17.277  1.00  0.00     0.078 C 
HETATM   17  C10 UNL     1      14.620   3.264  17.083  1.00  0.00     0.033 C 
BRANCH  16  18
HETATM   18  C9  UNL     1      14.725   0.782  17.157  1.00  0.00     0.235 C 
HETATM   19  N4  UNL     1      15.344  -0.502  17.188  1.00  0.00    -0.062 NA
HETATM   20  O3  UNL     1      13.479   0.794  17.017  1.00  0.00    -0.277 OA
ENDBRANCH  16  18
ENDBRANCH   9  10
ENDBRANCH   7   9
ENDBRANCH   6   7
ENDBRANCH   5   6
BRANCH   5  21
HETATM   21  N5  UNL     1      20.249   3.020  11.044  1.00  0.00    -0.376 N 
ATOM     22  H5  UNL     1      20.796   3.377  11.827  1.00  0.00     0.160 HD
BRANCH  21  23
HETATM   23  C12 UNL     1      20.713   3.122   9.664  1.00  0.00     0.153 C 
BRANCH  23  24
HETATM   24  C13 UNL     1      21.871   4.096   9.687  1.00  0.00     0.139 C 
HETATM   25  C14 UNL     1      22.234   4.342  11.136  1.00  0.00     0.035 C 
HETATM   26  C15 UNL     1      23.721   4.608  11.032  1.00  0.00     0.029 C 
HETATM   27  C16 UNL     1      24.098   4.117   9.659  1.00  0.00     0.168 C 
HETATM   28  O4  UNL     1      22.983   3.488   9.110  1.00  0.00    -0.384 OA
ENDBRANCH  23  24
ENDBRANCH  21  23
ENDBRANCH   5  21
TORSDOF 8
ENDMDL
