MODEL 1
REMARK VINA RESULT: -6.461683450      0.000      0.000
REMARK  8 active torsions:
REMARK  status: ('A' for Active; 'I' for Inactive)
REMARK    1  A    between atoms: S1_2  and  C2_4 
REMARK    2  A    between atoms: C2_4  and  C3_5 
REMARK    3  A    between atoms: C6_10  and  N1_11 
REMARK       I    between atoms: N1_11  and  C7_13 
REMARK    4  A    between atoms: C7_13  and  C8_15 
REMARK    5  A    between atoms: C8_15  and  C9_16 
REMARK    6  A    between atoms: C8_15  and  N2_18 
REMARK       I    between atoms: N2_18  and  C10_20 
REMARK    7  A    between atoms: C10_20  and  C11_22 
REMARK    8  A    between atoms: C13_24  and  O5_25 
ROOT
HETATM    1  N1  UNL     1      -0.903   1.928  84.212  1.00  0.00    -0.353 N 
ATOM      2  H1  UNL     1      -1.712   2.394  83.802  1.00  0.00     0.163 HD
HETATM    3  C7  UNL     1      -0.902   1.712  85.601  1.00  0.00     0.247 C 
HETATM    4  O2  UNL     1       0.074   1.141  86.147  1.00  0.00    -0.271 OA
ENDROOT
BRANCH   3   5
HETATM    5  C8  UNL     1      -2.017   2.129  86.493  1.00  0.00     0.238 C 
BRANCH   5   6
HETATM    6  C9  UNL     1      -2.090   1.343  87.727  1.00  0.00     0.266 C 
HETATM    7  O3  UNL     1      -2.730   0.324  87.797  1.00  0.00    -0.304 OA
ENDBRANCH   5   6
BRANCH   5   8
HETATM    8  N2  UNL     1      -1.875   3.524  86.855  1.00  0.00    -0.342 N 
HETATM    9  C10 UNL     1      -2.277   4.512  85.929  1.00  0.00     0.225 C 
HETATM   10  O4  UNL     1      -2.745   4.166  84.819  1.00  0.00    -0.273 OA
ATOM     11  H2  UNL     1      -1.492   3.788  87.763  1.00  0.00     0.163 HD
BRANCH   9  12
HETATM   12  C11 UNL     1      -2.174   5.967  86.200  1.00  0.00     0.109 A 
HETATM   13  C12 UNL     1      -0.813   6.547  85.799  1.00  0.00     0.049 A 
HETATM   14  C13 UNL     1      -2.076   6.937  85.091  1.00  0.00     0.132 A 
BRANCH  14  15
HETATM   15  O5  UNL     1      -2.547   8.220  85.358  1.00  0.00    -0.395 OA
ATOM     16  H5  UNL     1      -1.908   8.837  85.694  1.00  0.00     0.210 HD
ENDBRANCH  14  15
ENDBRANCH   9  12
ENDBRANCH   5   8
ENDBRANCH   3   5
BRANCH   1  17
HETATM   17  C6  UNL     1       0.173   1.530  83.327  1.00  0.00     0.100 C 
HETATM   18  C3  UNL     1       0.521   2.616  82.337  1.00  0.00     0.031 C 
HETATM   19  C4  UNL     1       2.013   2.681  82.136  1.00  0.00     0.093 C 
HETATM   20  S2  UNL     1       2.435   1.312  80.989  1.00  0.00    -0.097 SA
HETATM   21  S3  UNL     1       0.765  -0.038  81.126  1.00  0.00    -0.096 SA
HETATM   22  C5  UNL     1      -0.055   0.193  82.701  1.00  0.00     0.111 C 
BRANCH  18  23
HETATM   23  C2  UNL     1      -0.047   3.960  82.756  1.00  0.00     0.115 C 
BRANCH  23  24
HETATM   24  S1  UNL     1       0.030   5.055  81.356  1.00  0.00     0.011 S 
HETATM   25  C1  UNL     1       1.035   6.471  81.698  1.00  0.00     0.127 C 
HETATM   26  O1  UNL     1      -1.533   5.610  81.067  1.00  0.00    -0.258 OA
ENDBRANCH  23  24
ENDBRANCH  18  23
ENDBRANCH   1  17
TORSDOF 8
ENDMDL
MODEL 2
REMARK VINA RESULT: -6.370024169      2.725      4.967
REMARK  8 active torsions:
REMARK  status: ('A' for Active; 'I' for Inactive)
REMARK    1  A    between atoms: S1_2  and  C2_4 
REMARK    2  A    between atoms: C2_4  and  C3_5 
REMARK    3  A    between atoms: C6_10  and  N1_11 
REMARK       I    between atoms: N1_11  and  C7_13 
REMARK    4  A    between atoms: C7_13  and  C8_15 
REMARK    5  A    between atoms: C8_15  and  C9_16 
REMARK    6  A    between atoms: C8_15  and  N2_18 
REMARK       I    between atoms: N2_18  and  C10_20 
REMARK    7  A    between atoms: C10_20  and  C11_22 
REMARK    8  A    between atoms: C13_24  and  O5_25 
ROOT
HETATM    1  N1  UNL     1       0.216   4.669  83.412  1.00  0.00    -0.353 N 
ATOM      2  H1  UNL     1      -0.743   5.003  83.510  1.00  0.00     0.163 HD
HETATM    3  C7  UNL     1       0.434   3.281  83.419  1.00  0.00     0.247 C 
HETATM    4  O2  UNL     1       1.598   2.828  83.301  1.00  0.00    -0.271 OA
ENDROOT
BRANCH   3   5
HETATM    5  C8  UNL     1      -0.660   2.283  83.562  1.00  0.00     0.238 C 
BRANCH   5   6
HETATM    6  C9  UNL     1      -0.476   1.104  82.713  1.00  0.00     0.266 C 
HETATM    7  O3  UNL     1      -0.470  -0.013  83.165  1.00  0.00    -0.304 OA
ENDBRANCH   5   6
BRANCH   5   8
HETATM    8  N2  UNL     1      -0.757   1.837  84.936  1.00  0.00    -0.342 N 
HETATM    9  C10 UNL     1      -1.568   2.567  85.833  1.00  0.00     0.225 C 
HETATM   10  O4  UNL     1      -2.184   3.581  85.426  1.00  0.00    -0.273 OA
ATOM     11  H2  UNL     1      -0.249   1.011  85.251  1.00  0.00     0.163 HD
BRANCH   9  12
HETATM   12  C11 UNL     1      -1.736   2.197  87.260  1.00  0.00     0.109 A 
HETATM   13  C12 UNL     1      -3.090   1.536  87.543  1.00  0.00     0.049 A 
HETATM   14  C13 UNL     1      -1.801   0.780  87.670  1.00  0.00     0.132 A 
BRANCH  14  15
HETATM   15  O5  UNL     1      -1.390   0.500  88.970  1.00  0.00    -0.395 OA
ATOM     16  H5  UNL     1      -1.468  -0.406  89.246  1.00  0.00     0.210 HD
ENDBRANCH  14  15
ENDBRANCH   9  12
ENDBRANCH   5   8
ENDBRANCH   3   5
BRANCH   1  17
HETATM   17  C6  UNL     1       1.267   5.657  83.275  1.00  0.00     0.100 C 
HETATM   18  C3  UNL     1       0.943   6.933  84.014  1.00  0.00     0.031 C 
HETATM   19  C4  UNL     1       2.182   7.486  84.671  1.00  0.00     0.093 C 
HETATM   20  S2  UNL     1       3.129   8.332  83.347  1.00  0.00    -0.097 SA
HETATM   21  S3  UNL     1       2.372   7.487  81.519  1.00  0.00    -0.096 SA
HETATM   22  C5  UNL     1       1.683   5.869  81.856  1.00  0.00     0.111 C 
BRANCH  18  23
HETATM   23  C2  UNL     1      -0.180   6.733  85.014  1.00  0.00     0.115 C 
BRANCH  23  24
HETATM   24  S1  UNL     1      -1.644   7.512  84.369  1.00  0.00     0.011 S 
HETATM   25  C1  UNL     1      -2.740   8.004  85.668  1.00  0.00     0.127 C 
HETATM   26  O1  UNL     1      -2.455   6.364  83.441  1.00  0.00    -0.258 OA
ENDBRANCH  23  24
ENDBRANCH  18  23
ENDBRANCH   1  17
TORSDOF 8
ENDMDL
MODEL 3
REMARK VINA RESULT: -6.346671165      3.189      5.279
REMARK  8 active torsions:
REMARK  status: ('A' for Active; 'I' for Inactive)
REMARK    1  A    between atoms: S1_2  and  C2_4 
REMARK    2  A    between atoms: C2_4  and  C3_5 
REMARK    3  A    between atoms: C6_10  and  N1_11 
REMARK       I    between atoms: N1_11  and  C7_13 
REMARK    4  A    between atoms: C7_13  and  C8_15 
REMARK    5  A    between atoms: C8_15  and  C9_16 
REMARK    6  A    between atoms: C8_15  and  N2_18 
REMARK       I    between atoms: N2_18  and  C10_20 
REMARK    7  A    between atoms: C10_20  and  C11_22 
REMARK    8  A    between atoms: C13_24  and  O5_25 
ROOT
HETATM    1  N1  UNL     1       0.404   3.219  81.534  1.00  0.00    -0.353 N 
ATOM      2  H1  UNL     1       1.278   3.252  82.060  1.00  0.00     0.163 HD
HETATM    3  C7  UNL     1      -0.471   2.147  81.778  1.00  0.00     0.247 C 
HETATM    4  O2  UNL     1      -1.557   2.069  81.153  1.00  0.00    -0.271 OA
ENDROOT
BRANCH   3   5
HETATM    5  C8  UNL     1      -0.185   1.066  82.758  1.00  0.00     0.238 C 
BRANCH   5   6
HETATM    6  C9  UNL     1       1.099   0.403  82.524  1.00  0.00     0.266 C 
HETATM    7  O3  UNL     1       1.680   0.492  81.471  1.00  0.00    -0.304 OA
ENDBRANCH   5   6
BRANCH   5   8
HETATM    8  N2  UNL     1      -0.178   1.599  84.105  1.00  0.00    -0.342 N 
HETATM    9  C10 UNL     1      -0.465   0.731  85.181  1.00  0.00     0.225 C 
HETATM   10  O4  UNL     1      -0.721  -0.475  84.954  1.00  0.00    -0.273 OA
ATOM     11  H2  UNL     1       0.032   2.582  84.272  1.00  0.00     0.163 HD
BRANCH   9  12
HETATM   12  C11 UNL     1      -0.484   1.174  86.597  1.00  0.00     0.109 A 
HETATM   13  C12 UNL     1      -1.610   2.172  86.888  1.00  0.00     0.049 A 
HETATM   14  C13 UNL     1      -1.597   0.799  87.491  1.00  0.00     0.132 A 
BRANCH  14  15
HETATM   15  O5  UNL     1      -1.298   0.739  88.850  1.00  0.00    -0.395 OA
ATOM     16  H5  UNL     1      -1.702   1.402  89.396  1.00  0.00     0.210 HD
ENDBRANCH  14  15
ENDBRANCH   9  12
ENDBRANCH   5   8
ENDBRANCH   3   5
BRANCH   1  17
HETATM   17  C6  UNL     1       0.144   4.282  80.583  1.00  0.00     0.100 C 
HETATM   18  C3  UNL     1       1.394   4.695  79.843  1.00  0.00     0.031 C 
HETATM   19  C4  UNL     1       1.075   4.977  78.397  1.00  0.00     0.093 C 
HETATM   20  S2  UNL     1       0.331   6.654  78.355  1.00  0.00    -0.097 SA
HETATM   21  S3  UNL     1      -0.334   6.998  80.372  1.00  0.00    -0.096 SA
HETATM   22  C5  UNL     1      -0.609   5.424  81.181  1.00  0.00     0.111 C 
BRANCH  18  23
HETATM   23  C2  UNL     1       2.496   3.661  79.981  1.00  0.00     0.115 C 
BRANCH  23  24
HETATM   24  S1  UNL     1       3.600   4.197  81.270  1.00  0.00     0.011 S 
HETATM   25  C1  UNL     1       5.293   4.034  80.779  1.00  0.00     0.127 C 
HETATM   26  O1  UNL     1       3.363   3.179  82.590  1.00  0.00    -0.258 OA
ENDBRANCH  23  24
ENDBRANCH  18  23
ENDBRANCH   1  17
TORSDOF 8
ENDMDL
MODEL 4
REMARK VINA RESULT: -6.301574204      2.512      4.601
REMARK  8 active torsions:
REMARK  status: ('A' for Active; 'I' for Inactive)
REMARK    1  A    between atoms: S1_2  and  C2_4 
REMARK    2  A    between atoms: C2_4  and  C3_5 
REMARK    3  A    between atoms: C6_10  and  N1_11 
REMARK       I    between atoms: N1_11  and  C7_13 
REMARK    4  A    between atoms: C7_13  and  C8_15 
REMARK    5  A    between atoms: C8_15  and  C9_16 
REMARK    6  A    between atoms: C8_15  and  N2_18 
REMARK       I    between atoms: N2_18  and  C10_20 
REMARK    7  A    between atoms: C10_20  and  C11_22 
REMARK    8  A    between atoms: C13_24  and  O5_25 
ROOT
HETATM    1  N1  UNL     1       0.786   3.604  82.501  1.00  0.00    -0.353 N 
ATOM      2  H1  UNL     1      -0.144   3.999  82.647  1.00  0.00     0.163 HD
HETATM    3  C7  UNL     1       0.948   2.219  82.675  1.00  0.00     0.247 C 
HETATM    4  O2  UNL     1       2.074   1.693  82.504  1.00  0.00    -0.271 OA
ENDROOT
BRANCH   3   5
HETATM    5  C8  UNL     1      -0.164   1.309  83.060  1.00  0.00     0.238 C 
BRANCH   5   6
HETATM    6  C9  UNL     1      -0.054  -0.019  82.454  1.00  0.00     0.266 C 
HETATM    7  O3  UNL     1      -0.400  -1.017  83.035  1.00  0.00    -0.304 OA
ENDBRANCH   5   6
BRANCH   5   8
HETATM    8  N2  UNL     1      -0.203   1.145  84.498  1.00  0.00    -0.342 N 
HETATM    9  C10 UNL     1      -0.900   2.099  85.272  1.00  0.00     0.225 C 
HETATM   10  O4  UNL     1      -1.467   3.063  84.705  1.00  0.00    -0.273 OA
ATOM     11  H2  UNL     1       0.264   0.356  84.944  1.00  0.00     0.163 HD
BRANCH   9  12
HETATM   12  C11 UNL     1      -1.001   2.025  86.751  1.00  0.00     0.109 A 
HETATM   13  C12 UNL     1      -2.443   2.169  87.251  1.00  0.00     0.049 A 
HETATM   14  C13 UNL     1      -1.678   0.888  87.406  1.00  0.00     0.132 A 
BRANCH  14  15
HETATM   15  O5  UNL     1      -1.257   0.588  88.699  1.00  0.00    -0.395 OA
ATOM     16  H5  UNL     1      -1.158  -0.335  88.901  1.00  0.00     0.210 HD
ENDBRANCH  14  15
ENDBRANCH   9  12
ENDBRANCH   5   8
ENDBRANCH   3   5
BRANCH   1  17
HETATM   17  C6  UNL     1       1.855   4.508  82.126  1.00  0.00     0.100 C 
HETATM   18  C3  UNL     1       1.865   5.755  82.977  1.00  0.00     0.031 C 
HETATM   19  C4  UNL     1       3.281   6.158  83.299  1.00  0.00     0.093 C 
HETATM   20  S2  UNL     1       3.923   7.007  81.805  1.00  0.00    -0.097 SA
HETATM   21  S3  UNL     1       2.631   6.351  80.215  1.00  0.00    -0.096 SA
HETATM   22  C5  UNL     1       1.900   4.778  80.658  1.00  0.00     0.111 C 
BRANCH  18  23
HETATM   23  C2  UNL     1       1.032   5.583  84.234  1.00  0.00     0.115 C 
BRANCH  23  24
HETATM   24  S1  UNL     1      -0.446   6.558  84.057  1.00  0.00     0.011 S 
HETATM   25  C1  UNL     1      -1.409   6.546  85.543  1.00  0.00     0.127 C 
HETATM   26  O1  UNL     1      -1.380   5.840  82.854  1.00  0.00    -0.258 OA
ENDBRANCH  23  24
ENDBRANCH  18  23
ENDBRANCH   1  17
TORSDOF 8
ENDMDL
MODEL 5
REMARK VINA RESULT: -6.270129836      0.999      1.064
REMARK  8 active torsions:
REMARK  status: ('A' for Active; 'I' for Inactive)
REMARK    1  A    between atoms: S1_2  and  C2_4 
REMARK    2  A    between atoms: C2_4  and  C3_5 
REMARK    3  A    between atoms: C6_10  and  N1_11 
REMARK       I    between atoms: N1_11  and  C7_13 
REMARK    4  A    between atoms: C7_13  and  C8_15 
REMARK    5  A    between atoms: C8_15  and  C9_16 
REMARK    6  A    between atoms: C8_15  and  N2_18 
REMARK       I    between atoms: N2_18  and  C10_20 
REMARK    7  A    between atoms: C10_20  and  C11_22 
REMARK    8  A    between atoms: C13_24  and  O5_25 
ROOT
HETATM    1  N1  UNL     1      -1.087   2.646  84.052  1.00  0.00    -0.353 N 
ATOM      2  H1  UNL     1      -1.846   3.055  83.506  1.00  0.00     0.163 HD
HETATM    3  C7  UNL     1      -1.176   2.709  85.453  1.00  0.00     0.247 C 
HETATM    4  O2  UNL     1      -0.264   2.218  86.162  1.00  0.00    -0.271 OA
ENDROOT
BRANCH   3   5
HETATM    5  C8  UNL     1      -2.315   3.340  86.171  1.00  0.00     0.238 C 
BRANCH   5   6
HETATM    6  C9  UNL     1      -2.660   2.653  87.417  1.00  0.00     0.266 C 
HETATM    7  O3  UNL     1      -3.426   1.722  87.442  1.00  0.00    -0.304 OA
ENDBRANCH   5   6
BRANCH   5   8
HETATM    8  N2  UNL     1      -2.007   4.719  86.488  1.00  0.00    -0.342 N 
HETATM    9  C10 UNL     1      -2.194   5.704  85.493  1.00  0.00     0.225 C 
HETATM   10  O4  UNL     1      -2.619   5.369  84.362  1.00  0.00    -0.273 OA
ATOM     11  H2  UNL     1      -1.662   4.974  87.413  1.00  0.00     0.163 HD
BRANCH   9  12
HETATM   12  C11 UNL     1      -1.909   7.143  85.713  1.00  0.00     0.109 A 
HETATM   13  C12 UNL     1      -0.489   7.390  86.233  1.00  0.00     0.049 A 
HETATM   14  C13 UNL     1      -0.924   7.855  84.875  1.00  0.00     0.132 A 
BRANCH  14  15
HETATM   15  O5  UNL     1      -1.115   9.227  84.738  1.00  0.00    -0.395 OA
ATOM     16  H5  UNL     1      -0.339   9.767  84.828  1.00  0.00     0.210 HD
ENDBRANCH  14  15
ENDBRANCH   9  12
ENDBRANCH   5   8
ENDBRANCH   3   5
BRANCH   1  17
HETATM   17  C6  UNL     1       0.015   2.036  83.333  1.00  0.00     0.100 C 
HETATM   18  C3  UNL     1       0.531   2.928  82.230  1.00  0.00     0.031 C 
HETATM   19  C4  UNL     1       2.034   2.848  82.154  1.00  0.00     0.093 C 
HETATM   20  S2  UNL     1       2.420   1.291  81.263  1.00  0.00    -0.097 SA
HETATM   21  S3  UNL     1       0.633   0.108  81.449  1.00  0.00    -0.096 SA
HETATM   22  C5  UNL     1      -0.281   0.640  82.893  1.00  0.00     0.111 C 
BRANCH  18  23
HETATM   23  C2  UNL     1       0.053   4.359  82.394  1.00  0.00     0.115 C 
BRANCH  23  24
HETATM   24  S1  UNL     1      -0.212   5.044  80.774  1.00  0.00     0.011 S 
HETATM   25  C1  UNL     1       0.996   6.280  80.390  1.00  0.00     0.127 C 
HETATM   26  O1  UNL     1      -1.714   5.805  80.791  1.00  0.00    -0.258 OA
ENDBRANCH  23  24
ENDBRANCH  18  23
ENDBRANCH   1  17
TORSDOF 8
ENDMDL
