MODEL 1
REMARK VINA RESULT: -4.924922935      0.000      0.000
REMARK  3 active torsions:
REMARK  status: ('A' for Active; 'I' for Inactive)
REMARK    1  A    between atoms: N1_1  and  C1_5 
REMARK    2  A    between atoms: C3_10  and  N3_11 
REMARK    3  A    between atoms: N3_11  and  C4_13 
ROOT
HETATM    1  C1  UNL     1      81.424   4.345 -41.129  1.00  0.00     0.212 C 
HETATM    2  C2  UNL     1      81.375   3.627 -39.818  1.00  0.00     0.267 C 
HETATM    3  N2  UNL     1      82.704   3.704 -39.293  1.00  0.00    -0.052 N 
ATOM      4  H21 UNL     1      82.891   3.051 -38.531  1.00  0.00     0.279 HD
ATOM      5  H22 UNL     1      82.895   4.553 -38.762  1.00  0.00     0.279 HD
HETATM    6  C3  UNL     1      83.549   3.526 -40.437  1.00  0.00     0.288 C 
HETATM    7  C5  UNL     1      82.874   4.290 -41.542  1.00  0.00     0.089 C 
ENDROOT
BRANCH   1   8
HETATM    8  N1  UNL     1      80.964   5.708 -40.917  1.00  0.00    -0.073 N 
ATOM      9  H13 UNL     1      80.782   6.202 -41.790  1.00  0.00     0.274 HD
ATOM     10  H12 UNL     1      80.018   5.750 -40.537  1.00  0.00     0.274 HD
ATOM     11  H11 UNL     1      81.646   6.185 -40.328  1.00  0.00     0.274 HD
ENDBRANCH   1   8
BRANCH   6  12
HETATM   12  N3  UNL     1      83.672   2.117 -40.716  1.00  0.00    -0.341 N 
ATOM     13  H3  UNL     1      83.002   1.483 -40.282  1.00  0.00     0.163 HD
BRANCH  12  14
HETATM   14  C4  UNL     1      84.665   1.562 -41.552  1.00  0.00     0.350 C 
HETATM   15  O1  UNL     1      85.467   0.723 -41.097  1.00  0.00    -0.284 OA
ENDBRANCH  12  14
ENDBRANCH   6  12
TORSDOF 3
ENDMDL
MODEL 2
REMARK VINA RESULT: -4.665166814      5.428      6.571
REMARK  3 active torsions:
REMARK  status: ('A' for Active; 'I' for Inactive)
REMARK    1  A    between atoms: N1_1  and  C1_5 
REMARK    2  A    between atoms: C3_10  and  N3_11 
REMARK    3  A    between atoms: N3_11  and  C4_13 
ROOT
HETATM    1  C1  UNL     1      78.635   6.929 -40.984  1.00  0.00     0.212 C 
HETATM    2  C2  UNL     1      79.924   6.255 -40.638  1.00  0.00     0.267 C 
HETATM    3  N2  UNL     1      79.673   5.560 -39.412  1.00  0.00    -0.052 N 
ATOM      4  H21 UNL     1      80.516   5.261 -38.921  1.00  0.00     0.279 HD
ATOM      5  H22 UNL     1      79.278   4.628 -39.535  1.00  0.00     0.279 HD
HETATM    6  C3  UNL     1      78.842   6.454 -38.661  1.00  0.00     0.288 C 
HETATM    7  C5  UNL     1      77.904   7.055 -39.670  1.00  0.00     0.089 C 
ENDROOT
BRANCH   1   8
HETATM    8  N1  UNL     1      77.923   6.086 -41.931  1.00  0.00    -0.073 N 
ATOM      9  H13 UNL     1      76.927   6.303 -41.979  1.00  0.00     0.274 HD
ATOM     10  H12 UNL     1      78.156   6.299 -42.901  1.00  0.00     0.274 HD
ATOM     11  H11 UNL     1      78.103   5.112 -41.687  1.00  0.00     0.274 HD
ENDBRANCH   1   8
BRANCH   6  12
HETATM   12  N3  UNL     1      79.676   7.433 -38.009  1.00  0.00    -0.341 N 
ATOM     13  H3  UNL     1      80.666   7.457 -38.252  1.00  0.00     0.163 HD
BRANCH  12  14
HETATM   14  C4  UNL     1      79.205   8.358 -37.053  1.00  0.00     0.350 C 
HETATM   15  O1  UNL     1      79.923   9.317 -36.705  1.00  0.00    -0.284 OA
ENDBRANCH  12  14
ENDBRANCH   6  12
TORSDOF 3
ENDMDL
MODEL 3
REMARK VINA RESULT: -4.535408866      2.303      3.154
REMARK  3 active torsions:
REMARK  status: ('A' for Active; 'I' for Inactive)
REMARK    1  A    between atoms: N1_1  and  C1_5 
REMARK    2  A    between atoms: C3_10  and  N3_11 
REMARK    3  A    between atoms: N3_11  and  C4_13 
ROOT
HETATM    1  C1  UNL     1      82.632   4.394 -40.961  1.00  0.00     0.212 C 
HETATM    2  C2  UNL     1      83.678   3.454 -40.454  1.00  0.00     0.267 C 
HETATM    3  N2  UNL     1      82.963   2.313 -39.971  1.00  0.00    -0.052 N 
ATOM      4  H21 UNL     1      83.513   1.698 -39.370  1.00  0.00     0.279 HD
ATOM      5  H22 UNL     1      82.758   1.615 -40.687  1.00  0.00     0.279 HD
HETATM    6  C3  UNL     1      81.800   2.864 -39.339  1.00  0.00     0.288 C 
HETATM    7  C5  UNL     1      81.374   3.998 -40.229  1.00  0.00     0.089 C 
ENDROOT
BRANCH   1   8
HETATM    8  N1  UNL     1      82.513   4.207 -42.398  1.00  0.00    -0.073 N 
ATOM      9  H13 UNL     1      83.320   3.729 -42.800  1.00  0.00     0.274 HD
ATOM     10  H12 UNL     1      81.806   3.516 -42.649  1.00  0.00     0.274 HD
ATOM     11  H11 UNL     1      82.343   5.118 -42.824  1.00  0.00     0.274 HD
ENDBRANCH   1   8
BRANCH   6  12
HETATM   12  N3  UNL     1      82.147   3.288 -38.006  1.00  0.00    -0.341 N 
ATOM     13  H3  UNL     1      82.310   4.283 -37.848  1.00  0.00     0.163 HD
BRANCH  12  14
HETATM   14  C4  UNL     1      82.275   2.412 -36.907  1.00  0.00     0.350 C 
HETATM   15  O1  UNL     1      82.473   1.196 -37.098  1.00  0.00    -0.284 OA
ENDBRANCH  12  14
ENDBRANCH   6  12
TORSDOF 3
ENDMDL
MODEL 4
REMARK VINA RESULT: -4.518276798      4.087      5.169
REMARK  3 active torsions:
REMARK  status: ('A' for Active; 'I' for Inactive)
REMARK    1  A    between atoms: N1_1  and  C1_5 
REMARK    2  A    between atoms: C3_10  and  N3_11 
REMARK    3  A    between atoms: N3_11  and  C4_13 
ROOT
HETATM    1  C1  UNL     1      81.054   4.511 -40.893  1.00  0.00     0.212 C 
HETATM    2  C2  UNL     1      81.380   3.498 -39.843  1.00  0.00     0.267 C 
HETATM    3  N2  UNL     1      80.358   2.501 -39.946  1.00  0.00    -0.052 N 
ATOM      4  H21 UNL     1      80.299   1.879 -39.140  1.00  0.00     0.279 HD
ATOM      5  H22 UNL     1      80.552   1.774 -40.635  1.00  0.00     0.279 HD
HETATM    6  C3  UNL     1      79.161   3.246 -40.202  1.00  0.00     0.288 C 
HETATM    7  C5  UNL     1      79.577   4.341 -41.145  1.00  0.00     0.089 C 
ENDROOT
BRANCH   1   8
HETATM    8  N1  UNL     1      81.850   4.214 -42.073  1.00  0.00    -0.073 N 
ATOM      9  H13 UNL     1      82.624   3.580 -41.875  1.00  0.00     0.274 HD
ATOM     10  H12 UNL     1      81.357   3.622 -42.742  1.00  0.00     0.274 HD
ATOM     11  H11 UNL     1      82.158   5.097 -42.480  1.00  0.00     0.274 HD
ENDBRANCH   1   8
BRANCH   6  12
HETATM   12  N3  UNL     1      78.640   3.741 -38.952  1.00  0.00    -0.341 N 
ATOM     13  H3  UNL     1      78.966   3.303 -38.091  1.00  0.00     0.163 HD
BRANCH  12  14
HETATM   14  C4  UNL     1      77.706   4.794 -38.849  1.00  0.00     0.350 C 
HETATM   15  O1  UNL     1      76.814   4.754 -37.978  1.00  0.00    -0.284 OA
ENDBRANCH  12  14
ENDBRANCH   6  12
TORSDOF 3
ENDMDL
MODEL 5
REMARK VINA RESULT: -4.508761116      5.346      6.017
REMARK  3 active torsions:
REMARK  status: ('A' for Active; 'I' for Inactive)
REMARK    1  A    between atoms: N1_1  and  C1_5 
REMARK    2  A    between atoms: C3_10  and  N3_11 
REMARK    3  A    between atoms: N3_11  and  C4_13 
ROOT
HETATM    1  C1  UNL     1      77.896   6.358 -40.820  1.00  0.00     0.212 C 
HETATM    2  C2  UNL     1      78.849   7.171 -40.002  1.00  0.00     0.267 C 
HETATM    3  N2  UNL     1      79.946   6.298 -39.716  1.00  0.00    -0.052 N 
ATOM      4  H21 UNL     1      80.554   6.623 -38.964  1.00  0.00     0.279 HD
ATOM      5  H22 UNL     1      80.664   6.280 -40.440  1.00  0.00     0.279 HD
HETATM    6  C3  UNL     1      79.333   5.026 -39.467  1.00  0.00     0.288 C 
HETATM    7  C5  UNL     1      78.222   4.926 -40.475  1.00  0.00     0.089 C 
ENDROOT
BRANCH   1   8
HETATM    8  N1  UNL     1      78.137   6.654 -42.223  1.00  0.00    -0.073 N 
ATOM      9  H13 UNL     1      79.130   6.720 -42.446  1.00  0.00     0.274 HD
ATOM     10  H12 UNL     1      77.911   5.871 -42.836  1.00  0.00     0.274 HD
ATOM     11  H11 UNL     1      77.623   7.502 -42.461  1.00  0.00     0.274 HD
ENDBRANCH   1   8
BRANCH   6  12
HETATM   12  N3  UNL     1      78.866   4.989 -38.104  1.00  0.00    -0.341 N 
ATOM     13  H3  UNL     1      79.460   5.400 -37.384  1.00  0.00     0.163 HD
BRANCH  12  14
HETATM   14  C4  UNL     1      77.639   4.418 -37.706  1.00  0.00     0.350 C 
HETATM   15  O1  UNL     1      76.676   5.152 -37.406  1.00  0.00    -0.284 OA
ENDBRANCH  12  14
ENDBRANCH   6  12
TORSDOF 3
ENDMDL
