MODEL 1
REMARK VINA RESULT: -7.560392861      0.000      0.000
REMARK  6 active torsions:
REMARK  status: ('A' for Active; 'I' for Inactive)
REMARK    1  A    between atoms: C2_2  and  C3_3 
REMARK    2  A    between atoms: C3_3  and  C4_4 
REMARK    3  A    between atoms: C4_4  and  C5_5 
REMARK    4  A    between atoms: C5_5  and  C6_6 
REMARK    5  A    between atoms: C6_6  and  C8_8 
REMARK    6  A    between atoms: C18_18  and  N1_19 
ROOT
HETATM    1  C8  UNL     1      63.435  47.450  29.047  1.00  0.00    -0.003 C 
HETATM    2  C9  UNL     1      63.638  46.181  28.266  1.00  0.00     0.005 C 
HETATM    3  C10 UNL     1      64.712  45.303  28.868  1.00  0.00     0.001 C 
HETATM    4  C11 UNL     1      65.998  46.082  29.116  1.00  0.00     0.010 C 
HETATM    5  C12 UNL     1      65.765  47.410  29.780  1.00  0.00    -0.036 C 
HETATM    6  C13 UNL     1      65.846  48.473  28.701  1.00  0.00     0.016 C 
HETATM    7  C14 UNL     1      64.305  47.394  30.253  1.00  0.00    -0.001 C 
HETATM    8  C15 UNL     1      64.100  48.458  31.270  1.00  0.00     0.006 C 
HETATM    9  C16 UNL     1      64.877  48.045  32.522  1.00  0.00     0.007 C 
HETATM   10  C17 UNL     1      66.241  47.562  32.254  1.00  0.00     0.021 C 
HETATM   11  C18 UNL     1      66.504  46.118  32.566  1.00  0.00     0.188 C 
HETATM   12  C19 UNL     1      67.897  45.941  31.957  1.00  0.00     0.033 C 
HETATM   13  C20 UNL     1      68.002  46.974  30.857  1.00  0.00     0.008 C 
HETATM   14  C21 UNL     1      66.732  47.764  30.844  1.00  0.00     0.000 C 
ENDROOT
BRANCH   1  15
HETATM   15  C6  UNL     1      61.958  47.670  29.360  1.00  0.00     0.008 C 
HETATM   16  C7  UNL     1      61.418  48.485  28.235  1.00  0.00     0.014 C 
BRANCH  15  17
HETATM   17  C5  UNL     1      61.239  46.463  29.719  1.00  0.00    -0.022 C 
BRANCH  17  18
HETATM   18  C4  UNL     1      59.994  46.383  30.453  1.00  0.00    -0.008 C 
BRANCH  18  19
HETATM   19  C3  UNL     1      58.634  46.672  30.085  1.00  0.00    -0.027 C 
BRANCH  19  20
HETATM   20  C2  UNL     1      58.116  46.697  28.718  1.00  0.00     0.022 C 
HETATM   21  C1  UNL     1      57.730  48.172  28.395  1.00  0.00     0.009 C 
ENDBRANCH  19  20
ENDBRANCH  18  19
ENDBRANCH  17  18
ENDBRANCH  15  17
ENDBRANCH   1  15
BRANCH  11  22
HETATM   22  N1  UNL     1      66.575  46.005  34.026  1.00  0.00    -0.075 N 
ATOM     23  H13 UNL     1      66.773  45.057  34.345  1.00  0.00     0.274 HD
ATOM     24  H12 UNL     1      67.402  46.451  34.423  1.00  0.00     0.274 HD
ATOM     25  H11 UNL     1      65.701  46.378  34.395  1.00  0.00     0.274 HD
ENDBRANCH  11  22
TORSDOF 6
ENDMDL
MODEL 2
REMARK VINA RESULT: -7.335665346      1.266      1.897
REMARK  6 active torsions:
REMARK  status: ('A' for Active; 'I' for Inactive)
REMARK    1  A    between atoms: C2_2  and  C3_3 
REMARK    2  A    between atoms: C3_3  and  C4_4 
REMARK    3  A    between atoms: C4_4  and  C5_5 
REMARK    4  A    between atoms: C5_5  and  C6_6 
REMARK    5  A    between atoms: C6_6  and  C8_8 
REMARK    6  A    between atoms: C18_18  and  N1_19 
ROOT
HETATM    1  C8  UNL     1      63.876  48.037  28.351  1.00  0.00    -0.003 C 
HETATM    2  C9  UNL     1      63.874  46.618  27.854  1.00  0.00     0.005 C 
HETATM    3  C10 UNL     1      64.411  45.649  28.884  1.00  0.00     0.001 C 
HETATM    4  C11 UNL     1      65.757  46.106  29.433  1.00  0.00     0.010 C 
HETATM    5  C12 UNL     1      65.782  47.562  29.803  1.00  0.00    -0.036 C 
HETATM    6  C13 UNL     1      66.483  48.300  28.678  1.00  0.00     0.016 C 
HETATM    7  C14 UNL     1      64.320  48.028  29.771  1.00  0.00    -0.001 C 
HETATM    8  C15 UNL     1      64.190  49.308  30.515  1.00  0.00     0.006 C 
HETATM    9  C16 UNL     1      64.425  48.999  31.995  1.00  0.00     0.007 C 
HETATM   10  C17 UNL     1      65.587  48.133  32.253  1.00  0.00     0.021 C 
HETATM   11  C18 UNL     1      65.288  46.777  32.823  1.00  0.00     0.188 C 
HETATM   12  C19 UNL     1      66.666  46.116  32.730  1.00  0.00     0.033 C 
HETATM   13  C20 UNL     1      67.385  46.815  31.598  1.00  0.00     0.008 C 
HETATM   14  C21 UNL     1      66.482  47.883  31.067  1.00  0.00     0.000 C 
ENDROOT
BRANCH   1  15
HETATM   15  C6  UNL     1      62.516  48.694  28.133  1.00  0.00     0.008 C 
HETATM   16  C7  UNL     1      62.729  49.739  27.091  1.00  0.00     0.014 C 
BRANCH  15  17
HETATM   17  C5  UNL     1      61.427  47.759  27.931  1.00  0.00    -0.022 C 
BRANCH  17  18
HETATM   18  C4  UNL     1      60.553  47.215  28.948  1.00  0.00    -0.008 C 
BRANCH  18  19
HETATM   19  C3  UNL     1      60.802  46.375  30.088  1.00  0.00    -0.027 C 
BRANCH  19  20
HETATM   20  C2  UNL     1      60.279  46.600  31.435  1.00  0.00     0.022 C 
HETATM   21  C1  UNL     1      61.492  46.932  32.355  1.00  0.00     0.009 C 
ENDBRANCH  19  20
ENDBRANCH  18  19
ENDBRANCH  17  18
ENDBRANCH  15  17
ENDBRANCH   1  15
BRANCH  11  22
HETATM   22  N1  UNL     1      64.919  46.978  34.227  1.00  0.00    -0.075 N 
ATOM     23  H13 UNL     1      65.675  47.368  34.788  1.00  0.00     0.274 HD
ATOM     24  H12 UNL     1      64.251  47.737  34.362  1.00  0.00     0.274 HD
ATOM     25  H11 UNL     1      64.582  46.081  34.575  1.00  0.00     0.274 HD
ENDBRANCH  11  22
TORSDOF 6
ENDMDL
MODEL 3
REMARK VINA RESULT: -6.862070183      2.661      6.058
REMARK  6 active torsions:
REMARK  status: ('A' for Active; 'I' for Inactive)
REMARK    1  A    between atoms: C2_2  and  C3_3 
REMARK    2  A    between atoms: C3_3  and  C4_4 
REMARK    3  A    between atoms: C4_4  and  C5_5 
REMARK    4  A    between atoms: C5_5  and  C6_6 
REMARK    5  A    between atoms: C6_6  and  C8_8 
REMARK    6  A    between atoms: C18_18  and  N1_19 
ROOT
HETATM    1  C8  UNL     1      65.092  48.349  33.195  1.00  0.00    -0.003 C 
HETATM    2  C9  UNL     1      63.745  47.992  33.760  1.00  0.00     0.005 C 
HETATM    3  C10 UNL     1      62.871  47.282  32.750  1.00  0.00     0.001 C 
HETATM    4  C11 UNL     1      62.802  48.047  31.434  1.00  0.00     0.010 C 
HETATM    5  C12 UNL     1      64.145  48.512  30.949  1.00  0.00    -0.036 C 
HETATM    6  C13 UNL     1      64.264  49.985  31.295  1.00  0.00     0.016 C 
HETATM    7  C14 UNL     1      65.181  47.787  31.820  1.00  0.00    -0.001 C 
HETATM    8  C15 UNL     1      66.512  47.846  31.163  1.00  0.00     0.006 C 
HETATM    9  C16 UNL     1      66.438  46.973  29.909  1.00  0.00     0.007 C 
HETATM   10  C17 UNL     1      65.228  47.182  29.098  1.00  0.00     0.021 C 
HETATM   11  C18 UNL     1      64.281  46.021  29.012  1.00  0.00     0.188 C 
HETATM   12  C19 UNL     1      63.086  46.676  28.314  1.00  0.00     0.033 C 
HETATM   13  C20 UNL     1      63.161  48.147  28.659  1.00  0.00     0.008 C 
HETATM   14  C21 UNL     1      64.382  48.363  29.496  1.00  0.00     0.000 C 
ENDROOT
BRANCH   1  15
HETATM   15  C6  UNL     1      66.213  47.890  34.123  1.00  0.00     0.008 C 
HETATM   16  C7  UNL     1      66.078  48.705  35.364  1.00  0.00     0.014 C 
BRANCH  15  17
HETATM   17  C5  UNL     1      66.311  46.451  34.275  1.00  0.00    -0.022 C 
BRANCH  17  18
HETATM   18  C4  UNL     1      67.471  45.629  34.007  1.00  0.00    -0.008 C 
BRANCH  18  19
HETATM   19  C3  UNL     1      67.735  44.624  33.013  1.00  0.00    -0.027 C 
BRANCH  19  20
HETATM   20  C2  UNL     1      66.752  43.681  32.482  1.00  0.00     0.022 C 
HETATM   21  C1  UNL     1      66.896  43.684  30.930  1.00  0.00     0.009 C 
ENDBRANCH  19  20
ENDBRANCH  18  19
ENDBRANCH  17  18
ENDBRANCH  15  17
ENDBRANCH   1  15
BRANCH  11  22
HETATM   22  N1  UNL     1      64.901  45.031  28.127  1.00  0.00    -0.075 N 
ATOM     23  H13 UNL     1      64.581  44.079  28.302  1.00  0.00     0.274 HD
ATOM     24  H12 UNL     1      64.579  45.100  27.161  1.00  0.00     0.274 HD
ATOM     25  H11 UNL     1      65.910  45.139  28.222  1.00  0.00     0.274 HD
ENDBRANCH  11  22
TORSDOF 6
ENDMDL
MODEL 4
REMARK VINA RESULT: -6.736494193      2.256      6.303
REMARK  6 active torsions:
REMARK  status: ('A' for Active; 'I' for Inactive)
REMARK    1  A    between atoms: C2_2  and  C3_3 
REMARK    2  A    between atoms: C3_3  and  C4_4 
REMARK    3  A    between atoms: C4_4  and  C5_5 
REMARK    4  A    between atoms: C5_5  and  C6_6 
REMARK    5  A    between atoms: C6_6  and  C8_8 
REMARK    6  A    between atoms: C18_18  and  N1_19 
ROOT
HETATM    1  C8  UNL     1      66.356  47.257  30.377  1.00  0.00    -0.003 C 
HETATM    2  C9  UNL     1      66.128  48.227  31.504  1.00  0.00     0.005 C 
HETATM    3  C10 UNL     1      64.686  48.673  31.593  1.00  0.00     0.001 C 
HETATM    4  C11 UNL     1      64.168  49.164  30.246  1.00  0.00     0.010 C 
HETATM    5  C12 UNL     1      64.518  48.248  29.108  1.00  0.00    -0.036 C 
HETATM    6  C13 UNL     1      65.701  48.863  28.384  1.00  0.00     0.016 C 
HETATM    7  C14 UNL     1      65.039  46.957  29.753  1.00  0.00    -0.001 C 
HETATM    8  C15 UNL     1      65.013  45.857  28.754  1.00  0.00     0.006 C 
HETATM    9  C16 UNL     1      63.544  45.537  28.469  1.00  0.00     0.007 C 
HETATM   10  C17 UNL     1      62.700  46.722  28.253  1.00  0.00     0.021 C 
HETATM   11  C18 UNL     1      61.634  46.971  29.281  1.00  0.00     0.188 C 
HETATM   12  C19 UNL     1      61.147  48.360  28.859  1.00  0.00     0.033 C 
HETATM   13  C20 UNL     1      62.315  49.011  28.152  1.00  0.00     0.008 C 
HETATM   14  C21 UNL     1      63.440  48.027  28.118  1.00  0.00     0.000 C 
ENDROOT
BRANCH   1  15
HETATM   15  C6  UNL     1      67.107  46.021  30.863  1.00  0.00     0.008 C 
HETATM   16  C7  UNL     1      68.555  46.324  30.682  1.00  0.00     0.014 C 
BRANCH  15  17
HETATM   17  C5  UNL     1      66.680  45.536  32.161  1.00  0.00    -0.022 C 
BRANCH  17  18
HETATM   18  C4  UNL     1      67.413  45.633  33.405  1.00  0.00    -0.008 C 
BRANCH  18  19
HETATM   19  C3  UNL     1      67.473  46.656  34.413  1.00  0.00    -0.027 C 
BRANCH  19  20
HETATM   20  C2  UNL     1      66.410  46.965  35.369  1.00  0.00     0.022 C 
HETATM   21  C1  UNL     1      66.046  48.470  35.188  1.00  0.00     0.009 C 
ENDBRANCH  19  20
ENDBRANCH  18  19
ENDBRANCH  17  18
ENDBRANCH  15  17
ENDBRANCH   1  15
BRANCH  11  22
HETATM   22  N1  UNL     1      60.582  45.977  29.052  1.00  0.00    -0.075 N 
ATOM     23  H13 UNL     1      59.792  46.344  28.521  1.00  0.00     0.274 HD
ATOM     24  H12 UNL     1      60.855  45.249  28.392  1.00  0.00     0.274 HD
ATOM     25  H11 UNL     1      60.316  45.612  29.966  1.00  0.00     0.274 HD
ENDBRANCH  11  22
TORSDOF 6
ENDMDL
MODEL 5
REMARK VINA RESULT: -6.436846238      2.039      4.007
REMARK  6 active torsions:
REMARK  status: ('A' for Active; 'I' for Inactive)
REMARK    1  A    between atoms: C2_2  and  C3_3 
REMARK    2  A    between atoms: C3_3  and  C4_4 
REMARK    3  A    between atoms: C4_4  and  C5_5 
REMARK    4  A    between atoms: C5_5  and  C6_6 
REMARK    5  A    between atoms: C6_6  and  C8_8 
REMARK    6  A    between atoms: C18_18  and  N1_19 
ROOT
HETATM    1  C8  UNL     1      66.796  46.764  30.311  1.00  0.00    -0.003 C 
HETATM    2  C9  UNL     1      67.183  45.336  30.578  1.00  0.00     0.005 C 
HETATM    3  C10 UNL     1      66.820  44.896  31.978  1.00  0.00     0.001 C 
HETATM    4  C11 UNL     1      67.336  45.878  33.024  1.00  0.00     0.010 C 
HETATM    5  C12 UNL     1      67.057  47.312  32.677  1.00  0.00    -0.036 C 
HETATM    6  C13 UNL     1      68.342  47.900  32.125  1.00  0.00     0.016 C 
HETATM    7  C14 UNL     1      66.069  47.276  31.503  1.00  0.00    -0.001 C 
HETATM    8  C15 UNL     1      65.415  48.603  31.363  1.00  0.00     0.006 C 
HETATM    9  C16 UNL     1      64.506  48.792  32.579  1.00  0.00     0.007 C 
HETATM   10  C17 UNL     1      65.131  48.432  33.862  1.00  0.00     0.021 C 
HETATM   11  C18 UNL     1      64.537  47.257  34.581  1.00  0.00     0.188 C 
HETATM   12  C19 UNL     1      65.562  47.056  35.700  1.00  0.00     0.033 C 
HETATM   13  C20 UNL     1      66.866  47.612  35.172  1.00  0.00     0.008 C 
HETATM   14  C21 UNL     1      66.612  48.162  33.804  1.00  0.00     0.000 C 
ENDROOT
BRANCH   1  15
HETATM   15  C6  UNL     1      66.009  46.884  29.009  1.00  0.00     0.008 C 
HETATM   16  C7  UNL     1      64.820  45.998  29.166  1.00  0.00     0.014 C 
BRANCH  15  17
HETATM   17  C5  UNL     1      65.776  48.248  28.576  1.00  0.00    -0.022 C 
BRANCH  17  18
HETATM   18  C4  UNL     1      64.924  48.677  27.488  1.00  0.00    -0.008 C 
BRANCH  18  19
HETATM   19  C3  UNL     1      63.529  49.025  27.433  1.00  0.00    -0.027 C 
BRANCH  19  20
HETATM   20  C2  UNL     1      62.608  49.005  28.568  1.00  0.00     0.022 C 
HETATM   21  C1  UNL     1      61.497  47.960  28.245  1.00  0.00     0.009 C 
ENDBRANCH  19  20
ENDBRANCH  18  19
ENDBRANCH  17  18
ENDBRANCH  15  17
ENDBRANCH   1  15
BRANCH  11  22
HETATM   22  N1  UNL     1      63.259  47.703  35.142  1.00  0.00    -0.075 N 
ATOM     23  H13 UNL     1      63.358  48.473  35.802  1.00  0.00     0.274 HD
ATOM     24  H12 UNL     1      62.670  48.187  34.465  1.00  0.00     0.274 HD
ATOM     25  H11 UNL     1      62.811  46.882  35.549  1.00  0.00     0.274 HD
ENDBRANCH  11  22
TORSDOF 6
ENDMDL
