MODEL 1
REMARK VINA RESULT: -8.074951441      0.000      0.000
REMARK  4 active torsions:
REMARK  status: ('A' for Active; 'I' for Inactive)
REMARK    1  A    between atoms: C2_2  and  C4_4 
REMARK    2  A    between atoms: C8_8  and  C10_10 
REMARK    3  A    between atoms: C10_10  and  C11_11 
REMARK    4  A    between atoms: C11_11  and  C12_12 
ROOT
HETATM    1  C4  UNL     1      64.584  48.075  31.561  1.00  0.00    -0.002 C 
HETATM    2  C5  UNL     1      63.377  47.902  32.490  1.00  0.00     0.006 C 
HETATM    3  C6  UNL     1      62.302  47.345  31.582  1.00  0.00     0.006 C 
HETATM    4  C7  UNL     1      62.601  48.140  30.324  1.00  0.00     0.003 C 
HETATM    5  C8  UNL     1      62.002  47.397  29.171  1.00  0.00    -0.036 C 
HETATM    6  C9  UNL     1      61.381  46.073  29.602  1.00  0.00     0.016 C 
HETATM    7  C15 UNL     1      63.160  47.056  28.309  1.00  0.00    -0.005 C 
HETATM    8  C16 UNL     1      63.478  48.051  27.275  1.00  0.00     0.005 C 
HETATM    9  C17 UNL     1      64.953  48.343  27.119  1.00  0.00     0.000 C 
HETATM   10  C18 UNL     1      65.479  49.089  28.285  1.00  0.00     0.001 C 
HETATM   11  C19 UNL     1      64.524  49.312  29.413  1.00  0.00     0.010 C 
HETATM   12  C20 UNL     1      64.131  48.074  30.180  1.00  0.00    -0.032 C 
HETATM   13  C21 UNL     1      64.289  46.875  29.342  1.00  0.00     0.015 C 
ENDROOT
BRANCH   5  14
HETATM   14  C10 UNL     1      60.906  48.191  28.547  1.00  0.00     0.012 C 
BRANCH  14  15
HETATM   15  C11 UNL     1      59.652  47.369  28.310  1.00  0.00     0.034 C 
BRANCH  15  16
HETATM   16  C12 UNL     1      58.476  47.959  29.059  1.00  0.00     0.187 C 
HETATM   17  C13 UNL     1      57.353  47.005  29.349  1.00  0.00     0.060 C 
HETATM   18  C14 UNL     1      56.445  48.146  28.922  1.00  0.00     0.235 C 
HETATM   19  N1  UNL     1      57.557  48.668  28.154  1.00  0.00    -0.071 N 
ATOM     20  H12 UNL     1      57.654  49.672  28.000  1.00  0.00     0.277 HD
ATOM     21  H11 UNL     1      57.606  48.519  27.146  1.00  0.00     0.277 HD
ENDBRANCH  15  16
ENDBRANCH  14  15
ENDBRANCH   5  14
BRANCH   1  22
HETATM   22  C2  UNL     1      65.638  47.170  32.037  1.00  0.00    -0.018 C 
HETATM   23  C1  UNL     1      67.001  47.296  31.429  1.00  0.00     0.010 C 
HETATM   24  C3  UNL     1      65.833  47.328  33.534  1.00  0.00     0.010 C 
ENDBRANCH   1  22
TORSDOF 4
ENDMDL
MODEL 2
REMARK VINA RESULT: -7.953677333      2.753      6.360
REMARK  4 active torsions:
REMARK  status: ('A' for Active; 'I' for Inactive)
REMARK    1  A    between atoms: C2_2  and  C4_4 
REMARK    2  A    between atoms: C8_8  and  C10_10 
REMARK    3  A    between atoms: C10_10  and  C11_11 
REMARK    4  A    between atoms: C11_11  and  C12_12 
ROOT
HETATM    1  C4  UNL     1      61.314  46.774  29.850  1.00  0.00    -0.002 C 
HETATM    2  C5  UNL     1      61.142  46.459  31.340  1.00  0.00     0.006 C 
HETATM    3  C6  UNL     1      62.223  47.279  32.008  1.00  0.00     0.006 C 
HETATM    4  C7  UNL     1      63.331  47.116  30.983  1.00  0.00     0.003 C 
HETATM    5  C8  UNL     1      64.298  48.240  31.186  1.00  0.00    -0.036 C 
HETATM    6  C9  UNL     1      63.832  49.213  32.264  1.00  0.00     0.016 C 
HETATM    7  C15 UNL     1      64.271  48.988  29.906  1.00  0.00    -0.005 C 
HETATM    8  C16 UNL     1      65.259  48.550  28.910  1.00  0.00     0.005 C 
HETATM    9  C17 UNL     1      64.724  48.446  27.500  1.00  0.00     0.000 C 
HETATM   10  C18 UNL     1      63.784  47.310  27.365  1.00  0.00     0.001 C 
HETATM   11  C19 UNL     1      63.458  46.569  28.620  1.00  0.00     0.010 C 
HETATM   12  C20 UNL     1      62.637  47.334  29.628  1.00  0.00    -0.032 C 
HETATM   13  C21 UNL     1      62.815  48.783  29.444  1.00  0.00     0.015 C 
ENDROOT
BRANCH   5  14
HETATM   14  C10 UNL     1      65.620  47.720  31.636  1.00  0.00     0.012 C 
BRANCH  14  15
HETATM   15  C11 UNL     1      65.736  47.651  33.148  1.00  0.00     0.034 C 
BRANCH  15  16
HETATM   16  C12 UNL     1      67.184  47.516  33.568  1.00  0.00     0.187 C 
HETATM   17  C13 UNL     1      68.184  47.541  32.448  1.00  0.00     0.060 C 
HETATM   18  C14 UNL     1      68.846  46.389  33.183  1.00  0.00     0.235 C 
HETATM   19  N1  UNL     1      67.558  46.109  33.786  1.00  0.00    -0.071 N 
ATOM     20  H12 UNL     1      67.500  45.696  34.716  1.00  0.00     0.277 HD
ATOM     21  H11 UNL     1      66.970  45.356  33.427  1.00  0.00     0.277 HD
ENDBRANCH  15  16
ENDBRANCH  14  15
ENDBRANCH   5  14
BRANCH   1  22
HETATM   22  C2  UNL     1      60.094  47.455  29.401  1.00  0.00    -0.018 C 
HETATM   23  C1  UNL     1      59.820  47.511  27.929  1.00  0.00     0.010 C 
HETATM   24  C3  UNL     1      58.870  46.813  30.028  1.00  0.00     0.010 C 
ENDBRANCH   1  22
TORSDOF 4
ENDMDL
MODEL 3
REMARK VINA RESULT: -7.610647368      2.523      6.097
REMARK  4 active torsions:
REMARK  status: ('A' for Active; 'I' for Inactive)
REMARK    1  A    between atoms: C2_2  and  C4_4 
REMARK    2  A    between atoms: C8_8  and  C10_10 
REMARK    3  A    between atoms: C10_10  and  C11_11 
REMARK    4  A    between atoms: C11_11  and  C12_12 
ROOT
HETATM    1  C4  UNL     1      61.358  46.801  29.783  1.00  0.00    -0.002 C 
HETATM    2  C5  UNL     1      61.237  46.510  31.283  1.00  0.00     0.006 C 
HETATM    3  C6  UNL     1      62.302  47.385  31.906  1.00  0.00     0.006 C 
HETATM    4  C7  UNL     1      63.388  47.242  30.855  1.00  0.00     0.003 C 
HETATM    5  C8  UNL     1      64.317  48.406  31.010  1.00  0.00    -0.036 C 
HETATM    6  C9  UNL     1      63.842  49.383  32.080  1.00  0.00     0.016 C 
HETATM    7  C15 UNL     1      64.228  49.126  29.716  1.00  0.00    -0.005 C 
HETATM    8  C16 UNL     1      65.207  48.704  28.703  1.00  0.00     0.005 C 
HETATM    9  C17 UNL     1      64.639  48.551  27.310  1.00  0.00     0.000 C 
HETATM   10  C18 UNL     1      63.740  47.377  27.223  1.00  0.00     0.001 C 
HETATM   11  C19 UNL     1      63.476  46.650  28.501  1.00  0.00     0.010 C 
HETATM   12  C20 UNL     1      62.653  47.405  29.515  1.00  0.00    -0.032 C 
HETATM   13  C21 UNL     1      62.770  48.856  29.298  1.00  0.00     0.015 C 
ENDROOT
BRANCH   5  14
HETATM   14  C10 UNL     1      65.670  47.945  31.435  1.00  0.00     0.012 C 
BRANCH  14  15
HETATM   15  C11 UNL     1      65.617  46.997  32.619  1.00  0.00     0.034 C 
BRANCH  15  16
HETATM   16  C12 UNL     1      66.443  47.531  33.769  1.00  0.00     0.187 C 
HETATM   17  C13 UNL     1      67.128  46.491  34.608  1.00  0.00     0.060 C 
HETATM   18  C14 UNL     1      66.663  47.323  35.791  1.00  0.00     0.235 C 
HETATM   19  N1  UNL     1      65.607  47.837  34.942  1.00  0.00    -0.071 N 
ATOM     20  H12 UNL     1      65.239  48.777  35.084  1.00  0.00     0.277 HD
ATOM     21  H11 UNL     1      64.659  47.466  35.012  1.00  0.00     0.277 HD
ENDBRANCH  15  16
ENDBRANCH  14  15
ENDBRANCH   5  14
BRANCH   1  22
HETATM   22  C2  UNL     1      60.101  47.426  29.353  1.00  0.00    -0.018 C 
HETATM   23  C1  UNL     1      59.779  47.423  27.890  1.00  0.00     0.010 C 
HETATM   24  C3  UNL     1      58.921  46.765  30.041  1.00  0.00     0.010 C 
ENDBRANCH   1  22
TORSDOF 4
ENDMDL
MODEL 4
REMARK VINA RESULT: -7.083482036      2.513      6.060
REMARK  4 active torsions:
REMARK  status: ('A' for Active; 'I' for Inactive)
REMARK    1  A    between atoms: C2_2  and  C4_4 
REMARK    2  A    between atoms: C8_8  and  C10_10 
REMARK    3  A    between atoms: C10_10  and  C11_11 
REMARK    4  A    between atoms: C11_11  and  C12_12 
ROOT
HETATM    1  C4  UNL     1      61.445  46.778  30.073  1.00  0.00    -0.002 C 
HETATM    2  C5  UNL     1      61.259  46.605  31.585  1.00  0.00     0.006 C 
HETATM    3  C6  UNL     1      62.283  47.545  32.183  1.00  0.00     0.006 C 
HETATM    4  C7  UNL     1      63.418  47.338  31.196  1.00  0.00     0.003 C 
HETATM    5  C8  UNL     1      64.322  48.526  31.298  1.00  0.00    -0.036 C 
HETATM    6  C9  UNL     1      63.785  49.576  32.265  1.00  0.00     0.016 C 
HETATM    7  C15 UNL     1      64.283  49.140  29.948  1.00  0.00    -0.005 C 
HETATM    8  C16 UNL     1      65.312  48.656  29.017  1.00  0.00     0.005 C 
HETATM    9  C17 UNL     1      64.811  48.383  27.617  1.00  0.00     0.000 C 
HETATM   10  C18 UNL     1      63.933  47.191  27.583  1.00  0.00     0.001 C 
HETATM   11  C19 UNL     1      63.621  46.563  28.903  1.00  0.00     0.010 C 
HETATM   12  C20 UNL     1      62.742  47.382  29.815  1.00  0.00    -0.032 C 
HETATM   13  C21 UNL     1      62.848  48.812  29.488  1.00  0.00     0.015 C 
ENDROOT
BRANCH   5  14
HETATM   14  C10 UNL     1      65.660  48.124  31.818  1.00  0.00     0.012 C 
BRANCH  14  15
HETATM   15  C11 UNL     1      65.679  46.698  32.338  1.00  0.00     0.034 C 
BRANCH  15  16
HETATM   16  C12 UNL     1      67.005  46.035  32.035  1.00  0.00     0.187 C 
HETATM   17  C13 UNL     1      68.166  46.971  31.853  1.00  0.00     0.060 C 
HETATM   18  C14 UNL     1      68.527  46.089  30.670  1.00  0.00     0.235 C 
HETATM   19  N1  UNL     1      67.132  45.701  30.607  1.00  0.00    -0.071 N 
ATOM     20  H12 UNL     1      66.866  44.777  30.266  1.00  0.00     0.277 HD
ATOM     21  H11 UNL     1      66.507  46.123  29.919  1.00  0.00     0.277 HD
ENDBRANCH  15  16
ENDBRANCH  14  15
ENDBRANCH   5  14
BRANCH   1  22
HETATM   22  C2  UNL     1      60.201  47.345  29.540  1.00  0.00    -0.018 C 
HETATM   23  C1  UNL     1      60.045  47.426  28.052  1.00  0.00     0.010 C 
HETATM   24  C3  UNL     1      59.004  46.558  30.041  1.00  0.00     0.010 C 
ENDBRANCH   1  22
TORSDOF 4
ENDMDL
MODEL 5
REMARK VINA RESULT: -6.816392713      0.959      1.098
REMARK  4 active torsions:
REMARK  status: ('A' for Active; 'I' for Inactive)
REMARK    1  A    between atoms: C2_2  and  C4_4 
REMARK    2  A    between atoms: C8_8  and  C10_10 
REMARK    3  A    between atoms: C10_10  and  C11_11 
REMARK    4  A    between atoms: C11_11  and  C12_12 
ROOT
HETATM    1  C4  UNL     1      64.112  48.040  31.788  1.00  0.00    -0.002 C 
HETATM    2  C5  UNL     1      63.099  47.758  32.904  1.00  0.00     0.006 C 
HETATM    3  C6  UNL     1      61.989  47.008  32.201  1.00  0.00     0.006 C 
HETATM    4  C7  UNL     1      61.974  47.763  30.884  1.00  0.00     0.003 C 
HETATM    5  C8  UNL     1      61.318  46.879  29.869  1.00  0.00    -0.036 C 
HETATM    6  C9  UNL     1      60.966  45.510  30.441  1.00  0.00     0.016 C 
HETATM    7  C15 UNL     1      62.366  46.650  28.845  1.00  0.00    -0.005 C 
HETATM    8  C16 UNL     1      62.374  47.618  27.739  1.00  0.00     0.005 C 
HETATM    9  C17 UNL     1      63.750  48.099  27.338  1.00  0.00     0.000 C 
HETATM   10  C18 UNL     1      64.337  48.975  28.377  1.00  0.00     0.001 C 
HETATM   11  C19 UNL     1      63.545  49.131  29.635  1.00  0.00     0.010 C 
HETATM   12  C20 UNL     1      63.456  47.897  30.499  1.00  0.00    -0.032 C 
HETATM   13  C21 UNL     1      63.654  46.685  29.690  1.00  0.00     0.015 C 
ENDROOT
BRANCH   5  14
HETATM   14  C10 UNL     1      60.036  47.479  29.402  1.00  0.00     0.012 C 
BRANCH  14  15
HETATM   15  C11 UNL     1      58.995  46.431  29.053  1.00  0.00     0.034 C 
BRANCH  15  16
HETATM   16  C12 UNL     1      57.763  47.079  28.456  1.00  0.00     0.187 C 
HETATM   17  C13 UNL     1      57.921  48.518  28.058  1.00  0.00     0.060 C 
HETATM   18  C14 UNL     1      56.558  48.712  28.699  1.00  0.00     0.235 C 
HETATM   19  N1  UNL     1      56.830  47.535  29.499  1.00  0.00    -0.071 N 
ATOM     20  H12 UNL     1      56.068  46.933  29.811  1.00  0.00     0.277 HD
ATOM     21  H11 UNL     1      57.140  47.626  30.467  1.00  0.00     0.277 HD
ENDBRANCH  15  16
ENDBRANCH  14  15
ENDBRANCH   5  14
BRANCH   1  22
HETATM   22  C2  UNL     1      65.345  47.316  32.121  1.00  0.00    -0.018 C 
HETATM   23  C1  UNL     1      66.524  47.479  31.211  1.00  0.00     0.010 C 
HETATM   24  C3  UNL     1      65.830  47.707  33.505  1.00  0.00     0.010 C 
ENDBRANCH   1  22
TORSDOF 4
ENDMDL
