MODEL 1
REMARK VINA RESULT: -8.457493593      0.000      0.000
REMARK  8 active torsions:
REMARK  status: ('A' for Active; 'I' for Inactive)
REMARK    1  A    between atoms: C2_2  and  C3_4 
REMARK       I    between atoms: N1_7  and  C6_8 
REMARK    2  A    between atoms: C10_14  and  N2_15 
REMARK       I    between atoms: N2_15  and  C11_17 
REMARK    3  A    between atoms: C11_17  and  C12_19 
REMARK    4  A    between atoms: C12_19  and  S2_20 
REMARK    5  A    between atoms: S2_20  and  C13_21 
REMARK    6  A    between atoms: C13_21  and  C14_22 
REMARK    7  A    between atoms: C14_22  and  N3_23 
REMARK    8  A    between atoms: C21_30  and  C22_31 
ROOT
HETATM    1  C3  UNL     1      14.310  22.246   5.167  1.00  0.00     0.035 C 
HETATM    2  C4  UNL     1      15.207  23.401   5.319  1.00  0.00     0.028 C 
HETATM    3  C5  UNL     1      15.044  21.433   4.052  1.00  0.00     0.145 C 
HETATM    4  N1  UNL     1      14.611  20.097   4.053  1.00  0.00    -0.346 N 
HETATM    5  C6  UNL     1      15.469  18.990   3.838  1.00  0.00     0.216 C 
HETATM    6  C7  UNL     1      15.000  17.577   3.851  1.00  0.00     0.117 C 
HETATM    7  O1  UNL     1      16.703  19.245   3.626  1.00  0.00    -0.274 OA
HETATM    8  C8  UNL     1      13.224  19.861   4.262  1.00  0.00     0.172 C 
HETATM    9  C9  UNL     1      12.442  21.123   4.257  1.00  0.00     0.011 A 
HETATM   10  S1  UNL     1      10.873  21.372   3.777  1.00  0.00    -0.074 SA
HETATM   11  C10 UNL     1      10.701  23.029   4.126  1.00  0.00     0.093 A 
HETATM   12  C21 UNL     1      11.954  23.389   4.648  1.00  0.00     0.071 A 
HETATM   13  C23 UNL     1      12.888  22.379   4.718  1.00  0.00    -0.010 A 
ENDROOT
BRANCH  11  14
HETATM   14  N2  UNL     1       9.502  23.793   3.926  1.00  0.00    -0.320 N 
HETATM   15  C11 UNL     1       9.362  24.465   2.670  1.00  0.00     0.231 C 
HETATM   16  O2  UNL     1      10.279  24.364   1.831  1.00  0.00    -0.272 OA
ATOM     17  H2  UNL     1       8.782  23.855   4.646  1.00  0.00     0.169 HD
BRANCH  15  18
HETATM   18  C12 UNL     1       8.190  25.264   2.314  1.00  0.00     0.177 C 
BRANCH  18  19
HETATM   19  S2  UNL     1       7.158  25.531   3.762  1.00  0.00    -0.155 SA
BRANCH  19  20
HETATM   20  C13 UNL     1       7.953  26.670   4.886  1.00  0.00     0.119 C 
BRANCH  20  21
HETATM   21  C14 UNL     1       7.079  27.000   6.046  1.00  0.00     0.073 C 
BRANCH  21  22
HETATM   22  N3  UNL     1       7.380  26.517   7.316  1.00  0.00    -0.373 N 
HETATM   23  C15 UNL     1       7.585  27.338   8.432  1.00  0.00     0.063 C 
HETATM   24  C16 UNL     1       8.983  27.951   8.468  1.00  0.00     0.044 C 
HETATM   25  C17 UNL     1      10.009  26.955   8.912  1.00  0.00     0.005 C 
HETATM   26  C18 UNL     1       9.457  25.685   9.479  1.00  0.00     0.002 C 
HETATM   27  C19 UNL     1       8.623  24.874   8.552  1.00  0.00     0.020 C 
HETATM   28  C20 UNL     1       8.377  25.458   7.204  1.00  0.00     0.127 C 
ENDBRANCH  21  22
ENDBRANCH  20  21
ENDBRANCH  19  20
ENDBRANCH  18  19
ENDBRANCH  15  18
ENDBRANCH  11  14
BRANCH  12  29
HETATM   29  C22 UNL     1      12.083  24.778   5.097  1.00  0.00     0.268 C 
HETATM   30  N4  UNL     1      11.363  25.540   6.016  1.00  0.00    -0.057 NA
HETATM   31  O3  UNL     1      13.016  25.513   4.587  1.00  0.00    -0.271 OA
ENDBRANCH  12  29
BRANCH   1  32
HETATM   32  C2  UNL     1      14.295  21.472   6.454  1.00  0.00    -0.006 C 
HETATM   33  C1  UNL     1      13.204  21.497   7.210  1.00  0.00     0.028 C 
HETATM   34 BR1  UNL     1      15.840  20.503   7.006  1.00  0.00    -0.055 Br
ENDBRANCH   1  32
TORSDOF 8
ENDMDL
MODEL 2
REMARK VINA RESULT: -8.300509018      3.369      8.467
REMARK  8 active torsions:
REMARK  status: ('A' for Active; 'I' for Inactive)
REMARK    1  A    between atoms: C2_2  and  C3_4 
REMARK       I    between atoms: N1_7  and  C6_8 
REMARK    2  A    between atoms: C10_14  and  N2_15 
REMARK       I    between atoms: N2_15  and  C11_17 
REMARK    3  A    between atoms: C11_17  and  C12_19 
REMARK    4  A    between atoms: C12_19  and  S2_20 
REMARK    5  A    between atoms: S2_20  and  C13_21 
REMARK    6  A    between atoms: C13_21  and  C14_22 
REMARK    7  A    between atoms: C14_22  and  N3_23 
REMARK    8  A    between atoms: C21_30  and  C22_31 
ROOT
HETATM    1  C3  UNL     1      10.619  23.660   2.874  1.00  0.00     0.035 C 
HETATM    2  C4  UNL     1      11.613  23.915   1.821  1.00  0.00     0.028 C 
HETATM    3  C5  UNL     1       9.635  24.856   2.661  1.00  0.00     0.145 C 
HETATM    4  N1  UNL     1       8.393  24.581   3.256  1.00  0.00    -0.346 N 
HETATM    5  C6  UNL     1       7.147  24.932   2.680  1.00  0.00     0.216 C 
HETATM    6  C7  UNL     1       5.836  24.626   3.316  1.00  0.00     0.117 C 
HETATM    7  O1  UNL     1       7.178  25.539   1.556  1.00  0.00    -0.274 OA
HETATM    8  C8  UNL     1       8.406  23.931   4.521  1.00  0.00     0.172 C 
HETATM    9  C9  UNL     1       9.780  23.828   5.075  1.00  0.00     0.011 A 
HETATM   10  S1  UNL     1      10.263  23.824   6.663  1.00  0.00    -0.074 SA
HETATM   11  C10 UNL     1      11.942  23.615   6.475  1.00  0.00     0.093 A 
HETATM   12  C21 UNL     1      12.114  23.546   5.083  1.00  0.00     0.071 A 
HETATM   13  C23 UNL     1      10.966  23.661   4.330  1.00  0.00    -0.010 A 
ENDROOT
BRANCH  11  14
HETATM   14  N2  UNL     1      12.885  23.515   7.553  1.00  0.00    -0.320 N 
HETATM   15  C11 UNL     1      13.278  22.198   7.953  1.00  0.00     0.231 C 
HETATM   16  O2  UNL     1      12.781  21.219   7.362  1.00  0.00    -0.272 OA
ATOM     17  H2  UNL     1      13.259  24.345   8.013  1.00  0.00     0.169 HD
BRANCH  15  18
HETATM   18  C12 UNL     1      14.244  21.939   9.020  1.00  0.00     0.177 C 
BRANCH  18  19
HETATM   19  S2  UNL     1      15.383  20.639   8.524  1.00  0.00    -0.155 SA
BRANCH  19  20
HETATM   20  C13 UNL     1      16.221  21.095   7.013  1.00  0.00     0.119 C 
BRANCH  20  21
HETATM   21  C14 UNL     1      16.996  19.957   6.447  1.00  0.00     0.073 C 
BRANCH  21  22
HETATM   22  N3  UNL     1      16.969  19.695   5.080  1.00  0.00    -0.373 N 
HETATM   23  C15 UNL     1      15.875  19.982   4.255  1.00  0.00     0.063 C 
HETATM   24  C16 UNL     1      14.768  18.934   4.352  1.00  0.00     0.044 C 
HETATM   25  C17 UNL     1      15.117  17.693   3.592  1.00  0.00     0.005 C 
HETATM   26  C18 UNL     1      16.306  17.813   2.692  1.00  0.00     0.002 C 
HETATM   27  C19 UNL     1      17.594  18.134   3.363  1.00  0.00     0.020 C 
HETATM   28  C20 UNL     1      17.530  18.371   4.833  1.00  0.00     0.127 C 
ENDBRANCH  21  22
ENDBRANCH  20  21
ENDBRANCH  19  20
ENDBRANCH  18  19
ENDBRANCH  15  18
ENDBRANCH  11  14
BRANCH  12  29
HETATM   29  C22 UNL     1      13.483  23.307   4.620  1.00  0.00     0.268 C 
HETATM   30  N4  UNL     1      14.689  23.958   4.877  1.00  0.00    -0.057 NA
HETATM   31  O3  UNL     1      13.704  22.327   3.807  1.00  0.00    -0.271 OA
ENDBRANCH  12  29
BRANCH   1  32
HETATM   32  C2  UNL     1       9.930  22.358   2.585  1.00  0.00    -0.006 C 
HETATM   33  C1  UNL     1      10.230  21.293   3.318  1.00  0.00     0.028 C 
HETATM   34 BR1  UNL     1       8.676  22.236   1.157  1.00  0.00    -0.055 Br
ENDBRANCH   1  32
TORSDOF 8
ENDMDL
MODEL 3
REMARK VINA RESULT: -8.047849548      2.102      3.131
REMARK  8 active torsions:
REMARK  status: ('A' for Active; 'I' for Inactive)
REMARK    1  A    between atoms: C2_2  and  C3_4 
REMARK       I    between atoms: N1_7  and  C6_8 
REMARK    2  A    between atoms: C10_14  and  N2_15 
REMARK       I    between atoms: N2_15  and  C11_17 
REMARK    3  A    between atoms: C11_17  and  C12_19 
REMARK    4  A    between atoms: C12_19  and  S2_20 
REMARK    5  A    between atoms: S2_20  and  C13_21 
REMARK    6  A    between atoms: C13_21  and  C14_22 
REMARK    7  A    between atoms: C14_22  and  N3_23 
REMARK    8  A    between atoms: C21_30  and  C22_31 
ROOT
HETATM    1  C3  UNL     1      13.523  21.225   5.357  1.00  0.00     0.035 C 
HETATM    2  C4  UNL     1      12.996  19.966   4.812  1.00  0.00     0.028 C 
HETATM    3  C5  UNL     1      13.613  20.884   6.880  1.00  0.00     0.145 C 
HETATM    4  N1  UNL     1      14.488  21.769   7.530  1.00  0.00    -0.346 N 
HETATM    5  C6  UNL     1      15.390  21.379   8.551  1.00  0.00     0.216 C 
HETATM    6  C7  UNL     1      16.319  22.326   9.227  1.00  0.00     0.117 C 
HETATM    7  O1  UNL     1      15.385  20.147   8.890  1.00  0.00    -0.274 OA
HETATM    8  C8  UNL     1      14.438  23.137   7.143  1.00  0.00     0.172 C 
HETATM    9  C9  UNL     1      13.303  23.411   6.225  1.00  0.00     0.011 A 
HETATM   10  S1  UNL     1      12.419  24.803   6.052  1.00  0.00    -0.074 SA
HETATM   11  C10 UNL     1      11.371  24.350   4.789  1.00  0.00     0.093 A 
HETATM   12  C21 UNL     1      11.752  23.029   4.500  1.00  0.00     0.071 A 
HETATM   13  C23 UNL     1      12.780  22.521   5.264  1.00  0.00    -0.010 A 
ENDROOT
BRANCH  11  14
HETATM   14  N2  UNL     1      10.376  25.200   4.199  1.00  0.00    -0.320 N 
HETATM   15  C11 UNL     1       9.010  24.928   4.531  1.00  0.00     0.231 C 
HETATM   16  O2  UNL     1       8.757  23.977   5.296  1.00  0.00    -0.272 OA
ATOM     17  H2  UNL     1      10.629  25.962   3.571  1.00  0.00     0.169 HD
BRANCH  15  18
HETATM   18  C12 UNL     1       7.889  25.720   4.024  1.00  0.00     0.177 C 
BRANCH  18  19
HETATM   19  S2  UNL     1       7.605  27.144   5.083  1.00  0.00    -0.155 SA
BRANCH  19  20
HETATM   20  C13 UNL     1       6.155  26.882   6.094  1.00  0.00     0.119 C 
BRANCH  20  21
HETATM   21  C14 UNL     1       6.286  27.536   7.425  1.00  0.00     0.073 C 
BRANCH  21  22
HETATM   22  N3  UNL     1       7.080  26.967   8.417  1.00  0.00    -0.373 N 
HETATM   23  C15 UNL     1       8.025  27.682   9.162  1.00  0.00     0.063 C 
HETATM   24  C16 UNL     1       9.335  27.899   8.409  1.00  0.00     0.044 C 
HETATM   25  C17 UNL     1      10.171  26.657   8.391  1.00  0.00     0.005 C 
HETATM   26  C18 UNL     1       9.713  25.570   9.312  1.00  0.00     0.002 C 
HETATM   27  C19 UNL     1       8.354  25.028   9.045  1.00  0.00     0.020 C 
HETATM   28  C20 UNL     1       7.587  25.682   7.947  1.00  0.00     0.127 C 
ENDBRANCH  21  22
ENDBRANCH  20  21
ENDBRANCH  19  20
ENDBRANCH  18  19
ENDBRANCH  15  18
ENDBRANCH  11  14
BRANCH  12  29
HETATM   29  C22 UNL     1      11.042  22.388   3.391  1.00  0.00     0.268 C 
HETATM   30  N4  UNL     1      10.296  21.214   3.306  1.00  0.00    -0.057 NA
HETATM   31  O3  UNL     1      11.066  22.951   2.228  1.00  0.00    -0.271 OA
ENDBRANCH  12  29
BRANCH   1  32
HETATM   32  C2  UNL     1      14.894  21.461   4.793  1.00  0.00    -0.006 C 
HETATM   33  C1  UNL     1      15.098  22.514   4.010  1.00  0.00     0.028 C 
HETATM   34 BR1  UNL     1      16.306  20.237   5.166  1.00  0.00    -0.055 Br
ENDBRANCH   1  32
TORSDOF 8
ENDMDL
MODEL 4
REMARK VINA RESULT: -8.045263041      4.768     10.096
REMARK  8 active torsions:
REMARK  status: ('A' for Active; 'I' for Inactive)
REMARK    1  A    between atoms: C2_2  and  C3_4 
REMARK       I    between atoms: N1_7  and  C6_8 
REMARK    2  A    between atoms: C10_14  and  N2_15 
REMARK       I    between atoms: N2_15  and  C11_17 
REMARK    3  A    between atoms: C11_17  and  C12_19 
REMARK    4  A    between atoms: C12_19  and  S2_20 
REMARK    5  A    between atoms: S2_20  and  C13_21 
REMARK    6  A    between atoms: C13_21  and  C14_22 
REMARK    7  A    between atoms: C14_22  and  N3_23 
REMARK    8  A    between atoms: C21_30  and  C22_31 
ROOT
HETATM    1  C3  UNL     1      14.521  20.889   3.851  1.00  0.00     0.035 C 
HETATM    2  C4  UNL     1      14.383  20.991   2.391  1.00  0.00     0.028 C 
HETATM    3  C5  UNL     1      14.621  22.396   4.254  1.00  0.00     0.145 C 
HETATM    4  N1  UNL     1      14.322  22.561   5.616  1.00  0.00    -0.346 N 
HETATM    5  C6  UNL     1      13.572  23.646   6.134  1.00  0.00     0.216 C 
HETATM    6  C7  UNL     1      13.254  23.804   7.580  1.00  0.00     0.117 C 
HETATM    7  O1  UNL     1      13.160  24.518   5.296  1.00  0.00    -0.274 OA
HETATM    8  C8  UNL     1      14.827  21.582   6.517  1.00  0.00     0.172 C 
HETATM    9  C9  UNL     1      15.760  20.642   5.846  1.00  0.00     0.011 A 
HETATM   10  S1  UNL     1      17.067  19.842   6.484  1.00  0.00    -0.074 SA
HETATM   11  C10 UNL     1      17.564  18.934   5.133  1.00  0.00     0.093 A 
HETATM   12  C21 UNL     1      16.641  19.292   4.135  1.00  0.00     0.071 A 
HETATM   13  C23 UNL     1      15.678  20.205   4.508  1.00  0.00    -0.010 A 
ENDROOT
BRANCH  11  14
HETATM   14  N2  UNL     1      18.668  18.017   5.117  1.00  0.00    -0.320 N 
HETATM   15  C11 UNL     1      18.354  16.621   5.156  1.00  0.00     0.231 C 
HETATM   16  O2  UNL     1      17.157  16.277   5.212  1.00  0.00    -0.272 OA
ATOM     17  H2  UNL     1      19.633  18.345   5.079  1.00  0.00     0.169 HD
BRANCH  15  18
HETATM   18  C12 UNL     1      19.370  15.570   5.126  1.00  0.00     0.177 C 
BRANCH  18  19
HETATM   19  S2  UNL     1      18.965  14.280   6.311  1.00  0.00    -0.155 SA
BRANCH  19  20
HETATM   20  C13 UNL     1      19.731  14.626   7.888  1.00  0.00     0.119 C 
BRANCH  20  21
HETATM   21  C14 UNL     1      18.732  14.658   8.991  1.00  0.00     0.073 C 
BRANCH  21  22
HETATM   22  N3  UNL     1      18.577  15.802   9.770  1.00  0.00    -0.373 N 
HETATM   23  C15 UNL     1      17.969  15.807  11.031  1.00  0.00     0.063 C 
HETATM   24  C16 UNL     1      16.444  15.802  10.954  1.00  0.00     0.044 C 
HETATM   25  C17 UNL     1      15.907  17.154  10.601  1.00  0.00     0.005 C 
HETATM   26  C18 UNL     1      16.903  18.269  10.662  1.00  0.00     0.002 C 
HETATM   27  C19 UNL     1      18.063  18.149   9.738  1.00  0.00     0.020 C 
HETATM   28  C20 UNL     1      18.131  16.903   8.924  1.00  0.00     0.127 C 
ENDBRANCH  21  22
ENDBRANCH  20  21
ENDBRANCH  19  20
ENDBRANCH  18  19
ENDBRANCH  15  18
ENDBRANCH  11  14
BRANCH  12  29
HETATM   29  C22 UNL     1      16.794  18.608   2.849  1.00  0.00     0.268 C 
HETATM   30  N4  UNL     1      15.913  17.856   2.073  1.00  0.00    -0.057 NA
HETATM   31  O3  UNL     1      17.940  18.655   2.252  1.00  0.00    -0.271 OA
ENDBRANCH  12  29
BRANCH   1  32
HETATM   32  C2  UNL     1      13.270  20.279   4.415  1.00  0.00    -0.006 C 
HETATM   33  C1  UNL     1      13.325  19.059   4.935  1.00  0.00     0.028 C 
HETATM   34 BR1  UNL     1      11.623  21.235   4.341  1.00  0.00    -0.055 Br
ENDBRANCH   1  32
TORSDOF 8
ENDMDL
MODEL 5
REMARK VINA RESULT: -7.935827961      3.181      8.982
REMARK  8 active torsions:
REMARK  status: ('A' for Active; 'I' for Inactive)
REMARK    1  A    between atoms: C2_2  and  C3_4 
REMARK       I    between atoms: N1_7  and  C6_8 
REMARK    2  A    between atoms: C10_14  and  N2_15 
REMARK       I    between atoms: N2_15  and  C11_17 
REMARK    3  A    between atoms: C11_17  and  C12_19 
REMARK    4  A    between atoms: C12_19  and  S2_20 
REMARK    5  A    between atoms: S2_20  and  C13_21 
REMARK    6  A    between atoms: C13_21  and  C14_22 
REMARK    7  A    between atoms: C14_22  and  N3_23 
REMARK    8  A    between atoms: C21_30  and  C22_31 
ROOT
HETATM    1  C3  UNL     1      11.360  24.268   4.899  1.00  0.00     0.035 C 
HETATM    2  C4  UNL     1      11.864  24.778   3.616  1.00  0.00     0.028 C 
HETATM    3  C5  UNL     1      10.961  25.596   5.620  1.00  0.00     0.145 C 
HETATM    4  N1  UNL     1      10.064  25.336   6.668  1.00  0.00    -0.346 N 
HETATM    5  C6  UNL     1       8.959  26.164   6.985  1.00  0.00     0.216 C 
HETATM    6  C7  UNL     1       8.008  25.872   8.093  1.00  0.00     0.117 C 
HETATM    7  O1  UNL     1       8.792  27.208   6.267  1.00  0.00    -0.274 OA
HETATM    8  C8  UNL     1      10.306  24.180   7.461  1.00  0.00     0.172 C 
HETATM    9  C9  UNL     1      11.609  23.548   7.135  1.00  0.00     0.011 A 
HETATM   10  S1  UNL     1      12.631  22.699   8.129  1.00  0.00    -0.074 SA
HETATM   11  C10 UNL     1      13.848  22.262   7.022  1.00  0.00     0.093 A 
HETATM   12  C21 UNL     1      13.411  22.823   5.810  1.00  0.00     0.071 A 
HETATM   13  C23 UNL     1      12.219  23.512   5.864  1.00  0.00    -0.010 A 
ENDROOT
BRANCH  11  14
HETATM   14  N2  UNL     1      15.006  21.476   7.339  1.00  0.00    -0.320 N 
HETATM   15  C11 UNL     1      16.104  22.156   7.957  1.00  0.00     0.231 C 
HETATM   16  O2  UNL     1      16.005  23.379   8.175  1.00  0.00    -0.272 OA
ATOM     17  H2  UNL     1      15.046  20.478   7.133  1.00  0.00     0.169 HD
BRANCH  15  18
HETATM   18  C12 UNL     1      17.341  21.484   8.355  1.00  0.00     0.177 C 
BRANCH  18  19
HETATM   19  S2  UNL     1      17.421  19.845   7.622  1.00  0.00    -0.155 SA
BRANCH  19  20
HETATM   20  C13 UNL     1      18.019  19.947   5.941  1.00  0.00     0.119 C 
BRANCH  20  21
HETATM   21  C14 UNL     1      18.084  18.607   5.296  1.00  0.00     0.073 C 
BRANCH  21  22
HETATM   22  N3  UNL     1      16.971  18.084   4.643  1.00  0.00    -0.373 N 
HETATM   23  C15 UNL     1      17.045  17.299   3.486  1.00  0.00     0.063 C 
HETATM   24  C16 UNL     1      17.246  18.127   2.219  1.00  0.00     0.044 C 
HETATM   25  C17 UNL     1      15.973  18.786   1.786  1.00  0.00     0.005 C 
HETATM   26  C18 UNL     1      14.740  18.306   2.484  1.00  0.00     0.002 C 
HETATM   27  C19 UNL     1      14.709  18.517   3.957  1.00  0.00     0.020 C 
HETATM   28  C20 UNL     1      15.935  19.108   4.564  1.00  0.00     0.127 C 
ENDBRANCH  21  22
ENDBRANCH  20  21
ENDBRANCH  19  20
ENDBRANCH  18  19
ENDBRANCH  15  18
ENDBRANCH  11  14
BRANCH  12  29
HETATM   29  C22 UNL     1      14.253  22.555   4.642  1.00  0.00     0.268 C 
HETATM   30  N4  UNL     1      14.051  21.794   3.491  1.00  0.00    -0.057 NA
HETATM   31  O3  UNL     1      15.432  23.081   4.591  1.00  0.00    -0.271 OA
ENDBRANCH  12  29
BRANCH   1  32
HETATM   32  C2  UNL     1      10.142  23.428   4.641  1.00  0.00    -0.006 C 
HETATM   33  C1  UNL     1      10.223  22.111   4.790  1.00  0.00     0.028 C 
HETATM   34 BR1  UNL     1       8.519  24.246   4.069  1.00  0.00    -0.055 Br
ENDBRANCH   1  32
TORSDOF 8
ENDMDL
