MODEL 1
REMARK VINA RESULT: -9.548511968      0.000      0.000
REMARK  10 active torsions:
REMARK  status: ('A' for Active; 'I' for Inactive)
REMARK    1  A    between atoms: O1_2  and  C2_3 
REMARK    2  A    between atoms: C6_7  and  O2_8 
REMARK    3  A    between atoms: C10_13  and  N1_14 
REMARK    4  A    between atoms: N1_14  and  C11_16 
REMARK    5  A    between atoms: C11_16  and  O3_17 
REMARK    6  A    between atoms: C11_16  and  C12_19 
REMARK    7  A    between atoms: C12_19  and  N2_20 
REMARK       I    between atoms: N2_20  and  C13_22 
REMARK    8  A    between atoms: C13_22  and  C14_24 
REMARK    9  A    between atoms: N4_32  and  C20_33 
REMARK   10  A    between atoms: C20_33  and  C21_34 
ROOT
HETATM    1  C12 UNL     1      12.614  22.660   6.166  1.00  0.00     0.125 C 
HETATM    2  C19 UNL     1      13.468  22.463   4.912  1.00  0.00     0.277 C 
HETATM    3  N4  UNL     1      12.999  21.375   4.073  1.00  0.00    -0.064 N 
HETATM    4  C24 UNL     1      12.723  20.221   4.900  1.00  0.00     0.238 C 
HETATM    5  C25 UNL     1      11.560  20.545   5.804  1.00  0.00     0.035 C 
HETATM    6  C26 UNL     1      11.299  22.079   5.834  1.00  0.00     0.027 C 
HETATM    7  C27 UNL     1      10.784  22.373   4.457  1.00  0.00     0.035 C 
HETATM    8  C28 UNL     1      11.732  21.706   3.446  1.00  0.00     0.238 C 
ENDROOT
BRANCH   1   9
HETATM    9  C11 UNL     1      12.684  24.057   6.590  1.00  0.00     0.143 C 
BRANCH   9  10
HETATM   10  N1  UNL     1      12.020  24.671   7.646  1.00  0.00    -0.367 N 
ATOM     11  H1  UNL     1      12.141  24.285   8.582  1.00  0.00     0.161 HD
BRANCH  10  12
HETATM   12  C10 UNL     1      11.160  25.839   7.484  1.00  0.00     0.091 C 
HETATM   13  C4  UNL     1       9.973  25.511   6.613  1.00  0.00     0.014 C 
HETATM   14  C3  UNL     1       9.194  26.776   6.373  1.00  0.00     0.045 C 
HETATM   15  C5  UNL     1       9.053  24.511   7.285  1.00  0.00     0.044 C 
HETATM   16  C2  UNL     1       8.735  27.362   7.682  1.00  0.00     0.064 C 
HETATM   17  C9  UNL     1       9.892  27.590   8.630  1.00  0.00     0.045 C 
HETATM   18  C29 UNL     1       7.797  26.369   8.329  1.00  0.00     0.076 C 
HETATM   19  C8  UNL     1      10.673  26.316   8.807  1.00  0.00     0.014 C 
HETATM   20  C7  UNL     1       9.754  25.316   9.480  1.00  0.00     0.044 C 
HETATM   21  C6  UNL     1       8.565  25.089   8.592  1.00  0.00     0.061 C 
BRANCH  16  22
HETATM   22  O1  UNL     1       8.131  28.578   7.437  1.00  0.00    -0.385 OA
HETATM   23  C1  UNL     1       6.808  28.508   7.072  1.00  0.00     0.202 C 
ENDBRANCH  16  22
BRANCH  21  24
HETATM   24  O2  UNL     1       7.680  24.165   9.140  1.00  0.00    -0.390 OA
ATOM     25  H2  UNL     1       8.170  23.650   9.771  1.00  0.00     0.210 HD
ENDBRANCH  21  24
ENDBRANCH  10  12
ENDBRANCH   9  10
BRANCH   9  26
HETATM   26  O3  UNL     1      13.481  24.804   5.870  1.00  0.00    -0.348 OA
ATOM     27  H3  UNL     1      14.375  24.501   5.759  1.00  0.00     0.219 HD
ENDBRANCH   9  26
ENDBRANCH   1   9
BRANCH   1  28
HETATM   28  N2  UNL     1      13.286  21.903   7.245  1.00  0.00    -0.338 N 
HETATM   29  C13 UNL     1      14.703  21.887   7.362  1.00  0.00     0.255 C 
HETATM   30  O4  UNL     1      15.432  22.530   6.551  1.00  0.00    -0.268 OA
ATOM     31  H2  UNL     1      12.722  21.383   7.917  1.00  0.00     0.164 HD
BRANCH  29  32
HETATM   32  C14 UNL     1      15.390  21.141   8.396  1.00  0.00     0.070 A 
HETATM   33  C15 UNL     1      16.518  20.338   8.248  1.00  0.00     0.108 A 
HETATM   34  N3  UNL     1      16.840  19.788   9.456  1.00  0.00    -0.368 N 
HETATM   35  C16 UNL     1      17.963  18.890   9.681  1.00  0.00     0.154 C 
HETATM   36  C17 UNL     1      15.957  20.211  10.382  1.00  0.00     0.114 A 
HETATM   37  C18 UNL     1      15.057  21.054   9.712  1.00  0.00     0.066 A 
HETATM   38 CL1  UNL     1      13.742  21.824  10.610  1.00  0.00    -0.082 Cl
ENDBRANCH  29  32
ENDBRANCH   1  28
BRANCH   3  39
HETATM   39  C20 UNL     1      14.031  21.152   3.115  1.00  0.00     0.241 C 
BRANCH  39  40
HETATM   40  C21 UNL     1      14.552  19.786   2.929  1.00  0.00     0.003 C 
HETATM   41  C22 UNL     1      14.864  19.379   1.510  1.00  0.00     0.011 C 
HETATM   42  C23 UNL     1      15.883  19.701   3.690  1.00  0.00     0.011 C 
ENDBRANCH  39  40
ENDBRANCH   3  39
TORSDOF 10
ENDMDL
MODEL 2
REMARK VINA RESULT: -9.253390033      2.289      7.613
REMARK  10 active torsions:
REMARK  status: ('A' for Active; 'I' for Inactive)
REMARK    1  A    between atoms: O1_2  and  C2_3 
REMARK    2  A    between atoms: C6_7  and  O2_8 
REMARK    3  A    between atoms: C10_13  and  N1_14 
REMARK    4  A    between atoms: N1_14  and  C11_16 
REMARK    5  A    between atoms: C11_16  and  O3_17 
REMARK    6  A    between atoms: C11_16  and  C12_19 
REMARK    7  A    between atoms: C12_19  and  N2_20 
REMARK       I    between atoms: N2_20  and  C13_22 
REMARK    8  A    between atoms: C13_22  and  C14_24 
REMARK    9  A    between atoms: N4_32  and  C20_33 
REMARK   10  A    between atoms: C20_33  and  C21_34 
ROOT
HETATM    1  C12 UNL     1      12.171  22.805   5.410  1.00  0.00     0.125 C 
HETATM    2  C19 UNL     1      11.121  23.150   6.468  1.00  0.00     0.277 C 
HETATM    3  N4  UNL     1      10.862  24.576   6.563  1.00  0.00    -0.064 N 
HETATM    4  C24 UNL     1      12.120  25.288   6.591  1.00  0.00     0.238 C 
HETATM    5  C25 UNL     1      12.806  25.105   5.260  1.00  0.00     0.035 C 
HETATM    6  C26 UNL     1      12.155  23.936   4.464  1.00  0.00     0.027 C 
HETATM    7  C27 UNL     1      10.800  24.470   4.106  1.00  0.00     0.035 C 
HETATM    8  C28 UNL     1      10.175  25.063   5.381  1.00  0.00     0.238 C 
ENDROOT
BRANCH   1   9
HETATM    9  C11 UNL     1      11.929  21.456   4.904  1.00  0.00     0.143 C 
BRANCH   9  10
HETATM   10  N1  UNL     1      12.687  20.308   5.108  1.00  0.00    -0.367 N 
ATOM     11  H1  UNL     1      12.763  19.943   6.057  1.00  0.00     0.161 HD
BRANCH  10  12
HETATM   12  C10 UNL     1      13.379  19.601   4.036  1.00  0.00     0.091 C 
HETATM   13  C4  UNL     1      14.229  20.552   3.231  1.00  0.00     0.014 C 
HETATM   14  C3  UNL     1      14.815  19.800   2.067  1.00  0.00     0.045 C 
HETATM   15  C5  UNL     1      15.374  21.106   4.057  1.00  0.00     0.044 C 
HETATM   16  C2  UNL     1      15.646  18.644   2.557  1.00  0.00     0.064 C 
HETATM   17  C9  UNL     1      14.854  17.732   3.470  1.00  0.00     0.045 C 
HETATM   18  C29 UNL     1      16.797  19.209   3.355  1.00  0.00     0.076 C 
HETATM   19  C8  UNL     1      14.247  18.529   4.594  1.00  0.00     0.014 C 
HETATM   20  C7  UNL     1      15.390  19.081   5.421  1.00  0.00     0.044 C 
HETATM   21  C6  UNL     1      16.231  19.961   4.543  1.00  0.00     0.061 C 
BRANCH  16  22
HETATM   22  O1  UNL     1      16.066  17.906   1.470  1.00  0.00    -0.385 OA
HETATM   23  C1  UNL     1      17.152  17.096   1.701  1.00  0.00     0.202 C 
ENDBRANCH  16  22
BRANCH  21  24
HETATM   24  O2  UNL     1      17.298  20.521   5.241  1.00  0.00    -0.390 OA
ATOM     25  H2  UNL     1      17.206  20.254   6.149  1.00  0.00     0.210 HD
ENDBRANCH  21  24
ENDBRANCH  10  12
ENDBRANCH   9  10
BRANCH   9  26
HETATM   26  O3  UNL     1      10.853  21.337   4.168  1.00  0.00    -0.348 OA
ATOM     27  H3  UNL     1      10.074  21.794   4.463  1.00  0.00     0.219 HD
ENDBRANCH   9  26
ENDBRANCH   1   9
BRANCH   1  28
HETATM   28  N2  UNL     1      13.462  22.713   6.126  1.00  0.00    -0.338 N 
HETATM   29  C13 UNL     1      13.559  22.078   7.395  1.00  0.00     0.255 C 
HETATM   30  O4  UNL     1      12.542  21.562   7.945  1.00  0.00    -0.268 OA
ATOM     31  H2  UNL     1      14.299  23.113   5.701  1.00  0.00     0.164 HD
BRANCH  29  32
HETATM   32  C14 UNL     1      14.805  21.989   8.127  1.00  0.00     0.070 A 
HETATM   33  C15 UNL     1      16.095  22.017   7.602  1.00  0.00     0.108 A 
HETATM   34  N3  UNL     1      16.997  21.880   8.618  1.00  0.00    -0.368 N 
HETATM   35  C16 UNL     1      18.441  21.861   8.443  1.00  0.00     0.154 C 
HETATM   36  C17 UNL     1      16.332  21.766   9.785  1.00  0.00     0.114 A 
HETATM   37  C18 UNL     1      14.966  21.836   9.469  1.00  0.00     0.066 A 
HETATM   38 CL1  UNL     1      13.760  21.735  10.759  1.00  0.00    -0.082 Cl
ENDBRANCH  29  32
ENDBRANCH   1  28
BRANCH   3  39
HETATM   39  C20 UNL     1      10.086  24.750   7.746  1.00  0.00     0.241 C 
BRANCH  39  40
HETATM   40  C21 UNL     1       9.481  26.066   8.017  1.00  0.00     0.003 C 
HETATM   41  C22 UNL     1       8.041  26.058   8.469  1.00  0.00     0.011 C 
HETATM   42  C23 UNL     1      10.274  26.702   9.168  1.00  0.00     0.011 C 
ENDBRANCH  39  40
ENDBRANCH   3  39
TORSDOF 10
ENDMDL
MODEL 3
REMARK VINA RESULT: -9.225470265      3.135      9.209
REMARK  10 active torsions:
REMARK  status: ('A' for Active; 'I' for Inactive)
REMARK    1  A    between atoms: O1_2  and  C2_3 
REMARK    2  A    between atoms: C6_7  and  O2_8 
REMARK    3  A    between atoms: C10_13  and  N1_14 
REMARK    4  A    between atoms: N1_14  and  C11_16 
REMARK    5  A    between atoms: C11_16  and  O3_17 
REMARK    6  A    between atoms: C11_16  and  C12_19 
REMARK    7  A    between atoms: C12_19  and  N2_20 
REMARK       I    between atoms: N2_20  and  C13_22 
REMARK    8  A    between atoms: C13_22  and  C14_24 
REMARK    9  A    between atoms: N4_32  and  C20_33 
REMARK   10  A    between atoms: C20_33  and  C21_34 
ROOT
HETATM    1  C12 UNL     1      12.600  22.370   5.233  1.00  0.00     0.125 C 
HETATM    2  C19 UNL     1      12.658  23.746   5.898  1.00  0.00     0.277 C 
HETATM    3  N4  UNL     1      12.187  23.731   7.271  1.00  0.00    -0.064 N 
HETATM    4  C24 UNL     1      10.947  22.991   7.342  1.00  0.00     0.238 C 
HETATM    5  C25 UNL     1      11.232  21.546   7.012  1.00  0.00     0.035 C 
HETATM    6  C26 UNL     1      12.630  21.401   6.345  1.00  0.00     0.027 C 
HETATM    7  C27 UNL     1      13.582  21.715   7.460  1.00  0.00     0.035 C 
HETATM    8  C28 UNL     1      13.109  23.015   8.134  1.00  0.00     0.238 C 
ENDROOT
BRANCH   1   9
HETATM    9  C11 UNL     1      13.623  22.285   4.194  1.00  0.00     0.143 C 
BRANCH   9  10
HETATM   10  N1  UNL     1      13.894  21.227   3.334  1.00  0.00    -0.367 N 
ATOM     11  H1  UNL     1      13.129  20.855   2.770  1.00  0.00     0.161 HD
BRANCH  10  12
HETATM   12  C10 UNL     1      15.214  20.620   3.196  1.00  0.00     0.091 C 
HETATM   13  C4  UNL     1      15.718  20.130   4.530  1.00  0.00     0.014 C 
HETATM   14  C3  UNL     1      17.128  19.635   4.354  1.00  0.00     0.045 C 
HETATM   15  C5  UNL     1      14.877  18.981   5.050  1.00  0.00     0.044 C 
HETATM   16  C2  UNL     1      17.168  18.523   3.340  1.00  0.00     0.064 C 
HETATM   17  C9  UNL     1      16.556  18.945   2.022  1.00  0.00     0.045 C 
HETATM   18  C29 UNL     1      16.350  17.374   3.881  1.00  0.00     0.076 C 
HETATM   19  C8  UNL     1      15.166  19.477   2.245  1.00  0.00     0.014 C 
HETATM   20  C7  UNL     1      14.324  18.328   2.764  1.00  0.00     0.044 C 
HETATM   21  C6  UNL     1      14.920  17.846   4.054  1.00  0.00     0.061 C 
BRANCH  16  22
HETATM   22  O1  UNL     1      18.484  18.176   3.113  1.00  0.00    -0.385 OA
HETATM   23  C1  UNL     1      18.951  17.132   3.876  1.00  0.00     0.202 C 
ENDBRANCH  16  22
BRANCH  21  24
HETATM   24  O2  UNL     1      14.187  16.796   4.602  1.00  0.00    -0.390 OA
ATOM     25  H2  UNL     1      14.401  16.762   5.528  1.00  0.00     0.210 HD
ENDBRANCH  21  24
ENDBRANCH  10  12
ENDBRANCH   9  10
BRANCH   9  26
HETATM   26  O3  UNL     1      14.366  23.356   4.075  1.00  0.00    -0.348 OA
ATOM     27  H3  UNL     1      14.249  23.880   3.291  1.00  0.00     0.219 HD
ENDBRANCH   9  26
ENDBRANCH   1   9
BRANCH   1  28
HETATM   28  N2  UNL     1      11.314  22.319   4.503  1.00  0.00    -0.338 N 
HETATM   29  C13 UNL     1      10.881  23.406   3.696  1.00  0.00     0.255 C 
HETATM   30  O4  UNL     1      11.589  24.449   3.571  1.00  0.00    -0.268 OA
ATOM     31  H2  UNL     1      10.728  21.487   4.580  1.00  0.00     0.164 HD
BRANCH  29  32
HETATM   32  C14 UNL     1       9.620  23.393   2.984  1.00  0.00     0.070 A 
HETATM   33  C15 UNL     1       8.765  24.470   2.764  1.00  0.00     0.108 A 
HETATM   34  N3  UNL     1       7.667  24.040   2.075  1.00  0.00    -0.368 N 
HETATM   35  C16 UNL     1       6.559  24.892   1.672  1.00  0.00     0.154 C 
HETATM   36  C17 UNL     1       7.785  22.717   1.841  1.00  0.00     0.114 A 
HETATM   37  C18 UNL     1       9.005  22.323   2.411  1.00  0.00     0.066 A 
HETATM   38 CL1  UNL     1       9.524  20.636   2.295  1.00  0.00    -0.082 Cl
ENDBRANCH  29  32
ENDBRANCH   1  28
BRANCH   3  39
HETATM   39  C20 UNL     1      12.052  25.099   7.649  1.00  0.00     0.241 C 
BRANCH  39  40
HETATM   40  C21 UNL     1      10.772  25.563   8.214  1.00  0.00     0.003 C 
HETATM   41  C22 UNL     1      10.860  26.629   9.279  1.00  0.00     0.011 C 
HETATM   42  C23 UNL     1       9.968  26.189   7.064  1.00  0.00     0.011 C 
ENDBRANCH  39  40
ENDBRANCH   3  39
TORSDOF 10
ENDMDL
MODEL 4
REMARK VINA RESULT: -9.094852070      3.561      6.933
REMARK  10 active torsions:
REMARK  status: ('A' for Active; 'I' for Inactive)
REMARK    1  A    between atoms: O1_2  and  C2_3 
REMARK    2  A    between atoms: C6_7  and  O2_8 
REMARK    3  A    between atoms: C10_13  and  N1_14 
REMARK    4  A    between atoms: N1_14  and  C11_16 
REMARK    5  A    between atoms: C11_16  and  O3_17 
REMARK    6  A    between atoms: C11_16  and  C12_19 
REMARK    7  A    between atoms: C12_19  and  N2_20 
REMARK       I    between atoms: N2_20  and  C13_22 
REMARK    8  A    between atoms: C13_22  and  C14_24 
REMARK    9  A    between atoms: N4_32  and  C20_33 
REMARK   10  A    between atoms: C20_33  and  C21_34 
ROOT
HETATM    1  C12 UNL     1      13.372  22.461   5.742  1.00  0.00     0.125 C 
HETATM    2  C19 UNL     1      12.719  22.991   4.464  1.00  0.00     0.277 C 
HETATM    3  N4  UNL     1      11.309  22.661   4.371  1.00  0.00    -0.064 N 
HETATM    4  C24 UNL     1      11.123  21.266   4.705  1.00  0.00     0.238 C 
HETATM    5  C25 UNL     1      11.473  21.071   6.159  1.00  0.00     0.035 C 
HETATM    6  C26 UNL     1      12.265  22.295   6.703  1.00  0.00     0.027 C 
HETATM    7  C27 UNL     1      11.243  23.392   6.718  1.00  0.00     0.035 C 
HETATM    8  C28 UNL     1      10.533  23.396   5.353  1.00  0.00     0.238 C 
ENDROOT
BRANCH   1   9
HETATM    9  C11 UNL     1      14.501  23.315   6.105  1.00  0.00     0.143 C 
BRANCH   9  10
HETATM   10  N1  UNL     1      15.296  23.256   7.244  1.00  0.00    -0.367 N 
ATOM     11  H1  UNL     1      15.305  24.061   7.869  1.00  0.00     0.161 HD
BRANCH  10  12
HETATM   12  C10 UNL     1      16.119  22.101   7.590  1.00  0.00     0.091 C 
HETATM   13  C4  UNL     1      17.116  22.459   8.663  1.00  0.00     0.014 C 
HETATM   14  C3  UNL     1      18.018  21.276   8.889  1.00  0.00     0.045 C 
HETATM   15  C5  UNL     1      16.426  22.781   9.974  1.00  0.00     0.044 C 
HETATM   16  C2  UNL     1      17.212  20.075   9.305  1.00  0.00     0.064 C 
HETATM   17  C9  UNL     1      16.119  19.761   8.307  1.00  0.00     0.045 C 
HETATM   18  C29 UNL     1      16.552  20.398  10.626  1.00  0.00     0.076 C 
HETATM   19  C8  UNL     1      15.267  20.980   8.074  1.00  0.00     0.014 C 
HETATM   20  C7  UNL     1      14.576  21.302   9.384  1.00  0.00     0.044 C 
HETATM   21  C6  UNL     1      15.625  21.580  10.420  1.00  0.00     0.061 C 
BRANCH  16  22
HETATM   22  O1  UNL     1      18.050  18.983   9.385  1.00  0.00    -0.385 OA
HETATM   23  C1  UNL     1      17.566  17.930  10.124  1.00  0.00     0.202 C 
ENDBRANCH  16  22
BRANCH  21  24
HETATM   24  O2  UNL     1      15.063  21.901  11.652  1.00  0.00    -0.390 OA
ATOM     25  H2  UNL     1      15.006  21.094  12.151  1.00  0.00     0.210 HD
ENDBRANCH  21  24
ENDBRANCH  10  12
ENDBRANCH   9  10
BRANCH   9  26
HETATM   26  O3  UNL     1      14.781  24.245   5.229  1.00  0.00    -0.348 OA
ATOM     27  H3  UNL     1      14.719  24.009   4.310  1.00  0.00     0.219 HD
ENDBRANCH   9  26
ENDBRANCH   1   9
BRANCH   1  28
HETATM   28  N2  UNL     1      13.981  21.161   5.385  1.00  0.00    -0.338 N 
HETATM   29  C13 UNL     1      14.918  21.053   4.321  1.00  0.00     0.255 C 
HETATM   30  O4  UNL     1      15.268  22.071   3.653  1.00  0.00    -0.268 OA
ATOM     31  H2  UNL     1      13.724  20.326   5.912  1.00  0.00     0.164 HD
BRANCH  29  32
HETATM   32  C14 UNL     1      15.517  19.792   3.937  1.00  0.00     0.070 A 
HETATM   33  C15 UNL     1      16.333  18.974   4.716  1.00  0.00     0.108 A 
HETATM   34  N3  UNL     1      16.714  17.888   3.981  1.00  0.00    -0.368 N 
HETATM   35  C16 UNL     1      17.573  16.820   4.471  1.00  0.00     0.154 C 
HETATM   36  C17 UNL     1      16.171  17.976   2.751  1.00  0.00     0.114 A 
HETATM   37  C18 UNL     1      15.426  19.166   2.733  1.00  0.00     0.066 A 
HETATM   38 CL1  UNL     1      14.542  19.626   1.272  1.00  0.00    -0.082 Cl
ENDBRANCH  29  32
ENDBRANCH   1  28
BRANCH   3  39
HETATM   39  C20 UNL     1      10.924  22.979   3.035  1.00  0.00     0.241 C 
BRANCH  39  40
HETATM   40  C21 UNL     1       9.538  23.402   2.771  1.00  0.00     0.003 C 
HETATM   41  C22 UNL     1       9.367  24.654   1.946  1.00  0.00     0.011 C 
HETATM   42  C23 UNL     1       8.865  22.279   1.968  1.00  0.00     0.011 C 
ENDBRANCH  39  40
ENDBRANCH   3  39
TORSDOF 10
ENDMDL
MODEL 5
REMARK VINA RESULT: -8.896096231      2.168      5.639
REMARK  10 active torsions:
REMARK  status: ('A' for Active; 'I' for Inactive)
REMARK    1  A    between atoms: O1_2  and  C2_3 
REMARK    2  A    between atoms: C6_7  and  O2_8 
REMARK    3  A    between atoms: C10_13  and  N1_14 
REMARK    4  A    between atoms: N1_14  and  C11_16 
REMARK    5  A    between atoms: C11_16  and  O3_17 
REMARK    6  A    between atoms: C11_16  and  C12_19 
REMARK    7  A    between atoms: C12_19  and  N2_20 
REMARK       I    between atoms: N2_20  and  C13_22 
REMARK    8  A    between atoms: C13_22  and  C14_24 
REMARK    9  A    between atoms: N4_32  and  C20_33 
REMARK   10  A    between atoms: C20_33  and  C21_34 
ROOT
HETATM    1  C12 UNL     1      15.257  21.089   8.024  1.00  0.00     0.125 C 
HETATM    2  C19 UNL     1      15.507  20.022   9.092  1.00  0.00     0.277 C 
HETATM    3  N4  UNL     1      16.912  19.869   9.420  1.00  0.00    -0.064 N 
HETATM    4  C24 UNL     1      17.683  19.805   8.198  1.00  0.00     0.238 C 
HETATM    5  C25 UNL     1      17.589  21.140   7.501  1.00  0.00     0.035 C 
HETATM    6  C26 UNL     1      16.425  21.987   8.092  1.00  0.00     0.027 C 
HETATM    7  C27 UNL     1      16.908  22.328   9.471  1.00  0.00     0.035 C 
HETATM    8  C28 UNL     1      17.415  21.032  10.127  1.00  0.00     0.238 C 
ENDROOT
BRANCH   1   9
HETATM    9  C11 UNL     1      13.920  21.653   8.199  1.00  0.00     0.143 C 
BRANCH   9  10
HETATM   10  N1  UNL     1      13.148  22.344   7.273  1.00  0.00    -0.367 N 
ATOM     11  H1  UNL     1      13.333  22.194   6.281  1.00  0.00     0.161 HD
BRANCH  10  12
HETATM   12  C10 UNL     1      12.086  23.273   7.646  1.00  0.00     0.091 C 
HETATM   13  C4  UNL     1      12.455  24.685   7.268  1.00  0.00     0.014 C 
HETATM   14  C3  UNL     1      11.390  25.612   7.789  1.00  0.00     0.045 C 
HETATM   15  C5  UNL     1      12.531  24.854   5.763  1.00  0.00     0.044 C 
HETATM   16  C2  UNL     1      10.051  25.249   7.206  1.00  0.00     0.064 C 
HETATM   17  C9  UNL     1       9.703  23.798   7.462  1.00  0.00     0.045 C 
HETATM   18  C29 UNL     1      10.130  25.447   5.710  1.00  0.00     0.076 C 
HETATM   19  C8  UNL     1      10.812  22.907   6.970  1.00  0.00     0.014 C 
HETATM   20  C7  UNL     1      10.887  23.074   5.465  1.00  0.00     0.044 C 
HETATM   21  C6  UNL     1      11.189  24.512   5.160  1.00  0.00     0.061 C 
BRANCH  16  22
HETATM   22  O1  UNL     1       9.081  26.035   7.794  1.00  0.00    -0.385 OA
HETATM   23  C1  UNL     1       8.269  25.385   8.691  1.00  0.00     0.202 C 
ENDBRANCH  16  22
BRANCH  21  24
HETATM   24  O2  UNL     1      11.289  24.740   3.790  1.00  0.00    -0.390 OA
ATOM     25  H2  UNL     1      11.459  23.900   3.380  1.00  0.00     0.210 HD
ENDBRANCH  21  24
ENDBRANCH  10  12
ENDBRANCH   9  10
BRANCH   9  26
HETATM   26  O3  UNL     1      13.405  21.468   9.388  1.00  0.00    -0.348 OA
ATOM     27  H3  UNL     1      13.995  21.185  10.077  1.00  0.00     0.219 HD
ENDBRANCH   9  26
ENDBRANCH   1   9
BRANCH   1  28
HETATM   28  N2  UNL     1      15.198  20.372   6.731  1.00  0.00    -0.338 N 
HETATM   29  C13 UNL     1      15.234  21.075   5.496  1.00  0.00     0.255 C 
HETATM   30  O4  UNL     1      15.328  22.337   5.466  1.00  0.00    -0.268 OA
ATOM     31  H2  UNL     1      15.131  19.354   6.726  1.00  0.00     0.164 HD
BRANCH  29  32
HETATM   32  C14 UNL     1      15.160  20.402   4.215  1.00  0.00     0.070 A 
HETATM   33  C15 UNL     1      15.991  19.386   3.748  1.00  0.00     0.108 A 
HETATM   34  N3  UNL     1      15.609  19.039   2.484  1.00  0.00    -0.368 N 
HETATM   35  C16 UNL     1      16.254  18.012   1.679  1.00  0.00     0.154 C 
HETATM   36  C17 UNL     1      14.556  19.798   2.118  1.00  0.00     0.114 A 
HETATM   37  C18 UNL     1      14.284  20.644   3.204  1.00  0.00     0.066 A 
HETATM   38 CL1  UNL     1      12.942  21.793   3.106  1.00  0.00    -0.082 Cl
ENDBRANCH  29  32
ENDBRANCH   1  28
BRANCH   3  39
HETATM   39  C20 UNL     1      16.999  18.683  10.206  1.00  0.00     0.241 C 
BRANCH  39  40
HETATM   40  C21 UNL     1      18.163  17.795  10.038  1.00  0.00     0.003 C 
HETATM   41  C22 UNL     1      19.220  17.870  11.113  1.00  0.00     0.011 C 
HETATM   42  C23 UNL     1      17.641  16.351  10.066  1.00  0.00     0.011 C 
ENDBRANCH  39  40
ENDBRANCH   3  39
TORSDOF 10
ENDMDL
