MODEL 1
REMARK VINA RESULT: -8.855353323      0.000      0.000
REMARK  9 active torsions:
REMARK  status: ('A' for Active; 'I' for Inactive)
REMARK    1  A    between atoms: O1_2  and  C2_3 
REMARK    2  A    between atoms: C7_9  and  N2_10 
REMARK    3  A    between atoms: C13_19  and  C14_20 
REMARK    4  A    between atoms: C15_21  and  C16_22 
REMARK    5  A    between atoms: C16_22  and  N4_23 
REMARK       I    between atoms: N4_23  and  C17_25 
REMARK    6  A    between atoms: C17_25  and  C18_27 
REMARK    7  A    between atoms: C18_27  and  C19_28 
REMARK    8  A    between atoms: C19_28  and  O3_29 
REMARK    9  A    between atoms: O3_29  and  C20_30 
ROOT
HETATM    1  C2  UNL     1       8.495  27.769   7.982  1.00  0.00     0.071 A 
HETATM    2  C3  UNL     1       7.211  28.255   7.811  1.00  0.00     0.059 A 
HETATM    3  C4  UNL     1       6.392  27.759   6.822  1.00  0.00     0.049 A 
HETATM    4  C5  UNL     1       5.057  28.287   6.666  1.00  0.00     0.099 C 
HETATM    5  N1  UNL     1       3.988  28.722   6.525  1.00  0.00    -0.191 NA
HETATM    6  C6  UNL     1       6.879  26.764   6.000  1.00  0.00     0.052 A 
HETATM    7  C7  UNL     1       8.151  26.246   6.131  1.00  0.00     0.036 A 
HETATM    8  C27 UNL     1       8.950  26.762   7.130  1.00  0.00     0.066 A 
ENDROOT
BRANCH   1   9
HETATM    9  O1  UNL     1       9.270  28.295   8.981  1.00  0.00    -0.356 OA
HETATM   10  C1  UNL     1      10.402  27.608   9.474  1.00  0.00     0.210 C 
ENDBRANCH   1   9
BRANCH   7  11
HETATM   11  N2  UNL     1       8.598  25.225   5.259  1.00  0.00    -0.353 N 
HETATM   12  C8  UNL     1       9.794  24.814   5.148  1.00  0.00     0.085 C 
HETATM   13  C9  UNL     1      10.796  25.369   5.916  1.00  0.00     0.050 C 
HETATM   14  C26 UNL     1       9.988  23.803   4.226  1.00  0.00     0.212 C 
HETATM   15  C10 UNL     1      12.153  25.127   5.913  1.00  0.00     0.090 C 
HETATM   16  N3  UNL     1      12.829  24.079   5.366  1.00  0.00    -0.365 N 
HETATM   17  C11 UNL     1      12.370  23.069   4.587  1.00  0.00     0.049 A 
ATOM     18  H3  UNL     1      13.828  24.051   5.572  1.00  0.00     0.165 HD
HETATM   19  C12 UNL     1      13.348  22.122   4.337  1.00  0.00     0.051 A 
HETATM   20  C25 UNL     1      11.093  22.956   4.082  1.00  0.00     0.060 A 
HETATM   21  C13 UNL     1      13.022  21.033   3.556  1.00  0.00     0.021 A 
HETATM   22  C23 UNL     1      11.759  20.892   3.037  1.00  0.00     0.041 A 
HETATM   23  C24 UNL     1      10.805  21.852   3.304  1.00  0.00     0.029 A 
HETATM   24 BR1  UNL     1       9.031  21.714   2.613  1.00  0.00    -0.050 Br
HETATM   25  O4  UNL     1       9.084  23.576   3.388  1.00  0.00    -0.285 OA
ATOM     26  H2  UNL     1       7.896  24.779   4.667  1.00  0.00     0.166 HD
BRANCH  21  27
HETATM   27  C14 UNL     1      14.010  20.015   3.265  1.00  0.00    -0.065 C 
HETATM   28  C15 UNL     1      14.818  19.165   3.006  1.00  0.00    -0.081 C 
BRANCH  28  29
HETATM   29  C16 UNL     1      15.800  18.121   2.664  1.00  0.00     0.217 C 
BRANCH  29  30
HETATM   30  N4  UNL     1      16.478  17.637   3.851  1.00  0.00    -0.351 N 
HETATM   31  C17 UNL     1      17.887  17.645   3.881  1.00  0.00     0.220 C 
HETATM   32  O2  UNL     1      18.557  18.070   2.886  1.00  0.00    -0.274 OA
ATOM     33  H4  UNL     1      15.944  17.297   4.651  1.00  0.00     0.163 HD
BRANCH  31  34
HETATM   34  C18 UNL     1      18.598  17.151   5.093  1.00  0.00     0.129 C 
BRANCH  34  35
HETATM   35  C19 UNL     1      18.284  18.051   6.252  1.00  0.00     0.177 C 
BRANCH  35  36
HETATM   36  O3  UNL     1      18.309  19.375   5.835  1.00  0.00    -0.386 OA
BRANCH  36  37
HETATM   37  C20 UNL     1      17.602  20.163   6.757  1.00  0.00     0.113 C 
HETATM   38  C21 UNL     1      17.610  19.465   8.100  1.00  0.00     0.039 C 
HETATM   39  C22 UNL     1      16.158  20.325   6.331  1.00  0.00     0.039 C 
ENDBRANCH  36  37
ENDBRANCH  35  36
ENDBRANCH  34  35
ENDBRANCH  31  34
ENDBRANCH  29  30
ENDBRANCH  28  29
ENDBRANCH  21  27
ENDBRANCH   7  11
TORSDOF 9
ENDMDL
MODEL 2
REMARK VINA RESULT: -8.843912907      2.665     11.590
REMARK  9 active torsions:
REMARK  status: ('A' for Active; 'I' for Inactive)
REMARK    1  A    between atoms: O1_2  and  C2_3 
REMARK    2  A    between atoms: C7_9  and  N2_10 
REMARK    3  A    between atoms: C13_19  and  C14_20 
REMARK    4  A    between atoms: C15_21  and  C16_22 
REMARK    5  A    between atoms: C16_22  and  N4_23 
REMARK       I    between atoms: N4_23  and  C17_25 
REMARK    6  A    between atoms: C17_25  and  C18_27 
REMARK    7  A    between atoms: C18_27  and  C19_28 
REMARK    8  A    between atoms: C19_28  and  O3_29 
REMARK    9  A    between atoms: O3_29  and  C20_30 
ROOT
HETATM    1  C2  UNL     1      17.360  18.116   2.858  1.00  0.00     0.071 A 
HETATM    2  C3  UNL     1      18.263  17.154   3.274  1.00  0.00     0.059 A 
HETATM    3  C4  UNL     1      18.559  16.989   4.608  1.00  0.00     0.049 A 
HETATM    4  C5  UNL     1      19.506  15.977   5.011  1.00  0.00     0.099 C 
HETATM    5  N1  UNL     1      20.283  15.175   5.339  1.00  0.00    -0.191 NA
HETATM    6  C6  UNL     1      17.936  17.808   5.527  1.00  0.00     0.052 A 
HETATM    7  C7  UNL     1      17.029  18.781   5.164  1.00  0.00     0.036 A 
HETATM    8  C27 UNL     1      16.751  18.924   3.820  1.00  0.00     0.066 A 
ENDROOT
BRANCH   1   9
HETATM    9  O1  UNL     1      17.099  18.240   1.520  1.00  0.00    -0.356 OA
HETATM   10  C1  UNL     1      15.946  18.910   1.053  1.00  0.00     0.210 C 
ENDBRANCH   1   9
BRANCH   7  11
HETATM   11  N2  UNL     1      16.420  19.592   6.150  1.00  0.00    -0.353 N 
HETATM   12  C8  UNL     1      15.707  20.619   5.931  1.00  0.00     0.085 C 
HETATM   13  C9  UNL     1      15.465  21.037   4.639  1.00  0.00     0.050 C 
HETATM   14  C26 UNL     1      15.218  21.251   7.058  1.00  0.00     0.212 C 
HETATM   15  C10 UNL     1      14.787  22.144   4.178  1.00  0.00     0.090 C 
HETATM   16  N3  UNL     1      13.929  22.960   4.853  1.00  0.00    -0.365 N 
HETATM   17  C11 UNL     1      13.609  22.972   6.170  1.00  0.00     0.049 A 
ATOM     18  H3  UNL     1      13.460  23.664   4.284  1.00  0.00     0.165 HD
HETATM   19  C12 UNL     1      12.595  23.873   6.448  1.00  0.00     0.051 A 
HETATM   20  C25 UNL     1      14.195  22.200   7.150  1.00  0.00     0.060 A 
HETATM   21  C13 UNL     1      12.165  23.993   7.753  1.00  0.00     0.021 A 
HETATM   22  C23 UNL     1      12.727  23.239   8.752  1.00  0.00     0.041 A 
HETATM   23  C24 UNL     1      13.737  22.350   8.444  1.00  0.00     0.029 A 
HETATM   24 BR1  UNL     1      14.560  21.272   9.788  1.00  0.00    -0.050 Br
HETATM   25  O4  UNL     1      15.726  20.969   8.169  1.00  0.00    -0.285 OA
ATOM     26  H2  UNL     1      16.566  19.327   7.125  1.00  0.00     0.166 HD
BRANCH  21  27
HETATM   27  C14 UNL     1      11.107  24.921   8.095  1.00  0.00    -0.065 C 
HETATM   28  C15 UNL     1      10.230  25.683   8.400  1.00  0.00    -0.081 C 
BRANCH  28  29
HETATM   29  C16 UNL     1       9.161  26.614   8.798  1.00  0.00     0.217 C 
BRANCH  29  30
HETATM   30  N4  UNL     1       8.013  26.494   7.920  1.00  0.00    -0.351 N 
HETATM   31  C17 UNL     1       7.570  27.635   7.221  1.00  0.00     0.220 C 
HETATM   32  O2  UNL     1       8.163  28.753   7.353  1.00  0.00    -0.274 OA
ATOM     33  H4  UNL     1       7.535  25.601   7.810  1.00  0.00     0.163 HD
BRANCH  31  34
HETATM   34  C18 UNL     1       6.392  27.527   6.314  1.00  0.00     0.129 C 
BRANCH  34  35
HETATM   35  C19 UNL     1       6.651  26.461   5.291  1.00  0.00     0.177 C 
BRANCH  35  36
HETATM   36  O3  UNL     1       7.958  26.559   4.834  1.00  0.00    -0.386 OA
BRANCH  36  37
HETATM   37  C20 UNL     1       8.290  25.390   4.130  1.00  0.00     0.113 C 
HETATM   38  C21 UNL     1       9.606  24.862   4.659  1.00  0.00     0.039 C 
HETATM   39  C22 UNL     1       8.471  25.684   2.656  1.00  0.00     0.039 C 
ENDBRANCH  36  37
ENDBRANCH  35  36
ENDBRANCH  34  35
ENDBRANCH  31  34
ENDBRANCH  29  30
ENDBRANCH  28  29
ENDBRANCH  21  27
ENDBRANCH   7  11
TORSDOF 9
ENDMDL
MODEL 3
REMARK VINA RESULT: -8.775289188      2.720      3.781
REMARK  9 active torsions:
REMARK  status: ('A' for Active; 'I' for Inactive)
REMARK    1  A    between atoms: O1_2  and  C2_3 
REMARK    2  A    between atoms: C7_9  and  N2_10 
REMARK    3  A    between atoms: C13_19  and  C14_20 
REMARK    4  A    between atoms: C15_21  and  C16_22 
REMARK    5  A    between atoms: C16_22  and  N4_23 
REMARK       I    between atoms: N4_23  and  C17_25 
REMARK    6  A    between atoms: C17_25  and  C18_27 
REMARK    7  A    between atoms: C18_27  and  C19_28 
REMARK    8  A    between atoms: C19_28  and  O3_29 
REMARK    9  A    between atoms: O3_29  and  C20_30 
ROOT
HETATM    1  C2  UNL     1       8.527  27.030   6.098  1.00  0.00     0.071 A 
HETATM    2  C3  UNL     1       7.972  26.791   4.854  1.00  0.00     0.059 A 
HETATM    3  C4  UNL     1       8.334  25.687   4.116  1.00  0.00     0.049 A 
HETATM    4  C5  UNL     1       7.737  25.465   2.821  1.00  0.00     0.099 C 
HETATM    5  N1  UNL     1       7.274  25.291   1.768  1.00  0.00    -0.191 NA
HETATM    6  C6  UNL     1       9.267  24.818   4.645  1.00  0.00     0.052 A 
HETATM    7  C7  UNL     1       9.849  25.012   5.880  1.00  0.00     0.036 A 
HETATM    8  C27 UNL     1       9.467  26.128   6.597  1.00  0.00     0.066 A 
ENDROOT
BRANCH   1   9
HETATM    9  O1  UNL     1       8.134  28.143   6.792  1.00  0.00    -0.356 OA
HETATM   10  C1  UNL     1       8.449  28.308   8.160  1.00  0.00     0.210 C 
ENDBRANCH   1   9
BRANCH   7  11
HETATM   11  N2  UNL     1      10.800  24.088   6.372  1.00  0.00    -0.353 N 
HETATM   12  C8  UNL     1      11.386  23.191   5.691  1.00  0.00     0.085 C 
HETATM   13  C9  UNL     1      11.117  23.051   4.345  1.00  0.00     0.050 C 
HETATM   14  C26 UNL     1      12.279  22.404   6.393  1.00  0.00     0.212 C 
HETATM   15  C10 UNL     1      11.579  22.120   3.441  1.00  0.00     0.090 C 
HETATM   16  N3  UNL     1      12.640  21.273   3.558  1.00  0.00    -0.365 N 
HETATM   17  C11 UNL     1      13.443  21.040   4.625  1.00  0.00     0.049 A 
ATOM     18  H3  UNL     1      12.863  20.737   2.719  1.00  0.00     0.165 HD
HETATM   19  C12 UNL     1      14.496  20.200   4.306  1.00  0.00     0.051 A 
HETATM   20  C25 UNL     1      13.270  21.553   5.892  1.00  0.00     0.060 A 
HETATM   21  C13 UNL     1      15.397  19.873   5.298  1.00  0.00     0.021 A 
HETATM   22  C23 UNL     1      15.253  20.368   6.571  1.00  0.00     0.041 A 
HETATM   23  C24 UNL     1      14.193  21.202   6.858  1.00  0.00     0.029 A 
HETATM   24 BR1  UNL     1      13.937  21.924   8.607  1.00  0.00    -0.050 Br
HETATM   25  O4  UNL     1      12.235  22.421   7.645  1.00  0.00    -0.285 OA
ATOM     26  H2  UNL     1      11.037  24.148   7.363  1.00  0.00     0.166 HD
BRANCH  21  27
HETATM   27  C14 UNL     1      16.517  18.999   5.016  1.00  0.00    -0.065 C 
HETATM   28  C15 UNL     1      17.442  18.265   4.802  1.00  0.00    -0.081 C 
BRANCH  28  29
HETATM   29  C16 UNL     1      18.570  17.348   4.557  1.00  0.00     0.217 C 
BRANCH  29  30
HETATM   30  N4  UNL     1      19.250  17.020   5.795  1.00  0.00    -0.351 N 
HETATM   31  C17 UNL     1      19.003  15.770   6.396  1.00  0.00     0.220 C 
HETATM   32  O2  UNL     1      18.200  14.938   5.866  1.00  0.00    -0.274 OA
ATOM     33  H4  UNL     1      19.896  17.683   6.224  1.00  0.00     0.163 HD
BRANCH  31  34
HETATM   34  C18 UNL     1      19.696  15.418   7.668  1.00  0.00     0.129 C 
BRANCH  34  35
HETATM   35  C19 UNL     1      18.892  15.930   8.827  1.00  0.00     0.177 C 
BRANCH  35  36
HETATM   36  O3  UNL     1      18.629  17.282   8.652  1.00  0.00    -0.386 OA
BRANCH  36  37
HETATM   37  C20 UNL     1      18.084  17.804   9.837  1.00  0.00     0.113 C 
HETATM   38  C21 UNL     1      17.158  16.771  10.441  1.00  0.00     0.039 C 
HETATM   39  C22 UNL     1      17.266  19.045   9.551  1.00  0.00     0.039 C 
ENDBRANCH  36  37
ENDBRANCH  35  36
ENDBRANCH  34  35
ENDBRANCH  31  34
ENDBRANCH  29  30
ENDBRANCH  28  29
ENDBRANCH  21  27
ENDBRANCH   7  11
TORSDOF 9
ENDMDL
MODEL 4
REMARK VINA RESULT: -8.765193862      2.981      4.702
REMARK  9 active torsions:
REMARK  status: ('A' for Active; 'I' for Inactive)
REMARK    1  A    between atoms: O1_2  and  C2_3 
REMARK    2  A    between atoms: C7_9  and  N2_10 
REMARK    3  A    between atoms: C13_19  and  C14_20 
REMARK    4  A    between atoms: C15_21  and  C16_22 
REMARK    5  A    between atoms: C16_22  and  N4_23 
REMARK       I    between atoms: N4_23  and  C17_25 
REMARK    6  A    between atoms: C17_25  and  C18_27 
REMARK    7  A    between atoms: C18_27  and  C19_28 
REMARK    8  A    between atoms: C19_28  and  O3_29 
REMARK    9  A    between atoms: O3_29  and  C20_30 
ROOT
HETATM    1  C2  UNL     1       7.655  25.457   3.464  1.00  0.00     0.071 A 
HETATM    2  C3  UNL     1       7.418  26.424   4.424  1.00  0.00     0.059 A 
HETATM    3  C4  UNL     1       8.325  26.658   5.433  1.00  0.00     0.049 A 
HETATM    4  C5  UNL     1       8.049  27.674   6.422  1.00  0.00     0.099 C 
HETATM    5  N1  UNL     1       7.823  28.478   7.232  1.00  0.00    -0.191 NA
HETATM    6  C6  UNL     1       9.480  25.905   5.469  1.00  0.00     0.052 A 
HETATM    7  C7  UNL     1       9.763  24.930   4.535  1.00  0.00     0.036 A 
HETATM    8  C27 UNL     1       8.836  24.717   3.535  1.00  0.00     0.066 A 
ENDROOT
BRANCH   1   9
HETATM    9  O1  UNL     1       6.722  25.263   2.481  1.00  0.00    -0.356 OA
HETATM   10  C1  UNL     1       6.613  24.028   1.803  1.00  0.00     0.210 C 
ENDBRANCH   1   9
BRANCH   7  11
HETATM   11  N2  UNL     1      10.964  24.187   4.621  1.00  0.00    -0.353 N 
HETATM   12  C8  UNL     1      11.566  23.869   5.693  1.00  0.00     0.085 C 
HETATM   13  C9  UNL     1      11.056  24.249   6.917  1.00  0.00     0.050 C 
HETATM   14  C26 UNL     1      12.726  23.139   5.525  1.00  0.00     0.212 C 
HETATM   15  C10 UNL     1      11.570  24.074   8.184  1.00  0.00     0.090 C 
HETATM   16  N3  UNL     1      12.559  23.232   8.592  1.00  0.00    -0.365 N 
HETATM   17  C11 UNL     1      13.374  22.437   7.855  1.00  0.00     0.049 A 
ATOM     18  H3  UNL     1      12.709  23.193   9.601  1.00  0.00     0.165 HD
HETATM   19  C12 UNL     1      14.167  21.629   8.651  1.00  0.00     0.051 A 
HETATM   20  C25 UNL     1      13.439  22.405   6.479  1.00  0.00     0.060 A 
HETATM   21  C13 UNL     1      15.049  20.766   8.034  1.00  0.00     0.021 A 
HETATM   22  C23 UNL     1      15.139  20.709   6.666  1.00  0.00     0.041 A 
HETATM   23  C24 UNL     1      14.335  21.528   5.899  1.00  0.00     0.029 A 
HETATM   24 BR1  UNL     1      14.412  21.498   3.992  1.00  0.00    -0.050 Br
HETATM   25  O4  UNL     1      13.247  23.098   4.385  1.00  0.00    -0.285 OA
ATOM     26  H2  UNL     1      11.384  23.880   3.743  1.00  0.00     0.166 HD
BRANCH  21  27
HETATM   27  C14 UNL     1      15.901  19.899   8.822  1.00  0.00    -0.065 C 
HETATM   28  C15 UNL     1      16.590  19.175   9.487  1.00  0.00    -0.081 C 
BRANCH  28  29
HETATM   29  C16 UNL     1      17.415  18.276  10.313  1.00  0.00     0.217 C 
BRANCH  29  30
HETATM   30  N4  UNL     1      17.772  17.078   9.578  1.00  0.00    -0.351 N 
HETATM   31  C17 UNL     1      19.103  16.617   9.635  1.00  0.00     0.220 C 
HETATM   32  O2  UNL     1      19.979  17.235  10.320  1.00  0.00    -0.274 OA
ATOM     33  H4  UNL     1      17.074  16.578   9.029  1.00  0.00     0.163 HD
BRANCH  31  34
HETATM   34  C18 UNL     1      19.485  15.387   8.886  1.00  0.00     0.129 C 
BRANCH  34  35
HETATM   35  C19 UNL     1      19.002  15.500   7.470  1.00  0.00     0.177 C 
BRANCH  35  36
HETATM   36  O3  UNL     1      19.212  16.791   7.006  1.00  0.00    -0.386 OA
BRANCH  36  37
HETATM   37  C20 UNL     1      18.318  17.056   5.956  1.00  0.00     0.113 C 
HETATM   38  C21 UNL     1      18.880  16.472   4.679  1.00  0.00     0.039 C 
HETATM   39  C22 UNL     1      18.159  18.548   5.749  1.00  0.00     0.039 C 
ENDBRANCH  36  37
ENDBRANCH  35  36
ENDBRANCH  34  35
ENDBRANCH  31  34
ENDBRANCH  29  30
ENDBRANCH  28  29
ENDBRANCH  21  27
ENDBRANCH   7  11
TORSDOF 9
ENDMDL
MODEL 5
REMARK VINA RESULT: -8.711767638      2.685     11.247
REMARK  9 active torsions:
REMARK  status: ('A' for Active; 'I' for Inactive)
REMARK    1  A    between atoms: O1_2  and  C2_3 
REMARK    2  A    between atoms: C7_9  and  N2_10 
REMARK    3  A    between atoms: C13_19  and  C14_20 
REMARK    4  A    between atoms: C15_21  and  C16_22 
REMARK    5  A    between atoms: C16_22  and  N4_23 
REMARK       I    between atoms: N4_23  and  C17_25 
REMARK    6  A    between atoms: C17_25  and  C18_27 
REMARK    7  A    between atoms: C18_27  and  C19_28 
REMARK    8  A    between atoms: C19_28  and  O3_29 
REMARK    9  A    between atoms: O3_29  and  C20_30 
ROOT
HETATM    1  C2  UNL     1      17.457  19.158   4.579  1.00  0.00     0.071 A 
HETATM    2  C3  UNL     1      17.988  19.300   5.848  1.00  0.00     0.059 A 
HETATM    3  C4  UNL     1      17.276  19.920   6.850  1.00  0.00     0.049 A 
HETATM    4  C5  UNL     1      17.858  20.053   8.164  1.00  0.00     0.099 C 
HETATM    5  N1  UNL     1      18.330  20.181   9.220  1.00  0.00    -0.191 NA
HETATM    6  C6  UNL     1      16.015  20.400   6.562  1.00  0.00     0.052 A 
HETATM    7  C7  UNL     1      15.441  20.283   5.313  1.00  0.00     0.036 A 
HETATM    8  C27 UNL     1      16.178  19.658   4.328  1.00  0.00     0.066 A 
ENDROOT
BRANCH   1   9
HETATM    9  O1  UNL     1      18.205  18.534   3.618  1.00  0.00    -0.356 OA
HETATM   10  C1  UNL     1      17.599  17.794   2.577  1.00  0.00     0.210 C 
ENDBRANCH   1   9
BRANCH   7  11
HETATM   11  N2  UNL     1      14.143  20.795   5.074  1.00  0.00    -0.353 N 
HETATM   12  C8  UNL     1      13.477  21.529   5.868  1.00  0.00     0.085 C 
HETATM   13  C9  UNL     1      14.007  21.898   7.086  1.00  0.00     0.050 C 
HETATM   14  C26 UNL     1      12.228  21.906   5.415  1.00  0.00     0.212 C 
HETATM   15  C10 UNL     1      13.444  22.623   8.114  1.00  0.00     0.090 C 
HETATM   16  N3  UNL     1      12.334  23.413   8.092  1.00  0.00    -0.365 N 
HETATM   17  C11 UNL     1      11.431  23.601   7.098  1.00  0.00     0.049 A 
ATOM     18  H3  UNL     1      12.156  23.939   8.947  1.00  0.00     0.165 HD
HETATM   19  C12 UNL     1      10.511  24.586   7.415  1.00  0.00     0.051 A 
HETATM   20  C25 UNL     1      11.394  22.919   5.901  1.00  0.00     0.060 A 
HETATM   21  C13 UNL     1       9.529  24.886   6.494  1.00  0.00     0.021 A 
HETATM   22  C23 UNL     1       9.465  24.225   5.293  1.00  0.00     0.041 A 
HETATM   23  C24 UNL     1      10.395  23.248   5.006  1.00  0.00     0.029 A 
HETATM   24 BR1  UNL     1      10.360  22.292   3.353  1.00  0.00    -0.050 Br
HETATM   25  O4  UNL     1      11.734  21.291   4.441  1.00  0.00    -0.285 OA
ATOM     26  H2  UNL     1      13.704  20.552   4.186  1.00  0.00     0.166 HD
BRANCH  21  27
HETATM   27  C14 UNL     1       8.543  25.908   6.777  1.00  0.00    -0.065 C 
HETATM   28  C15 UNL     1       7.713  26.748   6.996  1.00  0.00    -0.081 C 
BRANCH  28  29
HETATM   29  C16 UNL     1       6.677  27.764   7.252  1.00  0.00     0.217 C 
BRANCH  29  30
HETATM   30  N4  UNL     1       5.724  27.819   6.162  1.00  0.00    -0.351 N 
HETATM   31  C17 UNL     1       4.551  27.042   6.243  1.00  0.00     0.220 C 
HETATM   32  O2  UNL     1       4.327  26.303   7.255  1.00  0.00    -0.274 OA
ATOM     33  H4  UNL     1       5.898  28.411   5.350  1.00  0.00     0.163 HD
BRANCH  31  34
HETATM   34  C18 UNL     1       3.561  27.089   5.131  1.00  0.00     0.129 C 
BRANCH  34  35
HETATM   35  C19 UNL     1       3.726  25.872   4.269  1.00  0.00     0.177 C 
BRANCH  35  36
HETATM   36  O3  UNL     1       5.067  25.703   3.951  1.00  0.00    -0.386 OA
BRANCH  36  37
HETATM   37  C20 UNL     1       5.196  24.641   3.041  1.00  0.00     0.113 C 
HETATM   38  C21 UNL     1       4.376  23.472   3.539  1.00  0.00     0.039 C 
HETATM   39  C22 UNL     1       6.637  24.186   2.947  1.00  0.00     0.039 C 
ENDBRANCH  36  37
ENDBRANCH  35  36
ENDBRANCH  34  35
ENDBRANCH  31  34
ENDBRANCH  29  30
ENDBRANCH  28  29
ENDBRANCH  21  27
ENDBRANCH   7  11
TORSDOF 9
ENDMDL
