MODEL 1
REMARK VINA RESULT: -7.462097255      0.000      0.000
REMARK  4 active torsions:
REMARK  status: ('A' for Active; 'I' for Inactive)
REMARK    1  A    between atoms: C3_3  and  C4_4 
REMARK    2  A    between atoms: C10_10  and  C11_11 
REMARK    3  A    between atoms: C13_16  and  O1_17 
REMARK    4  A    between atoms: C16_20  and  O2_21 
ROOT
HETATM    1  C4  UNL     1      -7.406  -6.038  20.952  1.00  0.00    -0.059 C 
HETATM    2  C5  UNL     1      -8.810  -5.570  21.260  1.00  0.00     0.048 C 
HETATM    3  C6  UNL     1      -6.480  -5.502  21.755  1.00  0.00    -0.067 C 
HETATM    4  C7  UNL     1      -5.049  -5.782  21.495  1.00  0.00     0.074 C 
HETATM    5  C8  UNL     1      -4.313  -4.491  21.789  1.00  0.00    -0.042 A 
HETATM    6  C9  UNL     1      -3.040  -4.403  21.286  1.00  0.00     0.024 A 
HETATM    7  C10 UNL     1      -2.287  -3.241  21.495  1.00  0.00     0.051 A 
HETATM    8  C12 UNL     1      -2.816  -2.183  22.200  1.00  0.00     0.053 A 
HETATM    9  C13 UNL     1      -4.091  -2.257  22.711  1.00  0.00     0.078 A 
HETATM   10  C15 UNL     1      -4.820  -3.445  22.479  1.00  0.00     0.011 A 
HETATM   11  C16 UNL     1      -6.206  -3.403  23.038  1.00  0.00     0.158 C 
HETATM   12  C17 UNL     1      -6.886  -4.718  22.944  1.00  0.00     0.072 C 
ENDROOT
BRANCH   1  13
HETATM   13  C3  UNL     1      -7.067  -6.898  19.854  1.00  0.00     0.002 C 
HETATM   14  C2  UNL     1      -7.030  -8.178  19.704  1.00  0.00    -0.030 C 
HETATM   15  C1  UNL     1      -7.334  -9.248  20.650  1.00  0.00     0.036 C 
ENDBRANCH   1  13
BRANCH  11  16
HETATM   16  O2  UNL     1      -6.030  -3.100  24.415  1.00  0.00    -0.390 OA
ATOM     17  H2  UNL     1      -6.717  -2.475  24.615  1.00  0.00     0.210 HD
ENDBRANCH  11  16
BRANCH   7  18
HETATM   18  C11 UNL     1      -0.925  -3.184  20.907  1.00  0.00     0.417 C 
HETATM   19  F1  UNL     1      -0.903  -2.384  19.759  1.00  0.00    -0.166 F 
HETATM   20  F2  UNL     1      -0.515  -4.445  20.508  1.00  0.00    -0.166 F 
HETATM   21  F3  UNL     1       0.001  -2.618  21.793  1.00  0.00    -0.166 F 
ENDBRANCH   7  18
BRANCH   9  22
HETATM   22  O1  UNL     1      -4.697  -1.278  23.420  1.00  0.00    -0.355 OA
HETATM   23  C14 UNL     1      -5.370  -0.129  23.189  1.00  0.00     0.210 C 
ENDBRANCH   9  22
TORSDOF 4
ENDMDL
MODEL 2
REMARK VINA RESULT: -7.265573494      2.835      5.887
REMARK  4 active torsions:
REMARK  status: ('A' for Active; 'I' for Inactive)
REMARK    1  A    between atoms: C3_3  and  C4_4 
REMARK    2  A    between atoms: C10_10  and  C11_11 
REMARK    3  A    between atoms: C13_16  and  O1_17 
REMARK    4  A    between atoms: C16_20  and  O2_21 
ROOT
HETATM    1  C4  UNL     1      -1.708  -2.404  22.424  1.00  0.00    -0.059 C 
HETATM    2  C5  UNL     1      -1.459  -1.579  23.666  1.00  0.00     0.048 C 
HETATM    3  C6  UNL     1      -3.006  -2.547  22.134  1.00  0.00    -0.067 C 
HETATM    4  C7  UNL     1      -3.402  -3.426  21.010  1.00  0.00     0.074 C 
HETATM    5  C8  UNL     1      -4.664  -4.132  21.459  1.00  0.00    -0.042 A 
HETATM    6  C9  UNL     1      -5.014  -5.245  20.737  1.00  0.00     0.024 A 
HETATM    7  C10 UNL     1      -6.158  -5.972  21.088  1.00  0.00     0.051 A 
HETATM    8  C12 UNL     1      -6.935  -5.580  22.154  1.00  0.00     0.053 A 
HETATM    9  C13 UNL     1      -6.598  -4.466  22.887  1.00  0.00     0.078 A 
HETATM   10  C15 UNL     1      -5.436  -3.759  22.503  1.00  0.00     0.011 A 
HETATM   11  C16 UNL     1      -5.138  -2.593  23.391  1.00  0.00     0.158 C 
HETATM   12  C17 UNL     1      -4.026  -1.763  22.866  1.00  0.00     0.072 C 
ENDROOT
BRANCH   1  13
HETATM   13  C3  UNL     1      -0.675  -3.054  21.670  1.00  0.00     0.002 C 
HETATM   14  C2  UNL     1      -0.084  -2.789  20.555  1.00  0.00    -0.030 C 
HETATM   15  C1  UNL     1      -0.275  -1.678  19.628  1.00  0.00     0.036 C 
ENDBRANCH   1  13
BRANCH  11  16
HETATM   16  O2  UNL     1      -6.321  -1.806  23.362  1.00  0.00    -0.390 OA
ATOM     17  H2  UNL     1      -6.873  -2.175  24.041  1.00  0.00     0.210 HD
ENDBRANCH  11  16
BRANCH   7  18
HETATM   18  C11 UNL     1      -6.477  -7.186  20.293  1.00  0.00     0.417 C 
HETATM   19  F1  UNL     1      -6.059  -8.346  20.952  1.00  0.00    -0.166 F 
HETATM   20  F2  UNL     1      -5.805  -7.164  19.083  1.00  0.00    -0.166 F 
HETATM   21  F3  UNL     1      -7.856  -7.327  20.093  1.00  0.00    -0.166 F 
ENDBRANCH   7  18
BRANCH   9  22
HETATM   22  O1  UNL     1      -7.297  -3.996  23.945  1.00  0.00    -0.355 OA
HETATM   23  C14 UNL     1      -7.384  -4.210  25.277  1.00  0.00     0.210 C 
ENDBRANCH   9  22
TORSDOF 4
ENDMDL
MODEL 3
REMARK VINA RESULT: -7.234831019      3.118      5.961
REMARK  4 active torsions:
REMARK  status: ('A' for Active; 'I' for Inactive)
REMARK    1  A    between atoms: C3_3  and  C4_4 
REMARK    2  A    between atoms: C10_10  and  C11_11 
REMARK    3  A    between atoms: C13_16  and  O1_17 
REMARK    4  A    between atoms: C16_20  and  O2_21 
ROOT
HETATM    1  C4  UNL     1      -1.789  -2.558  22.068  1.00  0.00    -0.059 C 
HETATM    2  C5  UNL     1      -1.238  -2.082  23.392  1.00  0.00     0.048 C 
HETATM    3  C6  UNL     1      -3.119  -2.438  21.972  1.00  0.00    -0.067 C 
HETATM    4  C7  UNL     1      -3.808  -2.971  20.775  1.00  0.00     0.074 C 
HETATM    5  C8  UNL     1      -5.108  -3.565  21.274  1.00  0.00    -0.042 A 
HETATM    6  C9  UNL     1      -5.743  -4.422  20.410  1.00  0.00     0.024 A 
HETATM    7  C10 UNL     1      -6.944  -5.031  20.792  1.00  0.00     0.051 A 
HETATM    8  C12 UNL     1      -7.494  -4.780  22.028  1.00  0.00     0.053 A 
HETATM    9  C13 UNL     1      -6.870  -3.923  22.905  1.00  0.00     0.078 A 
HETATM   10  C15 UNL     1      -5.659  -3.328  22.485  1.00  0.00     0.011 A 
HETATM   11  C16 UNL     1      -5.044  -2.450  23.528  1.00  0.00     0.158 C 
HETATM   12  C17 UNL     1      -3.878  -1.697  23.005  1.00  0.00     0.072 C 
ENDROOT
BRANCH   1  13
HETATM   13  C3  UNL     1      -0.996  -3.166  21.038  1.00  0.00     0.002 C 
HETATM   14  C2  UNL     1      -0.463  -2.729  19.948  1.00  0.00    -0.030 C 
HETATM   15  C1  UNL     1      -0.486  -1.395  19.357  1.00  0.00     0.036 C 
ENDBRANCH   1  13
BRANCH  11  16
HETATM   16  O2  UNL     1      -6.059  -1.511  23.854  1.00  0.00    -0.390 OA
ATOM     17  H2  UNL     1      -5.768  -1.112  24.665  1.00  0.00     0.210 HD
ENDBRANCH  11  16
BRANCH   7  18
HETATM   18  C11 UNL     1      -7.577  -5.973  19.832  1.00  0.00     0.417 C 
HETATM   19  F1  UNL     1      -6.643  -6.884  19.327  1.00  0.00    -0.166 F 
HETATM   20  F2  UNL     1      -8.079  -5.287  18.739  1.00  0.00    -0.166 F 
HETATM   21  F3  UNL     1      -8.579  -6.739  20.440  1.00  0.00    -0.166 F 
ENDBRANCH   7  18
BRANCH   9  22
HETATM   22  O1  UNL     1      -7.331  -3.607  24.136  1.00  0.00    -0.355 OA
HETATM   23  C14 UNL     1      -7.414  -4.171  25.361  1.00  0.00     0.210 C 
ENDBRANCH   9  22
TORSDOF 4
ENDMDL
MODEL 4
REMARK VINA RESULT: -7.101665171      3.489      5.859
REMARK  4 active torsions:
REMARK  status: ('A' for Active; 'I' for Inactive)
REMARK    1  A    between atoms: C3_3  and  C4_4 
REMARK    2  A    between atoms: C10_10  and  C11_11 
REMARK    3  A    between atoms: C13_16  and  O1_17 
REMARK    4  A    between atoms: C16_20  and  O2_21 
ROOT
HETATM    1  C4  UNL     1      -1.939  -3.040  21.104  1.00  0.00    -0.059 C 
HETATM    2  C5  UNL     1      -1.012  -2.626  22.223  1.00  0.00     0.048 C 
HETATM    3  C6  UNL     1      -3.227  -2.772  21.355  1.00  0.00    -0.067 C 
HETATM    4  C7  UNL     1      -4.259  -3.227  20.396  1.00  0.00     0.074 C 
HETATM    5  C8  UNL     1      -5.438  -3.672  21.236  1.00  0.00    -0.042 A 
HETATM    6  C9  UNL     1      -6.366  -4.454  20.595  1.00  0.00     0.024 A 
HETATM    7  C10 UNL     1      -7.483  -4.925  21.295  1.00  0.00     0.051 A 
HETATM    8  C12 UNL     1      -7.659  -4.611  22.624  1.00  0.00     0.053 A 
HETATM    9  C13 UNL     1      -6.738  -3.827  23.280  1.00  0.00     0.078 A 
HETATM   10  C15 UNL     1      -5.623  -3.372  22.540  1.00  0.00     0.011 A 
HETATM   11  C16 UNL     1      -4.665  -2.566  23.359  1.00  0.00     0.158 C 
HETATM   12  C17 UNL     1      -3.603  -1.949  22.527  1.00  0.00     0.072 C 
ENDROOT
BRANCH   1  13
HETATM   13  C3  UNL     1      -1.515  -3.735  19.923  1.00  0.00     0.002 C 
HETATM   14  C2  UNL     1      -1.730  -3.565  18.663  1.00  0.00    -0.030 C 
HETATM   15  C1  UNL     1      -2.523  -2.554  17.970  1.00  0.00     0.036 C 
ENDBRANCH   1  13
BRANCH  11  16
HETATM   16  O2  UNL     1      -5.453  -1.519  23.909  1.00  0.00    -0.390 OA
ATOM     17  H2  UNL     1      -4.865  -0.774  23.954  1.00  0.00     0.210 HD
ENDBRANCH  11  16
BRANCH   7  18
HETATM   18  C11 UNL     1      -8.443  -5.791  20.564  1.00  0.00     0.417 C 
HETATM   19  F1  UNL     1      -8.104  -7.142  20.691  1.00  0.00    -0.166 F 
HETATM   20  F2  UNL     1      -8.414  -5.511  19.208  1.00  0.00    -0.166 F 
HETATM   21  F3  UNL     1      -9.744  -5.667  21.069  1.00  0.00    -0.166 F 
ENDBRANCH   7  18
BRANCH   9  22
HETATM   22  O1  UNL     1      -6.823  -3.459  24.578  1.00  0.00    -0.355 OA
HETATM   23  C14 UNL     1      -7.289  -3.960  25.744  1.00  0.00     0.210 C 
ENDBRANCH   9  22
TORSDOF 4
ENDMDL
MODEL 5
REMARK VINA RESULT: -7.048669166      3.772      6.371
REMARK  4 active torsions:
REMARK  status: ('A' for Active; 'I' for Inactive)
REMARK    1  A    between atoms: C3_3  and  C4_4 
REMARK    2  A    between atoms: C10_10  and  C11_11 
REMARK    3  A    between atoms: C13_16  and  O1_17 
REMARK    4  A    between atoms: C16_20  and  O2_21 
ROOT
HETATM    1  C4  UNL     1      -2.166  -2.952  20.112  1.00  0.00    -0.059 C 
HETATM    2  C5  UNL     1      -2.129  -2.844  18.605  1.00  0.00     0.048 C 
HETATM    3  C6  UNL     1      -3.050  -3.852  20.559  1.00  0.00    -0.067 C 
HETATM    4  C7  UNL     1      -3.274  -3.982  22.017  1.00  0.00     0.074 C 
HETATM    5  C8  UNL     1      -4.759  -4.227  22.188  1.00  0.00    -0.042 A 
HETATM    6  C9  UNL     1      -5.255  -4.028  23.452  1.00  0.00     0.024 A 
HETATM    7  C10 UNL     1      -6.619  -4.217  23.703  1.00  0.00     0.051 A 
HETATM    8  C12 UNL     1      -7.469  -4.598  22.690  1.00  0.00     0.053 A 
HETATM    9  C13 UNL     1      -6.988  -4.802  21.418  1.00  0.00     0.078 A 
HETATM   10  C15 UNL     1      -5.606  -4.601  21.204  1.00  0.00     0.011 A 
HETATM   11  C16 UNL     1      -5.196  -4.807  19.780  1.00  0.00     0.158 C 
HETATM   12  C17 UNL     1      -3.723  -4.770  19.613  1.00  0.00     0.072 C 
ENDROOT
BRANCH   1  13
HETATM   13  C3  UNL     1      -1.405  -2.117  20.997  1.00  0.00     0.002 C 
HETATM   14  C2  UNL     1      -0.159  -2.071  21.327  1.00  0.00    -0.030 C 
HETATM   15  C1  UNL     1       0.963  -2.896  20.889  1.00  0.00     0.036 C 
ENDBRANCH   1  13
BRANCH  11  16
HETATM   16  O2  UNL     1      -5.638  -6.120  19.464  1.00  0.00    -0.390 OA
ATOM     17  H2  UNL     1      -5.917  -6.069  18.557  1.00  0.00     0.210 HD
ENDBRANCH  11  16
BRANCH   7  18
HETATM   18  C11 UNL     1      -7.111  -3.961  25.081  1.00  0.00     0.417 C 
HETATM   19  F1  UNL     1      -8.484  -4.206  25.182  1.00  0.00    -0.166 F 
HETATM   20  F2  UNL     1      -6.929  -2.631  25.423  1.00  0.00    -0.166 F 
HETATM   21  F3  UNL     1      -6.496  -4.803  26.017  1.00  0.00    -0.166 F 
ENDBRANCH   7  18
BRANCH   9  22
HETATM   22  O1  UNL     1      -7.738  -5.183  20.360  1.00  0.00    -0.355 OA
HETATM   23  C14 UNL     1      -8.742  -6.046  20.089  1.00  0.00     0.210 C 
ENDBRANCH   9  22
TORSDOF 4
ENDMDL
