MODEL 1
REMARK VINA RESULT: -6.767728784      0.000      0.000
REMARK  10 active torsions:
REMARK  status: ('A' for Active; 'I' for Inactive)
REMARK    1  A    between atoms: N1_5  and  C5_7 
REMARK    2  A    between atoms: C5_7  and  C6_8 
REMARK    3  A    between atoms: C7_9  and  C8_10 
REMARK    4  A    between atoms: C8_10  and  C9_11 
REMARK    5  A    between atoms: C10_12  and  O1_13 
REMARK    6  A    between atoms: C10_12  and  C11_15 
REMARK    7  A    between atoms: C11_15  and  O3_17 
REMARK    8  A    between atoms: O3_17  and  C12_18 
REMARK    9  A    between atoms: C12_18  and  C13_19 
REMARK   10  A    between atoms: C13_19  and  O4_20 
ROOT
HETATM    1  C6  UNL     1     -20.626  25.708  -5.233  1.00  0.00    -0.011 C 
HETATM    2  C7  UNL     1     -19.552  25.008  -5.355  1.00  0.00    -0.025 C 
ENDROOT
BRANCH   2   3
HETATM    3  C8  UNL     1     -19.359  23.850  -6.233  1.00  0.00     0.057 C 
BRANCH   3   4
HETATM    4  C9  UNL     1     -18.332  22.905  -5.704  1.00  0.00     0.020 C 
HETATM    5  C10 UNL     1     -18.372  21.638  -6.048  1.00  0.00     0.138 C 
BRANCH   5   6
HETATM    6  O1  UNL     1     -19.349  21.152  -6.895  1.00  0.00    -0.355 OA
ATOM      7  H1  UNL     1     -19.130  20.619  -7.649  1.00  0.00     0.218 HD
ENDBRANCH   5   6
BRANCH   5   8
HETATM    8  C11 UNL     1     -17.368  20.696  -5.534  1.00  0.00     0.316 C 
HETATM    9  O2  UNL     1     -16.318  21.113  -4.995  1.00  0.00    -0.257 OA
BRANCH   8  10
HETATM   10  O3  UNL     1     -17.553  19.329  -5.632  1.00  0.00    -0.314 OA
BRANCH  10  11
HETATM   11  C12 UNL     1     -17.011  18.496  -6.624  1.00  0.00     0.205 C 
BRANCH  11  12
HETATM   12  C13 UNL     1     -15.573  18.145  -6.369  1.00  0.00     0.191 C 
BRANCH  12  13
HETATM   13  O4  UNL     1     -15.298  18.134  -4.983  1.00  0.00    -0.399 OA
ATOM     14  H4  UNL     1     -14.779  17.374  -4.749  1.00  0.00     0.209 HD
ENDBRANCH  12  13
ENDBRANCH  11  12
ENDBRANCH  10  11
ENDBRANCH   8  10
ENDBRANCH   5   8
ENDBRANCH   3   4
ENDBRANCH   2   3
BRANCH   1  15
HETATM   15  C5  UNL     1     -21.881  25.471  -5.963  1.00  0.00     0.147 C 
BRANCH  15  16
HETATM   16  N1  UNL     1     -22.872  24.825  -5.142  1.00  0.00    -0.384 N 
HETATM   17  C4  UNL     1     -23.110  23.600  -5.138  1.00  0.00     0.043 C 
HETATM   18  C3  UNL     1     -22.462  22.550  -5.941  1.00  0.00     0.070 C 
HETATM   19  S1  UNL     1     -24.323  22.755  -4.143  1.00  0.00    -0.107 SA
HETATM   20  C2  UNL     1     -22.489  21.273  -5.141  1.00  0.00     0.006 C 
HETATM   21  C1  UNL     1     -21.684  21.512  -3.881  1.00  0.00     0.012 C 
HETATM   22  C14 UNL     1     -23.961  21.055  -4.764  1.00  0.00     0.010 C 
HETATM   23  C15 UNL     1     -24.125  20.042  -3.697  1.00  0.00     0.027 C 
HETATM   24  C16 UNL     1     -24.791  20.843  -5.984  1.00  0.00     0.027 C 
ATOM     25  H1  UNL     1     -23.420  25.413  -4.515  1.00  0.00     0.160 HD
ENDBRANCH  15  16
ENDBRANCH   1  15
TORSDOF 10
ENDMDL
MODEL 2
REMARK VINA RESULT: -6.750796848      5.423      7.213
REMARK  10 active torsions:
REMARK  status: ('A' for Active; 'I' for Inactive)
REMARK    1  A    between atoms: N1_5  and  C5_7 
REMARK    2  A    between atoms: C5_7  and  C6_8 
REMARK    3  A    between atoms: C7_9  and  C8_10 
REMARK    4  A    between atoms: C8_10  and  C9_11 
REMARK    5  A    between atoms: C10_12  and  O1_13 
REMARK    6  A    between atoms: C10_12  and  C11_15 
REMARK    7  A    between atoms: C11_15  and  O3_17 
REMARK    8  A    between atoms: O3_17  and  C12_18 
REMARK    9  A    between atoms: C12_18  and  C13_19 
REMARK   10  A    between atoms: C13_19  and  O4_20 
ROOT
HETATM    1  C6  UNL     1     -18.385  23.433  -2.784  1.00  0.00    -0.011 C 
HETATM    2  C7  UNL     1     -18.879  23.192  -3.949  1.00  0.00    -0.025 C 
ENDROOT
BRANCH   2   3
HETATM    3  C8  UNL     1     -18.136  23.092  -5.209  1.00  0.00     0.057 C 
BRANCH   3   4
HETATM    4  C9  UNL     1     -17.782  21.682  -5.545  1.00  0.00     0.020 C 
HETATM    5  C10 UNL     1     -18.540  20.998  -6.372  1.00  0.00     0.138 C 
BRANCH   5   6
HETATM    6  O1  UNL     1     -19.669  21.555  -6.942  1.00  0.00    -0.355 OA
ATOM      7  H1  UNL     1     -19.626  22.022  -7.768  1.00  0.00     0.218 HD
ENDBRANCH   5   6
BRANCH   5   8
HETATM    8  C11 UNL     1     -18.204  19.609  -6.712  1.00  0.00     0.316 C 
HETATM    9  O2  UNL     1     -18.520  19.128  -7.824  1.00  0.00    -0.257 OA
BRANCH   8  10
HETATM   10  O3  UNL     1     -17.533  18.795  -5.816  1.00  0.00    -0.314 OA
BRANCH  10  11
HETATM   11  C12 UNL     1     -16.518  17.881  -6.140  1.00  0.00     0.205 C 
BRANCH  11  12
HETATM   12  C13 UNL     1     -15.195  18.545  -6.396  1.00  0.00     0.191 C 
BRANCH  12  13
HETATM   13  O4  UNL     1     -14.447  17.819  -7.350  1.00  0.00    -0.399 OA
ATOM     14  H4  UNL     1     -14.074  18.402  -8.000  1.00  0.00     0.209 HD
ENDBRANCH  12  13
ENDBRANCH  11  12
ENDBRANCH  10  11
ENDBRANCH   8  10
ENDBRANCH   5   8
ENDBRANCH   3   4
ENDBRANCH   2   3
BRANCH   1  15
HETATM   15  C5  UNL     1     -16.960  23.659  -2.496  1.00  0.00     0.147 C 
BRANCH  15  16
HETATM   16  N1  UNL     1     -16.604  23.236  -1.166  1.00  0.00    -0.384 N 
HETATM   17  C4  UNL     1     -15.764  23.802  -0.437  1.00  0.00     0.043 C 
HETATM   18  C3  UNL     1     -14.960  24.997  -0.742  1.00  0.00     0.070 C 
HETATM   19  S1  UNL     1     -15.289  23.319   1.211  1.00  0.00    -0.107 SA
HETATM   20  C2  UNL     1     -14.699  25.722   0.553  1.00  0.00     0.006 C 
HETATM   21  C1  UNL     1     -16.041  26.148   1.111  1.00  0.00     0.012 C 
HETATM   22  C14 UNL     1     -14.074  24.679   1.490  1.00  0.00     0.010 C 
HETATM   23  C15 UNL     1     -14.070  25.121   2.903  1.00  0.00     0.027 C 
HETATM   24  C16 UNL     1     -12.760  24.215   0.958  1.00  0.00     0.027 C 
ATOM     25  H1  UNL     1     -17.074  22.412  -0.792  1.00  0.00     0.160 HD
ENDBRANCH  15  16
ENDBRANCH   1  15
TORSDOF 10
ENDMDL
MODEL 3
REMARK VINA RESULT: -6.578278680      7.008      8.851
REMARK  10 active torsions:
REMARK  status: ('A' for Active; 'I' for Inactive)
REMARK    1  A    between atoms: N1_5  and  C5_7 
REMARK    2  A    between atoms: C5_7  and  C6_8 
REMARK    3  A    between atoms: C7_9  and  C8_10 
REMARK    4  A    between atoms: C8_10  and  C9_11 
REMARK    5  A    between atoms: C10_12  and  O1_13 
REMARK    6  A    between atoms: C10_12  and  C11_15 
REMARK    7  A    between atoms: C11_15  and  O3_17 
REMARK    8  A    between atoms: O3_17  and  C12_18 
REMARK    9  A    between atoms: C12_18  and  C13_19 
REMARK   10  A    between atoms: C13_19  and  O4_20 
ROOT
HETATM    1  C6  UNL     1     -16.342  24.386  -1.135  1.00  0.00    -0.011 C 
HETATM    2  C7  UNL     1     -16.920  23.662  -2.030  1.00  0.00    -0.025 C 
ENDROOT
BRANCH   2   3
HETATM    3  C8  UNL     1     -16.271  22.986  -3.158  1.00  0.00     0.057 C 
BRANCH   3   4
HETATM    4  C9  UNL     1     -17.259  22.353  -4.080  1.00  0.00     0.020 C 
HETATM    5  C10 UNL     1     -16.862  21.433  -4.930  1.00  0.00     0.138 C 
BRANCH   5   6
HETATM    6  O1  UNL     1     -15.541  21.033  -4.993  1.00  0.00    -0.355 OA
ATOM      7  H1  UNL     1     -15.083  20.717  -4.224  1.00  0.00     0.218 HD
ENDBRANCH   5   6
BRANCH   5   8
HETATM    8  C11 UNL     1     -17.824  20.802  -5.844  1.00  0.00     0.316 C 
HETATM    9  O2  UNL     1     -19.028  21.145  -5.842  1.00  0.00    -0.257 OA
BRANCH   8  10
HETATM   10  O3  UNL     1     -17.428  19.815  -6.730  1.00  0.00    -0.314 OA
BRANCH  10  11
HETATM   11  C12 UNL     1     -17.344  18.443  -6.445  1.00  0.00     0.205 C 
BRANCH  11  12
HETATM   12  C13 UNL     1     -15.927  17.950  -6.366  1.00  0.00     0.191 C 
BRANCH  12  13
HETATM   13  O4  UNL     1     -15.402  18.139  -5.069  1.00  0.00    -0.399 OA
ATOM     14  H4  UNL     1     -14.712  17.512  -4.890  1.00  0.00     0.209 HD
ENDBRANCH  12  13
ENDBRANCH  11  12
ENDBRANCH  10  11
ENDBRANCH   8  10
ENDBRANCH   5   8
ENDBRANCH   3   4
ENDBRANCH   2   3
BRANCH   1  15
HETATM   15  C5  UNL     1     -14.901  24.676  -1.077  1.00  0.00     0.147 C 
BRANCH  15  16
HETATM   16  N1  UNL     1     -14.539  25.386   0.122  1.00  0.00    -0.384 N 
HETATM   17  C4  UNL     1     -13.871  24.910   1.062  1.00  0.00     0.043 C 
HETATM   18  C3  UNL     1     -13.307  23.554   1.175  1.00  0.00     0.070 C 
HETATM   19  S1  UNL     1     -13.399  25.745   2.563  1.00  0.00    -0.107 SA
HETATM   20  C2  UNL     1     -12.050  23.643   2.001  1.00  0.00     0.006 C 
HETATM   21  C1  UNL     1     -11.079  24.532   1.251  1.00  0.00     0.012 C 
HETATM   22  C14 UNL     1     -12.464  24.339   3.305  1.00  0.00     0.010 C 
HETATM   23  C15 UNL     1     -11.297  24.814   4.084  1.00  0.00     0.027 C 
HETATM   24  C16 UNL     1     -13.442  23.503   4.059  1.00  0.00     0.027 C 
ATOM     25  H1  UNL     1     -14.853  26.352   0.210  1.00  0.00     0.160 HD
ENDBRANCH  15  16
ENDBRANCH   1  15
TORSDOF 10
ENDMDL
MODEL 4
REMARK VINA RESULT: -6.554459619      1.714      2.481
REMARK  10 active torsions:
REMARK  status: ('A' for Active; 'I' for Inactive)
REMARK    1  A    between atoms: N1_5  and  C5_7 
REMARK    2  A    between atoms: C5_7  and  C6_8 
REMARK    3  A    between atoms: C7_9  and  C8_10 
REMARK    4  A    between atoms: C8_10  and  C9_11 
REMARK    5  A    between atoms: C10_12  and  O1_13 
REMARK    6  A    between atoms: C10_12  and  C11_15 
REMARK    7  A    between atoms: C11_15  and  O3_17 
REMARK    8  A    between atoms: O3_17  and  C12_18 
REMARK    9  A    between atoms: C12_18  and  C13_19 
REMARK   10  A    between atoms: C13_19  and  O4_20 
ROOT
HETATM    1  C6  UNL     1     -18.272  23.908  -3.423  1.00  0.00    -0.011 C 
HETATM    2  C7  UNL     1     -17.759  22.980  -4.154  1.00  0.00    -0.025 C 
ENDROOT
BRANCH   2   3
HETATM    3  C8  UNL     1     -18.099  22.678  -5.548  1.00  0.00     0.057 C 
BRANCH   3   4
HETATM    4  C9  UNL     1     -18.331  21.221  -5.770  1.00  0.00     0.020 C 
HETATM    5  C10 UNL     1     -17.696  20.599  -6.738  1.00  0.00     0.138 C 
BRANCH   5   6
HETATM    6  O1  UNL     1     -16.812  21.266  -7.564  1.00  0.00    -0.355 OA
ATOM      7  H1  UNL     1     -15.898  21.372  -7.328  1.00  0.00     0.218 HD
ENDBRANCH   5   6
BRANCH   5   8
HETATM    8  C11 UNL     1     -17.914  19.165  -6.968  1.00  0.00     0.316 C 
HETATM    9  O2  UNL     1     -18.471  18.762  -8.015  1.00  0.00    -0.257 OA
BRANCH   8  10
HETATM   10  O3  UNL     1     -17.514  18.221  -6.039  1.00  0.00    -0.314 OA
BRANCH  10  11
HETATM   11  C12 UNL     1     -16.289  17.536  -6.040  1.00  0.00     0.205 C 
BRANCH  11  12
HETATM   12  C13 UNL     1     -15.128  18.418  -6.402  1.00  0.00     0.191 C 
BRANCH  12  13
HETATM   13  O4  UNL     1     -14.373  17.846  -7.450  1.00  0.00    -0.399 OA
ATOM     14  H4  UNL     1     -14.251  18.470  -8.156  1.00  0.00     0.209 HD
ENDBRANCH  12  13
ENDBRANCH  11  12
ENDBRANCH  10  11
ENDBRANCH   8  10
ENDBRANCH   5   8
ENDBRANCH   3   4
ENDBRANCH   2   3
BRANCH   1  15
HETATM   15  C5  UNL     1     -19.312  24.854  -3.857  1.00  0.00     0.147 C 
BRANCH  15  16
HETATM   16  N1  UNL     1     -20.633  24.411  -3.492  1.00  0.00    -0.384 N 
HETATM   17  C4  UNL     1     -21.529  24.092  -4.298  1.00  0.00     0.043 C 
HETATM   18  C3  UNL     1     -21.462  24.087  -5.769  1.00  0.00     0.070 C 
HETATM   19  S1  UNL     1     -23.175  23.540  -3.897  1.00  0.00    -0.107 SA
HETATM   20  C2  UNL     1     -22.380  23.001  -6.271  1.00  0.00     0.006 C 
HETATM   21  C1  UNL     1     -21.854  21.684  -5.738  1.00  0.00     0.012 C 
HETATM   22  C14 UNL     1     -23.746  23.292  -5.634  1.00  0.00     0.010 C 
HETATM   23  C15 UNL     1     -24.673  22.141  -5.741  1.00  0.00     0.027 C 
HETATM   24  C16 UNL     1     -24.284  24.596  -6.115  1.00  0.00     0.027 C 
ATOM     25  H1  UNL     1     -20.852  24.355  -2.497  1.00  0.00     0.160 HD
ENDBRANCH  15  16
ENDBRANCH   1  15
TORSDOF 10
ENDMDL
MODEL 5
REMARK VINA RESULT: -6.468197023      5.076      6.918
REMARK  10 active torsions:
REMARK  status: ('A' for Active; 'I' for Inactive)
REMARK    1  A    between atoms: N1_5  and  C5_7 
REMARK    2  A    between atoms: C5_7  and  C6_8 
REMARK    3  A    between atoms: C7_9  and  C8_10 
REMARK    4  A    between atoms: C8_10  and  C9_11 
REMARK    5  A    between atoms: C10_12  and  O1_13 
REMARK    6  A    between atoms: C10_12  and  C11_15 
REMARK    7  A    between atoms: C11_15  and  O3_17 
REMARK    8  A    between atoms: O3_17  and  C12_18 
REMARK    9  A    between atoms: C12_18  and  C13_19 
REMARK   10  A    between atoms: C13_19  and  O4_20 
ROOT
HETATM    1  C6  UNL     1     -18.982  25.123  -2.225  1.00  0.00    -0.011 C 
HETATM    2  C7  UNL     1     -18.582  24.601  -3.332  1.00  0.00    -0.025 C 
ENDROOT
BRANCH   2   3
HETATM    3  C8  UNL     1     -17.799  23.370  -3.485  1.00  0.00     0.057 C 
BRANCH   3   4
HETATM    4  C9  UNL     1     -18.314  22.508  -4.588  1.00  0.00     0.020 C 
HETATM    5  C10 UNL     1     -17.532  21.599  -5.126  1.00  0.00     0.138 C 
BRANCH   5   6
HETATM    6  O1  UNL     1     -16.232  21.421  -4.693  1.00  0.00    -0.355 OA
ATOM      7  H1  UNL     1     -15.812  20.570  -4.727  1.00  0.00     0.218 HD
ENDBRANCH   5   6
BRANCH   5   8
HETATM    8  C11 UNL     1     -18.026  20.743  -6.212  1.00  0.00     0.316 C 
HETATM    9  O2  UNL     1     -19.245  20.711  -6.499  1.00  0.00    -0.257 OA
BRANCH   8  10
HETATM   10  O3  UNL     1     -17.163  19.949  -6.947  1.00  0.00    -0.314 OA
BRANCH  10  11
HETATM   11  C12 UNL     1     -16.920  18.583  -6.731  1.00  0.00     0.205 C 
BRANCH  11  12
HETATM   12  C13 UNL     1     -15.527  18.310  -6.240  1.00  0.00     0.191 C 
BRANCH  12  13
HETATM   13  O4  UNL     1     -15.444  18.495  -4.843  1.00  0.00    -0.399 OA
ATOM     14  H4  UNL     1     -15.622  17.682  -4.384  1.00  0.00     0.209 HD
ENDBRANCH  12  13
ENDBRANCH  11  12
ENDBRANCH  10  11
ENDBRANCH   8  10
ENDBRANCH   5   8
ENDBRANCH   3   4
ENDBRANCH   2   3
BRANCH   1  15
HETATM   15  C5  UNL     1     -18.724  24.572  -0.885  1.00  0.00     0.147 C 
BRANCH  15  16
HETATM   16  N1  UNL     1     -17.633  25.243  -0.225  1.00  0.00    -0.384 N 
HETATM   17  C4  UNL     1     -16.510  24.743  -0.013  1.00  0.00     0.043 C 
HETATM   18  C3  UNL     1     -16.037  23.395  -0.371  1.00  0.00     0.070 C 
HETATM   19  S1  UNL     1     -15.132  25.529   0.797  1.00  0.00    -0.107 SA
HETATM   20  C2  UNL     1     -14.553  23.477  -0.620  1.00  0.00     0.006 C 
HETATM   21  C1  UNL     1     -14.342  24.412  -1.792  1.00  0.00     0.012 C 
HETATM   22  C14 UNL     1     -13.958  24.114   0.644  1.00  0.00     0.010 C 
HETATM   23  C15 UNL     1     -12.569  24.581   0.439  1.00  0.00     0.027 C 
HETATM   24  C16 UNL     1     -14.171  23.231   1.828  1.00  0.00     0.027 C 
ATOM     25  H1  UNL     1     -17.791  26.199   0.092  1.00  0.00     0.160 HD
ENDBRANCH  15  16
ENDBRANCH   1  15
TORSDOF 10
ENDMDL
