MODEL 1
REMARK VINA RESULT: -7.807889830      0.000      0.000
REMARK  7 active torsions:
REMARK  status: ('A' for Active; 'I' for Inactive)
REMARK    1  A    between atoms: C5_7  and  C6_8 
REMARK    2  A    between atoms: C5_7  and  C16_19 
REMARK    3  A    between atoms: C6_8  and  C7_9 
REMARK    4  A    between atoms: C7_9  and  C8_10 
REMARK    5  A    between atoms: C8_10  and  C9_11 
REMARK    6  A    between atoms: C9_11  and  C10_12 
REMARK    7  A    between atoms: C10_12  and  C11_13 
ROOT
HETATM    1  C1  UNL     1     -13.269  23.932  -1.757  1.00  0.00     0.079 C 
HETATM    2  C2  UNL     1     -14.245  24.017  -0.605  1.00  0.00     0.168 C 
HETATM    3  C3  UNL     1     -13.527  23.523   0.652  1.00  0.00     0.079 C 
HETATM    4  O1  UNL     1     -14.640  25.349  -0.347  1.00  0.00    -0.281 OA
HETATM    5  C4  UNL     1     -16.024  25.423  -0.371  1.00  0.00     0.307 C 
HETATM    6  O2  UNL     1     -16.747  26.446  -0.236  1.00  0.00    -0.261 OA
HETATM    7  C5  UNL     1     -16.497  24.052  -0.588  1.00  0.00     0.239 C 
HETATM    8  O6  UNL     1     -15.363  23.288  -0.900  1.00  0.00    -0.323 OA
ENDROOT
BRANCH   7   9
HETATM    9  C6  UNL     1     -17.509  23.831  -1.638  1.00  0.00     0.061 C 
BRANCH   9  10
HETATM   10  C7  UNL     1     -17.158  23.216  -2.919  1.00  0.00     0.004 C 
BRANCH  10  11
HETATM   11  C8  UNL     1     -18.153  23.426  -3.994  1.00  0.00     0.000 C 
BRANCH  11  12
HETATM   12  C9  UNL     1     -17.872  22.497  -5.207  1.00  0.00     0.002 C 
BRANCH  12  13
HETATM   13  C10 UNL     1     -16.761  21.586  -4.748  1.00  0.00     0.032 C 
BRANCH  13  14
HETATM   14  C11 UNL     1     -16.817  20.222  -5.377  1.00  0.00     0.121 C 
HETATM   15  C12 UNL     1     -17.093  20.442  -6.864  1.00  0.00     0.032 C 
HETATM   16  C13 UNL     1     -17.662  19.136  -7.385  1.00  0.00     0.004 C 
HETATM   17  C14 UNL     1     -17.025  18.028  -6.566  1.00  0.00     0.026 C 
HETATM   18  C15 UNL     1     -15.642  18.412  -6.085  1.00  0.00     0.168 C 
HETATM   19  O3  UNL     1     -15.642  19.517  -5.271  1.00  0.00    -0.386 OA
ENDBRANCH  13  14
ENDBRANCH  12  13
ENDBRANCH  11  12
ENDBRANCH  10  11
ENDBRANCH   9  10
ENDBRANCH   7   9
BRANCH   7  20
HETATM   20  C16 UNL     1     -17.038  23.491   0.696  1.00  0.00     0.220 C 
HETATM   21  O4  UNL     1     -17.769  24.227   1.391  1.00  0.00    -0.645 OA
HETATM   22  O5  UNL     1     -16.725  22.212   1.065  1.00  0.00    -0.645 OA
ENDBRANCH   7  20
TORSDOF 7
ENDMDL
MODEL 2
REMARK VINA RESULT: -7.211519700      4.201      6.104
REMARK  7 active torsions:
REMARK  status: ('A' for Active; 'I' for Inactive)
REMARK    1  A    between atoms: C5_7  and  C6_8 
REMARK    2  A    between atoms: C5_7  and  C16_19 
REMARK    3  A    between atoms: C6_8  and  C7_9 
REMARK    4  A    between atoms: C7_9  and  C8_10 
REMARK    5  A    between atoms: C8_10  and  C9_11 
REMARK    6  A    between atoms: C9_11  and  C10_12 
REMARK    7  A    between atoms: C10_12  and  C11_13 
ROOT
HETATM    1  C1  UNL     1     -21.866  22.083  -2.105  1.00  0.00     0.079 C 
HETATM    2  C2  UNL     1     -22.171  22.402  -3.551  1.00  0.00     0.168 C 
HETATM    3  C3  UNL     1     -23.181  21.370  -4.054  1.00  0.00     0.079 C 
HETATM    4  O1  UNL     1     -22.783  23.669  -3.692  1.00  0.00    -0.281 OA
HETATM    5  C4  UNL     1     -22.054  24.424  -4.598  1.00  0.00     0.307 C 
HETATM    6  O2  UNL     1     -22.255  25.618  -4.948  1.00  0.00    -0.261 OA
HETATM    7  C5  UNL     1     -20.984  23.549  -5.084  1.00  0.00     0.239 C 
HETATM    8  O6  UNL     1     -21.010  22.406  -4.272  1.00  0.00    -0.323 OA
ENDROOT
BRANCH   7   9
HETATM    9  C6  UNL     1     -19.608  24.083  -5.090  1.00  0.00     0.061 C 
BRANCH   9  10
HETATM   10  C7  UNL     1     -18.824  24.183  -3.859  1.00  0.00     0.004 C 
BRANCH  10  11
HETATM   11  C8  UNL     1     -17.732  23.191  -3.744  1.00  0.00     0.000 C 
BRANCH  11  12
HETATM   12  C9  UNL     1     -17.637  22.311  -5.021  1.00  0.00     0.002 C 
BRANCH  12  13
HETATM   13  C10 UNL     1     -16.497  21.360  -4.752  1.00  0.00     0.032 C 
BRANCH  13  14
HETATM   14  C11 UNL     1     -16.658  20.035  -5.444  1.00  0.00     0.121 C 
HETATM   15  C12 UNL     1     -17.193  20.339  -6.843  1.00  0.00     0.032 C 
HETATM   16  C13 UNL     1     -17.839  19.059  -7.336  1.00  0.00     0.004 C 
HETATM   17  C14 UNL     1     -17.063  17.914  -6.711  1.00  0.00     0.026 C 
HETATM   18  C15 UNL     1     -15.619  18.288  -6.457  1.00  0.00     0.168 C 
HETATM   19  O3  UNL     1     -15.481  19.343  -5.590  1.00  0.00    -0.386 OA
ENDBRANCH  13  14
ENDBRANCH  12  13
ENDBRANCH  11  12
ENDBRANCH  10  11
ENDBRANCH   9  10
ENDBRANCH   7   9
BRANCH   7  20
HETATM   20  C16 UNL     1     -21.300  23.080  -6.475  1.00  0.00     0.220 C 
HETATM   21  O4  UNL     1     -20.531  22.245  -6.996  1.00  0.00    -0.645 OA
HETATM   22  O5  UNL     1     -22.400  23.568  -7.125  1.00  0.00    -0.645 OA
ENDBRANCH   7  20
TORSDOF 7
ENDMDL
MODEL 3
REMARK VINA RESULT: -7.138214629      1.080      1.889
REMARK  7 active torsions:
REMARK  status: ('A' for Active; 'I' for Inactive)
REMARK    1  A    between atoms: C5_7  and  C6_8 
REMARK    2  A    between atoms: C5_7  and  C16_19 
REMARK    3  A    between atoms: C6_8  and  C7_9 
REMARK    4  A    between atoms: C7_9  and  C8_10 
REMARK    5  A    between atoms: C8_10  and  C9_11 
REMARK    6  A    between atoms: C9_11  and  C10_12 
REMARK    7  A    between atoms: C10_12  and  C11_13 
ROOT
HETATM    1  C1  UNL     1     -13.903  22.061   1.783  1.00  0.00     0.079 C 
HETATM    2  C2  UNL     1     -14.391  23.417   1.327  1.00  0.00     0.168 C 
HETATM    3  C3  UNL     1     -14.224  24.391   2.495  1.00  0.00     0.079 C 
HETATM    4  O1  UNL     1     -13.612  23.926   0.262  1.00  0.00    -0.281 OA
HETATM    5  C4  UNL     1     -14.449  24.250  -0.795  1.00  0.00     0.307 C 
HETATM    6  O2  UNL     1     -14.124  24.682  -1.933  1.00  0.00    -0.261 OA
HETATM    7  C5  UNL     1     -15.812  23.988  -0.325  1.00  0.00     0.239 C 
HETATM    8  O6  UNL     1     -15.686  23.317   0.900  1.00  0.00    -0.323 OA
ENDROOT
BRANCH   7   9
HETATM    9  C6  UNL     1     -16.701  23.198  -1.198  1.00  0.00     0.061 C 
BRANCH   9  10
HETATM   10  C7  UNL     1     -16.586  23.254  -2.656  1.00  0.00     0.004 C 
BRANCH  10  11
HETATM   11  C8  UNL     1     -17.876  23.390  -3.369  1.00  0.00     0.000 C 
BRANCH  11  12
HETATM   12  C9  UNL     1     -17.888  22.542  -4.671  1.00  0.00     0.002 C 
BRANCH  12  13
HETATM   13  C10 UNL     1     -16.637  21.702  -4.599  1.00  0.00     0.032 C 
BRANCH  13  14
HETATM   14  C11 UNL     1     -16.785  20.363  -5.263  1.00  0.00     0.121 C 
HETATM   15  C12 UNL     1     -17.021  20.639  -6.748  1.00  0.00     0.032 C 
HETATM   16  C13 UNL     1     -17.678  19.393  -7.310  1.00  0.00     0.004 C 
HETATM   17  C14 UNL     1     -17.138  18.221  -6.512  1.00  0.00     0.026 C 
HETATM   18  C15 UNL     1     -15.738  18.488  -6.002  1.00  0.00     0.168 C 
HETATM   19  O3  UNL     1     -15.668  19.569  -5.160  1.00  0.00    -0.386 OA
ENDBRANCH  13  14
ENDBRANCH  12  13
ENDBRANCH  11  12
ENDBRANCH  10  11
ENDBRANCH   9  10
ENDBRANCH   7   9
BRANCH   7  20
HETATM   20  C16 UNL     1     -16.504  25.286  -0.020  1.00  0.00     0.220 C 
HETATM   21  O4  UNL     1     -17.752  25.280   0.035  1.00  0.00    -0.645 OA
HETATM   22  O5  UNL     1     -15.767  26.419   0.187  1.00  0.00    -0.645 OA
ENDBRANCH   7  20
TORSDOF 7
ENDMDL
MODEL 4
REMARK VINA RESULT: -7.094971044      4.256      6.420
REMARK  7 active torsions:
REMARK  status: ('A' for Active; 'I' for Inactive)
REMARK    1  A    between atoms: C5_7  and  C6_8 
REMARK    2  A    between atoms: C5_7  and  C16_19 
REMARK    3  A    between atoms: C6_8  and  C7_9 
REMARK    4  A    between atoms: C7_9  and  C8_10 
REMARK    5  A    between atoms: C8_10  and  C9_11 
REMARK    6  A    between atoms: C9_11  and  C10_12 
REMARK    7  A    between atoms: C10_12  and  C11_13 
ROOT
HETATM    1  C1  UNL     1     -21.598  26.060  -5.443  1.00  0.00     0.079 C 
HETATM    2  C2  UNL     1     -22.155  24.673  -5.669  1.00  0.00     0.168 C 
HETATM    3  C3  UNL     1     -23.653  24.810  -5.948  1.00  0.00     0.079 C 
HETATM    4  O1  UNL     1     -21.587  24.057  -6.807  1.00  0.00    -0.281 OA
HETATM    5  C4  UNL     1     -21.060  22.828  -6.441  1.00  0.00     0.307 C 
HETATM    6  O2  UNL     1     -20.431  22.010  -7.164  1.00  0.00    -0.261 OA
HETATM    7  C5  UNL     1     -21.384  22.658  -5.022  1.00  0.00     0.239 C 
HETATM    8  O6  UNL     1     -21.886  23.890  -4.580  1.00  0.00    -0.323 OA
ENDROOT
BRANCH   7   9
HETATM    9  C6  UNL     1     -20.298  22.246  -4.112  1.00  0.00     0.061 C 
BRANCH   9  10
HETATM   10  C7  UNL     1     -19.499  23.233  -3.383  1.00  0.00     0.004 C 
BRANCH  10  11
HETATM   11  C8  UNL     1     -18.048  23.179  -3.668  1.00  0.00     0.000 C 
BRANCH  11  12
HETATM   12  C9  UNL     1     -17.765  22.427  -4.999  1.00  0.00     0.002 C 
BRANCH  12  13
HETATM   13  C10 UNL     1     -16.598  21.522  -4.692  1.00  0.00     0.032 C 
BRANCH  13  14
HETATM   14  C11 UNL     1     -16.712  20.171  -5.342  1.00  0.00     0.121 C 
HETATM   15  C12 UNL     1     -17.121  20.422  -6.793  1.00  0.00     0.032 C 
HETATM   16  C13 UNL     1     -17.735  19.127  -7.288  1.00  0.00     0.004 C 
HETATM   17  C14 UNL     1     -17.026  18.003  -6.554  1.00  0.00     0.026 C 
HETATM   18  C15 UNL     1     -15.606  18.379  -6.192  1.00  0.00     0.168 C 
HETATM   19  O3  UNL     1     -15.532  19.467  -5.358  1.00  0.00    -0.386 OA
ENDBRANCH  13  14
ENDBRANCH  12  13
ENDBRANCH  11  12
ENDBRANCH  10  11
ENDBRANCH   9  10
ENDBRANCH   7   9
BRANCH   7  20
HETATM   20  C16 UNL     1     -22.507  21.671  -4.869  1.00  0.00     0.220 C 
HETATM   21  O4  UNL     1     -22.747  21.235  -3.724  1.00  0.00    -0.645 OA
HETATM   22  O5  UNL     1     -23.227  21.284  -5.966  1.00  0.00    -0.645 OA
ENDBRANCH   7  20
TORSDOF 7
ENDMDL
MODEL 5
REMARK VINA RESULT: -7.089746860      1.158      2.537
REMARK  7 active torsions:
REMARK  status: ('A' for Active; 'I' for Inactive)
REMARK    1  A    between atoms: C5_7  and  C6_8 
REMARK    2  A    between atoms: C5_7  and  C16_19 
REMARK    3  A    between atoms: C6_8  and  C7_9 
REMARK    4  A    between atoms: C7_9  and  C8_10 
REMARK    5  A    between atoms: C8_10  and  C9_11 
REMARK    6  A    between atoms: C9_11  and  C10_12 
REMARK    7  A    between atoms: C10_12  and  C11_13 
ROOT
HETATM    1  C1  UNL     1     -17.402  26.702   0.455  1.00  0.00     0.079 C 
HETATM    2  C2  UNL     1     -16.257  25.717   0.513  1.00  0.00     0.168 C 
HETATM    3  C3  UNL     1     -15.126  26.361   1.316  1.00  0.00     0.079 C 
HETATM    4  O1  UNL     1     -16.615  24.533   1.197  1.00  0.00    -0.281 OA
HETATM    5  C4  UNL     1     -16.352  23.442   0.383  1.00  0.00     0.307 C 
HETATM    6  O2  UNL     1     -16.583  22.226   0.620  1.00  0.00    -0.261 OA
HETATM    7  C5  UNL     1     -15.740  23.986  -0.833  1.00  0.00     0.239 C 
HETATM    8  O6  UNL     1     -15.881  25.379  -0.758  1.00  0.00    -0.323 OA
ENDROOT
BRANCH   7   9
HETATM    9  C6  UNL     1     -16.272  23.534  -2.133  1.00  0.00     0.061 C 
BRANCH   9  10
HETATM   10  C7  UNL     1     -17.706  23.566  -2.422  1.00  0.00     0.004 C 
BRANCH  10  11
HETATM   11  C8  UNL     1     -18.040  23.696  -3.858  1.00  0.00     0.000 C 
BRANCH  11  12
HETATM   12  C9  UNL     1     -18.565  22.352  -4.436  1.00  0.00     0.002 C 
BRANCH  12  13
HETATM   13  C10 UNL     1     -17.664  22.057  -5.609  1.00  0.00     0.032 C 
BRANCH  13  14
HETATM   14  C11 UNL     1     -17.308  20.602  -5.730  1.00  0.00     0.121 C 
HETATM   15  C12 UNL     1     -17.460  20.239  -7.207  1.00  0.00     0.032 C 
HETATM   16  C13 UNL     1     -17.624  18.732  -7.257  1.00  0.00     0.004 C 
HETATM   17  C14 UNL     1     -16.828  18.171  -6.093  1.00  0.00     0.026 C 
HETATM   18  C15 UNL     1     -15.648  19.052  -5.745  1.00  0.00     0.168 C 
HETATM   19  O3  UNL     1     -16.015  20.318  -5.363  1.00  0.00    -0.386 OA
ENDBRANCH  13  14
ENDBRANCH  12  13
ENDBRANCH  11  12
ENDBRANCH  10  11
ENDBRANCH   9  10
ENDBRANCH   7   9
BRANCH   7  20
HETATM   20  C16 UNL     1     -14.262  23.715  -0.824  1.00  0.00     0.220 C 
HETATM   21  O4  UNL     1     -13.631  23.895  -1.887  1.00  0.00    -0.645 OA
HETATM   22  O5  UNL     1     -13.655  23.288   0.324  1.00  0.00    -0.645 OA
ENDBRANCH   7  20
TORSDOF 7
ENDMDL
