MODEL 1
REMARK VINA RESULT: -6.638833285      0.000      0.000
REMARK  7 active torsions:
REMARK  status: ('A' for Active; 'I' for Inactive)
REMARK    1  A    between atoms: C2_2  and  O1_3 
REMARK    2  A    between atoms: O1_3  and  C3_4 
REMARK    3  A    between atoms: C3_4  and  C4_6 
REMARK    4  A    between atoms: C4_6  and  N1_7 
REMARK    5  A    between atoms: N1_7  and  C6_10 
REMARK    6  A    between atoms: C6_10  and  C7_11 
REMARK    7  A    between atoms: C7_11  and  O3_12 
ROOT
HETATM    1  N1  UNL     1      -4.727   1.809  13.712  1.00  0.00    -0.308 N 
HETATM    2  C5  UNL     1      -5.123   1.821  12.335  1.00  0.00     0.180 C 
HETATM    3  N2  UNL     1      -5.430   1.813  11.221  1.00  0.00    -0.172 NA
ENDROOT
BRANCH   1   4
HETATM    4  C4  UNL     1      -4.177   0.569  14.186  1.00  0.00     0.245 C 
BRANCH   4   5
HETATM    5  C3  UNL     1      -4.343   0.501  15.696  1.00  0.00     0.277 C 
HETATM    6  O2  UNL     1      -3.423   0.858  16.458  1.00  0.00    -0.263 OA
BRANCH   5   7
HETATM    7  O1  UNL     1      -5.529   0.037  16.228  1.00  0.00    -0.321 OA
BRANCH   7   8
HETATM    8  C2  UNL     1      -6.115   0.570  17.396  1.00  0.00     0.174 C 
HETATM    9  C1  UNL     1      -7.302   1.414  17.014  1.00  0.00     0.034 C 
ENDBRANCH   7   8
ENDBRANCH   5   7
ENDBRANCH   4   5
ENDBRANCH   1   4
BRANCH   1  10
HETATM   10  C6  UNL     1      -4.864   2.979  14.515  1.00  0.00     0.173 C 
BRANCH  10  11
HETATM   11  C7  UNL     1      -3.763   3.980  14.468  1.00  0.00     0.077 C 
HETATM   12  C8  UNL     1      -4.197   5.354  14.741  1.00  0.00     0.067 C 
HETATM   13  C9  UNL     1      -3.180   6.411  14.339  1.00  0.00     0.235 C 
HETATM   14  N3  UNL     1      -2.890   6.347  12.932  1.00  0.00    -0.075 N 
HETATM   15  C10 UNL     1      -3.384   5.127  12.333  1.00  0.00     0.235 C 
ATOM     16  H32 UNL     1      -3.243   7.169  12.442  1.00  0.00     0.277 HD
ATOM     17  H31 UNL     1      -1.893   6.470  12.753  1.00  0.00     0.277 HD
HETATM   18  C11 UNL     1      -3.032   3.913  13.133  1.00  0.00     0.067 C 
BRANCH  11  19
HETATM   19  O3  UNL     1      -2.786   3.567  15.421  1.00  0.00    -0.388 OA
ATOM     20  H3  UNL     1      -2.169   3.011  14.960  1.00  0.00     0.210 HD
ENDBRANCH  11  19
ENDBRANCH  10  11
ENDBRANCH   1  10
TORSDOF 7
ENDMDL
MODEL 2
REMARK VINA RESULT: -6.371564677      1.843      2.388
REMARK  7 active torsions:
REMARK  status: ('A' for Active; 'I' for Inactive)
REMARK    1  A    between atoms: C2_2  and  O1_3 
REMARK    2  A    between atoms: O1_3  and  C3_4 
REMARK    3  A    between atoms: C3_4  and  C4_6 
REMARK    4  A    between atoms: C4_6  and  N1_7 
REMARK    5  A    between atoms: N1_7  and  C6_10 
REMARK    6  A    between atoms: C6_10  and  C7_11 
REMARK    7  A    between atoms: C7_11  and  O3_12 
ROOT
HETATM    1  N1  UNL     1      -4.811   2.802  14.212  1.00  0.00    -0.308 N 
HETATM    2  C5  UNL     1      -5.865   3.735  13.938  1.00  0.00     0.180 C 
HETATM    3  N2  UNL     1      -6.719   4.487  13.739  1.00  0.00    -0.172 NA
ENDROOT
BRANCH   1   4
HETATM    4  C4  UNL     1      -4.393   2.728  15.584  1.00  0.00     0.245 C 
BRANCH   4   5
HETATM    5  C3  UNL     1      -4.515   1.288  16.059  1.00  0.00     0.277 C 
HETATM    6  O2  UNL     1      -3.506   0.636  16.391  1.00  0.00    -0.263 OA
BRANCH   5   7
HETATM    7  O1  UNL     1      -5.761   0.698  16.123  1.00  0.00    -0.321 OA
BRANCH   7   8
HETATM    8  C2  UNL     1      -6.819   1.205  16.906  1.00  0.00     0.174 C 
HETATM    9  C1  UNL     1      -6.271   1.713  18.212  1.00  0.00     0.034 C 
ENDBRANCH   7   8
ENDBRANCH   5   7
ENDBRANCH   4   5
ENDBRANCH   1   4
BRANCH   1  10
HETATM   10  C6  UNL     1      -4.262   2.004  13.166  1.00  0.00     0.173 C 
BRANCH  10  11
HETATM   11  C7  UNL     1      -3.270   2.643  12.260  1.00  0.00     0.077 C 
HETATM   12  C8  UNL     1      -2.719   3.901  12.774  1.00  0.00     0.067 C 
HETATM   13  C9  UNL     1      -2.005   4.736  11.723  1.00  0.00     0.235 C 
HETATM   14  N3  UNL     1      -2.891   5.090  10.648  1.00  0.00    -0.075 N 
HETATM   15  C10 UNL     1      -4.115   4.320  10.681  1.00  0.00     0.235 C 
ATOM     16  H32 UNL     1      -3.084   6.092  10.641  1.00  0.00     0.277 HD
ATOM     17  H31 UNL     1      -2.427   5.009   9.743  1.00  0.00     0.277 HD
HETATM   18  C11 UNL     1      -3.867   2.858  10.874  1.00  0.00     0.067 C 
BRANCH  11  19
HETATM   19  O3  UNL     1      -2.229   1.693  12.046  1.00  0.00    -0.388 OA
ATOM     20  H3  UNL     1      -1.538   1.894  12.667  1.00  0.00     0.210 HD
ENDBRANCH  11  19
ENDBRANCH  10  11
ENDBRANCH   1  10
TORSDOF 7
ENDMDL
MODEL 3
REMARK VINA RESULT: -6.313317269      1.277      1.784
REMARK  7 active torsions:
REMARK  status: ('A' for Active; 'I' for Inactive)
REMARK    1  A    between atoms: C2_2  and  O1_3 
REMARK    2  A    between atoms: O1_3  and  C3_4 
REMARK    3  A    between atoms: C3_4  and  C4_6 
REMARK    4  A    between atoms: C4_6  and  N1_7 
REMARK    5  A    between atoms: N1_7  and  C6_10 
REMARK    6  A    between atoms: C6_10  and  C7_11 
REMARK    7  A    between atoms: C7_11  and  O3_12 
ROOT
HETATM    1  N1  UNL     1      -4.525   2.790  14.067  1.00  0.00    -0.308 N 
HETATM    2  C5  UNL     1      -5.526   3.413  14.882  1.00  0.00     0.180 C 
HETATM    3  N2  UNL     1      -6.343   3.896  15.541  1.00  0.00    -0.172 NA
ENDROOT
BRANCH   1   4
HETATM    4  C4  UNL     1      -4.473   1.356  14.142  1.00  0.00     0.245 C 
BRANCH   4   5
HETATM    5  C3  UNL     1      -4.335   0.944  15.599  1.00  0.00     0.277 C 
HETATM    6  O2  UNL     1      -3.359   1.312  16.280  1.00  0.00    -0.263 OA
BRANCH   5   7
HETATM    7  O1  UNL     1      -5.307   0.148  16.174  1.00  0.00    -0.321 OA
BRANCH   7   8
HETATM    8  C2  UNL     1      -5.920   0.446  17.409  1.00  0.00     0.174 C 
HETATM    9  C1  UNL     1      -7.276   1.047  17.158  1.00  0.00     0.034 C 
ENDBRANCH   7   8
ENDBRANCH   5   7
ENDBRANCH   4   5
ENDBRANCH   1   4
BRANCH   1  10
HETATM   10  C6  UNL     1      -3.677   3.577  13.234  1.00  0.00     0.173 C 
BRANCH  10  11
HETATM   11  C7  UNL     1      -2.757   4.538  13.900  1.00  0.00     0.077 C 
HETATM   12  C8  UNL     1      -3.347   5.859  14.137  1.00  0.00     0.067 C 
HETATM   13  C9  UNL     1      -2.327   6.938  14.468  1.00  0.00     0.235 C 
HETATM   14  N3  UNL     1      -1.377   7.102  13.401  1.00  0.00    -0.075 N 
HETATM   15  C10 UNL     1      -1.440   6.015  12.450  1.00  0.00     0.235 C 
ATOM     16  H32 UNL     1      -1.490   8.005  12.939  1.00  0.00     0.277 HD
ATOM     17  H31 UNL     1      -0.431   7.224  13.763  1.00  0.00     0.277 HD
HETATM   18  C11 UNL     1      -1.459   4.675  13.113  1.00  0.00     0.067 C 
BRANCH  11  19
HETATM   19  O3  UNL     1      -2.355   3.943  15.132  1.00  0.00    -0.388 OA
ATOM     20  H3  UNL     1      -1.898   4.613  15.627  1.00  0.00     0.210 HD
ENDBRANCH  11  19
ENDBRANCH  10  11
ENDBRANCH   1  10
TORSDOF 7
ENDMDL
MODEL 4
REMARK VINA RESULT: -6.279702227      1.361      1.503
REMARK  7 active torsions:
REMARK  status: ('A' for Active; 'I' for Inactive)
REMARK    1  A    between atoms: C2_2  and  O1_3 
REMARK    2  A    between atoms: O1_3  and  C3_4 
REMARK    3  A    between atoms: C3_4  and  C4_6 
REMARK    4  A    between atoms: C4_6  and  N1_7 
REMARK    5  A    between atoms: N1_7  and  C6_10 
REMARK    6  A    between atoms: C6_10  and  C7_11 
REMARK    7  A    between atoms: C7_11  and  O3_12 
ROOT
HETATM    1  N1  UNL     1      -4.520   2.972  14.489  1.00  0.00    -0.308 N 
HETATM    2  C5  UNL     1      -5.766   3.522  14.042  1.00  0.00     0.180 C 
HETATM    3  N2  UNL     1      -6.775   3.947  13.670  1.00  0.00    -0.172 NA
ENDROOT
BRANCH   1   4
HETATM    4  C4  UNL     1      -4.362   1.558  14.289  1.00  0.00     0.245 C 
BRANCH   4   5
HETATM    5  C3  UNL     1      -4.489   0.853  15.631  1.00  0.00     0.277 C 
HETATM    6  O2  UNL     1      -3.487   0.638  16.339  1.00  0.00    -0.263 OA
BRANCH   5   7
HETATM    7  O1  UNL     1      -5.734   0.445  16.067  1.00  0.00    -0.321 OA
BRANCH   7   8
HETATM    8  C2  UNL     1      -6.242   0.745  17.349  1.00  0.00     0.174 C 
HETATM    9  C1  UNL     1      -6.690   2.181  17.381  1.00  0.00     0.034 C 
ENDBRANCH   7   8
ENDBRANCH   5   7
ENDBRANCH   4   5
ENDBRANCH   1   4
BRANCH   1  10
HETATM   10  C6  UNL     1      -3.524   3.813  15.065  1.00  0.00     0.173 C 
BRANCH  10  11
HETATM   11  C7  UNL     1      -2.687   4.623  14.139  1.00  0.00     0.077 C 
HETATM   12  C8  UNL     1      -3.047   6.044  14.102  1.00  0.00     0.067 C 
HETATM   13  C9  UNL     1      -2.465   6.796  12.915  1.00  0.00     0.235 C 
HETATM   14  N3  UNL     1      -2.912   6.230  11.670  1.00  0.00    -0.075 N 
HETATM   15  C10 UNL     1      -3.528   4.936  11.855  1.00  0.00     0.235 C 
ATOM     16  H32 UNL     1      -3.534   6.869  11.175  1.00  0.00     0.277 HD
ATOM     17  H31 UNL     1      -2.153   6.186  10.990  1.00  0.00     0.277 HD
HETATM   18  C11 UNL     1      -2.718   4.036  12.733  1.00  0.00     0.067 C 
BRANCH  11  19
HETATM   19  O3  UNL     1      -1.333   4.462  14.554  1.00  0.00    -0.388 OA
ATOM     20  H3  UNL     1      -0.814   4.343  13.766  1.00  0.00     0.210 HD
ENDBRANCH  11  19
ENDBRANCH  10  11
ENDBRANCH   1  10
TORSDOF 7
ENDMDL
MODEL 5
REMARK VINA RESULT: -6.200958837      1.618      2.023
REMARK  7 active torsions:
REMARK  status: ('A' for Active; 'I' for Inactive)
REMARK    1  A    between atoms: C2_2  and  O1_3 
REMARK    2  A    between atoms: O1_3  and  C3_4 
REMARK    3  A    between atoms: C3_4  and  C4_6 
REMARK    4  A    between atoms: C4_6  and  N1_7 
REMARK    5  A    between atoms: N1_7  and  C6_10 
REMARK    6  A    between atoms: C6_10  and  C7_11 
REMARK    7  A    between atoms: C7_11  and  O3_12 
ROOT
HETATM    1  N1  UNL     1      -4.776   2.162  14.164  1.00  0.00    -0.308 N 
HETATM    2  C5  UNL     1      -4.344   1.491  12.973  1.00  0.00     0.180 C 
HETATM    3  N2  UNL     1      -3.976   0.945  12.024  1.00  0.00    -0.172 NA
ENDROOT
BRANCH   1   4
HETATM    4  C4  UNL     1      -4.014   1.873  15.347  1.00  0.00     0.245 C 
BRANCH   4   5
HETATM    5  C3  UNL     1      -4.560   0.606  15.987  1.00  0.00     0.277 C 
HETATM    6  O2  UNL     1      -4.661  -0.450  15.333  1.00  0.00    -0.263 OA
BRANCH   5   7
HETATM    7  O1  UNL     1      -4.950   0.629  17.312  1.00  0.00    -0.321 OA
BRANCH   7   8
HETATM    8  C2  UNL     1      -5.945   1.495  17.811  1.00  0.00     0.174 C 
HETATM    9  C1  UNL     1      -7.244   1.220  17.103  1.00  0.00     0.034 C 
ENDBRANCH   7   8
ENDBRANCH   5   7
ENDBRANCH   4   5
ENDBRANCH   1   4
BRANCH   1  10
HETATM   10  C6  UNL     1      -5.878   3.066  14.125  1.00  0.00     0.173 C 
BRANCH  10  11
HETATM   11  C7  UNL     1      -5.598   4.477  13.741  1.00  0.00     0.077 C 
HETATM   12  C8  UNL     1      -4.688   4.612  12.599  1.00  0.00     0.067 C 
HETATM   13  C9  UNL     1      -4.111   6.010  12.435  1.00  0.00     0.235 C 
HETATM   14  N3  UNL     1      -3.366   6.407  13.599  1.00  0.00    -0.075 N 
HETATM   15  C10 UNL     1      -3.612   5.531  14.722  1.00  0.00     0.235 C 
ATOM     16  H32 UNL     1      -2.369   6.477  13.395  1.00  0.00     0.277 HD
ATOM     17  H31 UNL     1      -3.549   7.381  13.842  1.00  0.00     0.277 HD
HETATM   18  C11 UNL     1      -5.068   5.264  14.933  1.00  0.00     0.067 C 
BRANCH  11  19
HETATM   19  O3  UNL     1      -6.854   5.086  13.452  1.00  0.00    -0.388 OA
ATOM     20  H3  UNL     1      -6.892   5.893  13.951  1.00  0.00     0.210 HD
ENDBRANCH  11  19
ENDBRANCH  10  11
ENDBRANCH   1  10
TORSDOF 7
ENDMDL
