MODEL 1
REMARK VINA RESULT: -6.076434263      0.000      0.000
REMARK  6 active torsions:
REMARK  status: ('A' for Active; 'I' for Inactive)
REMARK    1  A    between atoms: O1_2  and  C2_3 
REMARK    2  A    between atoms: C3_5  and  C4_6 
REMARK    3  A    between atoms: C6_10  and  C7_11 
REMARK    4  A    between atoms: C7_11  and  O5_12 
REMARK    5  A    between atoms: C8_14  and  N1_15 
REMARK    6  A    between atoms: N1_15  and  C9_17 
ROOT
HETATM    1  C2  UNL     1      -3.398   4.103  14.274  1.00  0.00     0.287 C 
HETATM    2  O2  UNL     1      -3.321   2.988  15.147  1.00  0.00    -0.322 OA
HETATM    3  C3  UNL     1      -4.613   2.634  15.436  1.00  0.00     0.333 C 
HETATM    4  O4  UNL     1      -5.222   2.072  14.363  1.00  0.00    -0.344 OA
HETATM    5  C6  UNL     1      -4.766   2.355  13.109  1.00  0.00     0.175 C 
HETATM    6  C8  UNL     1      -3.967   3.589  12.964  1.00  0.00     0.164 C 
ENDROOT
BRANCH   6   7
HETATM    7  N1  UNL     1      -2.859   3.369  12.084  1.00  0.00    -0.407 N 
ATOM      8  H1  UNL     1      -2.864   2.603  11.411  1.00  0.00     0.154 HD
BRANCH   7   9
HETATM    9  C9  UNL     1      -1.753   4.255  12.181  1.00  0.00     0.069 C 
HETATM   10  C10 UNL     1      -1.942   5.332  11.098  1.00  0.00     0.031 C 
HETATM   11  C11 UNL     1      -0.507   3.436  11.800  1.00  0.00     0.031 C 
ENDBRANCH   7   9
ENDBRANCH   6   7
BRANCH   1  12
HETATM   12  O1  UNL     1      -4.162   5.091  14.869  1.00  0.00    -0.364 OA
HETATM   13  C1  UNL     1      -3.489   6.311  14.680  1.00  0.00     0.204 C 
ENDBRANCH   1  12
BRANCH   5  14
HETATM   14  C7  UNL     1      -4.081   1.103  12.608  1.00  0.00     0.198 C 
BRANCH  14  15
HETATM   15  O5  UNL     1      -4.428  -0.007  13.387  1.00  0.00    -0.398 OA
ATOM     16  H5  UNL     1      -3.795  -0.709  13.284  1.00  0.00     0.209 HD
ENDBRANCH  14  15
ENDBRANCH   5  14
BRANCH   3  17
HETATM   17  C4  UNL     1      -4.579   1.582  16.506  1.00  0.00     0.177 C 
HETATM   18  C5  UNL     1      -5.631   1.555  17.532  1.00  0.00     0.096 C 
HETATM   19  O3  UNL     1      -3.657   0.792  16.462  1.00  0.00    -0.293 OA
ENDBRANCH   3  17
TORSDOF 6
ENDMDL
MODEL 2
REMARK VINA RESULT: -6.037724646      2.570      4.834
REMARK  6 active torsions:
REMARK  status: ('A' for Active; 'I' for Inactive)
REMARK    1  A    between atoms: O1_2  and  C2_3 
REMARK    2  A    between atoms: C3_5  and  C4_6 
REMARK    3  A    between atoms: C6_10  and  C7_11 
REMARK    4  A    between atoms: C7_11  and  O5_12 
REMARK    5  A    between atoms: C8_14  and  N1_15 
REMARK    6  A    between atoms: N1_15  and  C9_17 
ROOT
HETATM    1  C2  UNL     1      -6.168   3.403  13.776  1.00  0.00     0.287 C 
HETATM    2  O2  UNL     1      -5.769   2.526  12.735  1.00  0.00    -0.322 OA
HETATM    3  C3  UNL     1      -4.435   2.757  12.525  1.00  0.00     0.333 C 
HETATM    4  O4  UNL     1      -3.686   2.286  13.551  1.00  0.00    -0.344 OA
HETATM    5  C6  UNL     1      -4.253   2.135  14.782  1.00  0.00     0.175 C 
HETATM    6  C8  UNL     1      -5.481   2.916  15.039  1.00  0.00     0.164 C 
ENDROOT
BRANCH   6   7
HETATM    7  N1  UNL     1      -6.436   2.127  15.758  1.00  0.00    -0.407 N 
ATOM      8  H1  UNL     1      -6.735   1.216  15.411  1.00  0.00     0.154 HD
BRANCH   7   9
HETATM    9  C9  UNL     1      -6.951   2.658  16.971  1.00  0.00     0.069 C 
HETATM   10  C10 UNL     1      -6.572   4.149  17.007  1.00  0.00     0.031 C 
HETATM   11  C11 UNL     1      -6.184   1.963  18.109  1.00  0.00     0.031 C 
ENDBRANCH   7   9
ENDBRANCH   6   7
BRANCH   1  12
HETATM   12  O1  UNL     1      -5.843   4.700  13.424  1.00  0.00    -0.364 OA
HETATM   13  C1  UNL     1      -6.987   5.490  13.632  1.00  0.00     0.204 C 
ENDBRANCH   1  12
BRANCH   5  14
HETATM   14  C7  UNL     1      -4.399   0.647  15.009  1.00  0.00     0.198 C 
BRANCH  14  15
HETATM   15  O5  UNL     1      -3.756   0.252  16.188  1.00  0.00    -0.398 OA
ATOM     16  H5  UNL     1      -3.555  -0.676  16.174  1.00  0.00     0.209 HD
ENDBRANCH  14  15
ENDBRANCH   5  14
BRANCH   3  17
HETATM   17  C4  UNL     1      -4.016   1.991  11.304  1.00  0.00     0.177 C 
HETATM   18  C5  UNL     1      -4.599   0.667  11.043  1.00  0.00     0.096 C 
HETATM   19  O3  UNL     1      -3.195   2.522  10.583  1.00  0.00    -0.293 OA
ENDBRANCH   3  17
TORSDOF 6
ENDMDL
MODEL 3
REMARK VINA RESULT: -5.919557290      2.428      5.497
REMARK  6 active torsions:
REMARK  status: ('A' for Active; 'I' for Inactive)
REMARK    1  A    between atoms: O1_2  and  C2_3 
REMARK    2  A    between atoms: C3_5  and  C4_6 
REMARK    3  A    between atoms: C6_10  and  C7_11 
REMARK    4  A    between atoms: C7_11  and  O5_12 
REMARK    5  A    between atoms: C8_14  and  N1_15 
REMARK    6  A    between atoms: N1_15  and  C9_17 
ROOT
HETATM    1  C2  UNL     1      -3.073   2.193  12.101  1.00  0.00     0.287 C 
HETATM    2  O2  UNL     1      -1.750   2.654  11.882  1.00  0.00    -0.322 OA
HETATM    3  C3  UNL     1      -1.854   3.768  11.090  1.00  0.00     0.333 C 
HETATM    4  O4  UNL     1      -2.374   4.813  11.777  1.00  0.00    -0.344 OA
HETATM    5  C6  UNL     1      -3.150   4.577  12.874  1.00  0.00     0.175 C 
HETATM    6  C8  UNL     1      -3.755   3.232  12.971  1.00  0.00     0.164 C 
ENDROOT
BRANCH   6   7
HETATM    7  N1  UNL     1      -3.696   2.753  14.320  1.00  0.00    -0.407 N 
ATOM      8  H1  UNL     1      -2.857   2.874  14.887  1.00  0.00     0.154 HD
BRANCH   7   9
HETATM    9  C9  UNL     1      -4.847   2.102  14.840  1.00  0.00     0.069 C 
HETATM   10  C10 UNL     1      -5.890   3.196  15.130  1.00  0.00     0.031 C 
HETATM   11  C11 UNL     1      -4.430   1.498  16.191  1.00  0.00     0.031 C 
ENDBRANCH   7   9
ENDBRANCH   6   7
BRANCH   1  12
HETATM   12  O1  UNL     1      -3.689   1.993  10.879  1.00  0.00    -0.364 OA
HETATM   13  C1  UNL     1      -4.819   1.187  11.107  1.00  0.00     0.204 C 
ENDBRANCH   1  12
BRANCH   5  14
HETATM   14  C7  UNL     1      -2.328   4.983  14.077  1.00  0.00     0.198 C 
BRANCH  14  15
HETATM   15  O5  UNL     1      -1.120   4.278  14.123  1.00  0.00    -0.398 OA
ATOM     16  H5  UNL     1      -0.503   4.695  14.713  1.00  0.00     0.209 HD
ENDBRANCH  14  15
ENDBRANCH   5  14
BRANCH   3  17
HETATM   17  C4  UNL     1      -0.470   4.175  10.676  1.00  0.00     0.177 C 
HETATM   18  C5  UNL     1      -0.266   4.839   9.381  1.00  0.00     0.096 C 
HETATM   19  O3  UNL     1       0.427   3.924  11.456  1.00  0.00    -0.293 OA
ENDBRANCH   3  17
TORSDOF 6
ENDMDL
MODEL 4
REMARK VINA RESULT: -5.884563392      0.961      1.026
REMARK  6 active torsions:
REMARK  status: ('A' for Active; 'I' for Inactive)
REMARK    1  A    between atoms: O1_2  and  C2_3 
REMARK    2  A    between atoms: C3_5  and  C4_6 
REMARK    3  A    between atoms: C6_10  and  C7_11 
REMARK    4  A    between atoms: C7_11  and  O5_12 
REMARK    5  A    between atoms: C8_14  and  N1_15 
REMARK    6  A    between atoms: N1_15  and  C9_17 
ROOT
HETATM    1  C2  UNL     1      -3.772   4.024  14.208  1.00  0.00     0.287 C 
HETATM    2  O2  UNL     1      -3.534   2.952  15.106  1.00  0.00    -0.322 OA
HETATM    3  C3  UNL     1      -4.752   2.374  15.349  1.00  0.00     0.333 C 
HETATM    4  O4  UNL     1      -5.203   1.698  14.264  1.00  0.00    -0.344 OA
HETATM    5  C6  UNL     1      -4.751   2.043  13.024  1.00  0.00     0.175 C 
HETATM    6  C8  UNL     1      -4.182   3.400  12.887  1.00  0.00     0.164 C 
ENDROOT
BRANCH   6   7
HETATM    7  N1  UNL     1      -3.015   3.372  12.057  1.00  0.00    -0.407 N 
ATOM      8  H1  UNL     1      -2.376   2.577  12.071  1.00  0.00     0.154 HD
BRANCH   7   9
HETATM    9  C9  UNL     1      -2.778   4.491  11.214  1.00  0.00     0.069 C 
HETATM   10  C10 UNL     1      -4.002   4.628  10.292  1.00  0.00     0.031 C 
HETATM   11  C11 UNL     1      -1.577   4.119  10.328  1.00  0.00     0.031 C 
ENDBRANCH   7   9
ENDBRANCH   6   7
BRANCH   1  12
HETATM   12  O1  UNL     1      -4.726   4.864  14.751  1.00  0.00    -0.364 OA
HETATM   13  C1  UNL     1      -5.335   5.551  13.686  1.00  0.00     0.204 C 
ENDBRANCH   1  12
BRANCH   5  14
HETATM   14  C7  UNL     1      -3.831   0.929  12.576  1.00  0.00     0.198 C 
BRANCH  14  15
HETATM   15  O5  UNL     1      -4.382  -0.325  12.864  1.00  0.00    -0.398 OA
ATOM     16  H5  UNL     1      -5.027  -0.573  12.212  1.00  0.00     0.209 HD
ENDBRANCH  14  15
ENDBRANCH   5  14
BRANCH   3  17
HETATM   17  C4  UNL     1      -4.576   1.359  16.440  1.00  0.00     0.177 C 
HETATM   18  C5  UNL     1      -5.607   1.223  17.479  1.00  0.00     0.096 C 
HETATM   19  O3  UNL     1      -3.562   0.690  16.403  1.00  0.00    -0.293 OA
ENDBRANCH   3  17
TORSDOF 6
ENDMDL
MODEL 5
REMARK VINA RESULT: -5.865960913      1.270      1.316
REMARK  6 active torsions:
REMARK  status: ('A' for Active; 'I' for Inactive)
REMARK    1  A    between atoms: O1_2  and  C2_3 
REMARK    2  A    between atoms: C3_5  and  C4_6 
REMARK    3  A    between atoms: C6_10  and  C7_11 
REMARK    4  A    between atoms: C7_11  and  O5_12 
REMARK    5  A    between atoms: C8_14  and  N1_15 
REMARK    6  A    between atoms: N1_15  and  C9_17 
ROOT
HETATM    1  C2  UNL     1      -4.316   4.136  14.579  1.00  0.00     0.287 C 
HETATM    2  O2  UNL     1      -3.902   3.015  15.342  1.00  0.00    -0.322 OA
HETATM    3  C3  UNL     1      -4.980   2.171  15.404  1.00  0.00     0.333 C 
HETATM    4  O4  UNL     1      -5.218   1.586  14.206  1.00  0.00    -0.344 OA
HETATM    5  C6  UNL     1      -4.786   2.195  13.064  1.00  0.00     0.175 C 
HETATM    6  C8  UNL     1      -4.513   3.644  13.157  1.00  0.00     0.164 C 
ENDROOT
BRANCH   6   7
HETATM    7  N1  UNL     1      -3.326   3.978  12.430  1.00  0.00    -0.407 N 
ATOM      8  H1  UNL     1      -3.013   3.412  11.641  1.00  0.00     0.154 HD
BRANCH   7   9
HETATM    9  C9  UNL     1      -2.597   5.125  12.846  1.00  0.00     0.069 C 
HETATM   10  C10 UNL     1      -2.906   6.245  11.837  1.00  0.00     0.031 C 
HETATM   11  C11 UNL     1      -1.108   4.771  12.695  1.00  0.00     0.031 C 
ENDBRANCH   7   9
ENDBRANCH   6   7
BRANCH   1  12
HETATM   12  O1  UNL     1      -5.455   4.675  15.149  1.00  0.00    -0.364 OA
HETATM   13  C1  UNL     1      -6.157   5.344  14.131  1.00  0.00     0.204 C 
ENDBRANCH   1  12
BRANCH   5  14
HETATM   14  C7  UNL     1      -3.627   1.371  12.549  1.00  0.00     0.198 C 
BRANCH  14  15
HETATM   15  O5  UNL     1      -3.658   1.279  11.152  1.00  0.00    -0.398 OA
ATOM     16  H5  UNL     1      -3.415   0.407  10.862  1.00  0.00     0.209 HD
ENDBRANCH  14  15
ENDBRANCH   5  14
BRANCH   3  17
HETATM   17  C4  UNL     1      -4.649   1.063  16.361  1.00  0.00     0.177 C 
HETATM   18  C5  UNL     1      -5.693   0.534  17.250  1.00  0.00     0.096 C 
HETATM   19  O3  UNL     1      -3.504   0.657  16.347  1.00  0.00    -0.293 OA
ENDBRANCH   3  17
TORSDOF 6
ENDMDL
