MODEL 1
REMARK VINA RESULT: -7.679182214      0.000      0.000
REMARK  9 active torsions:
REMARK  status: ('A' for Active; 'I' for Inactive)
REMARK    1  A    between atoms: C2_2  and  C3_3 
REMARK    2  A    between atoms: C3_3  and  N2_6 
REMARK    3  A    between atoms: N2_6  and  C5_7 
REMARK    4  A    between atoms: N2_6  and  C12_19 
REMARK    5  A    between atoms: C5_7  and  C6_8 
REMARK    6  A    between atoms: C12_19  and  N5_21 
REMARK    7  A    between atoms: N5_21  and  C13_23 
REMARK    8  A    between atoms: C13_23  and  C14_24 
REMARK    9  A    between atoms: C14_24  and  N6_25 
ROOT
HETATM    1  C3  UNL     1      17.179  11.654   1.885  1.00  0.00     0.198 C 
HETATM    2  C4  UNL     1      16.974  12.721   2.792  1.00  0.00     0.085 C 
HETATM    3  N1  UNL     1      16.806  13.622   3.507  1.00  0.00    -0.195 NA
ENDROOT
BRANCH   1   4
HETATM    4  C2  UNL     1      18.641  11.153   1.990  1.00  0.00     0.036 C 
HETATM    5  C1  UNL     1      19.575  12.100   1.277  1.00  0.00     0.008 C 
ENDBRANCH   1   4
BRANCH   1   6
HETATM    6  N2  UNL     1      16.271  10.567   1.798  1.00  0.00    -0.316 N 
BRANCH   6   7
HETATM    7  C5  UNL     1      16.341   9.714   0.665  1.00  0.00     0.110 C 
BRANCH   7   8
HETATM    8  C6  UNL     1      15.791   9.908  -0.623  1.00  0.00     0.024 A 
HETATM    9  C7  UNL     1      16.741  10.025  -1.673  1.00  0.00     0.021 A 
HETATM   10  C8  UNL     1      18.158   9.996  -1.324  1.00  0.00     0.069 C 
HETATM   11  N3  UNL     1      16.384  10.175  -2.951  1.00  0.00    -0.336 N 
HETATM   12  C9  UNL     1      15.097  10.222  -3.301  1.00  0.00     0.176 A 
ATOM     13  H3  UNL     1      17.104  10.254  -3.669  1.00  0.00     0.168 HD
HETATM   14  S1  UNL     1      14.685  10.404  -4.877  1.00  0.00    -0.041 SA
HETATM   15  N4  UNL     1      14.193  10.116  -2.355  1.00  0.00    -0.336 N 
HETATM   16  C10 UNL     1      14.494   9.960  -1.018  1.00  0.00     0.021 A 
ATOM     17  H4  UNL     1      13.210  10.151  -2.625  1.00  0.00     0.168 HD
HETATM   18  C11 UNL     1      13.332   9.831  -0.096  1.00  0.00     0.069 C 
ENDBRANCH   7   8
ENDBRANCH   6   7
BRANCH   6  19
HETATM   19  C12 UNL     1      15.409  10.174   2.830  1.00  0.00     0.175 C 
HETATM   20  S2  UNL     1      13.989  11.035   3.087  1.00  0.00    -0.041 SA
BRANCH  19  21
HETATM   21  N5  UNL     1      15.595   9.097   3.670  1.00  0.00    -0.365 N 
ATOM     22  H5  UNL     1      15.034   8.259   3.516  1.00  0.00     0.161 HD
BRANCH  21  23
HETATM   23  C13 UNL     1      16.548   9.094   4.761  1.00  0.00     0.152 C 
BRANCH  23  24
HETATM   24  C14 UNL     1      15.953   9.545   6.056  1.00  0.00     0.292 C 
BRANCH  24  25
HETATM   25  N6  UNL     1      14.853   8.683   6.422  1.00  0.00     0.094 N 
HETATM   26  C15 UNL     1      15.212   7.920   7.581  1.00  0.00     0.298 C 
HETATM   27  C16 UNL     1      14.793   8.637   8.846  1.00  0.00     0.198 C 
HETATM   28  O1  UNL     1      14.600   9.983   8.681  1.00  0.00    -0.388 OA
HETATM   29  C17 UNL     1      13.714  10.355   7.704  1.00  0.00     0.198 C 
HETATM   30  C18 UNL     1      13.606   9.332   6.623  1.00  0.00     0.298 C 
ENDBRANCH  24  25
ENDBRANCH  23  24
ENDBRANCH  21  23
ENDBRANCH  19  21
ENDBRANCH   6  19
ENDBRANCH   1   6
TORSDOF 9
ENDMDL
MODEL 2
REMARK VINA RESULT: -7.667948398      3.189      7.674
REMARK  9 active torsions:
REMARK  status: ('A' for Active; 'I' for Inactive)
REMARK    1  A    between atoms: C2_2  and  C3_3 
REMARK    2  A    between atoms: C3_3  and  N2_6 
REMARK    3  A    between atoms: N2_6  and  C5_7 
REMARK    4  A    between atoms: N2_6  and  C12_19 
REMARK    5  A    between atoms: C5_7  and  C6_8 
REMARK    6  A    between atoms: C12_19  and  N5_21 
REMARK    7  A    between atoms: N5_21  and  C13_23 
REMARK    8  A    between atoms: C13_23  and  C14_24 
REMARK    9  A    between atoms: C14_24  and  N6_25 
ROOT
HETATM    1  C3  UNL     1      16.815  11.060   1.908  1.00  0.00     0.198 C 
HETATM    2  C4  UNL     1      16.567  12.097   2.839  1.00  0.00     0.085 C 
HETATM    3  N1  UNL     1      16.360  12.974   3.573  1.00  0.00    -0.195 NA
ENDROOT
BRANCH   1   4
HETATM    4  C2  UNL     1      18.316  10.676   1.941  1.00  0.00     0.036 C 
HETATM    5  C1  UNL     1      19.155  11.775   1.335  1.00  0.00     0.008 C 
ENDBRANCH   1   4
BRANCH   1   6
HETATM    6  N2  UNL     1      15.994   9.905   1.845  1.00  0.00    -0.316 N 
BRANCH   6   7
HETATM    7  C5  UNL     1      15.925   9.059   2.982  1.00  0.00     0.110 C 
BRANCH   7   8
HETATM    8  C6  UNL     1      15.190   9.240   4.177  1.00  0.00     0.024 A 
HETATM    9  C7  UNL     1      15.975   9.421   5.346  1.00  0.00     0.021 A 
HETATM   10  C8  UNL     1      17.428   9.344   5.218  1.00  0.00     0.069 C 
HETATM   11  N3  UNL     1      15.435   9.642   6.548  1.00  0.00    -0.336 N 
HETATM   12  C9  UNL     1      14.111   9.702   6.701  1.00  0.00     0.176 A 
ATOM     13  H3  UNL     1      16.042   9.766   7.358  1.00  0.00     0.168 HD
HETATM   14  S1  UNL     1      13.472   9.976   8.186  1.00  0.00    -0.041 SA
HETATM   15  N4  UNL     1      13.355   9.539   5.640  1.00  0.00    -0.336 N 
HETATM   16  C10 UNL     1      13.849   9.309   4.373  1.00  0.00     0.021 A 
ATOM     17  H4  UNL     1      12.343   9.587   5.759  1.00  0.00     0.168 HD
HETATM   18  C11 UNL     1      12.836   9.176   3.290  1.00  0.00     0.069 C 
ENDBRANCH   7   8
ENDBRANCH   6   7
BRANCH   6  19
HETATM   19  C12 UNL     1      15.116   9.618   0.791  1.00  0.00     0.175 C 
HETATM   20  S2  UNL     1      14.743   8.017   0.446  1.00  0.00    -0.041 SA
BRANCH  19  21
HETATM   21  N5  UNL     1      14.478  10.548  -0.002  1.00  0.00    -0.365 N 
ATOM     22  H5  UNL     1      14.874  11.487  -0.062  1.00  0.00     0.161 HD
BRANCH  21  23
HETATM   23  C13 UNL     1      13.276  10.259  -0.756  1.00  0.00     0.152 C 
BRANCH  23  24
HETATM   24  C14 UNL     1      13.334  10.761  -2.162  1.00  0.00     0.292 C 
BRANCH  24  25
HETATM   25  N6  UNL     1      13.449   9.650  -3.079  1.00  0.00     0.094 N 
HETATM   26  C15 UNL     1      13.165  10.101  -4.409  1.00  0.00     0.298 C 
HETATM   27  C16 UNL     1      14.432  10.537  -5.111  1.00  0.00     0.198 C 
HETATM   28  O1  UNL     1      15.458  10.848  -4.259  1.00  0.00    -0.388 OA
HETATM   29  C17 UNL     1      15.817   9.877  -3.360  1.00  0.00     0.198 C 
HETATM   30  C18 UNL     1      14.687   8.955  -3.046  1.00  0.00     0.298 C 
ENDBRANCH  24  25
ENDBRANCH  23  24
ENDBRANCH  21  23
ENDBRANCH  19  21
ENDBRANCH   6  19
ENDBRANCH   1   6
TORSDOF 9
ENDMDL
MODEL 3
REMARK VINA RESULT: -7.667453868      1.352      1.519
REMARK  9 active torsions:
REMARK  status: ('A' for Active; 'I' for Inactive)
REMARK    1  A    between atoms: C2_2  and  C3_3 
REMARK    2  A    between atoms: C3_3  and  N2_6 
REMARK    3  A    between atoms: N2_6  and  C5_7 
REMARK    4  A    between atoms: N2_6  and  C12_19 
REMARK    5  A    between atoms: C5_7  and  C6_8 
REMARK    6  A    between atoms: C12_19  and  N5_21 
REMARK    7  A    between atoms: N5_21  and  C13_23 
REMARK    8  A    between atoms: C13_23  and  C14_24 
REMARK    9  A    between atoms: C14_24  and  N6_25 
ROOT
HETATM    1  C3  UNL     1      17.196  11.589   2.109  1.00  0.00     0.198 C 
HETATM    2  C4  UNL     1      16.990  12.748   2.895  1.00  0.00     0.085 C 
HETATM    3  N1  UNL     1      16.813  13.720   3.508  1.00  0.00    -0.195 NA
ENDROOT
BRANCH   1   4
HETATM    4  C2  UNL     1      18.710  11.266   2.040  1.00  0.00     0.036 C 
HETATM    5  C1  UNL     1      19.379  12.103   0.978  1.00  0.00     0.008 C 
ENDBRANCH   1   4
BRANCH   1   6
HETATM    6  N2  UNL     1      16.431  10.410   2.307  1.00  0.00    -0.316 N 
BRANCH   6   7
HETATM    7  C5  UNL     1      16.211   9.550   1.199  1.00  0.00     0.110 C 
BRANCH   7   8
HETATM    8  C6  UNL     1      15.342   9.730   0.098  1.00  0.00     0.024 A 
HETATM    9  C7  UNL     1      15.983   9.831  -1.165  1.00  0.00     0.021 A 
HETATM   10  C8  UNL     1      17.443   9.802  -1.200  1.00  0.00     0.069 C 
HETATM   11  N3  UNL     1      15.304   9.966  -2.307  1.00  0.00    -0.336 N 
HETATM   12  C9  UNL     1      13.970  10.013  -2.308  1.00  0.00     0.176 A 
ATOM     13  H3  UNL     1      15.810  10.034  -3.190  1.00  0.00     0.168 HD
HETATM   14  S1  UNL     1      13.158  10.177  -3.722  1.00  0.00    -0.041 SA
HETATM   15  N4  UNL     1      13.346   9.922  -1.156  1.00  0.00    -0.336 N 
HETATM   16  C10 UNL     1      13.987   9.781   0.057  1.00  0.00     0.021 A 
ATOM     17  H4  UNL     1      12.326   9.956  -1.159  1.00  0.00     0.168 HD
HETATM   18  C11 UNL     1      13.108   9.667   1.253  1.00  0.00     0.069 C 
ENDBRANCH   7   8
ENDBRANCH   6   7
BRANCH   6  19
HETATM   19  C12 UNL     1      16.005   9.947   3.559  1.00  0.00     0.175 C 
HETATM   20  S2  UNL     1      16.939   8.814   4.376  1.00  0.00    -0.041 SA
BRANCH  19  21
HETATM   21  N5  UNL     1      14.874  10.361   4.230  1.00  0.00    -0.365 N 
ATOM     22  H5  UNL     1      14.447  11.247   3.960  1.00  0.00     0.161 HD
BRANCH  21  23
HETATM   23  C13 UNL     1      14.261   9.600   5.299  1.00  0.00     0.152 C 
BRANCH  23  24
HETATM   24  C14 UNL     1      14.218  10.344   6.594  1.00  0.00     0.292 C 
BRANCH  24  25
HETATM   25  N6  UNL     1      13.353   9.661   7.528  1.00  0.00     0.094 N 
HETATM   26  C15 UNL     1      13.781   8.300   7.664  1.00  0.00     0.298 C 
HETATM   27  C16 UNL     1      14.768   8.159   8.802  1.00  0.00     0.198 C 
HETATM   28  O1  UNL     1      15.383   9.332   9.150  1.00  0.00    -0.388 OA
HETATM   29  C17 UNL     1      14.558  10.379   9.470  1.00  0.00     0.198 C 
HETATM   30  C18 UNL     1      13.227  10.270   8.805  1.00  0.00     0.298 C 
ENDBRANCH  24  25
ENDBRANCH  23  24
ENDBRANCH  21  23
ENDBRANCH  19  21
ENDBRANCH   6  19
ENDBRANCH   1   6
TORSDOF 9
ENDMDL
MODEL 4
REMARK VINA RESULT: -7.577924145      1.834      3.393
REMARK  9 active torsions:
REMARK  status: ('A' for Active; 'I' for Inactive)
REMARK    1  A    between atoms: C2_2  and  C3_3 
REMARK    2  A    between atoms: C3_3  and  N2_6 
REMARK    3  A    between atoms: N2_6  and  C5_7 
REMARK    4  A    between atoms: N2_6  and  C12_19 
REMARK    5  A    between atoms: C5_7  and  C6_8 
REMARK    6  A    between atoms: C12_19  and  N5_21 
REMARK    7  A    between atoms: N5_21  and  C13_23 
REMARK    8  A    between atoms: C13_23  and  C14_24 
REMARK    9  A    between atoms: C14_24  and  N6_25 
ROOT
HETATM    1  C3  UNL     1      14.556   8.901   2.013  1.00  0.00     0.198 C 
HETATM    2  C4  UNL     1      13.206   9.235   2.275  1.00  0.00     0.085 C 
HETATM    3  N1  UNL     1      12.100   9.494   2.526  1.00  0.00    -0.195 NA
ENDROOT
BRANCH   1   4
HETATM    4  C2  UNL     1      14.616   7.715   1.017  1.00  0.00     0.036 C 
HETATM    5  C1  UNL     1      13.848   6.534   1.556  1.00  0.00     0.008 C 
ENDBRANCH   1   4
BRANCH   1   6
HETATM    6  N2  UNL     1      15.518   9.891   1.687  1.00  0.00    -0.316 N 
BRANCH   6   7
HETATM    7  C5  UNL     1      15.260  10.752   0.589  1.00  0.00     0.110 C 
BRANCH   7   8
HETATM    8  C6  UNL     1      15.411  10.494  -0.793  1.00  0.00     0.024 A 
HETATM    9  C7  UNL     1      14.214  10.573  -1.555  1.00  0.00     0.021 A 
HETATM   10  C8  UNL     1      12.966  10.845  -0.849  1.00  0.00     0.069 C 
HETATM   11  N3  UNL     1      14.192  10.392  -2.878  1.00  0.00    -0.336 N 
HETATM   12  C9  UNL     1      15.313  10.125  -3.551  1.00  0.00     0.176 A 
ATOM     13  H3  UNL     1      13.307  10.459  -3.381  1.00  0.00     0.168 HD
HETATM   14  S1  UNL     1      15.261   9.910  -5.175  1.00  0.00    -0.041 SA
HETATM   15  N4  UNL     1      16.437  10.047  -2.877  1.00  0.00    -0.336 N 
HETATM   16  C10 UNL     1      16.529  10.222  -1.512  1.00  0.00     0.021 A 
ATOM     17  H4  UNL     1      17.294   9.844  -3.393  1.00  0.00     0.168 HD
HETATM   18  C11 UNL     1      17.895  10.121  -0.929  1.00  0.00     0.069 C 
ENDBRANCH   7   8
ENDBRANCH   6   7
BRANCH   6  19
HETATM   19  C12 UNL     1      16.641  10.188   2.471  1.00  0.00     0.175 C 
HETATM   20  S2  UNL     1      17.312  11.727   2.395  1.00  0.00    -0.041 SA
BRANCH  19  21
HETATM   21  N5  UNL     1      17.257   9.328   3.354  1.00  0.00    -0.365 N 
ATOM     22  H5  UNL     1      17.595   8.431   3.002  1.00  0.00     0.161 HD
BRANCH  21  23
HETATM   23  C13 UNL     1      17.451   9.632   4.756  1.00  0.00     0.152 C 
BRANCH  23  24
HETATM   24  C14 UNL     1      16.631   8.770   5.660  1.00  0.00     0.292 C 
BRANCH  24  25
HETATM   25  N6  UNL     1      15.772   9.591   6.482  1.00  0.00     0.094 N 
HETATM   26  C15 UNL     1      14.586   9.920   5.748  1.00  0.00     0.298 C 
HETATM   27  C16 UNL     1      13.498   8.900   6.002  1.00  0.00     0.198 C 
HETATM   28  O1  UNL     1      13.963   7.697   6.462  1.00  0.00    -0.388 OA
HETATM   29  C17 UNL     1      14.738   7.737   7.593  1.00  0.00     0.198 C 
HETATM   30  C18 UNL     1      15.436   9.047   7.750  1.00  0.00     0.298 C 
ENDBRANCH  24  25
ENDBRANCH  23  24
ENDBRANCH  21  23
ENDBRANCH  19  21
ENDBRANCH   6  19
ENDBRANCH   1   6
TORSDOF 9
ENDMDL
MODEL 5
REMARK VINA RESULT: -7.567550709      1.707      2.937
REMARK  9 active torsions:
REMARK  status: ('A' for Active; 'I' for Inactive)
REMARK    1  A    between atoms: C2_2  and  C3_3 
REMARK    2  A    between atoms: C3_3  and  N2_6 
REMARK    3  A    between atoms: N2_6  and  C5_7 
REMARK    4  A    between atoms: N2_6  and  C12_19 
REMARK    5  A    between atoms: C5_7  and  C6_8 
REMARK    6  A    between atoms: C12_19  and  N5_21 
REMARK    7  A    between atoms: N5_21  and  C13_23 
REMARK    8  A    between atoms: C13_23  and  C14_24 
REMARK    9  A    between atoms: C14_24  and  N6_25 
ROOT
HETATM    1  C3  UNL     1      14.430   8.974   1.651  1.00  0.00     0.198 C 
HETATM    2  C4  UNL     1      14.371   7.560   1.614  1.00  0.00     0.085 C 
HETATM    3  N1  UNL     1      14.301   6.401   1.550  1.00  0.00    -0.195 NA
ENDROOT
BRANCH   1   4
HETATM    4  C2  UNL     1      13.514   9.505   2.783  1.00  0.00     0.036 C 
HETATM    5  C1  UNL     1      12.066   9.227   2.462  1.00  0.00     0.008 C 
ENDBRANCH   1   4
BRANCH   1   6
HETATM    6  N2  UNL     1      15.668   9.668   1.628  1.00  0.00    -0.316 N 
BRANCH   6   7
HETATM    7  C5  UNL     1      15.895  10.614   0.595  1.00  0.00     0.110 C 
BRANCH   7   8
HETATM    8  C6  UNL     1      15.592  10.510  -0.782  1.00  0.00     0.024 A 
HETATM    9  C7  UNL     1      16.697  10.203  -1.621  1.00  0.00     0.021 A 
HETATM   10  C8  UNL     1      18.016  10.086  -1.005  1.00  0.00     0.069 C 
HETATM   11  N3  UNL     1      16.573  10.034  -2.940  1.00  0.00    -0.336 N 
HETATM   12  C9  UNL     1      15.384  10.150  -3.535  1.00  0.00     0.176 A 
ATOM     13  H3  UNL     1      17.397   9.813  -3.499  1.00  0.00     0.168 HD
HETATM   14  S1  UNL     1      15.257   9.937  -5.156  1.00  0.00    -0.041 SA
HETATM   15  N4  UNL     1      14.342  10.433  -2.789  1.00  0.00    -0.336 N 
HETATM   16  C10 UNL     1      14.401  10.620  -1.424  1.00  0.00     0.021 A 
ATOM     17  H4  UNL     1      13.434  10.520  -3.246  1.00  0.00     0.168 HD
HETATM   18  C11 UNL     1      13.108  10.908  -0.745  1.00  0.00     0.069 C 
ENDBRANCH   7   8
ENDBRANCH   6   7
BRANCH   6  19
HETATM   19  C12 UNL     1      16.627   9.604   2.647  1.00  0.00     0.175 C 
HETATM   20  S2  UNL     1      17.860  10.745   2.687  1.00  0.00    -0.041 SA
BRANCH  19  21
HETATM   21  N5  UNL     1      16.650   8.687   3.676  1.00  0.00    -0.365 N 
ATOM     22  H5  UNL     1      16.460   7.708   3.458  1.00  0.00     0.161 HD
BRANCH  21  23
HETATM   23  C13 UNL     1      16.930   9.042   5.052  1.00  0.00     0.152 C 
BRANCH  23  24
HETATM   24  C14 UNL     1      15.770   9.688   5.736  1.00  0.00     0.292 C 
BRANCH  24  25
HETATM   25  N6  UNL     1      14.874   8.678   6.250  1.00  0.00     0.094 N 
HETATM   26  C15 UNL     1      15.460   8.068   7.407  1.00  0.00     0.298 C 
HETATM   27  C16 UNL     1      15.032   8.787   8.668  1.00  0.00     0.198 C 
HETATM   28  O1  UNL     1      14.592  10.066   8.453  1.00  0.00    -0.388 OA
HETATM   29  C17 UNL     1      13.573  10.215   7.548  1.00  0.00     0.198 C 
HETATM   30  C18 UNL     1      13.554   9.118   6.537  1.00  0.00     0.298 C 
ENDBRANCH  24  25
ENDBRANCH  23  24
ENDBRANCH  21  23
ENDBRANCH  19  21
ENDBRANCH   6  19
ENDBRANCH   1   6
TORSDOF 9
ENDMDL
