MODEL 1
REMARK VINA RESULT: -6.022186012      0.000      0.000
REMARK  9 active torsions:
REMARK  status: ('A' for Active; 'I' for Inactive)
REMARK    1  A    between atoms: C2_2  and  C3_3 
REMARK    2  A    between atoms: C3_3  and  C4_4 
REMARK    3  A    between atoms: C3_3  and  O1_6 
REMARK    4  A    between atoms: O1_6  and  C6_7 
REMARK    5  A    between atoms: C9_10  and  S1_11 
REMARK    6  A    between atoms: S1_11  and  C10_12 
REMARK    7  A    between atoms: C10_12  and  N2_16 
REMARK       I    between atoms: N2_16  and  C11_18 
REMARK       I    between atoms: C11_18  and  N3_20 
REMARK    8  A    between atoms: C14_23  and  O3_24 
REMARK    9  A    between atoms: O3_24  and  C15_25 
ROOT
HETATM    1  C6  UNL     1      -9.263  44.559  45.024  1.00  0.00     0.124 C 
HETATM    2  C7  UNL     1      -9.478  45.751  44.124  1.00  0.00     0.033 C 
HETATM    3  C8  UNL     1      -9.942  45.174  42.776  1.00  0.00     0.021 C 
HETATM    4  C9  UNL     1      -8.670  44.734  42.085  1.00  0.00     0.085 C 
HETATM    5  C14 UNL     1      -8.003  43.734  42.994  1.00  0.00     0.148 C 
HETATM    6  C17 UNL     1      -8.798  43.373  44.198  1.00  0.00     0.065 C 
ENDROOT
BRANCH   4   7
HETATM    7  S1  UNL     1      -8.899  44.148  40.419  1.00  0.00    -0.087 SA
BRANCH   7   8
HETATM    8  C10 UNL     1      -7.430  44.423  39.459  1.00  0.00     0.142 C 
HETATM    9  N1  UNL     1      -6.482  43.565  39.500  1.00  0.00    -0.380 N 
ATOM     10  H12 UNL     1      -6.589  42.748  40.101  1.00  0.00     0.158 HD
ATOM     11  H11 UNL     1      -5.639  43.723  38.948  1.00  0.00     0.158 HD
BRANCH   8  12
HETATM   12  N2  UNL     1      -7.281  45.560  38.621  1.00  0.00    -0.289 N 
HETATM   13  C11 UNL     1      -6.249  46.519  38.813  1.00  0.00     0.323 C 
HETATM   14  O2  UNL     1      -5.423  46.369  39.761  1.00  0.00    -0.247 OA
HETATM   15  N3  UNL     1      -6.116  47.649  37.965  1.00  0.00    -0.343 N 
HETATM   16  C12 UNL     1      -5.069  48.621  38.158  1.00  0.00     0.154 C 
HETATM   17  C13 UNL     1      -7.067  47.812  36.884  1.00  0.00     0.154 C 
ATOM     18  H2  UNL     1      -7.938  45.695  37.854  1.00  0.00     0.172 HD
ENDBRANCH   8  12
ENDBRANCH   7   8
ENDBRANCH   4   7
BRANCH   5  19
HETATM   19  O3  UNL     1      -7.833  42.544  42.229  1.00  0.00    -0.315 OA
BRANCH  19  20
HETATM   20  C15 UNL     1      -6.661  41.804  42.291  1.00  0.00     0.255 C 
HETATM   21  C16 UNL     1      -5.711  41.922  43.424  1.00  0.00     0.126 C 
HETATM   22  O4  UNL     1      -6.429  41.008  41.321  1.00  0.00    -0.266 OA
ENDBRANCH  19  20
ENDBRANCH   5  19
BRANCH   1  23
HETATM   23  O1  UNL     1     -10.496  44.236  45.587  1.00  0.00    -0.377 OA
BRANCH  23  24
HETATM   24  C3  UNL     1     -10.593  44.466  46.934  1.00  0.00     0.143 C 
BRANCH  24  25
HETATM   25  C2  UNL     1     -10.405  43.113  47.590  1.00  0.00    -0.005 C 
HETATM   26  C1  UNL     1      -9.818  43.044  48.774  1.00  0.00     0.009 C 
ENDBRANCH  24  25
BRANCH  24  27
HETATM   27  C4  UNL     1     -11.950  44.936  47.404  1.00  0.00     0.031 C 
HETATM   28  C5  UNL     1     -12.509  46.021  46.520  1.00  0.00     0.008 C 
ENDBRANCH  24  27
ENDBRANCH  23  24
ENDBRANCH   1  23
TORSDOF 9
ENDMDL
MODEL 2
REMARK VINA RESULT: -6.001911380      3.769      5.667
REMARK  9 active torsions:
REMARK  status: ('A' for Active; 'I' for Inactive)
REMARK    1  A    between atoms: C2_2  and  C3_3 
REMARK    2  A    between atoms: C3_3  and  C4_4 
REMARK    3  A    between atoms: C3_3  and  O1_6 
REMARK    4  A    between atoms: O1_6  and  C6_7 
REMARK    5  A    between atoms: C9_10  and  S1_11 
REMARK    6  A    between atoms: S1_11  and  C10_12 
REMARK    7  A    between atoms: C10_12  and  N2_16 
REMARK       I    between atoms: N2_16  and  C11_18 
REMARK       I    between atoms: C11_18  and  N3_20 
REMARK    8  A    between atoms: C14_23  and  O3_24 
REMARK    9  A    between atoms: O3_24  and  C15_25 
ROOT
HETATM    1  C6  UNL     1      -7.330  43.370  40.215  1.00  0.00     0.124 C 
HETATM    2  C7  UNL     1      -6.528  44.338  39.379  1.00  0.00     0.033 C 
HETATM    3  C8  UNL     1      -6.963  45.740  39.836  1.00  0.00     0.021 C 
HETATM    4  C9  UNL     1      -8.261  46.000  39.102  1.00  0.00     0.085 C 
HETATM    5  C14 UNL     1      -9.210  44.896  39.490  1.00  0.00     0.148 C 
HETATM    6  C17 UNL     1      -8.686  43.974  40.532  1.00  0.00     0.065 C 
ENDROOT
BRANCH   4   7
HETATM    7  S1  UNL     1      -8.927  47.635  39.337  1.00  0.00    -0.087 SA
BRANCH   7   8
HETATM    8  C10 UNL     1      -7.878  48.846  38.572  1.00  0.00     0.142 C 
HETATM    9  N1  UNL     1      -7.116  49.571  39.302  1.00  0.00    -0.380 N 
ATOM     10  H12 UNL     1      -7.147  49.445  40.314  1.00  0.00     0.158 HD
ATOM     11  H11 UNL     1      -6.514  50.267  38.862  1.00  0.00     0.158 HD
BRANCH   8  12
HETATM   12  N2  UNL     1      -7.835  49.022  37.163  1.00  0.00    -0.289 N 
HETATM   13  C11 UNL     1      -6.830  48.432  36.350  1.00  0.00     0.323 C 
HETATM   14  O2  UNL     1      -5.931  47.717  36.884  1.00  0.00    -0.247 OA
HETATM   15  N3  UNL     1      -6.805  48.620  34.943  1.00  0.00    -0.343 N 
HETATM   16  C12 UNL     1      -5.787  48.020  34.118  1.00  0.00     0.154 C 
HETATM   17  C13 UNL     1      -7.838  49.439  34.341  1.00  0.00     0.154 C 
ATOM     18  H2  UNL     1      -8.552  49.595  36.718  1.00  0.00     0.172 HD
ENDBRANCH   8  12
ENDBRANCH   7   8
ENDBRANCH   4   7
BRANCH   5  19
HETATM   19  O3  UNL     1     -10.366  45.529  40.030  1.00  0.00    -0.315 OA
BRANCH  19  20
HETATM   20  C15 UNL     1     -11.572  44.854  40.153  1.00  0.00     0.255 C 
HETATM   21  C16 UNL     1     -12.130  44.027  39.056  1.00  0.00     0.126 C 
HETATM   22  O4  UNL     1     -12.190  44.974  41.264  1.00  0.00    -0.266 OA
ENDBRANCH  19  20
ENDBRANCH   5  19
BRANCH   1  23
HETATM   23  O1  UNL     1      -6.645  43.192  41.416  1.00  0.00    -0.377 OA
BRANCH  23  24
HETATM   24  C3  UNL     1      -6.587  41.898  41.860  1.00  0.00     0.143 C 
BRANCH  24  25
HETATM   25  C2  UNL     1      -5.786  41.945  43.145  1.00  0.00    -0.005 C 
HETATM   26  C1  UNL     1      -6.350  42.423  44.242  1.00  0.00     0.009 C 
ENDBRANCH  24  25
BRANCH  24  27
HETATM   27  C4  UNL     1      -5.822  40.951  40.965  1.00  0.00     0.031 C 
HETATM   28  C5  UNL     1      -4.685  40.281  41.693  1.00  0.00     0.008 C 
ENDBRANCH  24  27
ENDBRANCH  23  24
ENDBRANCH   1  23
TORSDOF 9
ENDMDL
MODEL 3
REMARK VINA RESULT: -5.945279444      2.493      7.560
REMARK  9 active torsions:
REMARK  status: ('A' for Active; 'I' for Inactive)
REMARK    1  A    between atoms: C2_2  and  C3_3 
REMARK    2  A    between atoms: C3_3  and  C4_4 
REMARK    3  A    between atoms: C3_3  and  O1_6 
REMARK    4  A    between atoms: O1_6  and  C6_7 
REMARK    5  A    between atoms: C9_10  and  S1_11 
REMARK    6  A    between atoms: S1_11  and  C10_12 
REMARK    7  A    between atoms: C10_12  and  N2_16 
REMARK       I    between atoms: N2_16  and  C11_18 
REMARK       I    between atoms: C11_18  and  N3_20 
REMARK    8  A    between atoms: C14_23  and  O3_24 
REMARK    9  A    between atoms: O3_24  and  C15_25 
ROOT
HETATM    1  C6  UNL     1      -6.473  46.170  38.821  1.00  0.00     0.124 C 
HETATM    2  C7  UNL     1      -7.954  46.459  38.857  1.00  0.00     0.033 C 
HETATM    3  C8  UNL     1      -8.433  45.991  40.242  1.00  0.00     0.021 C 
HETATM    4  C9  UNL     1      -8.610  44.495  40.105  1.00  0.00     0.085 C 
HETATM    5  C14 UNL     1      -7.275  43.934  39.685  1.00  0.00     0.148 C 
HETATM    6  C17 UNL     1      -6.174  44.933  39.649  1.00  0.00     0.065 C 
ENDROOT
BRANCH   4   7
HETATM    7  S1  UNL     1      -9.304  43.699  41.539  1.00  0.00    -0.087 SA
BRANCH   7   8
HETATM    8  C10 UNL     1      -8.498  44.271  43.014  1.00  0.00     0.142 C 
HETATM    9  N1  UNL     1      -7.315  43.862  43.285  1.00  0.00    -0.380 N 
ATOM     10  H12 UNL     1      -6.871  43.199  42.649  1.00  0.00     0.158 HD
ATOM     11  H11 UNL     1      -6.852  44.191  44.132  1.00  0.00     0.158 HD
BRANCH   8  12
HETATM   12  N2  UNL     1      -9.115  45.194  43.900  1.00  0.00    -0.289 N 
HETATM   13  C11 UNL     1      -9.850  44.779  45.043  1.00  0.00     0.323 C 
HETATM   14  O2  UNL     1      -9.969  43.544  45.298  1.00  0.00    -0.247 OA
HETATM   15  N3  UNL     1     -10.461  45.717  45.917  1.00  0.00    -0.343 N 
HETATM   16  C12 UNL     1     -11.205  45.297  47.077  1.00  0.00     0.154 C 
HETATM   17  C13 UNL     1     -10.320  47.127  45.616  1.00  0.00     0.154 C 
ATOM     18  H2  UNL     1      -9.029  46.191  43.708  1.00  0.00     0.172 HD
ENDBRANCH   8  12
ENDBRANCH   7   8
ENDBRANCH   4   7
BRANCH   5  19
HETATM   19  O3  UNL     1      -6.924  42.956  40.660  1.00  0.00    -0.315 OA
BRANCH  19  20
HETATM   20  C15 UNL     1      -6.213  41.815  40.318  1.00  0.00     0.255 C 
HETATM   21  C16 UNL     1      -5.688  40.876  41.338  1.00  0.00     0.126 C 
HETATM   22  O4  UNL     1      -6.027  41.602  39.073  1.00  0.00    -0.266 OA
ENDBRANCH  19  20
ENDBRANCH   5  19
BRANCH   1  23
HETATM   23  O1  UNL     1      -5.824  47.252  39.411  1.00  0.00    -0.377 OA
BRANCH  23  24
HETATM   24  C3  UNL     1      -4.982  47.943  38.580  1.00  0.00     0.143 C 
BRANCH  24  25
HETATM   25  C2  UNL     1      -5.555  49.344  38.497  1.00  0.00    -0.005 C 
HETATM   26  C1  UNL     1      -6.175  49.853  39.548  1.00  0.00     0.009 C 
ENDBRANCH  24  25
BRANCH  24  27
HETATM   27  C4  UNL     1      -4.955  47.454  37.151  1.00  0.00     0.031 C 
HETATM   28  C5  UNL     1      -5.276  48.554  36.171  1.00  0.00     0.008 C 
ENDBRANCH  24  27
ENDBRANCH  23  24
ENDBRANCH   1  23
TORSDOF 9
ENDMDL
MODEL 4
REMARK VINA RESULT: -5.909502427      3.101      5.665
REMARK  9 active torsions:
REMARK  status: ('A' for Active; 'I' for Inactive)
REMARK    1  A    between atoms: C2_2  and  C3_3 
REMARK    2  A    between atoms: C3_3  and  C4_4 
REMARK    3  A    between atoms: C3_3  and  O1_6 
REMARK    4  A    between atoms: O1_6  and  C6_7 
REMARK    5  A    between atoms: C9_10  and  S1_11 
REMARK    6  A    between atoms: S1_11  and  C10_12 
REMARK    7  A    between atoms: C10_12  and  N2_16 
REMARK       I    between atoms: N2_16  and  C11_18 
REMARK       I    between atoms: C11_18  and  N3_20 
REMARK    8  A    between atoms: C14_23  and  O3_24 
REMARK    9  A    between atoms: O3_24  and  C15_25 
ROOT
HETATM    1  C6  UNL     1      -7.773  43.770  40.937  1.00  0.00     0.124 C 
HETATM    2  C7  UNL     1      -6.843  43.601  39.760  1.00  0.00     0.033 C 
HETATM    3  C8  UNL     1      -6.327  45.013  39.435  1.00  0.00     0.021 C 
HETATM    4  C9  UNL     1      -7.431  45.650  38.620  1.00  0.00     0.085 C 
HETATM    5  C14 UNL     1      -8.674  45.623  39.474  1.00  0.00     0.148 C 
HETATM    6  C17 UNL     1      -8.457  45.122  40.857  1.00  0.00     0.065 C 
ENDROOT
BRANCH   4   7
HETATM    7  S1  UNL     1      -7.038  47.264  37.978  1.00  0.00    -0.087 SA
BRANCH   7   8
HETATM    8  C10 UNL     1      -6.062  47.120  36.501  1.00  0.00     0.142 C 
HETATM    9  N1  UNL     1      -4.887  46.616  36.569  1.00  0.00    -0.380 N 
ATOM     10  H12 UNL     1      -4.533  46.325  37.481  1.00  0.00     0.158 HD
ATOM     11  H11 UNL     1      -4.327  46.534  35.721  1.00  0.00     0.158 HD
BRANCH   8  12
HETATM   12  N2  UNL     1      -6.553  47.526  35.232  1.00  0.00    -0.289 N 
HETATM   13  C11 UNL     1      -6.082  48.690  34.567  1.00  0.00     0.323 C 
HETATM   14  O2  UNL     1      -5.189  49.405  35.112  1.00  0.00    -0.247 OA
HETATM   15  N3  UNL     1      -6.585  49.079  33.298  1.00  0.00    -0.343 N 
HETATM   16  C12 UNL     1      -6.106  50.259  32.624  1.00  0.00     0.154 C 
HETATM   17  C13 UNL     1      -7.606  48.256  32.683  1.00  0.00     0.154 C 
ATOM     18  H2  UNL     1      -7.272  46.961  34.780  1.00  0.00     0.172 HD
ENDBRANCH   8  12
ENDBRANCH   7   8
ENDBRANCH   4   7
BRANCH   5  19
HETATM   19  O3  UNL     1      -9.121  46.972  39.578  1.00  0.00    -0.315 OA
BRANCH  19  20
HETATM   20  C15 UNL     1     -10.467  47.281  39.706  1.00  0.00     0.255 C 
HETATM   21  C16 UNL     1     -10.951  48.680  39.802  1.00  0.00     0.126 C 
HETATM   22  O4  UNL     1     -11.284  46.300  39.738  1.00  0.00    -0.266 OA
ENDBRANCH  19  20
ENDBRANCH   5  19
BRANCH   1  23
HETATM   23  O1  UNL     1      -6.990  43.750  42.090  1.00  0.00    -0.377 OA
BRANCH  23  24
HETATM   24  C3  UNL     1      -7.091  42.605  42.835  1.00  0.00     0.143 C 
BRANCH  24  25
HETATM   25  C2  UNL     1      -7.614  43.047  44.188  1.00  0.00    -0.005 C 
HETATM   26  C1  UNL     1      -8.871  43.441  44.299  1.00  0.00     0.009 C 
ENDBRANCH  24  25
BRANCH  24  27
HETATM   27  C4  UNL     1      -5.778  41.922  43.136  1.00  0.00     0.031 C 
HETATM   28  C5  UNL     1      -5.420  40.900  42.087  1.00  0.00     0.008 C 
ENDBRANCH  24  27
ENDBRANCH  23  24
ENDBRANCH   1  23
TORSDOF 9
ENDMDL
MODEL 5
REMARK VINA RESULT: -5.904602360      3.230      6.221
REMARK  9 active torsions:
REMARK  status: ('A' for Active; 'I' for Inactive)
REMARK    1  A    between atoms: C2_2  and  C3_3 
REMARK    2  A    between atoms: C3_3  and  C4_4 
REMARK    3  A    between atoms: C3_3  and  O1_6 
REMARK    4  A    between atoms: O1_6  and  C6_7 
REMARK    5  A    between atoms: C9_10  and  S1_11 
REMARK    6  A    between atoms: S1_11  and  C10_12 
REMARK    7  A    between atoms: C10_12  and  N2_16 
REMARK       I    between atoms: N2_16  and  C11_18 
REMARK       I    between atoms: C11_18  and  N3_20 
REMARK    8  A    between atoms: C14_23  and  O3_24 
REMARK    9  A    between atoms: O3_24  and  C15_25 
ROOT
HETATM    1  C6  UNL     1     -10.386  46.582  40.811  1.00  0.00     0.124 C 
HETATM    2  C7  UNL     1      -9.046  45.964  40.494  1.00  0.00     0.033 C 
HETATM    3  C8  UNL     1      -9.118  44.524  41.030  1.00  0.00     0.021 C 
HETATM    4  C9  UNL     1      -8.840  44.650  42.512  1.00  0.00     0.085 C 
HETATM    5  C14 UNL     1      -9.886  45.576  43.075  1.00  0.00     0.148 C 
HETATM    6  C17 UNL     1     -10.929  45.990  42.099  1.00  0.00     0.065 C 
ENDROOT
BRANCH   4   7
HETATM    7  S1  UNL     1      -8.718  43.096  43.374  1.00  0.00    -0.087 SA
BRANCH   7   8
HETATM    8  C10 UNL     1      -7.090  42.411  43.187  1.00  0.00     0.142 C 
HETATM    9  N1  UNL     1      -6.390  42.157  44.228  1.00  0.00    -0.380 N 
ATOM     10  H12 UNL     1      -6.783  42.373  45.145  1.00  0.00     0.158 HD
ATOM     11  H11 UNL     1      -5.455  41.764  44.120  1.00  0.00     0.158 HD
BRANCH   8  12
HETATM   12  N2  UNL     1      -6.542  42.110  41.912  1.00  0.00    -0.289 N 
HETATM   13  C11 UNL     1      -5.632  41.038  41.705  1.00  0.00     0.323 C 
HETATM   14  O2  UNL     1      -5.285  40.313  42.684  1.00  0.00    -0.247 OA
HETATM   15  N3  UNL     1      -5.095  40.753  40.423  1.00  0.00    -0.343 N 
HETATM   16  C12 UNL     1      -4.173  39.666  40.213  1.00  0.00     0.154 C 
HETATM   17  C13 UNL     1      -5.497  41.589  39.310  1.00  0.00     0.154 C 
ATOM     18  H2  UNL     1      -6.811  42.685  41.113  1.00  0.00     0.172 HD
ENDBRANCH   8  12
ENDBRANCH   7   8
ENDBRANCH   4   7
BRANCH   5  19
HETATM   19  O3  UNL     1     -10.544  44.858  44.115  1.00  0.00    -0.315 OA
BRANCH  19  20
HETATM   20  C15 UNL     1     -10.619  45.359  45.407  1.00  0.00     0.255 C 
HETATM   21  C16 UNL     1     -10.232  46.752  45.737  1.00  0.00     0.126 C 
HETATM   22  O4  UNL     1     -11.039  44.562  46.311  1.00  0.00    -0.266 OA
ENDBRANCH  19  20
ENDBRANCH   5  19
BRANCH   1  23
HETATM   23  O1  UNL     1     -11.257  46.240  39.778  1.00  0.00    -0.377 OA
BRANCH  23  24
HETATM   24  C3  UNL     1     -12.548  46.000  40.168  1.00  0.00     0.143 C 
BRANCH  24  25
HETATM   25  C2  UNL     1     -12.983  44.772  39.393  1.00  0.00    -0.005 C 
HETATM   26  C1  UNL     1     -12.071  43.903  38.993  1.00  0.00     0.009 C 
ENDBRANCH  24  25
BRANCH  24  27
HETATM   27  C4  UNL     1     -13.540  47.071  39.780  1.00  0.00     0.031 C 
HETATM   28  C5  UNL     1     -14.691  46.513  38.982  1.00  0.00     0.008 C 
ENDBRANCH  24  27
ENDBRANCH  23  24
ENDBRANCH   1  23
TORSDOF 9
ENDMDL
