MODEL 1
REMARK VINA RESULT: -8.139979546      0.000      0.000
REMARK  3 active torsions:
REMARK  status: ('A' for Active; 'I' for Inactive)
REMARK    1  A    between atoms: N1_8  and  C7_10 
REMARK    2  A    between atoms: C7_10  and  C10_13 
REMARK    3  A    between atoms: C10_13  and  C11_14 
ROOT
HETATM    1  C1  UNL     1      10.527   5.094  40.375  1.00  0.00     0.015 C 
HETATM    2  C2  UNL     1       9.584   6.044  41.124  1.00  0.00    -0.034 C 
HETATM    3  C3  UNL     1       8.200   5.822  40.529  1.00  0.00     0.015 C 
HETATM    4  C4  UNL     1      10.071   7.445  40.837  1.00  0.00     0.095 C 
HETATM    5  C5  UNL     1       9.368   8.460  41.656  1.00  0.00     0.179 C 
HETATM    6  O1  UNL     1       9.293   9.625  41.217  1.00  0.00    -0.291 OA
HETATM    7  C6  UNL     1       8.771   8.072  42.973  1.00  0.00     0.121 C 
HETATM    8  N1  UNL     1       7.929   8.764  43.489  1.00  0.00    -0.376 N 
ATOM      9  H1  UNL     1       7.751   9.568  42.887  1.00  0.00     0.160 HD
HETATM   10  C17 UNL     1       9.325   6.824  43.487  1.00  0.00     0.179 C 
HETATM   11  O2  UNL     1       9.570   6.615  44.698  1.00  0.00    -0.291 OA
HETATM   12  C18 UNL     1       9.645   5.682  42.566  1.00  0.00     0.095 C 
ENDROOT
BRANCH   8  13
HETATM   13  C7  UNL     1       7.091   8.857  44.645  1.00  0.00     0.023 C 
HETATM   14  C8  UNL     1       7.926   8.868  45.886  1.00  0.00     0.038 C 
HETATM   15  C9  UNL     1       6.278   7.541  44.707  1.00  0.00     0.038 C 
BRANCH  13  16
HETATM   16  C10 UNL     1       6.197  10.011  44.483  1.00  0.00     0.034 C 
BRANCH  16  17
HETATM   17  C11 UNL     1       6.444  11.357  44.975  1.00  0.00    -0.012 C 
HETATM   18  C12 UNL     1       6.210  12.375  43.807  1.00  0.00     0.005 C 
HETATM   19  C13 UNL     1       4.786  12.778  43.692  1.00  0.00     0.000 C 
HETATM   20  C14 UNL     1       4.271  13.397  44.988  1.00  0.00     0.000 C 
HETATM   21  C15 UNL     1       4.297  12.262  45.985  1.00  0.00     0.000 C 
HETATM   22  C16 UNL     1       5.739  11.851  46.180  1.00  0.00     0.005 C 
ENDBRANCH  16  17
ENDBRANCH  13  16
ENDBRANCH   8  13
TORSDOF 3
ENDMDL
MODEL 2
REMARK VINA RESULT: -7.874733075      0.846      1.434
REMARK  3 active torsions:
REMARK  status: ('A' for Active; 'I' for Inactive)
REMARK    1  A    between atoms: N1_8  and  C7_10 
REMARK    2  A    between atoms: C7_10  and  C10_13 
REMARK    3  A    between atoms: C10_13  and  C11_14 
ROOT
HETATM    1  C1  UNL     1       9.717   5.093  39.941  1.00  0.00     0.015 C 
HETATM    2  C2  UNL     1       9.037   6.135  40.839  1.00  0.00    -0.034 C 
HETATM    3  C3  UNL     1       7.649   6.355  40.254  1.00  0.00     0.015 C 
HETATM    4  C4  UNL     1       9.866   7.393  40.738  1.00  0.00     0.095 C 
HETATM    5  C5  UNL     1       9.434   8.427  41.708  1.00  0.00     0.179 C 
HETATM    6  O1  UNL     1       9.661   9.623  41.438  1.00  0.00    -0.291 OA
HETATM    7  C6  UNL     1       8.744   8.019  42.973  1.00  0.00     0.121 C 
HETATM    8  N1  UNL     1       8.099   8.820  43.602  1.00  0.00    -0.376 N 
ATOM      9  H1  UNL     1       8.137   9.720  43.123  1.00  0.00     0.160 HD
HETATM   10  C17 UNL     1       8.959   6.612  43.294  1.00  0.00     0.179 C 
HETATM   11  O2  UNL     1       9.130   6.179  44.457  1.00  0.00    -0.291 OA
HETATM   12  C18 UNL     1       8.989   5.569  42.215  1.00  0.00     0.095 C 
ENDROOT
BRANCH   8  13
HETATM   13  C7  UNL     1       7.300   8.958  44.780  1.00  0.00     0.023 C 
HETATM   14  C8  UNL     1       8.130   8.698  45.997  1.00  0.00     0.038 C 
HETATM   15  C9  UNL     1       6.256   7.814  44.741  1.00  0.00     0.038 C 
BRANCH  13  16
HETATM   16  C10 UNL     1       6.635  10.267  44.745  1.00  0.00     0.034 C 
BRANCH  16  17
HETATM   17  C11 UNL     1       5.263  10.516  44.335  1.00  0.00    -0.012 C 
HETATM   18  C12 UNL     1       4.719  11.763  45.112  1.00  0.00     0.005 C 
HETATM   19  C13 UNL     1       5.056  13.038  44.430  1.00  0.00     0.000 C 
HETATM   20  C14 UNL     1       4.510  13.075  43.006  1.00  0.00     0.000 C 
HETATM   21  C15 UNL     1       5.285  12.002  42.277  1.00  0.00     0.000 C 
HETATM   22  C16 UNL     1       4.931  10.671  42.901  1.00  0.00     0.005 C 
ENDBRANCH  16  17
ENDBRANCH  13  16
ENDBRANCH   8  13
TORSDOF 3
ENDMDL
MODEL 3
REMARK VINA RESULT: -7.298279038      1.915      3.026
REMARK  3 active torsions:
REMARK  status: ('A' for Active; 'I' for Inactive)
REMARK    1  A    between atoms: N1_8  and  C7_10 
REMARK    2  A    between atoms: C7_10  and  C10_13 
REMARK    3  A    between atoms: C10_13  and  C11_14 
ROOT
HETATM    1  C1  UNL     1       8.424   5.338  42.324  1.00  0.00     0.015 C 
HETATM    2  C2  UNL     1       7.894   6.774  42.435  1.00  0.00    -0.034 C 
HETATM    3  C3  UNL     1       6.874   6.935  41.316  1.00  0.00     0.015 C 
HETATM    4  C4  UNL     1       9.077   7.686  42.217  1.00  0.00     0.095 C 
HETATM    5  C5  UNL     1       8.748   9.105  42.490  1.00  0.00     0.179 C 
HETATM    6  O1  UNL     1       9.415   9.988  41.916  1.00  0.00    -0.291 OA
HETATM    7  C6  UNL     1       7.636   9.442  43.436  1.00  0.00     0.121 C 
HETATM    8  N1  UNL     1       7.136  10.539  43.421  1.00  0.00    -0.376 N 
ATOM      9  H1  UNL     1       7.595  11.100  42.704  1.00  0.00     0.160 HD
HETATM   10  C17 UNL     1       7.287   8.323  44.303  1.00  0.00     0.179 C 
HETATM   11  O2  UNL     1       6.974   8.446  45.511  1.00  0.00    -0.291 OA
HETATM   12  C18 UNL     1       7.280   6.915  43.784  1.00  0.00     0.095 C 
ENDROOT
BRANCH   8  13
HETATM   13  C7  UNL     1       6.126  11.333  44.052  1.00  0.00     0.023 C 
HETATM   14  C8  UNL     1       6.497  11.599  45.476  1.00  0.00     0.038 C 
HETATM   15  C9  UNL     1       4.852  10.455  44.116  1.00  0.00     0.038 C 
BRANCH  13  16
HETATM   16  C10 UNL     1       5.890  12.529  43.234  1.00  0.00     0.034 C 
BRANCH  16  17
HETATM   17  C11 UNL     1       4.641  13.267  43.142  1.00  0.00    -0.012 C 
HETATM   18  C12 UNL     1       4.893  14.747  43.592  1.00  0.00     0.005 C 
HETATM   19  C13 UNL     1       5.371  15.598  42.474  1.00  0.00     0.000 C 
HETATM   20  C14 UNL     1       4.383  15.604  41.310  1.00  0.00     0.000 C 
HETATM   21  C15 UNL     1       4.408  14.187  40.787  1.00  0.00     0.000 C 
HETATM   22  C16 UNL     1       3.875  13.282  41.875  1.00  0.00     0.005 C 
ENDBRANCH  16  17
ENDBRANCH  13  16
ENDBRANCH   8  13
TORSDOF 3
ENDMDL
MODEL 4
REMARK VINA RESULT: -7.253790628      1.449      2.244
REMARK  3 active torsions:
REMARK  status: ('A' for Active; 'I' for Inactive)
REMARK    1  A    between atoms: N1_8  and  C7_10 
REMARK    2  A    between atoms: C7_10  and  C10_13 
REMARK    3  A    between atoms: C10_13  and  C11_14 
ROOT
HETATM    1  C1  UNL     1       9.337   5.093  40.396  1.00  0.00     0.015 C 
HETATM    2  C2  UNL     1       8.703   6.420  40.833  1.00  0.00    -0.034 C 
HETATM    3  C3  UNL     1       7.326   6.465  40.186  1.00  0.00     0.015 C 
HETATM    4  C4  UNL     1       9.587   7.516  40.287  1.00  0.00     0.095 C 
HETATM    5  C5  UNL     1       9.202   8.853  40.798  1.00  0.00     0.179 C 
HETATM    6  O1  UNL     1       9.481   9.853  40.109  1.00  0.00    -0.291 OA
HETATM    7  C6  UNL     1       8.494   8.971  42.113  1.00  0.00     0.121 C 
HETATM    8  N1  UNL     1       7.886   9.974  42.389  1.00  0.00    -0.376 N 
ATOM      9  H1  UNL     1       7.963  10.630  41.613  1.00  0.00     0.160 HD
HETATM   10  C17 UNL     1       8.647   7.776  42.935  1.00  0.00     0.179 C 
HETATM   11  O2  UNL     1       8.798   7.798  44.179  1.00  0.00    -0.291 OA
HETATM   12  C18 UNL     1       8.630   6.407  42.320  1.00  0.00     0.095 C 
ENDROOT
BRANCH   8  13
HETATM   13  C7  UNL     1       7.093  10.572  43.420  1.00  0.00     0.023 C 
HETATM   14  C8  UNL     1       7.944  10.877  44.611  1.00  0.00     0.038 C 
HETATM   15  C9  UNL     1       6.095   9.486  43.894  1.00  0.00     0.038 C 
BRANCH  13  16
HETATM   16  C10 UNL     1       6.376  11.721  42.854  1.00  0.00     0.034 C 
BRANCH  16  17
HETATM   17  C11 UNL     1       4.936  11.918  42.865  1.00  0.00    -0.012 C 
HETATM   18  C12 UNL     1       4.571  12.930  44.005  1.00  0.00     0.005 C 
HETATM   19  C13 UNL     1       4.667  14.341  43.553  1.00  0.00     0.000 C 
HETATM   20  C14 UNL     1       3.762  14.610  42.354  1.00  0.00     0.000 C 
HETATM   21  C15 UNL     1       4.355  13.781  41.240  1.00  0.00     0.000 C 
HETATM   22  C16 UNL     1       4.230  12.325  41.629  1.00  0.00     0.005 C 
ENDBRANCH  16  17
ENDBRANCH  13  16
ENDBRANCH   8  13
TORSDOF 3
ENDMDL
MODEL 5
REMARK VINA RESULT: -7.159316179      1.720      2.106
REMARK  3 active torsions:
REMARK  status: ('A' for Active; 'I' for Inactive)
REMARK    1  A    between atoms: N1_8  and  C7_10 
REMARK    2  A    between atoms: C7_10  and  C10_13 
REMARK    3  A    between atoms: C10_13  and  C11_14 
ROOT
HETATM    1  C1  UNL     1       8.615   5.799  38.590  1.00  0.00     0.015 C 
HETATM    2  C2  UNL     1       7.989   6.850  39.518  1.00  0.00    -0.034 C 
HETATM    3  C3  UNL     1       6.524   6.465  39.664  1.00  0.00     0.015 C 
HETATM    4  C4  UNL     1       8.127   8.179  38.815  1.00  0.00     0.095 C 
HETATM    5  C5  UNL     1       7.739   9.315  39.684  1.00  0.00     0.179 C 
HETATM    6  O1  UNL     1       7.338  10.364  39.143  1.00  0.00    -0.291 OA
HETATM    7  C6  UNL     1       7.835   9.180  41.173  1.00  0.00     0.121 C 
HETATM    8  N1  UNL     1       7.229   9.933  41.893  1.00  0.00    -0.376 N 
ATOM      9  H1  UNL     1       6.709  10.593  41.315  1.00  0.00     0.160 HD
HETATM   10  C17 UNL     1       8.705   8.081  41.575  1.00  0.00     0.179 C 
HETATM   11  O2  UNL     1       9.482   8.128  42.558  1.00  0.00    -0.291 OA
HETATM   12  C18 UNL     1       8.723   6.788  40.812  1.00  0.00     0.095 C 
ENDROOT
BRANCH   8  13
HETATM   13  C7  UNL     1       6.981  10.229  43.271  1.00  0.00     0.023 C 
HETATM   14  C8  UNL     1       8.272  10.469  43.986  1.00  0.00     0.038 C 
HETATM   15  C9  UNL     1       6.394   8.942  43.900  1.00  0.00     0.038 C 
BRANCH  13  16
HETATM   16  C10 UNL     1       6.011  11.330  43.346  1.00  0.00     0.034 C 
BRANCH  16  17
HETATM   17  C11 UNL     1       6.168  12.554  44.114  1.00  0.00    -0.012 C 
HETATM   18  C12 UNL     1       5.499  13.734  43.331  1.00  0.00     0.005 C 
HETATM   19  C13 UNL     1       4.048  13.848  43.622  1.00  0.00     0.000 C 
HETATM   20  C14 UNL     1       3.787  14.042  45.113  1.00  0.00     0.000 C 
HETATM   21  C15 UNL     1       4.233  12.745  45.746  1.00  0.00     0.000 C 
HETATM   22  C16 UNL     1       5.722  12.610  45.525  1.00  0.00     0.005 C 
ENDBRANCH  16  17
ENDBRANCH  13  16
ENDBRANCH   8  13
TORSDOF 3
ENDMDL
