MODEL 1
REMARK VINA RESULT: -9.578620471      0.000      0.000
REMARK  13 active torsions:
REMARK  status: ('A' for Active; 'I' for Inactive)
REMARK    1  A    between atoms: C2_2  and  C4_4 
REMARK    2  A    between atoms: C8_9  and  C9_10 
REMARK    3  A    between atoms: C9_10  and  C10_11 
REMARK    4  A    between atoms: C10_11  and  C11_12 
REMARK    5  A    between atoms: C11_12  and  C12_13 
REMARK    6  A    between atoms: C12_13  and  C13_14 
REMARK    7  A    between atoms: C13_14  and  C14_15 
REMARK    8  A    between atoms: C14_15  and  O2_16 
REMARK    9  A    between atoms: C14_15  and  N1_18 
REMARK   10  A    between atoms: N1_18  and  C15_20 
REMARK   11  A    between atoms: C21_27  and  C22_28 
REMARK   12  A    between atoms: C22_28  and  O5_30 
REMARK   13  A    between atoms: O5_30  and  C23_31 
ROOT
HETATM    1  C14 UNL     1      31.732  46.245   2.936  1.00  0.00     0.242 C 
ENDROOT
BRANCH   1   2
HETATM    2  C13 UNL     1      31.008  47.330   3.692  1.00  0.00     0.026 C 
BRANCH   2   3
HETATM    3  C12 UNL     1      30.053  48.067   3.172  1.00  0.00     0.000 C 
BRANCH   3   4
HETATM    4  C11 UNL     1      28.879  47.480   2.528  1.00  0.00    -0.000 C 
BRANCH   4   5
HETATM    5  C10 UNL     1      28.607  47.495   1.257  1.00  0.00     0.000 C 
BRANCH   5   6
HETATM    6  C9  UNL     1      27.504  46.689   0.689  1.00  0.00     0.001 C 
BRANCH   6   7
HETATM    7  C8  UNL     1      26.283  47.028   1.018  1.00  0.00     0.017 C 
HETATM    8  C7  UNL     1      25.054  46.431   0.596  1.00  0.00     0.036 A 
HETATM    9  C6  UNL     1      24.997  45.384  -0.272  1.00  0.00     0.186 A 
HETATM   10  C27 UNL     1      23.853  46.933   1.112  1.00  0.00     0.157 A 
HETATM   11  C5  UNL     1      23.745  44.845  -0.618  1.00  0.00     0.088 A 
HETATM   12  O1  UNL     1      25.996  44.855  -0.797  1.00  0.00    -0.287 OA
HETATM   13  C4  UNL     1      22.627  45.408  -0.057  1.00  0.00     0.059 A 
HETATM   14  O6  UNL     1      22.700  46.426   0.784  1.00  0.00    -0.326 OA
BRANCH  13  15
HETATM   15  C2  UNL     1      21.302  44.867  -0.395  1.00  0.00     0.035 C 
HETATM   16  C1  UNL     1      21.513  43.355  -0.630  1.00  0.00     0.016 C 
HETATM   17  C3  UNL     1      20.261  45.035   0.687  1.00  0.00     0.016 C 
ENDBRANCH  13  15
ENDBRANCH   6   7
ENDBRANCH   5   6
ENDBRANCH   4   5
ENDBRANCH   3   4
ENDBRANCH   2   3
ENDBRANCH   1   2
BRANCH   1  18
HETATM   18  O2  UNL     1      33.103  46.527   3.190  1.00  0.00    -0.373 OA
ATOM     19  H2  UNL     1      33.552  46.098   2.471  1.00  0.00     0.212 HD
ENDBRANCH   1  18
BRANCH   1  20
HETATM   20  N1  UNL     1      31.456  45.005   3.560  1.00  0.00    -0.362 N 
ATOM     21  H1  UNL     1      31.314  44.941   4.567  1.00  0.00     0.162 HD
BRANCH  20  22
HETATM   22  C15 UNL     1      31.383  43.837   2.725  1.00  0.00     0.047 C 
HETATM   23  C16 UNL     1      31.284  44.141   1.296  1.00  0.00     0.060 C 
HETATM   24  C17 UNL     1      29.923  44.389   0.712  1.00  0.00     0.013 C 
HETATM   25  C18 UNL     1      29.110  43.186   1.049  1.00  0.00     0.018 A 
HETATM   26  C19 UNL     1      27.690  43.101   1.307  1.00  0.00     0.040 A 
HETATM   27  C20 UNL     1      28.515  43.582   2.424  1.00  0.00     0.134 A 
HETATM   28  O3  UNL     1      29.188  42.897   3.340  1.00  0.00    -0.338 OA
HETATM   29  C21 UNL     1      30.535  42.817   3.357  1.00  0.00     0.167 C 
BRANCH  29  30
HETATM   30  C22 UNL     1      30.946  41.405   3.217  1.00  0.00     0.319 C 
HETATM   31  O4  UNL     1      31.896  41.006   3.987  1.00  0.00    -0.257 OA
BRANCH  30  32
HETATM   32  O5  UNL     1      30.459  40.454   2.387  1.00  0.00    -0.306 OA
BRANCH  32  33
HETATM   33  C23 UNL     1      31.154  39.978   1.280  1.00  0.00     0.060 C 
HETATM   34  C24 UNL     1      32.484  40.638   1.021  1.00  0.00     0.046 C 
HETATM   35  C25 UNL     1      31.439  38.489   1.354  1.00  0.00     0.046 C 
HETATM   36  C26 UNL     1      30.298  40.203   0.050  1.00  0.00     0.046 C 
ENDBRANCH  32  33
ENDBRANCH  30  32
ENDBRANCH  29  30
ENDBRANCH  20  22
ENDBRANCH   1  20
TORSDOF 13
ENDMDL
MODEL 2
REMARK VINA RESULT: -9.530939881      3.192      9.490
REMARK  13 active torsions:
REMARK  status: ('A' for Active; 'I' for Inactive)
REMARK    1  A    between atoms: C2_2  and  C4_4 
REMARK    2  A    between atoms: C8_9  and  C9_10 
REMARK    3  A    between atoms: C9_10  and  C10_11 
REMARK    4  A    between atoms: C10_11  and  C11_12 
REMARK    5  A    between atoms: C11_12  and  C12_13 
REMARK    6  A    between atoms: C12_13  and  C13_14 
REMARK    7  A    between atoms: C13_14  and  C14_15 
REMARK    8  A    between atoms: C14_15  and  O2_16 
REMARK    9  A    between atoms: C14_15  and  N1_18 
REMARK   10  A    between atoms: N1_18  and  C15_20 
REMARK   11  A    between atoms: C21_27  and  C22_28 
REMARK   12  A    between atoms: C22_28  and  O5_30 
REMARK   13  A    between atoms: O5_30  and  C23_31 
ROOT
HETATM    1  C14 UNL     1      30.027  44.437   3.450  1.00  0.00     0.242 C 
ENDROOT
BRANCH   1   2
HETATM    2  C13 UNL     1      30.684  43.291   2.726  1.00  0.00     0.026 C 
BRANCH   2   3
HETATM    3  C12 UNL     1      30.090  42.145   2.483  1.00  0.00     0.000 C 
BRANCH   3   4
HETATM    4  C11 UNL     1      29.782  41.699   1.126  1.00  0.00    -0.000 C 
BRANCH   4   5
HETATM    5  C10 UNL     1      30.386  40.755   0.467  1.00  0.00     0.000 C 
BRANCH   5   6
HETATM    6  C9  UNL     1      31.431  39.915   1.097  1.00  0.00     0.001 C 
BRANCH   6   7
HETATM    7  C8  UNL     1      32.641  39.996   0.603  1.00  0.00     0.017 C 
HETATM    8  C7  UNL     1      33.607  38.951   0.455  1.00  0.00     0.036 A 
HETATM    9  C6  UNL     1      33.381  37.669   0.852  1.00  0.00     0.186 A 
HETATM   10  C27 UNL     1      34.836  39.256  -0.143  1.00  0.00     0.157 A 
HETATM   11  C5  UNL     1      34.380  36.701   0.649  1.00  0.00     0.088 A 
HETATM   12  O1  UNL     1      32.330  37.281   1.397  1.00  0.00    -0.287 OA
HETATM   13  C4  UNL     1      35.550  37.100   0.053  1.00  0.00     0.059 A 
HETATM   14  O6  UNL     1      35.753  38.351  -0.326  1.00  0.00    -0.326 OA
BRANCH  13  15
HETATM   15  C2  UNL     1      36.614  36.112  -0.176  1.00  0.00     0.035 C 
HETATM   16  C1  UNL     1      37.768  36.887  -0.851  1.00  0.00     0.016 C 
HETATM   17  C3  UNL     1      37.152  35.467   1.080  1.00  0.00     0.016 C 
ENDBRANCH  13  15
ENDBRANCH   6   7
ENDBRANCH   5   6
ENDBRANCH   4   5
ENDBRANCH   3   4
ENDBRANCH   2   3
ENDBRANCH   1   2
BRANCH   1  18
HETATM   18  O2  UNL     1      30.853  45.549   3.124  1.00  0.00    -0.373 OA
ATOM     19  H2  UNL     1      31.633  45.403   3.647  1.00  0.00     0.212 HD
ENDBRANCH   1  18
BRANCH   1  20
HETATM   20  N1  UNL     1      28.769  44.684   2.849  1.00  0.00    -0.362 N 
ATOM     21  H1  UNL     1      27.959  44.104   3.064  1.00  0.00     0.162 HD
BRANCH  20  22
HETATM   22  C15 UNL     1      28.673  45.781   1.924  1.00  0.00     0.047 C 
HETATM   23  C16 UNL     1      27.663  46.774   2.295  1.00  0.00     0.060 C 
HETATM   24  C17 UNL     1      26.245  46.551   1.854  1.00  0.00     0.013 C 
HETATM   25  C18 UNL     1      26.300  46.385   0.374  1.00  0.00     0.018 A 
HETATM   26  C19 UNL     1      25.449  45.583  -0.475  1.00  0.00     0.040 A 
HETATM   27  C20 UNL     1      26.512  44.856   0.235  1.00  0.00     0.134 A 
HETATM   28  O3  UNL     1      27.784  44.678  -0.094  1.00  0.00    -0.338 OA
HETATM   29  C21 UNL     1      28.803  45.290   0.545  1.00  0.00     0.167 C 
BRANCH  29  30
HETATM   30  C22 UNL     1      29.550  46.132  -0.411  1.00  0.00     0.319 C 
HETATM   31  O4  UNL     1      29.886  45.576  -1.522  1.00  0.00    -0.257 OA
BRANCH  30  32
HETATM   32  O5  UNL     1      29.936  47.423  -0.290  1.00  0.00    -0.306 OA
BRANCH  32  33
HETATM   33  C23 UNL     1      31.225  47.804   0.068  1.00  0.00     0.060 C 
HETATM   34  C24 UNL     1      32.147  46.676   0.453  1.00  0.00     0.046 C 
HETATM   35  C25 UNL     1      31.942  48.570  -1.028  1.00  0.00     0.046 C 
HETATM   36  C26 UNL     1      31.132  48.731   1.264  1.00  0.00     0.046 C 
ENDBRANCH  32  33
ENDBRANCH  30  32
ENDBRANCH  29  30
ENDBRANCH  20  22
ENDBRANCH   1  20
TORSDOF 13
ENDMDL
MODEL 3
REMARK VINA RESULT: -9.458885276      3.874     10.428
REMARK  13 active torsions:
REMARK  status: ('A' for Active; 'I' for Inactive)
REMARK    1  A    between atoms: C2_2  and  C4_4 
REMARK    2  A    between atoms: C8_9  and  C9_10 
REMARK    3  A    between atoms: C9_10  and  C10_11 
REMARK    4  A    between atoms: C10_11  and  C11_12 
REMARK    5  A    between atoms: C11_12  and  C12_13 
REMARK    6  A    between atoms: C12_13  and  C13_14 
REMARK    7  A    between atoms: C13_14  and  C14_15 
REMARK    8  A    between atoms: C14_15  and  O2_16 
REMARK    9  A    between atoms: C14_15  and  N1_18 
REMARK   10  A    between atoms: N1_18  and  C15_20 
REMARK   11  A    between atoms: C21_27  and  C22_28 
REMARK   12  A    between atoms: C22_28  and  O5_30 
REMARK   13  A    between atoms: O5_30  and  C23_31 
ROOT
HETATM    1  C14 UNL     1      31.658  42.327   2.219  1.00  0.00     0.242 C 
ENDROOT
BRANCH   1   2
HETATM    2  C13 UNL     1      30.560  41.714   1.387  1.00  0.00     0.026 C 
BRANCH   2   3
HETATM    3  C12 UNL     1      30.706  40.614   0.685  1.00  0.00     0.000 C 
BRANCH   3   4
HETATM    4  C11 UNL     1      30.898  39.308   1.314  1.00  0.00    -0.000 C 
BRANCH   4   5
HETATM    5  C10 UNL     1      32.024  38.813   1.736  1.00  0.00     0.000 C 
BRANCH   5   6
HETATM    6  C9  UNL     1      32.896  38.003   0.855  1.00  0.00     0.001 C 
BRANCH   6   7
HETATM    7  C8  UNL     1      33.841  38.634   0.205  1.00  0.00     0.017 C 
HETATM    8  C7  UNL     1      35.145  38.159  -0.142  1.00  0.00     0.036 A 
HETATM    9  C6  UNL     1      35.600  36.923   0.200  1.00  0.00     0.186 A 
HETATM   10  C27 UNL     1      35.987  38.995  -0.885  1.00  0.00     0.157 A 
HETATM   11  C5  UNL     1      36.888  36.530  -0.200  1.00  0.00     0.088 A 
HETATM   12  O1  UNL     1      34.943  36.094   0.860  1.00  0.00    -0.287 OA
HETATM   13  C4  UNL     1      37.636  37.422  -0.927  1.00  0.00     0.059 A 
HETATM   14  O6  UNL     1      37.178  38.620  -1.250  1.00  0.00    -0.326 OA
BRANCH  13  15
HETATM   15  C2  UNL     1      38.987  37.042  -1.364  1.00  0.00     0.035 C 
HETATM   16  C1  UNL     1      39.562  36.161  -0.233  1.00  0.00     0.016 C 
HETATM   17  C3  UNL     1      39.030  36.248  -2.648  1.00  0.00     0.016 C 
ENDBRANCH  13  15
ENDBRANCH   6   7
ENDBRANCH   5   6
ENDBRANCH   4   5
ENDBRANCH   3   4
ENDBRANCH   2   3
ENDBRANCH   1   2
BRANCH   1  18
HETATM   18  O2  UNL     1      32.793  42.258   1.364  1.00  0.00    -0.373 OA
ATOM     19  H2  UNL     1      32.758  43.078   0.886  1.00  0.00     0.212 HD
ENDBRANCH   1  18
BRANCH   1  20
HETATM   20  N1  UNL     1      31.372  43.703   2.393  1.00  0.00    -0.362 N 
ATOM     21  H1  UNL     1      31.872  44.261   3.084  1.00  0.00     0.162 HD
BRANCH  20  22
HETATM   22  C15 UNL     1      30.354  44.286   1.564  1.00  0.00     0.047 C 
HETATM   23  C16 UNL     1      30.876  45.209   0.555  1.00  0.00     0.060 C 
HETATM   24  C17 UNL     1      31.089  46.644   0.942  1.00  0.00     0.013 C 
HETATM   25  C18 UNL     1      29.779  47.125   1.464  1.00  0.00     0.018 A 
HETATM   26  C19 UNL     1      29.523  48.113   2.487  1.00  0.00     0.040 A 
HETATM   27  C20 UNL     1      29.890  46.774   2.969  1.00  0.00     0.134 A 
HETATM   28  O3  UNL     1      29.131  45.704   3.168  1.00  0.00    -0.338 OA
HETATM   29  C21 UNL     1      29.171  44.614   2.372  1.00  0.00     0.167 C 
BRANCH  29  30
HETATM   30  C22 UNL     1      27.845  44.401   1.760  1.00  0.00     0.319 C 
HETATM   31  O4  UNL     1      26.905  44.018   2.550  1.00  0.00    -0.257 OA
BRANCH  30  32
HETATM   32  O5  UNL     1      27.466  44.555   0.470  1.00  0.00    -0.306 OA
BRANCH  32  33
HETATM   33  C23 UNL     1      26.607  45.560   0.041  1.00  0.00     0.060 C 
HETATM   34  C24 UNL     1      25.228  45.101  -0.360  1.00  0.00     0.046 C 
HETATM   35  C25 UNL     1      26.395  46.644   1.082  1.00  0.00     0.046 C 
HETATM   36  C26 UNL     1      27.224  46.228  -1.171  1.00  0.00     0.046 C 
ENDBRANCH  32  33
ENDBRANCH  30  32
ENDBRANCH  29  30
ENDBRANCH  20  22
ENDBRANCH   1  20
TORSDOF 13
ENDMDL
MODEL 4
REMARK VINA RESULT: -9.432073964      3.243      9.748
REMARK  13 active torsions:
REMARK  status: ('A' for Active; 'I' for Inactive)
REMARK    1  A    between atoms: C2_2  and  C4_4 
REMARK    2  A    between atoms: C8_9  and  C9_10 
REMARK    3  A    between atoms: C9_10  and  C10_11 
REMARK    4  A    between atoms: C10_11  and  C11_12 
REMARK    5  A    between atoms: C11_12  and  C12_13 
REMARK    6  A    between atoms: C12_13  and  C13_14 
REMARK    7  A    between atoms: C13_14  and  C14_15 
REMARK    8  A    between atoms: C14_15  and  O2_16 
REMARK    9  A    between atoms: C14_15  and  N1_18 
REMARK   10  A    between atoms: N1_18  and  C15_20 
REMARK   11  A    between atoms: C21_27  and  C22_28 
REMARK   12  A    between atoms: C22_28  and  O5_30 
REMARK   13  A    between atoms: O5_30  and  C23_31 
ROOT
HETATM    1  C14 UNL     1      30.654  43.617   2.701  1.00  0.00     0.242 C 
ENDROOT
BRANCH   1   2
HETATM    2  C13 UNL     1      29.457  42.720   2.513  1.00  0.00     0.026 C 
BRANCH   2   3
HETATM    3  C12 UNL     1      29.147  42.149   1.372  1.00  0.00     0.000 C 
BRANCH   3   4
HETATM    4  C11 UNL     1      29.581  40.793   1.036  1.00  0.00    -0.000 C 
BRANCH   4   5
HETATM    5  C10 UNL     1      30.652  40.467   0.376  1.00  0.00     0.000 C 
BRANCH   5   6
HETATM    6  C9  UNL     1      31.724  39.651   0.990  1.00  0.00     0.001 C 
BRANCH   6   7
HETATM    7  C8  UNL     1      32.930  39.775   0.493  1.00  0.00     0.017 C 
HETATM    8  C7  UNL     1      33.942  38.772   0.367  1.00  0.00     0.036 A 
HETATM    9  C6  UNL     1      33.774  37.491   0.793  1.00  0.00     0.186 A 
HETATM   10  C27 UNL     1      35.155  39.118  -0.239  1.00  0.00     0.157 A 
HETATM   11  C5  UNL     1      34.816  36.564   0.610  1.00  0.00     0.088 A 
HETATM   12  O1  UNL     1      32.742  37.067   1.347  1.00  0.00    -0.287 OA
HETATM   13  C4  UNL     1      35.966  37.002   0.004  1.00  0.00     0.059 A 
HETATM   14  O6  UNL     1      36.112  38.252  -0.403  1.00  0.00    -0.326 OA
BRANCH  13  15
HETATM   15  C2  UNL     1      37.075  36.059  -0.204  1.00  0.00     0.035 C 
HETATM   16  C1  UNL     1      38.146  36.839  -0.998  1.00  0.00     0.016 C 
HETATM   17  C3  UNL     1      37.710  35.547   1.067  1.00  0.00     0.016 C 
ENDBRANCH  13  15
ENDBRANCH   6   7
ENDBRANCH   5   6
ENDBRANCH   4   5
ENDBRANCH   3   4
ENDBRANCH   2   3
ENDBRANCH   1   2
BRANCH   1  18
HETATM   18  O2  UNL     1      31.720  42.700   2.916  1.00  0.00    -0.373 OA
ATOM     19  H2  UNL     1      32.433  43.069   2.407  1.00  0.00     0.212 HD
ENDBRANCH   1  18
BRANCH   1  20
HETATM   20  N1  UNL     1      30.925  44.264   1.472  1.00  0.00    -0.362 N 
ATOM     21  H1  UNL     1      31.739  44.012   0.912  1.00  0.00     0.162 HD
BRANCH  20  22
HETATM   22  C15 UNL     1      30.015  45.290   1.040  1.00  0.00     0.047 C 
HETATM   23  C16 UNL     1      30.360  45.870  -0.259  1.00  0.00     0.060 C 
HETATM   24  C17 UNL     1      31.335  47.012  -0.296  1.00  0.00     0.013 C 
HETATM   25  C18 UNL     1      30.778  48.053   0.612  1.00  0.00     0.018 A 
HETATM   26  C19 UNL     1      31.489  49.014   1.425  1.00  0.00     0.040 A 
HETATM   27  C20 UNL     1      31.403  47.653   1.973  1.00  0.00     0.134 A 
HETATM   28  O3  UNL     1      30.438  47.081   2.681  1.00  0.00    -0.338 OA
HETATM   29  C21 UNL     1      29.622  46.129   2.180  1.00  0.00     0.167 C 
BRANCH  29  30
HETATM   30  C22 UNL     1      28.225  46.602   2.230  1.00  0.00     0.319 C 
HETATM   31  O4  UNL     1      27.697  46.706   3.399  1.00  0.00    -0.257 OA
BRANCH  30  32
HETATM   32  O5  UNL     1      27.405  46.949   1.212  1.00  0.00    -0.306 OA
BRANCH  32  33
HETATM   33  C23 UNL     1      26.473  46.082   0.651  1.00  0.00     0.060 C 
HETATM   34  C24 UNL     1      26.406  44.714   1.279  1.00  0.00     0.046 C 
HETATM   35  C25 UNL     1      25.057  46.626   0.692  1.00  0.00     0.046 C 
HETATM   36  C26 UNL     1      26.827  45.884  -0.810  1.00  0.00     0.046 C 
ENDBRANCH  32  33
ENDBRANCH  30  32
ENDBRANCH  29  30
ENDBRANCH  20  22
ENDBRANCH   1  20
TORSDOF 13
ENDMDL
MODEL 5
REMARK VINA RESULT: -9.381087839      3.517     10.093
REMARK  13 active torsions:
REMARK  status: ('A' for Active; 'I' for Inactive)
REMARK    1  A    between atoms: C2_2  and  C4_4 
REMARK    2  A    between atoms: C8_9  and  C9_10 
REMARK    3  A    between atoms: C9_10  and  C10_11 
REMARK    4  A    between atoms: C10_11  and  C11_12 
REMARK    5  A    between atoms: C11_12  and  C12_13 
REMARK    6  A    between atoms: C12_13  and  C13_14 
REMARK    7  A    between atoms: C13_14  and  C14_15 
REMARK    8  A    between atoms: C14_15  and  O2_16 
REMARK    9  A    between atoms: C14_15  and  N1_18 
REMARK   10  A    between atoms: N1_18  and  C15_20 
REMARK   11  A    between atoms: C21_27  and  C22_28 
REMARK   12  A    between atoms: C22_28  and  O5_30 
REMARK   13  A    between atoms: O5_30  and  C23_31 
ROOT
HETATM    1  C14 UNL     1      31.477  42.452   1.840  1.00  0.00     0.242 C 
ENDROOT
BRANCH   1   2
HETATM    2  C13 UNL     1      30.585  41.961   0.729  1.00  0.00     0.026 C 
BRANCH   2   3
HETATM    3  C12 UNL     1      30.147  40.725   0.638  1.00  0.00     0.000 C 
BRANCH   3   4
HETATM    4  C11 UNL     1      30.303  39.762   1.727  1.00  0.00    -0.000 C 
BRANCH   4   5
HETATM    5  C10 UNL     1      31.400  39.156   2.070  1.00  0.00     0.000 C 
BRANCH   5   6
HETATM    6  C9  UNL     1      32.140  38.292   1.121  1.00  0.00     0.001 C 
BRANCH   6   7
HETATM    7  C8  UNL     1      33.181  38.815   0.523  1.00  0.00     0.017 C 
HETATM    8  C7  UNL     1      34.428  38.189   0.209  1.00  0.00     0.036 A 
HETATM    9  C6  UNL     1      34.713  36.898   0.532  1.00  0.00     0.186 A 
HETATM   10  C27 UNL     1      35.395  38.930  -0.480  1.00  0.00     0.157 A 
HETATM   11  C5  UNL     1      35.957  36.356   0.167  1.00  0.00     0.088 A 
HETATM   12  O1  UNL     1      33.933  36.142   1.145  1.00  0.00    -0.287 OA
HETATM   13  C4  UNL     1      36.837  37.165  -0.507  1.00  0.00     0.059 A 
HETATM   14  O6  UNL     1      36.544  38.418  -0.813  1.00  0.00    -0.326 OA
BRANCH  13  15
HETATM   15  C2  UNL     1      38.147  36.629  -0.906  1.00  0.00     0.035 C 
HETATM   16  C1  UNL     1      38.901  37.809  -1.560  1.00  0.00     0.016 C 
HETATM   17  C3  UNL     1      38.986  36.110   0.237  1.00  0.00     0.016 C 
ENDBRANCH  13  15
ENDBRANCH   6   7
ENDBRANCH   5   6
ENDBRANCH   4   5
ENDBRANCH   3   4
ENDBRANCH   2   3
ENDBRANCH   1   2
BRANCH   1  18
HETATM   18  O2  UNL     1      32.784  42.141   1.372  1.00  0.00    -0.373 OA
ATOM     19  H2  UNL     1      33.232  42.978   1.400  1.00  0.00     0.212 HD
ENDBRANCH   1  18
BRANCH   1  20
HETATM   20  N1  UNL     1      31.395  43.864   1.888  1.00  0.00    -0.362 N 
ATOM     21  H1  UNL     1      32.120  44.419   2.343  1.00  0.00     0.162 HD
BRANCH  20  22
HETATM   22  C15 UNL     1      30.256  44.491   1.275  1.00  0.00     0.047 C 
HETATM   23  C16 UNL     1      30.608  45.479   0.254  1.00  0.00     0.060 C 
HETATM   24  C17 UNL     1      30.886  46.889   0.691  1.00  0.00     0.013 C 
HETATM   25  C18 UNL     1      29.680  47.326   1.450  1.00  0.00     0.018 A 
HETATM   26  C19 UNL     1      29.599  48.246   2.561  1.00  0.00     0.040 A 
HETATM   27  C20 UNL     1      30.036  46.882   2.891  1.00  0.00     0.134 A 
HETATM   28  O3  UNL     1      29.316  45.797   3.144  1.00  0.00    -0.338 OA
HETATM   29  C21 UNL     1      29.223  44.759   2.285  1.00  0.00     0.167 C 
BRANCH  29  30
HETATM   30  C22 UNL     1      27.814  44.575   1.886  1.00  0.00     0.319 C 
HETATM   31  O4  UNL     1      26.960  44.447   2.841  1.00  0.00    -0.257 OA
BRANCH  30  32
HETATM   32  O5  UNL     1      27.279  44.521   0.645  1.00  0.00    -0.306 OA
BRANCH  32  33
HETATM   33  C23 UNL     1      26.510  45.543   0.099  1.00  0.00     0.060 C 
HETATM   34  C24 UNL     1      26.341  46.759   0.974  1.00  0.00     0.046 C 
HETATM   35  C25 UNL     1      27.056  46.056  -1.220  1.00  0.00     0.046 C 
HETATM   36  C26 UNL     1      25.123  44.999  -0.180  1.00  0.00     0.046 C 
ENDBRANCH  32  33
ENDBRANCH  30  32
ENDBRANCH  29  30
ENDBRANCH  20  22
ENDBRANCH   1  20
TORSDOF 13
ENDMDL
