MODEL 1
REMARK VINA RESULT: -5.272990159      0.000      0.000
REMARK  2 active torsions:
REMARK  status: ('A' for Active; 'I' for Inactive)
REMARK    1  A    between atoms: C2_2  and  C3_3 
REMARK    2  A    between atoms: C3_3  and  N1_5 
ROOT
HETATM    1  N1  UNL     1       5.081 -28.176 -33.512  1.00  0.00    -0.160 NA
HETATM    2  O1  UNL     1       5.957 -28.501 -34.484  1.00  0.00    -0.262 OA
HETATM    3  C5  UNL     1       6.320 -29.823 -34.278  1.00  0.00     0.178 C 
HETATM    4  C6  UNL     1       6.084 -30.663 -35.535  1.00  0.00     0.080 C 
HETATM    5  C7  UNL     1       7.795 -29.902 -33.968  1.00  0.00     0.080 C 
HETATM    6  O2  UNL     1       5.547 -30.349 -33.286  1.00  0.00    -0.333 OA
HETATM    7  C8  UNL     1       4.620 -29.376 -32.901  1.00  0.00     0.221 C 
HETATM    8  C9  UNL     1       4.620 -29.355 -31.399  1.00  0.00     0.059 C 
ENDROOT
BRANCH   1   9
HETATM    9  C3  UNL     1       3.996 -27.475 -34.151  1.00  0.00     0.085 C 
HETATM   10  C4  UNL     1       3.369 -26.431 -33.261  1.00  0.00     0.029 C 
BRANCH   9  11
HETATM   11  C2  UNL     1       4.388 -26.828 -35.451  1.00  0.00     0.017 C 
HETATM   12  C1  UNL     1       3.606 -27.325 -36.631  1.00  0.00     0.006 C 
ENDBRANCH   9  11
ENDBRANCH   1   9
TORSDOF 2
ENDMDL
MODEL 2
REMARK VINA RESULT: -5.154092887      3.369      4.568
REMARK  2 active torsions:
REMARK  status: ('A' for Active; 'I' for Inactive)
REMARK    1  A    between atoms: C2_2  and  C3_3 
REMARK    2  A    between atoms: C3_3  and  N1_5 
ROOT
HETATM    1  N1  UNL     1       8.122 -31.706 -33.978  1.00  0.00    -0.160 NA
HETATM    2  O1  UNL     1       8.486 -32.518 -34.991  1.00  0.00    -0.262 OA
HETATM    3  C5  UNL     1       8.266 -33.819 -34.567  1.00  0.00     0.178 C 
HETATM    4  C6  UNL     1       7.373 -34.578 -35.551  1.00  0.00     0.080 C 
HETATM    5  C7  UNL     1       9.578 -34.561 -34.504  1.00  0.00     0.080 C 
HETATM    6  O2  UNL     1       7.618 -33.795 -33.366  1.00  0.00    -0.333 OA
HETATM    7  C8  UNL     1       7.348 -32.460 -33.050  1.00  0.00     0.221 C 
HETATM    8  C9  UNL     1       7.738 -32.273 -31.612  1.00  0.00     0.059 C 
ENDROOT
BRANCH   1   9
HETATM    9  C3  UNL     1       7.336 -30.646 -34.559  1.00  0.00     0.085 C 
HETATM   10  C4  UNL     1       5.858 -30.943 -34.556  1.00  0.00     0.029 C 
BRANCH   9  11
HETATM   11  C2  UNL     1       7.562 -29.310 -33.905  1.00  0.00     0.017 C 
HETATM   12  C1  UNL     1       6.464 -28.904 -32.968  1.00  0.00     0.006 C 
ENDBRANCH   9  11
ENDBRANCH   1   9
TORSDOF 2
ENDMDL
MODEL 3
REMARK VINA RESULT: -5.013248171      1.575      4.403
REMARK  2 active torsions:
REMARK  status: ('A' for Active; 'I' for Inactive)
REMARK    1  A    between atoms: C2_2  and  C3_3 
REMARK    2  A    between atoms: C3_3  and  N1_5 
ROOT
HETATM    1  N1  UNL     1       5.027 -27.918 -34.861  1.00  0.00    -0.160 NA
HETATM    2  O1  UNL     1       5.023 -27.298 -33.663  1.00  0.00    -0.262 OA
HETATM    3  C5  UNL     1       3.914 -26.468 -33.640  1.00  0.00     0.178 C 
HETATM    4  C6  UNL     1       3.035 -26.753 -32.420  1.00  0.00     0.080 C 
HETATM    5  C7  UNL     1       4.359 -25.030 -33.534  1.00  0.00     0.080 C 
HETATM    6  O2  UNL     1       3.156 -26.702 -34.750  1.00  0.00    -0.333 OA
HETATM    7  C8  UNL     1       3.746 -27.753 -35.459  1.00  0.00     0.221 C 
HETATM    8  C9  UNL     1       3.776 -27.333 -36.901  1.00  0.00     0.059 C 
ENDROOT
BRANCH   1   9
HETATM    9  C3  UNL     1       5.299 -29.311 -34.606  1.00  0.00     0.085 C 
HETATM   10  C4  UNL     1       5.746 -30.055 -35.839  1.00  0.00     0.029 C 
BRANCH   9  11
HETATM   11  C2  UNL     1       6.312 -29.529 -33.517  1.00  0.00     0.017 C 
HETATM   12  C1  UNL     1       7.732 -29.503 -33.999  1.00  0.00     0.006 C 
ENDBRANCH   9  11
ENDBRANCH   1   9
TORSDOF 2
ENDMDL
MODEL 4
REMARK VINA RESULT: -4.978680181      2.684      4.303
REMARK  2 active torsions:
REMARK  status: ('A' for Active; 'I' for Inactive)
REMARK    1  A    between atoms: C2_2  and  C3_3 
REMARK    2  A    between atoms: C3_3  and  N1_5 
ROOT
HETATM    1  N1  UNL     1       6.644 -31.262 -35.141  1.00  0.00    -0.160 NA
HETATM    2  O1  UNL     1       6.228 -32.023 -34.108  1.00  0.00    -0.262 OA
HETATM    3  C5  UNL     1       7.312 -32.788 -33.706  1.00  0.00     0.178 C 
HETATM    4  C6  UNL     1       7.592 -32.607 -32.213  1.00  0.00     0.080 C 
HETATM    5  C7  UNL     1       7.009 -34.250 -33.922  1.00  0.00     0.080 C 
HETATM    6  O2  UNL     1       8.424 -32.377 -34.381  1.00  0.00    -0.333 OA
HETATM    7  C8  UNL     1       8.067 -31.281 -35.172  1.00  0.00     0.221 C 
HETATM    8  C9  UNL     1       8.662 -31.521 -36.530  1.00  0.00     0.059 C 
ENDROOT
BRANCH   1   9
HETATM    9  C3  UNL     1       6.153 -29.928 -34.896  1.00  0.00     0.085 C 
HETATM   10  C4  UNL     1       4.717 -29.908 -34.436  1.00  0.00     0.029 C 
BRANCH   9  11
HETATM   11  C2  UNL     1       6.987 -29.159 -33.909  1.00  0.00     0.017 C 
HETATM   12  C1  UNL     1       6.275 -28.855 -32.625  1.00  0.00     0.006 C 
ENDBRANCH   9  11
ENDBRANCH   1   9
TORSDOF 2
ENDMDL
MODEL 5
REMARK VINA RESULT: -4.966665494      2.124      3.496
REMARK  2 active torsions:
REMARK  status: ('A' for Active; 'I' for Inactive)
REMARK    1  A    between atoms: C2_2  and  C3_3 
REMARK    2  A    between atoms: C3_3  and  N1_5 
ROOT
HETATM    1  N1  UNL     1       6.239 -30.442 -34.622  1.00  0.00    -0.160 NA
HETATM    2  O1  UNL     1       5.637 -31.036 -33.571  1.00  0.00    -0.262 OA
HETATM    3  C5  UNL     1       6.595 -31.817 -32.943  1.00  0.00     0.178 C 
HETATM    4  C6  UNL     1       6.704 -31.469 -31.457  1.00  0.00     0.080 C 
HETATM    5  C7  UNL     1       6.198 -33.271 -33.025  1.00  0.00     0.080 C 
HETATM    6  O2  UNL     1       7.812 -31.572 -33.509  1.00  0.00    -0.333 OA
HETATM    7  C8  UNL     1       7.649 -30.563 -34.462  1.00  0.00     0.221 C 
HETATM    8  C9  UNL     1       8.383 -31.013 -35.692  1.00  0.00     0.059 C 
ENDROOT
BRANCH   1   9
HETATM    9  C3  UNL     1       5.837 -29.058 -34.601  1.00  0.00     0.085 C 
HETATM   10  C4  UNL     1       4.974 -28.681 -35.779  1.00  0.00     0.029 C 
BRANCH   9  11
HETATM   11  C2  UNL     1       5.126 -28.664 -33.335  1.00  0.00     0.017 C 
HETATM   12  C1  UNL     1       4.042 -27.649 -33.544  1.00  0.00     0.006 C 
ENDBRANCH   9  11
ENDBRANCH   1   9
TORSDOF 2
ENDMDL
