MODEL 1
REMARK VINA RESULT: -6.364415733      0.000      0.000
REMARK  4 active torsions:
REMARK  status: ('A' for Active; 'I' for Inactive)
REMARK    1  A    between atoms: N1_1  and  C1_4 
REMARK    2  A    between atoms: C3_13  and  N5_14 
REMARK    3  A    between atoms: N5_14  and  S1_16 
REMARK    4  A    between atoms: S1_16  and  N6_17 
ROOT
HETATM    1  C1  UNL     1      66.535  -8.414   4.604  1.00  0.00     0.142 A 
HETATM    2  C2  UNL     1      67.382  -7.903   5.561  1.00  0.00     0.291 A 
HETATM    3  O1  UNL     1      67.247  -6.682   5.908  1.00  0.00    -0.264 OA
HETATM    4  N2  UNL     1      68.330  -8.678   6.111  1.00  0.00    -0.250 N 
ATOM      5  H2  UNL     1      68.953  -8.286   6.818  1.00  0.00     0.192 HD
HETATM    6  N3  UNL     1      68.469  -9.936   5.751  1.00  0.00    -0.238 N 
ATOM      7  H3  UNL     1      69.193 -10.516   6.176  1.00  0.00     0.208 HD
HETATM    8  N4  UNL     1      67.655 -10.447   4.824  1.00  0.00    -0.268 N 
ATOM      9  H4  UNL     1      67.772 -11.424   4.553  1.00  0.00     0.190 HD
HETATM   10  C3  UNL     1      66.694  -9.732   4.241  1.00  0.00     0.164 A 
ENDROOT
BRANCH  10  11
HETATM   11  N5  UNL     1      65.906 -10.216   3.347  1.00  0.00    -0.250 N 
ATOM     12  H5  UNL     1      65.216 -10.909   3.639  1.00  0.00     0.182 HD
BRANCH  11  13
HETATM   13  S1  UNL     1      65.948  -9.758   1.686  1.00  0.00     0.318 S 
HETATM   14  O2  UNL     1      64.616  -9.110   1.384  1.00  0.00    -0.183 OA
HETATM   15  O3  UNL     1      67.080  -8.812   1.425  1.00  0.00    -0.183 OA
BRANCH  13  16
HETATM   16  N6  UNL     1      66.195 -11.169   0.755  1.00  0.00    -0.311 N 
ATOM     17  H62 UNL     1      66.810 -11.941   1.009  1.00  0.00     0.170 HD
ATOM     18  H61 UNL     1      65.622 -11.096  -0.086  1.00  0.00     0.170 HD
ENDBRANCH  13  16
ENDBRANCH  11  13
ENDBRANCH  10  11
BRANCH   1  19
HETATM   19  N1  UNL     1      65.627  -7.655   4.083  1.00  0.00    -0.392 N 
ATOM     20  H12 UNL     1      64.636  -7.759   4.300  1.00  0.00     0.156 HD
ATOM     21  H11 UNL     1      65.897  -6.920   3.430  1.00  0.00     0.156 HD
ENDBRANCH   1  19
TORSDOF 4
ENDMDL
MODEL 2
REMARK VINA RESULT: -6.332983277      1.631      1.930
REMARK  4 active torsions:
REMARK  status: ('A' for Active; 'I' for Inactive)
REMARK    1  A    between atoms: N1_1  and  C1_4 
REMARK    2  A    between atoms: C3_13  and  N5_14 
REMARK    3  A    between atoms: N5_14  and  S1_16 
REMARK    4  A    between atoms: S1_16  and  N6_17 
ROOT
HETATM    1  C1  UNL     1      67.139  -9.388   4.586  1.00  0.00     0.142 A 
HETATM    2  C2  UNL     1      67.704  -8.465   5.436  1.00  0.00     0.291 A 
HETATM    3  O1  UNL     1      67.549  -8.618   6.693  1.00  0.00    -0.264 OA
HETATM    4  N2  UNL     1      68.400  -7.427   4.945  1.00  0.00    -0.250 N 
ATOM      5  H2  UNL     1      68.812  -6.749   5.587  1.00  0.00     0.192 HD
HETATM    6  N3  UNL     1      68.557  -7.270   3.648  1.00  0.00    -0.238 N 
ATOM      7  H3  UNL     1      69.089  -6.478   3.287  1.00  0.00     0.208 HD
HETATM    8  N4  UNL     1      68.016  -8.157   2.809  1.00  0.00    -0.268 N 
ATOM      9  H4  UNL     1      68.144  -8.026   1.806  1.00  0.00     0.190 HD
HETATM   10  C3  UNL     1      67.315  -9.208   3.232  1.00  0.00     0.164 A 
ENDROOT
BRANCH  10  11
HETATM   11  N5  UNL     1      66.791 -10.068   2.431  1.00  0.00    -0.250 N 
ATOM     12  H5  UNL     1      66.554 -10.989   2.801  1.00  0.00     0.182 HD
BRANCH  11  13
HETATM   13  S1  UNL     1      66.464  -9.748   0.769  1.00  0.00     0.318 S 
HETATM   14  O2  UNL     1      65.489  -8.593   0.736  1.00  0.00    -0.183 OA
HETATM   15  O3  UNL     1      67.726  -9.410   0.035  1.00  0.00    -0.183 OA
BRANCH  13  16
HETATM   16  N6  UNL     1      65.798 -11.162   0.080  1.00  0.00    -0.311 N 
ATOM     17  H62 UNL     1      66.250 -11.739  -0.630  1.00  0.00     0.170 HD
ATOM     18  H61 UNL     1      64.883 -11.318   0.502  1.00  0.00     0.170 HD
ENDBRANCH  13  16
ENDBRANCH  11  13
ENDBRANCH  10  11
BRANCH   1  19
HETATM   19  N1  UNL     1      66.471 -10.382   5.073  1.00  0.00    -0.392 N 
ATOM     20  H12 UNL     1      66.923 -11.228   5.418  1.00  0.00     0.156 HD
ATOM     21  H11 UNL     1      65.454 -10.331   5.121  1.00  0.00     0.156 HD
ENDBRANCH   1  19
TORSDOF 4
ENDMDL
MODEL 3
REMARK VINA RESULT: -6.086537618      2.235      4.174
REMARK  4 active torsions:
REMARK  status: ('A' for Active; 'I' for Inactive)
REMARK    1  A    between atoms: N1_1  and  C1_4 
REMARK    2  A    between atoms: C3_13  and  N5_14 
REMARK    3  A    between atoms: N5_14  and  S1_16 
REMARK    4  A    between atoms: S1_16  and  N6_17 
ROOT
HETATM    1  C1  UNL     1      67.152  -9.550   2.395  1.00  0.00     0.142 A 
HETATM    2  C2  UNL     1      66.426 -10.719   2.393  1.00  0.00     0.291 A 
HETATM    3  O1  UNL     1      66.160 -11.270   1.273  1.00  0.00    -0.264 OA
HETATM    4  N2  UNL     1      66.009 -11.261   3.548  1.00  0.00    -0.250 N 
ATOM      5  H2  UNL     1      65.470 -12.128   3.531  1.00  0.00     0.192 HD
HETATM    6  N3  UNL     1      66.283 -10.691   4.702  1.00  0.00    -0.238 N 
ATOM      7  H3  UNL     1      65.961 -11.112   5.573  1.00  0.00     0.208 HD
HETATM    8  N4  UNL     1      66.987  -9.556   4.721  1.00  0.00    -0.268 N 
ATOM      9  H4  UNL     1      67.193  -9.122   5.621  1.00  0.00     0.190 HD
HETATM   10  C3  UNL     1      67.430  -8.968   3.611  1.00  0.00     0.164 A 
ENDROOT
BRANCH  10  11
HETATM   11  N5  UNL     1      68.108  -7.875   3.621  1.00  0.00    -0.250 N 
ATOM     12  H5  UNL     1      69.068  -7.900   3.276  1.00  0.00     0.182 HD
BRANCH  11  13
HETATM   13  S1  UNL     1      67.485  -6.370   4.186  1.00  0.00     0.318 S 
HETATM   14  O2  UNL     1      67.204  -6.546   5.661  1.00  0.00    -0.183 OA
HETATM   15  O3  UNL     1      68.472  -5.266   3.953  1.00  0.00    -0.183 OA
BRANCH  13  16
HETATM   16  N6  UNL     1      66.064  -6.022   3.305  1.00  0.00    -0.311 N 
ATOM     17  H62 UNL     1      65.420  -6.718   2.929  1.00  0.00     0.170 HD
ATOM     18  H61 UNL     1      65.980  -5.008   3.228  1.00  0.00     0.170 HD
ENDBRANCH  13  16
ENDBRANCH  11  13
ENDBRANCH  10  11
BRANCH   1  19
HETATM   19  N1  UNL     1      67.546  -9.040   1.275  1.00  0.00    -0.392 N 
ATOM     20  H12 UNL     1      67.042  -8.286   0.808  1.00  0.00     0.156 HD
ATOM     21  H11 UNL     1      68.393  -9.392   0.830  1.00  0.00     0.156 HD
ENDBRANCH   1  19
TORSDOF 4
ENDMDL
MODEL 4
REMARK VINA RESULT: -6.078551041      2.355      4.099
REMARK  4 active torsions:
REMARK  status: ('A' for Active; 'I' for Inactive)
REMARK    1  A    between atoms: N1_1  and  C1_4 
REMARK    2  A    between atoms: C3_13  and  N5_14 
REMARK    3  A    between atoms: N5_14  and  S1_16 
REMARK    4  A    between atoms: S1_16  and  N6_17 
ROOT
HETATM    1  C1  UNL     1      66.161  -9.344   2.283  1.00  0.00     0.142 A 
HETATM    2  C2  UNL     1      66.191 -10.715   2.392  1.00  0.00     0.291 A 
HETATM    3  O1  UNL     1      66.126 -11.414   1.326  1.00  0.00    -0.264 OA
HETATM    4  N2  UNL     1      66.284 -11.299   3.598  1.00  0.00    -0.250 N 
ATOM      5  H2  UNL     1      66.304 -12.317   3.663  1.00  0.00     0.192 HD
HETATM    6  N3  UNL     1      66.350 -10.577   4.696  1.00  0.00    -0.238 N 
ATOM      7  H3  UNL     1      66.421 -11.031   5.606  1.00  0.00     0.208 HD
HETATM    8  N4  UNL     1      66.323  -9.244   4.607  1.00  0.00    -0.268 N 
ATOM      9  H4  UNL     1      66.374  -8.695   5.466  1.00  0.00     0.190 HD
HETATM   10  C3  UNL     1      66.232  -8.605   3.442  1.00  0.00     0.164 A 
ENDROOT
BRANCH  10  11
HETATM   11  N5  UNL     1      66.205  -7.322   3.349  1.00  0.00    -0.250 N 
ATOM     12  H5  UNL     1      65.371  -6.885   2.957  1.00  0.00     0.182 HD
BRANCH  11  13
HETATM   13  S1  UNL     1      67.500  -6.301   3.849  1.00  0.00     0.318 S 
HETATM   14  O2  UNL     1      67.175  -4.914   3.343  1.00  0.00    -0.183 OA
HETATM   15  O3  UNL     1      67.639  -6.311   5.341  1.00  0.00    -0.183 OA
BRANCH  13  16
HETATM   16  N6  UNL     1      68.945  -6.904   3.166  1.00  0.00    -0.311 N 
ATOM     17  H62 UNL     1      69.527  -6.410   2.490  1.00  0.00     0.170 HD
ATOM     18  H61 UNL     1      69.113  -7.833   3.553  1.00  0.00     0.170 HD
ENDBRANCH  13  16
ENDBRANCH  11  13
ENDBRANCH  10  11
BRANCH   1  19
HETATM   19  N1  UNL     1      66.071  -8.796   1.115  1.00  0.00    -0.392 N 
ATOM     20  H12 UNL     1      65.796  -9.320   0.285  1.00  0.00     0.156 HD
ATOM     21  H11 UNL     1      66.278  -7.804   1.006  1.00  0.00     0.156 HD
ENDBRANCH   1  19
TORSDOF 4
ENDMDL
MODEL 5
REMARK VINA RESULT: -6.073759559      1.360      1.438
REMARK  4 active torsions:
REMARK  status: ('A' for Active; 'I' for Inactive)
REMARK    1  A    between atoms: N1_1  and  C1_4 
REMARK    2  A    between atoms: C3_13  and  N5_14 
REMARK    3  A    between atoms: N5_14  and  S1_16 
REMARK    4  A    between atoms: S1_16  and  N6_17 
ROOT
HETATM    1  C1  UNL     1      67.638  -8.376   4.233  1.00  0.00     0.142 A 
HETATM    2  C2  UNL     1      67.551  -8.448   5.604  1.00  0.00     0.291 A 
HETATM    3  O1  UNL     1      68.005  -7.477   6.297  1.00  0.00    -0.264 OA
HETATM    4  N2  UNL     1      67.001  -9.522   6.194  1.00  0.00    -0.250 N 
ATOM      5  H2  UNL     1      66.944  -9.563   7.211  1.00  0.00     0.192 HD
HETATM    6  N3  UNL     1      66.534 -10.522   5.477  1.00  0.00    -0.238 N 
ATOM      7  H3  UNL     1      66.118 -11.333   5.936  1.00  0.00     0.208 HD
HETATM    8  N4  UNL     1      66.610 -10.467   4.145  1.00  0.00    -0.268 N 
ATOM      9  H4  UNL     1      66.245 -11.249   3.600  1.00  0.00     0.190 HD
HETATM   10  C3  UNL     1      67.143  -9.431   3.500  1.00  0.00     0.164 A 
ENDROOT
BRANCH  10  11
HETATM   11  N5  UNL     1      67.221  -9.370   2.217  1.00  0.00    -0.250 N 
ATOM     12  H5  UNL     1      68.124  -9.146   1.799  1.00  0.00     0.182 HD
BRANCH  11  13
HETATM   13  S1  UNL     1      65.882  -9.645   1.166  1.00  0.00     0.318 S 
HETATM   14  O2  UNL     1      64.637  -9.540   2.018  1.00  0.00    -0.183 OA
HETATM   15  O3  UNL     1      65.863  -8.639   0.056  1.00  0.00    -0.183 OA
BRANCH  13  16
HETATM   16  N6  UNL     1      66.057 -11.202   0.485  1.00  0.00    -0.311 N 
ATOM     17  H62 UNL     1      65.893 -12.081   0.977  1.00  0.00     0.170 HD
ATOM     18  H61 UNL     1      66.349 -11.091  -0.486  1.00  0.00     0.170 HD
ENDBRANCH  13  16
ENDBRANCH  11  13
ENDBRANCH  10  11
BRANCH   1  19
HETATM   19  N1  UNL     1      68.170  -7.335   3.680  1.00  0.00    -0.392 N 
ATOM     20  H12 UNL     1      67.623  -6.652   3.157  1.00  0.00     0.156 HD
ATOM     21  H11 UNL     1      69.175  -7.178   3.762  1.00  0.00     0.156 HD
ENDBRANCH   1  19
TORSDOF 4
ENDMDL
