MODEL 1
REMARK VINA RESULT: -7.247186977      0.000      0.000
REMARK  16 active torsions:
REMARK  status: ('A' for Active; 'I' for Inactive)
REMARK    1  A    between atoms: C2_3  and  C3_4 
REMARK    2  A    between atoms: C3_4  and  O1_5 
REMARK    3  A    between atoms: C3_4  and  C4_7 
REMARK    4  A    between atoms: C4_7  and  N2_8 
REMARK    5  A    between atoms: N2_8  and  C5_10 
REMARK    6  A    between atoms: C5_10  and  C6_11 
REMARK    7  A    between atoms: N4_16  and  C9_17 
REMARK    8  A    between atoms: C9_17  and  N5_18 
REMARK       I    between atoms: N5_18  and  C10_20 
REMARK    9  A    between atoms: C10_20  and  C11_22 
REMARK   10  A    between atoms: C11_22  and  N6_23 
REMARK   11  A    between atoms: C11_22  and  C12_27 
REMARK   12  A    between atoms: C12_27  and  C13_28 
REMARK   13  A    between atoms: C16_31  and  O3_32 
REMARK   14  A    between atoms: O3_32  and  C17_33 
REMARK   15  A    between atoms: C17_33  and  C18_34 
REMARK   16  A    between atoms: C26_49  and  O5_50 
ROOT
HETATM    1  C9  UNL     1     -37.248  -2.180  -8.702  1.00  0.00     0.187 C 
ENDROOT
BRANCH   1   2
HETATM    2  N4  UNL     1     -36.687  -1.825  -7.438  1.00  0.00    -0.331 N 
HETATM    3  C6  UNL     1     -35.527  -0.948  -7.339  1.00  0.00     0.126 C 
HETATM    4  C7  UNL     1     -34.877  -1.434  -6.070  1.00  0.00     0.147 C 
HETATM    5  N3  UNL     1     -36.023  -1.941  -5.320  1.00  0.00    -0.384 N 
HETATM    6  C8  UNL     1     -37.028  -2.155  -6.100  1.00  0.00     0.179 C 
ATOM      7  H3  UNL     1     -36.029  -2.104  -4.314  1.00  0.00     0.160 HD
BRANCH   3   8
HETATM    8  C5  UNL     1     -35.991   0.461  -7.199  1.00  0.00     0.141 C 
BRANCH   8   9
HETATM    9  N2  UNL     1     -35.563   1.301  -8.277  1.00  0.00    -0.416 N 
ATOM     10  H2  UNL     1     -34.611   1.282  -8.644  1.00  0.00     0.153 HD
BRANCH   9  11
HETATM   11  C4  UNL     1     -36.574   2.172  -8.800  1.00  0.00     0.152 C 
BRANCH  11  12
HETATM   12  C3  UNL     1     -37.966   1.751  -8.330  1.00  0.00     0.187 C 
BRANCH  12  13
HETATM   13  C2  UNL     1     -38.731   2.959  -7.899  1.00  0.00     0.072 A 
HETATM   14  C1  UNL     1     -40.077   2.937  -7.622  1.00  0.00     0.122 A 
HETATM   15  N1  UNL     1     -40.799   1.730  -7.736  1.00  0.00    -0.096 NA
HETATM   16  C26 UNL     1     -40.742   4.075  -7.233  1.00  0.00     0.170 A 
HETATM   17  N9  UNL     1     -40.060   5.220  -7.125  1.00  0.00    -0.287 N 
HETATM   18  C25 UNL     1     -38.727   5.237  -7.399  1.00  0.00     0.326 A 
ATOM     19  H9  UNL     1     -40.535   6.075  -6.839  1.00  0.00     0.172 HD
HETATM   20  N8  UNL     1     -38.078   4.127  -7.779  1.00  0.00    -0.308 N 
HETATM   21  O4  UNL     1     -38.065   6.300  -7.304  1.00  0.00    -0.247 OA
ATOM     22  H8  UNL     1     -37.079   4.170  -7.979  1.00  0.00     0.170 HD
BRANCH  16  23
HETATM   23  O5  UNL     1     -42.086   4.034  -6.961  1.00  0.00    -0.345 OA
ATOM     24  H5  UNL     1     -42.594   3.259  -7.170  1.00  0.00     0.219 HD
ENDBRANCH  16  23
ENDBRANCH  12  13
BRANCH  12  25
HETATM   25  O1  UNL     1     -38.617   1.238  -9.438  1.00  0.00    -0.388 OA
ATOM     26  H1  UNL     1     -39.276   0.635  -9.116  1.00  0.00     0.210 HD
ENDBRANCH  12  25
ENDBRANCH  11  12
ENDBRANCH   9  11
ENDBRANCH   8   9
ENDBRANCH   3   8
ENDBRANCH   1   2
BRANCH   1  27
HETATM   27  N5  UNL     1     -37.079  -1.272  -9.775  1.00  0.00    -0.321 N 
HETATM   28  C10 UNL     1     -36.238  -1.426 -10.881  1.00  0.00     0.253 C 
HETATM   29  O2  UNL     1     -35.540  -2.438 -11.029  1.00  0.00    -0.271 OA
ATOM     30  H5  UNL     1     -37.630  -0.414  -9.738  1.00  0.00     0.169 HD
BRANCH  28  31
HETATM   31  C11 UNL     1     -36.169  -0.338 -11.914  1.00  0.00     0.279 C 
BRANCH  31  32
HETATM   32  N6  UNL     1     -37.450   0.316 -12.094  1.00  0.00    -0.066 N 
ATOM     33  H63 UNL     1     -37.617   0.544 -13.074  1.00  0.00     0.275 HD
ATOM     34  H62 UNL     1     -38.223  -0.333 -11.948  1.00  0.00     0.275 HD
ATOM     35  H61 UNL     1     -37.542   1.141 -11.501  1.00  0.00     0.275 HD
ENDBRANCH  31  32
BRANCH  31  36
HETATM   36  C12 UNL     1     -35.789  -0.990 -13.209  1.00  0.00     0.081 C 
BRANCH  36  37
HETATM   37  C13 UNL     1     -34.373  -0.953 -13.537  1.00  0.00    -0.056 A 
HETATM   38  C14 UNL     1     -33.535  -0.092 -12.872  1.00  0.00     0.010 A 
HETATM   39  C15 UNL     1     -32.181  -0.011 -13.107  1.00  0.00     0.037 A 
HETATM   40  C16 UNL     1     -31.595  -0.844 -14.074  1.00  0.00     0.069 A 
HETATM   41  C23 UNL     1     -32.426  -1.710 -14.748  1.00  0.00     0.037 A 
HETATM   42  C24 UNL     1     -33.792  -1.774 -14.494  1.00  0.00     0.010 A 
BRANCH  40  43
HETATM   43  O3  UNL     1     -30.247  -0.743 -14.283  1.00  0.00    -0.347 OA
BRANCH  43  44
HETATM   44  C17 UNL     1     -29.351  -1.773 -14.550  1.00  0.00     0.214 C 
BRANCH  44  45
HETATM   45  C18 UNL     1     -29.286  -2.766 -13.454  1.00  0.00    -0.032 A 
HETATM   46  C19 UNL     1     -29.471  -4.106 -13.704  1.00  0.00     0.026 A 
HETATM   47  C20 UNL     1     -29.413  -5.051 -12.696  1.00  0.00     0.088 A 
HETATM   48  N7  UNL     1     -29.170  -4.642 -11.446  1.00  0.00    -0.375 N 
HETATM   49  C21 UNL     1     -28.984  -3.342 -11.171  1.00  0.00     0.088 A 
ATOM     50  H7  UNL     1     -29.125  -5.328 -10.692  1.00  0.00     0.164 HD
HETATM   51  C22 UNL     1     -29.036  -2.372 -12.160  1.00  0.00     0.026 A 
ENDBRANCH  44  45
ENDBRANCH  43  44
ENDBRANCH  40  43
ENDBRANCH  36  37
ENDBRANCH  31  36
ENDBRANCH  28  31
ENDBRANCH   1  27
TORSDOF 16
ENDMDL
MODEL 2
REMARK VINA RESULT: -7.213033350      3.974     11.387
REMARK  16 active torsions:
REMARK  status: ('A' for Active; 'I' for Inactive)
REMARK    1  A    between atoms: C2_3  and  C3_4 
REMARK    2  A    between atoms: C3_4  and  O1_5 
REMARK    3  A    between atoms: C3_4  and  C4_7 
REMARK    4  A    between atoms: C4_7  and  N2_8 
REMARK    5  A    between atoms: N2_8  and  C5_10 
REMARK    6  A    between atoms: C5_10  and  C6_11 
REMARK    7  A    between atoms: N4_16  and  C9_17 
REMARK    8  A    between atoms: C9_17  and  N5_18 
REMARK       I    between atoms: N5_18  and  C10_20 
REMARK    9  A    between atoms: C10_20  and  C11_22 
REMARK   10  A    between atoms: C11_22  and  N6_23 
REMARK   11  A    between atoms: C11_22  and  C12_27 
REMARK   12  A    between atoms: C12_27  and  C13_28 
REMARK   13  A    between atoms: C16_31  and  O3_32 
REMARK   14  A    between atoms: O3_32  and  C17_33 
REMARK   15  A    between atoms: C17_33  and  C18_34 
REMARK   16  A    between atoms: C26_49  and  O5_50 
ROOT
HETATM    1  C9  UNL     1     -38.373   0.146  -6.257  1.00  0.00     0.187 C 
ENDROOT
BRANCH   1   2
HETATM    2  N4  UNL     1     -37.128  -0.492  -5.973  1.00  0.00    -0.331 N 
HETATM    3  C6  UNL     1     -36.851  -1.853  -6.416  1.00  0.00     0.126 C 
HETATM    4  C7  UNL     1     -35.900  -2.339  -5.353  1.00  0.00     0.147 C 
HETATM    5  N3  UNL     1     -35.260  -1.096  -4.931  1.00  0.00    -0.384 N 
HETATM    6  C8  UNL     1     -35.959  -0.072  -5.285  1.00  0.00     0.179 C 
ATOM      7  H3  UNL     1     -34.377  -1.045  -4.424  1.00  0.00     0.160 HD
BRANCH   3   8
HETATM    8  C5  UNL     1     -36.186  -1.804  -7.749  1.00  0.00     0.141 C 
BRANCH   8   9
HETATM    9  N2  UNL     1     -37.071  -2.128  -8.828  1.00  0.00    -0.416 N 
ATOM     10  H2  UNL     1     -37.785  -2.853  -8.754  1.00  0.00     0.153 HD
BRANCH   9  11
HETATM   11  C4  UNL     1     -36.876  -1.354 -10.019  1.00  0.00     0.152 C 
BRANCH  11  12
HETATM   12  C3  UNL     1     -37.170   0.126  -9.773  1.00  0.00     0.187 C 
BRANCH  12  13
HETATM   13  C2  UNL     1     -36.048   0.950 -10.315  1.00  0.00     0.072 A 
HETATM   14  C1  UNL     1     -35.345   1.855  -9.556  1.00  0.00     0.122 A 
HETATM   15  N1  UNL     1     -35.670   2.033  -8.195  1.00  0.00    -0.096 NA
HETATM   16  C26 UNL     1     -34.324   2.597 -10.099  1.00  0.00     0.170 A 
HETATM   17  N9  UNL     1     -34.015   2.429 -11.389  1.00  0.00    -0.287 N 
HETATM   18  C25 UNL     1     -34.713   1.531 -12.136  1.00  0.00     0.326 A 
ATOM     19  H9  UNL     1     -33.261   2.970 -11.810  1.00  0.00     0.172 HD
HETATM   20  N8  UNL     1     -35.710   0.808 -11.608  1.00  0.00    -0.308 N 
HETATM   21  O4  UNL     1     -34.441   1.357 -13.350  1.00  0.00    -0.247 OA
ATOM     22  H8  UNL     1     -36.217   0.143 -12.192  1.00  0.00     0.170 HD
BRANCH  16  23
HETATM   23  O5  UNL     1     -33.633   3.494  -9.325  1.00  0.00    -0.345 OA
ATOM     24  H5  UNL     1     -33.974   4.370  -9.186  1.00  0.00     0.219 HD
ENDBRANCH  16  23
ENDBRANCH  12  13
BRANCH  12  25
HETATM   25  O1  UNL     1     -38.292   0.434 -10.520  1.00  0.00    -0.388 OA
ATOM     26  H1  UNL     1     -38.788  -0.371 -10.617  1.00  0.00     0.210 HD
ENDBRANCH  12  25
ENDBRANCH  11  12
ENDBRANCH   9  11
ENDBRANCH   8   9
ENDBRANCH   3   8
ENDBRANCH   1   2
BRANCH   1  27
HETATM   27  N5  UNL     1     -38.333   1.447  -6.815  1.00  0.00    -0.321 N 
HETATM   28  C10 UNL     1     -39.363   2.099  -7.499  1.00  0.00     0.253 C 
HETATM   29  O2  UNL     1     -40.467   1.566  -7.670  1.00  0.00    -0.271 OA
ATOM     30  H5  UNL     1     -37.460   1.963  -6.705  1.00  0.00     0.169 HD
BRANCH  28  31
HETATM   31  C11 UNL     1     -39.128   3.477  -8.048  1.00  0.00     0.279 C 
BRANCH  31  32
HETATM   32  N6  UNL     1     -38.478   3.438  -9.343  1.00  0.00    -0.066 N 
ATOM     33  H63 UNL     1     -38.745   2.605  -9.868  1.00  0.00     0.275 HD
ATOM     34  H62 UNL     1     -38.854   4.149  -9.970  1.00  0.00     0.275 HD
ATOM     35  H61 UNL     1     -37.464   3.514  -9.261  1.00  0.00     0.275 HD
ENDBRANCH  31  32
BRANCH  31  36
HETATM   36  C12 UNL     1     -38.218   4.180  -7.086  1.00  0.00     0.081 C 
BRANCH  36  37
HETATM   37  C13 UNL     1     -38.865   4.757  -5.919  1.00  0.00    -0.056 A 
HETATM   38  C14 UNL     1     -39.997   5.519  -6.066  1.00  0.00     0.010 A 
HETATM   39  C15 UNL     1     -40.681   6.081  -5.013  1.00  0.00     0.037 A 
HETATM   40  C16 UNL     1     -40.221   5.880  -3.701  1.00  0.00     0.069 A 
HETATM   41  C23 UNL     1     -39.085   5.118  -3.542  1.00  0.00     0.037 A 
HETATM   42  C24 UNL     1     -38.410   4.560  -4.622  1.00  0.00     0.010 A 
BRANCH  40  43
HETATM   43  O3  UNL     1     -40.923   6.448  -2.675  1.00  0.00    -0.347 OA
BRANCH  43  44
HETATM   44  C17 UNL     1     -41.567   7.682  -2.669  1.00  0.00     0.214 C 
BRANCH  44  45
HETATM   45  C18 UNL     1     -43.007   7.568  -2.347  1.00  0.00    -0.032 A 
HETATM   46  C19 UNL     1     -43.809   6.667  -3.009  1.00  0.00     0.026 A 
HETATM   47  C20 UNL     1     -45.156   6.543  -2.722  1.00  0.00     0.088 A 
HETATM   48  N7  UNL     1     -45.686   7.322  -1.774  1.00  0.00    -0.375 N 
HETATM   49  C21 UNL     1     -44.929   8.209  -1.109  1.00  0.00     0.088 A 
ATOM     50  H7  UNL     1     -46.678   7.241  -1.553  1.00  0.00     0.164 HD
HETATM   51  C22 UNL     1     -43.576   8.357  -1.375  1.00  0.00     0.026 A 
ENDBRANCH  44  45
ENDBRANCH  43  44
ENDBRANCH  40  43
ENDBRANCH  36  37
ENDBRANCH  31  36
ENDBRANCH  28  31
ENDBRANCH   1  27
TORSDOF 16
ENDMDL
MODEL 3
REMARK VINA RESULT: -7.203144896      5.163      9.423
REMARK  16 active torsions:
REMARK  status: ('A' for Active; 'I' for Inactive)
REMARK    1  A    between atoms: C2_3  and  C3_4 
REMARK    2  A    between atoms: C3_4  and  O1_5 
REMARK    3  A    between atoms: C3_4  and  C4_7 
REMARK    4  A    between atoms: C4_7  and  N2_8 
REMARK    5  A    between atoms: N2_8  and  C5_10 
REMARK    6  A    between atoms: C5_10  and  C6_11 
REMARK    7  A    between atoms: N4_16  and  C9_17 
REMARK    8  A    between atoms: C9_17  and  N5_18 
REMARK       I    between atoms: N5_18  and  C10_20 
REMARK    9  A    between atoms: C10_20  and  C11_22 
REMARK   10  A    between atoms: C11_22  and  N6_23 
REMARK   11  A    between atoms: C11_22  and  C12_27 
REMARK   12  A    between atoms: C12_27  and  C13_28 
REMARK   13  A    between atoms: C16_31  and  O3_32 
REMARK   14  A    between atoms: O3_32  and  C17_33 
REMARK   15  A    between atoms: C17_33  and  C18_34 
REMARK   16  A    between atoms: C26_49  and  O5_50 
ROOT
HETATM    1  C9  UNL     1     -38.032   0.627  -6.448  1.00  0.00     0.187 C 
ENDROOT
BRANCH   1   2
HETATM    2  N4  UNL     1     -36.993  -0.281  -6.084  1.00  0.00    -0.331 N 
HETATM    3  C6  UNL     1     -37.037  -1.686  -6.472  1.00  0.00     0.126 C 
HETATM    4  C7  UNL     1     -36.278  -2.343  -5.349  1.00  0.00     0.147 C 
HETATM    5  N3  UNL     1     -35.373  -1.276  -4.933  1.00  0.00    -0.384 N 
HETATM    6  C8  UNL     1     -35.786  -0.128  -5.351  1.00  0.00     0.179 C 
ATOM      7  H3  UNL     1     -34.525  -1.419  -4.384  1.00  0.00     0.160 HD
BRANCH   3   8
HETATM    8  C5  UNL     1     -36.327  -1.855  -7.771  1.00  0.00     0.141 C 
BRANCH   8   9
HETATM    9  N2  UNL     1     -37.202  -2.217  -8.845  1.00  0.00    -0.416 N 
ATOM     10  H2  UNL     1     -37.936  -2.919  -8.743  1.00  0.00     0.153 HD
BRANCH   9  11
HETATM   11  C4  UNL     1     -36.969  -1.517 -10.074  1.00  0.00     0.152 C 
BRANCH  11  12
HETATM   12  C3  UNL     1     -37.402  -0.055  -9.971  1.00  0.00     0.187 C 
BRANCH  12  13
HETATM   13  C2  UNL     1     -36.260   0.828 -10.357  1.00  0.00     0.072 A 
HETATM   14  C1  UNL     1     -36.290   2.196 -10.224  1.00  0.00     0.122 A 
HETATM   15  N1  UNL     1     -37.436   2.826  -9.695  1.00  0.00    -0.096 NA
HETATM   16  C26 UNL     1     -35.218   2.970 -10.598  1.00  0.00     0.170 A 
HETATM   17  N9  UNL     1     -34.131   2.374 -11.099  1.00  0.00    -0.287 N 
HETATM   18  C25 UNL     1     -34.106   1.020 -11.229  1.00  0.00     0.326 A 
ATOM     19  H9  UNL     1     -33.326   2.931 -11.383  1.00  0.00     0.172 HD
HETATM   20  N8  UNL     1     -35.151   0.264 -10.864  1.00  0.00    -0.308 N 
HETATM   21  O4  UNL     1     -33.096   0.438 -11.697  1.00  0.00    -0.247 OA
ATOM     22  H8  UNL     1     -35.105  -0.749 -10.974  1.00  0.00     0.170 HD
BRANCH  16  23
HETATM   23  O5  UNL     1     -35.266   4.333 -10.457  1.00  0.00    -0.345 OA
ATOM     24  H5  UNL     1     -34.591   4.790  -9.968  1.00  0.00     0.219 HD
ENDBRANCH  16  23
ENDBRANCH  12  13
BRANCH  12  25
HETATM   25  O1  UNL     1     -38.391   0.130 -10.919  1.00  0.00    -0.388 OA
ATOM     26  H1  UNL     1     -39.190   0.333 -10.448  1.00  0.00     0.210 HD
ENDBRANCH  12  25
ENDBRANCH  11  12
ENDBRANCH   9  11
ENDBRANCH   8   9
ENDBRANCH   3   8
ENDBRANCH   1   2
BRANCH   1  27
HETATM   27  N5  UNL     1     -37.667   1.965  -6.730  1.00  0.00    -0.321 N 
HETATM   28  C10 UNL     1     -37.638   3.035  -5.831  1.00  0.00     0.253 C 
HETATM   29  O2  UNL     1     -37.933   2.887  -4.637  1.00  0.00    -0.271 OA
ATOM     30  H5  UNL     1     -37.396   2.171  -7.692  1.00  0.00     0.169 HD
BRANCH  28  31
HETATM   31  C11 UNL     1     -37.248   4.401  -6.319  1.00  0.00     0.279 C 
BRANCH  31  32
HETATM   32  N6  UNL     1     -38.035   4.809  -7.465  1.00  0.00    -0.066 N 
ATOM     33  H63 UNL     1     -38.704   4.087  -7.733  1.00  0.00     0.275 HD
ATOM     34  H62 UNL     1     -38.691   5.551  -7.221  1.00  0.00     0.275 HD
ATOM     35  H61 UNL     1     -37.446   5.079  -8.253  1.00  0.00     0.275 HD
ENDBRANCH  31  32
BRANCH  31  36
HETATM   36  C12 UNL     1     -35.812   4.319  -6.740  1.00  0.00     0.081 C 
BRANCH  36  37
HETATM   37  C13 UNL     1     -34.993   5.472  -6.403  1.00  0.00    -0.056 A 
HETATM   38  C14 UNL     1     -35.105   6.058  -5.167  1.00  0.00     0.010 A 
HETATM   39  C15 UNL     1     -34.351   7.136  -4.762  1.00  0.00     0.037 A 
HETATM   40  C16 UNL     1     -33.407   7.690  -5.641  1.00  0.00     0.069 A 
HETATM   41  C23 UNL     1     -33.287   7.111  -6.885  1.00  0.00     0.037 A 
HETATM   42  C24 UNL     1     -34.060   6.022  -7.272  1.00  0.00     0.010 A 
BRANCH  40  43
HETATM   43  O3  UNL     1     -32.671   8.760  -5.210  1.00  0.00    -0.347 OA
BRANCH  43  44
HETATM   44  C17 UNL     1     -32.806   9.454  -4.012  1.00  0.00     0.214 C 
BRANCH  44  45
HETATM   45  C18 UNL     1     -31.656   9.247  -3.105  1.00  0.00    -0.032 A 
HETATM   46  C19 UNL     1     -31.724   9.619  -1.782  1.00  0.00     0.026 A 
HETATM   47  C20 UNL     1     -30.662   9.433  -0.916  1.00  0.00     0.088 A 
HETATM   48  N7  UNL     1     -29.541   8.875  -1.386  1.00  0.00    -0.375 N 
HETATM   49  C21 UNL     1     -29.444   8.501  -2.670  1.00  0.00     0.088 A 
ATOM     50  H7  UNL     1     -28.749   8.733  -0.758  1.00  0.00     0.164 HD
HETATM   51  C22 UNL     1     -30.492   8.675  -3.562  1.00  0.00     0.026 A 
ENDBRANCH  44  45
ENDBRANCH  43  44
ENDBRANCH  40  43
ENDBRANCH  36  37
ENDBRANCH  31  36
ENDBRANCH  28  31
ENDBRANCH   1  27
TORSDOF 16
ENDMDL
MODEL 4
REMARK VINA RESULT: -7.140841080      1.667      2.166
REMARK  16 active torsions:
REMARK  status: ('A' for Active; 'I' for Inactive)
REMARK    1  A    between atoms: C2_3  and  C3_4 
REMARK    2  A    between atoms: C3_4  and  O1_5 
REMARK    3  A    between atoms: C3_4  and  C4_7 
REMARK    4  A    between atoms: C4_7  and  N2_8 
REMARK    5  A    between atoms: N2_8  and  C5_10 
REMARK    6  A    between atoms: C5_10  and  C6_11 
REMARK    7  A    between atoms: N4_16  and  C9_17 
REMARK    8  A    between atoms: C9_17  and  N5_18 
REMARK       I    between atoms: N5_18  and  C10_20 
REMARK    9  A    between atoms: C10_20  and  C11_22 
REMARK   10  A    between atoms: C11_22  and  N6_23 
REMARK   11  A    between atoms: C11_22  and  C12_27 
REMARK   12  A    between atoms: C12_27  and  C13_28 
REMARK   13  A    between atoms: C16_31  and  O3_32 
REMARK   14  A    between atoms: O3_32  and  C17_33 
REMARK   15  A    between atoms: C17_33  and  C18_34 
REMARK   16  A    between atoms: C26_49  and  O5_50 
ROOT
HETATM    1  C9  UNL     1     -36.237  -1.726  -8.471  1.00  0.00     0.187 C 
ENDROOT
BRANCH   1   2
HETATM    2  N4  UNL     1     -36.167  -1.513  -7.061  1.00  0.00    -0.331 N 
HETATM    3  C6  UNL     1     -36.383  -0.193  -6.479  1.00  0.00     0.126 C 
HETATM    4  C7  UNL     1     -35.531  -0.258  -5.238  1.00  0.00     0.147 C 
HETATM    5  N3  UNL     1     -35.553  -1.686  -4.932  1.00  0.00    -0.384 N 
HETATM    6  C8  UNL     1     -35.910  -2.375  -5.963  1.00  0.00     0.179 C 
ATOM      7  H3  UNL     1     -35.316  -2.086  -4.024  1.00  0.00     0.160 HD
BRANCH   3   8
HETATM    8  C5  UNL     1     -37.824  -0.044  -6.133  1.00  0.00     0.141 C 
BRANCH   8   9
HETATM    9  N2  UNL     1     -38.549   0.744  -7.085  1.00  0.00    -0.416 N 
ATOM     10  H2  UNL     1     -39.362   0.388  -7.587  1.00  0.00     0.153 HD
BRANCH   9  11
HETATM   11  C4  UNL     1     -38.043   2.072  -7.276  1.00  0.00     0.152 C 
BRANCH  11  12
HETATM   12  C3  UNL     1     -39.156   3.036  -7.684  1.00  0.00     0.187 C 
BRANCH  12  13
HETATM   13  C2  UNL     1     -39.480   3.934  -6.534  1.00  0.00     0.072 A 
HETATM   14  C1  UNL     1     -40.683   4.585  -6.405  1.00  0.00     0.122 A 
HETATM   15  N1  UNL     1     -41.684   4.415  -7.385  1.00  0.00    -0.096 NA
HETATM   16  C26 UNL     1     -40.936   5.406  -5.333  1.00  0.00     0.170 A 
HETATM   17  N9  UNL     1     -39.989   5.569  -4.403  1.00  0.00    -0.287 N 
HETATM   18  C25 UNL     1     -38.799   4.921  -4.535  1.00  0.00     0.326 A 
ATOM     19  H9  UNL     1     -40.157   6.174  -3.601  1.00  0.00     0.172 HD
HETATM   20  N8  UNL     1     -38.552   4.121  -5.581  1.00  0.00    -0.308 N 
HETATM   21  O4  UNL     1     -37.895   5.059  -3.674  1.00  0.00    -0.247 OA
ATOM     22  H8  UNL     1     -37.651   3.649  -5.654  1.00  0.00     0.170 HD
BRANCH  16  23
HETATM   23  O5  UNL     1     -42.143   6.047  -5.221  1.00  0.00    -0.345 OA
ATOM     24  H5  UNL     1     -42.177   6.982  -5.053  1.00  0.00     0.219 HD
ENDBRANCH  16  23
ENDBRANCH  12  13
BRANCH  12  25
HETATM   25  O1  UNL     1     -38.636   3.838  -8.684  1.00  0.00    -0.388 OA
ATOM     26  H1  UNL     1     -39.363   4.092  -9.240  1.00  0.00     0.210 HD
ENDBRANCH  12  25
ENDBRANCH  11  12
ENDBRANCH   9  11
ENDBRANCH   8   9
ENDBRANCH   3   8
ENDBRANCH   1   2
BRANCH   1  27
HETATM   27  N5  UNL     1     -35.866  -0.654  -9.318  1.00  0.00    -0.321 N 
HETATM   28  C10 UNL     1     -36.719   0.144 -10.085  1.00  0.00     0.253 C 
HETATM   29  O2  UNL     1     -37.946  -0.021 -10.074  1.00  0.00    -0.271 OA
ATOM     30  H5  UNL     1     -34.870  -0.442  -9.374  1.00  0.00     0.169 HD
BRANCH  28  31
HETATM   31  C11 UNL     1     -36.139   1.226 -10.951  1.00  0.00     0.279 C 
BRANCH  31  32
HETATM   32  N6  UNL     1     -36.903   2.455 -10.863  1.00  0.00    -0.066 N 
ATOM     33  H63 UNL     1     -36.361   3.254 -11.189  1.00  0.00     0.275 HD
ATOM     34  H62 UNL     1     -37.652   2.477 -11.555  1.00  0.00     0.275 HD
ATOM     35  H61 UNL     1     -37.263   2.610  -9.921  1.00  0.00     0.275 HD
ENDBRANCH  31  32
BRANCH  31  36
HETATM   36  C12 UNL     1     -36.204   0.733 -12.365  1.00  0.00     0.081 C 
BRANCH  36  37
HETATM   37  C13 UNL     1     -34.967   0.180 -12.894  1.00  0.00    -0.056 A 
HETATM   38  C14 UNL     1     -34.882  -1.157 -13.189  1.00  0.00     0.010 A 
HETATM   39  C15 UNL     1     -33.757  -1.753 -13.713  1.00  0.00     0.037 A 
HETATM   40  C16 UNL     1     -32.617  -0.975 -13.971  1.00  0.00     0.069 A 
HETATM   41  C23 UNL     1     -32.691   0.368 -13.677  1.00  0.00     0.037 A 
HETATM   42  C24 UNL     1     -33.839   0.949 -13.148  1.00  0.00     0.010 A 
BRANCH  40  43
HETATM   43  O3  UNL     1     -31.516  -1.595 -14.494  1.00  0.00    -0.347 OA
BRANCH  43  44
HETATM   44  C17 UNL     1     -30.194  -1.470 -14.075  1.00  0.00     0.214 C 
BRANCH  44  45
HETATM   45  C18 UNL     1     -29.788  -2.550 -13.150  1.00  0.00    -0.032 A 
HETATM   46  C19 UNL     1     -29.454  -2.273 -11.844  1.00  0.00     0.026 A 
HETATM   47  C20 UNL     1     -29.074  -3.267 -10.962  1.00  0.00     0.088 A 
HETATM   48  N7  UNL     1     -29.033  -4.531 -11.397  1.00  0.00    -0.375 N 
HETATM   49  C21 UNL     1     -29.355  -4.833 -12.664  1.00  0.00     0.088 A 
ATOM     50  H7  UNL     1     -28.754  -5.274 -10.757  1.00  0.00     0.164 HD
HETATM   51  C22 UNL     1     -29.739  -3.858 -13.572  1.00  0.00     0.026 A 
ENDBRANCH  44  45
ENDBRANCH  43  44
ENDBRANCH  40  43
ENDBRANCH  36  37
ENDBRANCH  31  36
ENDBRANCH  28  31
ENDBRANCH   1  27
TORSDOF 16
ENDMDL
MODEL 5
REMARK VINA RESULT: -7.135521414      2.055      2.909
REMARK  16 active torsions:
REMARK  status: ('A' for Active; 'I' for Inactive)
REMARK    1  A    between atoms: C2_3  and  C3_4 
REMARK    2  A    between atoms: C3_4  and  O1_5 
REMARK    3  A    between atoms: C3_4  and  C4_7 
REMARK    4  A    between atoms: C4_7  and  N2_8 
REMARK    5  A    between atoms: N2_8  and  C5_10 
REMARK    6  A    between atoms: C5_10  and  C6_11 
REMARK    7  A    between atoms: N4_16  and  C9_17 
REMARK    8  A    between atoms: C9_17  and  N5_18 
REMARK       I    between atoms: N5_18  and  C10_20 
REMARK    9  A    between atoms: C10_20  and  C11_22 
REMARK   10  A    between atoms: C11_22  and  N6_23 
REMARK   11  A    between atoms: C11_22  and  C12_27 
REMARK   12  A    between atoms: C12_27  and  C13_28 
REMARK   13  A    between atoms: C16_31  and  O3_32 
REMARK   14  A    between atoms: O3_32  and  C17_33 
REMARK   15  A    between atoms: C17_33  and  C18_34 
REMARK   16  A    between atoms: C26_49  and  O5_50 
ROOT
HETATM    1  C9  UNL     1     -36.348  -1.742  -8.440  1.00  0.00     0.187 C 
ENDROOT
BRANCH   1   2
HETATM    2  N4  UNL     1     -36.244  -1.477  -7.042  1.00  0.00    -0.331 N 
HETATM    3  C6  UNL     1     -36.390  -0.128  -6.508  1.00  0.00     0.126 C 
HETATM    4  C7  UNL     1     -35.521  -0.184  -5.279  1.00  0.00     0.147 C 
HETATM    5  N3  UNL     1     -35.602  -1.596  -4.917  1.00  0.00    -0.384 N 
HETATM    6  C8  UNL     1     -36.008  -2.307  -5.914  1.00  0.00     0.179 C 
ATOM      7  H3  UNL     1     -35.368  -1.971  -3.998  1.00  0.00     0.160 HD
BRANCH   3   8
HETATM    8  C5  UNL     1     -37.818   0.100  -6.146  1.00  0.00     0.141 C 
BRANCH   8   9
HETATM    9  N2  UNL     1     -38.511   0.918  -7.096  1.00  0.00    -0.416 N 
ATOM     10  H2  UNL     1     -39.381   0.625  -7.542  1.00  0.00     0.153 HD
BRANCH   9  11
HETATM   11  C4  UNL     1     -37.889   2.180  -7.372  1.00  0.00     0.152 C 
BRANCH  11  12
HETATM   12  C3  UNL     1     -38.011   3.130  -6.181  1.00  0.00     0.187 C 
BRANCH  12  13
HETATM   13  C2  UNL     1     -36.854   4.075  -6.180  1.00  0.00     0.072 A 
HETATM   14  C1  UNL     1     -36.668   5.035  -5.214  1.00  0.00     0.122 A 
HETATM   15  N1  UNL     1     -37.595   5.156  -4.156  1.00  0.00    -0.096 NA
HETATM   16  C26 UNL     1     -35.591   5.887  -5.255  1.00  0.00     0.170 A 
HETATM   17  N9  UNL     1     -34.713   5.773  -6.257  1.00  0.00    -0.287 N 
HETATM   18  C25 UNL     1     -34.900   4.821  -7.211  1.00  0.00     0.326 A 
ATOM     19  H9  UNL     1     -33.908   6.396  -6.306  1.00  0.00     0.172 HD
HETATM   20  N8  UNL     1     -35.951   3.990  -7.171  1.00  0.00    -0.308 N 
HETATM   21  O4  UNL     1     -34.088   4.695  -8.161  1.00  0.00    -0.247 OA
ATOM     22  H8  UNL     1     -36.066   3.286  -7.900  1.00  0.00     0.170 HD
BRANCH  16  23
HETATM   23  O5  UNL     1     -35.423   6.838  -4.282  1.00  0.00    -0.345 OA
ATOM     24  H5  UNL     1     -35.460   7.762  -4.502  1.00  0.00     0.219 HD
ENDBRANCH  16  23
ENDBRANCH  12  13
BRANCH  12  25
HETATM   25  O1  UNL     1     -39.148   3.888  -6.398  1.00  0.00    -0.388 OA
ATOM     26  H1  UNL     1     -39.889   3.354  -6.139  1.00  0.00     0.210 HD
ENDBRANCH  12  25
ENDBRANCH  11  12
ENDBRANCH   9  11
ENDBRANCH   8   9
ENDBRANCH   3   8
ENDBRANCH   1   2
BRANCH   1  27
HETATM   27  N5  UNL     1     -35.868  -0.754  -9.334  1.00  0.00    -0.321 N 
HETATM   28  C10 UNL     1     -36.634   0.102 -10.130  1.00  0.00     0.253 C 
HETATM   29  O2  UNL     1     -37.871   0.075 -10.106  1.00  0.00    -0.271 OA
ATOM     30  H5  UNL     1     -34.855  -0.657  -9.404  1.00  0.00     0.169 HD
BRANCH  28  31
HETATM   31  C11 UNL     1     -35.945   1.075 -11.045  1.00  0.00     0.279 C 
BRANCH  31  32
HETATM   32  N6  UNL     1     -36.533   2.398 -10.964  1.00  0.00    -0.066 N 
ATOM     33  H63 UNL     1     -35.902   3.108 -11.336  1.00  0.00     0.275 HD
ATOM     34  H62 UNL     1     -37.301   2.504 -11.626  1.00  0.00     0.275 HD
ATOM     35  H61 UNL     1     -36.827   2.624 -10.014  1.00  0.00     0.275 HD
ENDBRANCH  31  32
BRANCH  31  36
HETATM   36  C12 UNL     1     -36.128   0.564 -12.442  1.00  0.00     0.081 C 
BRANCH  36  37
HETATM   37  C13 UNL     1     -34.948  -0.028 -13.052  1.00  0.00    -0.056 A 
HETATM   38  C14 UNL     1     -33.696   0.375 -12.660  1.00  0.00     0.010 A 
HETATM   39  C15 UNL     1     -32.531  -0.151 -13.170  1.00  0.00     0.037 A 
HETATM   40  C16 UNL     1     -32.595  -1.158 -14.147  1.00  0.00     0.069 A 
HETATM   41  C23 UNL     1     -33.846  -1.569 -14.549  1.00  0.00     0.037 A 
HETATM   42  C24 UNL     1     -35.010  -1.022 -14.019  1.00  0.00     0.010 A 
BRANCH  40  43
HETATM   43  O3  UNL     1     -31.420  -1.663 -14.634  1.00  0.00    -0.347 OA
BRANCH  43  44
HETATM   44  C17 UNL     1     -30.139  -1.471 -14.124  1.00  0.00     0.214 C 
BRANCH  44  45
HETATM   45  C18 UNL     1     -29.733  -2.547 -13.194  1.00  0.00    -0.032 A 
HETATM   46  C19 UNL     1     -29.496  -2.279 -11.865  1.00  0.00     0.026 A 
HETATM   47  C20 UNL     1     -29.117  -3.270 -10.978  1.00  0.00     0.088 A 
HETATM   48  N7  UNL     1     -28.980  -4.520 -11.431  1.00  0.00    -0.375 N 
HETATM   49  C21 UNL     1     -29.206  -4.813 -12.721  1.00  0.00     0.088 A 
ATOM     50  H7  UNL     1     -28.700  -5.260 -10.788  1.00  0.00     0.164 HD
HETATM   51  C22 UNL     1     -29.586  -3.841 -13.634  1.00  0.00     0.026 A 
ENDBRANCH  44  45
ENDBRANCH  43  44
ENDBRANCH  40  43
ENDBRANCH  36  37
ENDBRANCH  31  36
ENDBRANCH  28  31
ENDBRANCH   1  27
TORSDOF 16
ENDMDL
