MODEL 1
REMARK VINA RESULT: -6.004944279      0.000      0.000
REMARK  12 active torsions:
REMARK  status: ('A' for Active; 'I' for Inactive)
REMARK    1  A    between atoms: C2_2  and  O1_3 
REMARK    2  A    between atoms: O1_3  and  C3_4 
REMARK    3  A    between atoms: C3_4  and  N1_5 
REMARK    4  A    between atoms: C3_4  and  C8_15 
REMARK    5  A    between atoms: N1_5  and  N2_6 
REMARK    6  A    between atoms: N2_6  and  C5_8 
REMARK    7  A    between atoms: C8_15  and  O2_16 
REMARK    8  A    between atoms: C8_15  and  C9_18 
REMARK    9  A    between atoms: C8_15  and  C18_30 
REMARK   10  A    between atoms: C11_20  and  O3_21 
REMARK   11  A    between atoms: C13_23  and  O4_24 
REMARK   12  A    between atoms: C15_26  and  O5_27 
ROOT
HETATM    1  C8  UNL     1     -27.349  -9.830  73.967  1.00  0.00     0.264 C 
ENDROOT
BRANCH   1   2
HETATM    2  C3  UNL     1     -27.974  -8.663  73.222  1.00  0.00     0.266 C 
BRANCH   2   3
HETATM    3  O1  UNL     1     -28.188  -8.857  71.863  1.00  0.00    -0.325 OA
BRANCH   3   4
HETATM    4  C2  UNL     1     -27.242  -8.686  70.851  1.00  0.00     0.173 C 
HETATM    5  C1  UNL     1     -27.566  -9.588  69.704  1.00  0.00     0.034 C 
ENDBRANCH   3   4
ENDBRANCH   2   3
BRANCH   2   6
HETATM    6  N1  UNL     1     -28.292  -7.613  73.689  1.00  0.00    -0.296 NA
BRANCH   6   7
HETATM    7  N2  UNL     1     -28.673  -6.488  74.189  1.00  0.00    -0.198 N 
HETATM    8  C4  UNL     1     -29.999  -5.912  73.899  1.00  0.00     0.197 C 
BRANCH   7   9
HETATM    9  C5  UNL     1     -27.879  -5.663  75.074  1.00  0.00     0.202 A 
HETATM   10  N3  UNL     1     -26.667  -5.915  75.392  1.00  0.00    -0.359 N 
HETATM   11  C6  UNL     1     -26.141  -4.907  76.293  1.00  0.00     0.142 A 
ATOM     12  H3  UNL     1     -26.139  -6.721  75.057  1.00  0.00     0.162 HD
HETATM   13  C7  UNL     1     -27.248  -3.932  76.536  1.00  0.00     0.142 A 
HETATM   14  N4  UNL     1     -28.322  -4.472  75.706  1.00  0.00    -0.359 N 
ATOM     15  H4  UNL     1     -29.247  -4.058  75.598  1.00  0.00     0.162 HD
ENDBRANCH   7   9
ENDBRANCH   6   7
ENDBRANCH   2   6
ENDBRANCH   1   2
BRANCH   1  16
HETATM   16  O2  UNL     1     -26.071 -10.088  73.360  1.00  0.00    -0.368 OA
ATOM     17  H2  UNL     1     -26.033 -11.017  73.167  1.00  0.00     0.212 HD
ENDBRANCH   1  16
BRANCH   1  18
HETATM   18  C9  UNL     1     -27.009  -9.506  75.355  1.00  0.00    -0.000 A 
HETATM   19  C10 UNL     1     -25.701  -9.359  75.732  1.00  0.00     0.050 A 
HETATM   20  C11 UNL     1     -25.308  -9.009  77.035  1.00  0.00     0.104 A 
HETATM   21  C13 UNL     1     -26.297  -8.808  77.963  1.00  0.00     0.135 A 
HETATM   22  C15 UNL     1     -27.637  -8.958  77.580  1.00  0.00     0.104 A 
HETATM   23  C17 UNL     1     -27.996  -9.302  76.294  1.00  0.00     0.050 A 
BRANCH  20  24
HETATM   24  O3  UNL     1     -23.978  -8.863  77.400  1.00  0.00    -0.353 OA
HETATM   25  C12 UNL     1     -23.354  -7.643  77.648  1.00  0.00     0.210 C 
ENDBRANCH  20  24
BRANCH  21  26
HETATM   26  O4  UNL     1     -26.050  -8.464  79.266  1.00  0.00    -0.351 OA
HETATM   27  C14 UNL     1     -25.765  -9.367  80.300  1.00  0.00     0.210 C 
ENDBRANCH  21  26
BRANCH  22  28
HETATM   28  O5  UNL     1     -28.646  -8.759  78.507  1.00  0.00    -0.353 OA
HETATM   29  C16 UNL     1     -29.531  -7.688  78.356  1.00  0.00     0.210 C 
ENDBRANCH  22  28
ENDBRANCH   1  18
BRANCH   1  30
HETATM   30  C18 UNL     1     -28.111 -11.086  73.724  1.00  0.00     0.431 C 
HETATM   31  F1  UNL     1     -28.062 -12.008  74.746  1.00  0.00    -0.167 F 
HETATM   32  F2  UNL     1     -27.554 -11.767  72.626  1.00  0.00    -0.167 F 
HETATM   33  F3  UNL     1     -29.474 -10.868  73.477  1.00  0.00    -0.167 F 
ENDBRANCH   1  30
TORSDOF 12
ENDMDL
MODEL 2
REMARK VINA RESULT: -5.965941667      1.719      2.098
REMARK  12 active torsions:
REMARK  status: ('A' for Active; 'I' for Inactive)
REMARK    1  A    between atoms: C2_2  and  O1_3 
REMARK    2  A    between atoms: O1_3  and  C3_4 
REMARK    3  A    between atoms: C3_4  and  N1_5 
REMARK    4  A    between atoms: C3_4  and  C8_15 
REMARK    5  A    between atoms: N1_5  and  N2_6 
REMARK    6  A    between atoms: N2_6  and  C5_8 
REMARK    7  A    between atoms: C8_15  and  O2_16 
REMARK    8  A    between atoms: C8_15  and  C9_18 
REMARK    9  A    between atoms: C8_15  and  C18_30 
REMARK   10  A    between atoms: C11_20  and  O3_21 
REMARK   11  A    between atoms: C13_23  and  O4_24 
REMARK   12  A    between atoms: C15_26  and  O5_27 
ROOT
HETATM    1  C8  UNL     1     -26.627  -8.696  75.073  1.00  0.00     0.264 C 
ENDROOT
BRANCH   1   2
HETATM    2  C3  UNL     1     -27.929  -7.936  74.887  1.00  0.00     0.266 C 
BRANCH   2   3
HETATM    3  O1  UNL     1     -29.031  -8.703  74.530  1.00  0.00    -0.325 OA
BRANCH   3   4
HETATM    4  C2  UNL     1     -29.971  -8.382  73.548  1.00  0.00     0.173 C 
HETATM    5  C1  UNL     1     -29.800  -9.291  72.374  1.00  0.00     0.034 C 
ENDBRANCH   3   4
ENDBRANCH   2   3
BRANCH   2   6
HETATM    6  N1  UNL     1     -28.090  -6.762  75.016  1.00  0.00    -0.296 NA
BRANCH   6   7
HETATM    7  N2  UNL     1     -28.234  -5.492  75.179  1.00  0.00    -0.198 N 
HETATM    8  C4  UNL     1     -29.417  -4.769  74.677  1.00  0.00     0.197 C 
BRANCH   7   9
HETATM    9  C5  UNL     1     -27.289  -4.630  75.855  1.00  0.00     0.202 A 
HETATM   10  N3  UNL     1     -27.590  -3.493  76.356  1.00  0.00    -0.359 N 
HETATM   11  C6  UNL     1     -26.432  -2.866  76.966  1.00  0.00     0.142 A 
ATOM     12  H3  UNL     1     -28.522  -3.081  76.331  1.00  0.00     0.162 HD
HETATM   13  C7  UNL     1     -25.282  -3.798  76.758  1.00  0.00     0.142 A 
HETATM   14  N4  UNL     1     -25.914  -4.914  76.057  1.00  0.00    -0.359 N 
ATOM     15  H4  UNL     1     -25.439  -5.765  75.758  1.00  0.00     0.162 HD
ENDBRANCH   7   9
ENDBRANCH   6   7
ENDBRANCH   2   6
ENDBRANCH   1   2
BRANCH   1  16
HETATM   16  O2  UNL     1     -25.570  -7.858  74.578  1.00  0.00    -0.368 OA
ATOM     17  H2  UNL     1     -24.987  -7.679  75.307  1.00  0.00     0.212 HD
ENDBRANCH   1  16
BRANCH   1  18
HETATM   18  C9  UNL     1     -26.277  -8.893  76.483  1.00  0.00    -0.000 A 
HETATM   19  C10 UNL     1     -24.999  -8.665  76.918  1.00  0.00     0.050 A 
HETATM   20  C11 UNL     1     -24.606  -8.793  78.260  1.00  0.00     0.104 A 
HETATM   21  C13 UNL     1     -25.563  -9.167  79.168  1.00  0.00     0.135 A 
HETATM   22  C15 UNL     1     -26.873  -9.401  78.727  1.00  0.00     0.104 A 
HETATM   23  C17 UNL     1     -27.233  -9.267  77.402  1.00  0.00     0.050 A 
BRANCH  20  24
HETATM   24  O3  UNL     1     -23.306  -8.557  78.684  1.00  0.00    -0.353 OA
HETATM   25  C12 UNL     1     -22.263  -8.156  77.854  1.00  0.00     0.210 C 
ENDBRANCH  20  24
BRANCH  21  26
HETATM   26  O4  UNL     1     -25.313  -9.328  80.506  1.00  0.00    -0.351 OA
HETATM   27  C14 UNL     1     -25.352  -8.304  81.464  1.00  0.00     0.210 C 
ENDBRANCH  21  26
BRANCH  22  28
HETATM   28  O5  UNL     1     -27.849  -9.779  79.631  1.00  0.00    -0.353 OA
HETATM   29  C16 UNL     1     -29.085  -9.127  79.639  1.00  0.00     0.210 C 
ENDBRANCH  22  28
ENDBRANCH   1  18
BRANCH   1  30
HETATM   30  C18 UNL     1     -26.574  -9.888  74.183  1.00  0.00     0.431 C 
HETATM   31  F1  UNL     1     -25.382 -10.578  74.197  1.00  0.00    -0.167 F 
HETATM   32  F2  UNL     1     -26.713  -9.479  72.844  1.00  0.00    -0.167 F 
HETATM   33  F3  UNL     1     -27.564 -10.839  74.470  1.00  0.00    -0.167 F 
ENDBRANCH   1  30
TORSDOF 12
ENDMDL
MODEL 3
REMARK VINA RESULT: -5.898815240      1.755      3.105
REMARK  12 active torsions:
REMARK  status: ('A' for Active; 'I' for Inactive)
REMARK    1  A    between atoms: C2_2  and  O1_3 
REMARK    2  A    between atoms: O1_3  and  C3_4 
REMARK    3  A    between atoms: C3_4  and  N1_5 
REMARK    4  A    between atoms: C3_4  and  C8_15 
REMARK    5  A    between atoms: N1_5  and  N2_6 
REMARK    6  A    between atoms: N2_6  and  C5_8 
REMARK    7  A    between atoms: C8_15  and  O2_16 
REMARK    8  A    between atoms: C8_15  and  C9_18 
REMARK    9  A    between atoms: C8_15  and  C18_30 
REMARK   10  A    between atoms: C11_20  and  O3_21 
REMARK   11  A    between atoms: C13_23  and  O4_24 
REMARK   12  A    between atoms: C15_26  and  O5_27 
ROOT
HETATM    1  C8  UNL     1     -26.621  -8.650  75.118  1.00  0.00     0.264 C 
ENDROOT
BRANCH   1   2
HETATM    2  C3  UNL     1     -27.925  -7.896  74.928  1.00  0.00     0.266 C 
BRANCH   2   3
HETATM    3  O1  UNL     1     -29.020  -8.665  74.552  1.00  0.00    -0.325 OA
BRANCH   3   4
HETATM    4  C2  UNL     1     -29.951  -8.339  73.564  1.00  0.00     0.173 C 
HETATM    5  C1  UNL     1     -29.804  -9.276  72.409  1.00  0.00     0.034 C 
ENDBRANCH   3   4
ENDBRANCH   2   3
BRANCH   2   6
HETATM    6  N1  UNL     1     -28.095  -6.724  75.070  1.00  0.00    -0.296 NA
BRANCH   6   7
HETATM    7  N2  UNL     1     -28.241  -5.454  75.233  1.00  0.00    -0.198 N 
HETATM    8  C4  UNL     1     -29.436  -4.737  74.752  1.00  0.00     0.197 C 
BRANCH   7   9
HETATM    9  C5  UNL     1     -27.287  -4.587  75.889  1.00  0.00     0.202 A 
HETATM   10  N3  UNL     1     -27.576  -3.436  76.365  1.00  0.00    -0.359 N 
HETATM   11  C6  UNL     1     -26.412  -2.807  76.960  1.00  0.00     0.142 A 
ATOM     12  H3  UNL     1     -28.504  -3.014  76.330  1.00  0.00     0.162 HD
HETATM   13  C7  UNL     1     -25.272  -3.756  76.774  1.00  0.00     0.142 A 
HETATM   14  N4  UNL     1     -25.915  -4.880  76.098  1.00  0.00    -0.359 N 
ATOM     15  H4  UNL     1     -25.449  -5.743  75.819  1.00  0.00     0.162 HD
ENDBRANCH   7   9
ENDBRANCH   6   7
ENDBRANCH   2   6
ENDBRANCH   1   2
BRANCH   1  16
HETATM   16  O2  UNL     1     -25.571  -7.824  74.586  1.00  0.00    -0.368 OA
ATOM     17  H2  UNL     1     -24.746  -8.226  74.831  1.00  0.00     0.212 HD
ENDBRANCH   1  16
BRANCH   1  18
HETATM   18  C9  UNL     1     -26.252  -8.809  76.527  1.00  0.00    -0.000 A 
HETATM   19  C10 UNL     1     -27.184  -9.210  77.446  1.00  0.00     0.050 A 
HETATM   20  C11 UNL     1     -26.889  -9.422  78.803  1.00  0.00     0.104 A 
HETATM   21  C13 UNL     1     -25.597  -9.211  79.211  1.00  0.00     0.135 A 
HETATM   22  C15 UNL     1     -24.640  -8.800  78.273  1.00  0.00     0.104 A 
HETATM   23  C17 UNL     1     -24.956  -8.600  76.946  1.00  0.00     0.050 A 
BRANCH  20  24
HETATM   24  O3  UNL     1     -27.846  -9.830  79.721  1.00  0.00    -0.353 OA
HETATM   25  C12 UNL     1     -29.129  -9.297  79.818  1.00  0.00     0.210 C 
ENDBRANCH  20  24
BRANCH  21  26
HETATM   26  O4  UNL     1     -25.177  -9.381  80.504  1.00  0.00    -0.351 OA
HETATM   27  C14 UNL     1     -25.307  -8.430  81.527  1.00  0.00     0.210 C 
ENDBRANCH  21  26
BRANCH  22  28
HETATM   28  O5  UNL     1     -23.333  -8.583  78.671  1.00  0.00    -0.353 OA
HETATM   29  C16 UNL     1     -22.371  -8.200  77.732  1.00  0.00     0.210 C 
ENDBRANCH  22  28
ENDBRANCH   1  18
BRANCH   1  30
HETATM   30  C18 UNL     1     -26.579  -9.865  74.259  1.00  0.00     0.431 C 
HETATM   31  F1  UNL     1     -25.385 -10.552  74.273  1.00  0.00    -0.167 F 
HETATM   32  F2  UNL     1     -26.738  -9.491  72.911  1.00  0.00    -0.167 F 
HETATM   33  F3  UNL     1     -27.562 -10.809  74.585  1.00  0.00    -0.167 F 
ENDBRANCH   1  30
TORSDOF 12
ENDMDL
MODEL 4
REMARK VINA RESULT: -5.877221290      0.409      2.254
REMARK  12 active torsions:
REMARK  status: ('A' for Active; 'I' for Inactive)
REMARK    1  A    between atoms: C2_2  and  O1_3 
REMARK    2  A    between atoms: O1_3  and  C3_4 
REMARK    3  A    between atoms: C3_4  and  N1_5 
REMARK    4  A    between atoms: C3_4  and  C8_15 
REMARK    5  A    between atoms: N1_5  and  N2_6 
REMARK    6  A    between atoms: N2_6  and  C5_8 
REMARK    7  A    between atoms: C8_15  and  O2_16 
REMARK    8  A    between atoms: C8_15  and  C9_18 
REMARK    9  A    between atoms: C8_15  and  C18_30 
REMARK   10  A    between atoms: C11_20  and  O3_21 
REMARK   11  A    between atoms: C13_23  and  O4_24 
REMARK   12  A    between atoms: C15_26  and  O5_27 
ROOT
HETATM    1  C8  UNL     1     -27.270  -9.853  73.915  1.00  0.00     0.264 C 
ENDROOT
BRANCH   1   2
HETATM    2  C3  UNL     1     -27.923  -8.710  73.157  1.00  0.00     0.266 C 
BRANCH   2   3
HETATM    3  O1  UNL     1     -28.147  -8.931  71.803  1.00  0.00    -0.325 OA
BRANCH   3   4
HETATM    4  C2  UNL     1     -27.220  -8.742  70.776  1.00  0.00     0.173 C 
HETATM    5  C1  UNL     1     -27.498  -9.704  69.667  1.00  0.00     0.034 C 
ENDBRANCH   3   4
ENDBRANCH   2   3
BRANCH   2   6
HETATM    6  N1  UNL     1     -28.255  -7.657  73.608  1.00  0.00    -0.296 NA
BRANCH   6   7
HETATM    7  N2  UNL     1     -28.646  -6.537  74.110  1.00  0.00    -0.198 N 
HETATM    8  C4  UNL     1     -29.964  -5.955  73.794  1.00  0.00     0.197 C 
BRANCH   7   9
HETATM    9  C5  UNL     1     -27.872  -5.722  75.021  1.00  0.00     0.202 A 
HETATM   10  N3  UNL     1     -26.663  -5.972  75.354  1.00  0.00    -0.359 N 
HETATM   11  C6  UNL     1     -26.158  -4.976  76.281  1.00  0.00     0.142 A 
ATOM     12  H3  UNL     1     -26.125  -6.768  75.014  1.00  0.00     0.162 HD
HETATM   13  C7  UNL     1     -27.275  -4.012  76.524  1.00  0.00     0.142 A 
HETATM   14  N4  UNL     1     -28.332  -4.546  75.667  1.00  0.00    -0.359 N 
ATOM     15  H4  UNL     1     -29.259  -4.135  75.552  1.00  0.00     0.162 HD
ENDBRANCH   7   9
ENDBRANCH   6   7
ENDBRANCH   2   6
ENDBRANCH   1   2
BRANCH   1  16
HETATM   16  O2  UNL     1     -25.995 -10.100  73.298  1.00  0.00    -0.368 OA
ATOM     17  H2  UNL     1     -25.502 -10.661  73.884  1.00  0.00     0.212 HD
ENDBRANCH   1  16
BRANCH   1  18
HETATM   18  C9  UNL     1     -26.920  -9.498  75.293  1.00  0.00    -0.000 A 
HETATM   19  C10 UNL     1     -27.900  -9.327  76.235  1.00  0.00     0.050 A 
HETATM   20  C11 UNL     1     -27.633  -9.028  77.581  1.00  0.00     0.104 A 
HETATM   21  C13 UNL     1     -26.320  -8.903  77.954  1.00  0.00     0.135 A 
HETATM   22  C15 UNL     1     -25.314  -9.078  76.993  1.00  0.00     0.104 A 
HETATM   23  C17 UNL     1     -25.603  -9.372  75.677  1.00  0.00     0.050 A 
BRANCH  20  24
HETATM   24  O3  UNL     1     -28.638  -8.859  78.522  1.00  0.00    -0.353 OA
HETATM   25  C12 UNL     1     -29.528  -7.788  78.546  1.00  0.00     0.210 C 
ENDBRANCH  20  24
BRANCH  21  26
HETATM   26  O4  UNL     1     -25.923  -8.614  79.233  1.00  0.00    -0.351 OA
HETATM   27  C14 UNL     1     -25.897  -7.331  79.800  1.00  0.00     0.210 C 
ENDBRANCH  21  26
BRANCH  22  28
HETATM   28  O5  UNL     1     -23.984  -8.955  77.356  1.00  0.00    -0.353 OA
HETATM   29  C16 UNL     1     -23.318  -7.742  77.166  1.00  0.00     0.210 C 
ENDBRANCH  22  28
ENDBRANCH   1  18
BRANCH   1  30
HETATM   30  C18 UNL     1     -28.014 -11.125  73.704  1.00  0.00     0.431 C 
HETATM   31  F1  UNL     1     -27.978 -12.007  74.762  1.00  0.00    -0.167 F 
HETATM   32  F2  UNL     1     -27.424 -11.841  72.646  1.00  0.00    -0.167 F 
HETATM   33  F3  UNL     1     -29.372 -10.932  73.418  1.00  0.00    -0.167 F 
ENDBRANCH   1  30
TORSDOF 12
ENDMDL
MODEL 5
REMARK VINA RESULT: -5.860500533      1.705      2.494
REMARK  12 active torsions:
REMARK  status: ('A' for Active; 'I' for Inactive)
REMARK    1  A    between atoms: C2_2  and  O1_3 
REMARK    2  A    between atoms: O1_3  and  C3_4 
REMARK    3  A    between atoms: C3_4  and  N1_5 
REMARK    4  A    between atoms: C3_4  and  C8_15 
REMARK    5  A    between atoms: N1_5  and  N2_6 
REMARK    6  A    between atoms: N2_6  and  C5_8 
REMARK    7  A    between atoms: C8_15  and  O2_16 
REMARK    8  A    between atoms: C8_15  and  C9_18 
REMARK    9  A    between atoms: C8_15  and  C18_30 
REMARK   10  A    between atoms: C11_20  and  O3_21 
REMARK   11  A    between atoms: C13_23  and  O4_24 
REMARK   12  A    between atoms: C15_26  and  O5_27 
ROOT
HETATM    1  C8  UNL     1     -26.663  -8.739  74.973  1.00  0.00     0.264 C 
ENDROOT
BRANCH   1   2
HETATM    2  C3  UNL     1     -27.995  -8.063  74.695  1.00  0.00     0.266 C 
BRANCH   2   3
HETATM    3  O1  UNL     1     -29.008  -8.891  74.227  1.00  0.00    -0.325 OA
BRANCH   3   4
HETATM    4  C2  UNL     1     -29.810  -8.657  73.108  1.00  0.00     0.173 C 
HETATM    5  C1  UNL     1     -29.480  -9.647  72.038  1.00  0.00     0.034 C 
ENDBRANCH   3   4
ENDBRANCH   2   3
BRANCH   2   6
HETATM    6  N1  UNL     1     -28.247  -6.906  74.837  1.00  0.00    -0.296 NA
BRANCH   6   7
HETATM    7  N2  UNL     1     -28.510  -5.660  75.028  1.00  0.00    -0.198 N 
HETATM    8  C4  UNL     1     -27.680  -4.811  75.903  1.00  0.00     0.197 C 
BRANCH   7   9
HETATM    9  C5  UNL     1     -29.618  -4.945  74.432  1.00  0.00     0.202 A 
HETATM   10  N3  UNL     1     -30.430  -5.458  73.589  1.00  0.00    -0.359 N 
HETATM   11  C6  UNL     1     -31.433  -4.495  73.173  1.00  0.00     0.142 A 
ATOM     12  H3  UNL     1     -30.380  -6.420  73.252  1.00  0.00     0.162 HD
HETATM   13  C7  UNL     1     -31.124  -3.220  73.889  1.00  0.00     0.142 A 
HETATM   14  N4  UNL     1     -29.960  -3.592  74.691  1.00  0.00    -0.359 N 
ATOM     15  H4  UNL     1     -29.469  -2.975  75.337  1.00  0.00     0.162 HD
ENDBRANCH   7   9
ENDBRANCH   6   7
ENDBRANCH   2   6
ENDBRANCH   1   2
BRANCH   1  16
HETATM   16  O2  UNL     1     -25.631  -7.847  74.520  1.00  0.00    -0.368 OA
ATOM     17  H2  UNL     1     -24.807  -8.317  74.581  1.00  0.00     0.212 HD
ENDBRANCH   1  16
BRANCH   1  18
HETATM   18  C9  UNL     1     -26.386  -8.886  76.404  1.00  0.00    -0.000 A 
HETATM   19  C10 UNL     1     -25.122  -8.682  76.890  1.00  0.00     0.050 A 
HETATM   20  C11 UNL     1     -24.796  -8.765  78.253  1.00  0.00     0.104 A 
HETATM   21  C13 UNL     1     -25.806  -9.069  79.129  1.00  0.00     0.135 A 
HETATM   22  C15 UNL     1     -27.101  -9.279  78.636  1.00  0.00     0.104 A 
HETATM   23  C17 UNL     1     -27.395  -9.190  77.292  1.00  0.00     0.050 A 
BRANCH  20  24
HETATM   24  O3  UNL     1     -23.510  -8.554  78.728  1.00  0.00    -0.353 OA
HETATM   25  C12 UNL     1     -22.404  -8.280  77.927  1.00  0.00     0.210 C 
ENDBRANCH  20  24
BRANCH  21  26
HETATM   26  O4  UNL     1     -25.623  -9.181  80.483  1.00  0.00    -0.351 OA
HETATM   27  C14 UNL     1     -25.247 -10.355  81.152  1.00  0.00     0.210 C 
ENDBRANCH  21  26
BRANCH  22  28
HETATM   28  O5  UNL     1     -28.131  -9.586  79.508  1.00  0.00    -0.353 OA
HETATM   29  C16 UNL     1     -29.317  -8.849  79.476  1.00  0.00     0.210 C 
ENDBRANCH  22  28
ENDBRANCH   1  18
BRANCH   1  30
HETATM   30  C18 UNL     1     -26.488  -9.942  74.115  1.00  0.00     0.431 C 
HETATM   31  F1  UNL     1     -25.280 -10.590  74.253  1.00  0.00    -0.167 F 
HETATM   32  F2  UNL     1     -26.514  -9.560  72.761  1.00  0.00    -0.167 F 
HETATM   33  F3  UNL     1     -27.468 -10.922  74.326  1.00  0.00    -0.167 F 
ENDBRANCH   1  30
TORSDOF 12
ENDMDL
