MODEL 1
REMARK VINA RESULT: -3.561161077      0.000      0.000
REMARK  2 active torsions:
REMARK  status: ('A' for Active; 'I' for Inactive)
REMARK    1  A    between atoms: N1_1  and  C1_5 
REMARK    2  A    between atoms: C3_7  and  N2_8 
ROOT
HETATM    1  C1  UNL     1      23.949  32.952  -4.210  1.00  0.00     0.190 C 
HETATM    2  C2  UNL     1      23.250  34.093  -4.862  1.00  0.00     0.071 C 
HETATM    3  C3  UNL     1      24.158  34.936  -5.737  1.00  0.00     0.125 C 
HETATM    4  C4  UNL     1      24.383  34.306  -7.095  1.00  0.00     0.038 C 
HETATM    5  C5  UNL     1      24.317  32.807  -7.026  1.00  0.00     0.003 C 
HETATM    6  C6  UNL     1      25.426  32.318  -6.143  1.00  0.00     0.007 C 
HETATM    7  C7  UNL     1      25.346  32.769  -4.733  1.00  0.00     0.016 C 
HETATM    8  C8  UNL     1      26.113  34.040  -4.445  1.00  0.00     0.009 C 
HETATM    9  C9  UNL     1      25.473  35.247  -5.059  1.00  0.00     0.039 C 
ENDROOT
BRANCH   1  10
HETATM   10  N1  UNL     1      23.185  31.699  -4.294  1.00  0.00    -0.075 N 
ATOM     11  H13 UNL     1      22.184  31.884  -4.362  1.00  0.00     0.274 HD
ATOM     12  H12 UNL     1      23.329  31.241  -5.194  1.00  0.00     0.274 HD
ATOM     13  H11 UNL     1      23.388  31.064  -3.522  1.00  0.00     0.274 HD
ENDBRANCH   1  10
BRANCH   3  14
HETATM   14  N2  UNL     1      23.453  36.191  -5.973  1.00  0.00    -0.070 N 
ATOM     15  H23 UNL     1      22.959  36.216  -6.865  1.00  0.00     0.275 HD
ATOM     16  H22 UNL     1      22.638  36.316  -5.372  1.00  0.00     0.275 HD
ATOM     17  H21 UNL     1      24.146  36.933  -5.875  1.00  0.00     0.275 HD
ENDBRANCH   3  14
TORSDOF 2
ENDMDL
MODEL 2
REMARK VINA RESULT: -3.445791050      1.580      2.406
REMARK  2 active torsions:
REMARK  status: ('A' for Active; 'I' for Inactive)
REMARK    1  A    between atoms: N1_1  and  C1_5 
REMARK    2  A    between atoms: C3_7  and  N2_8 
ROOT
HETATM    1  C1  UNL     1      24.027  32.257  -4.474  1.00  0.00     0.190 C 
HETATM    2  C2  UNL     1      24.671  33.204  -3.523  1.00  0.00     0.071 C 
HETATM    3  C3  UNL     1      25.819  33.984  -4.134  1.00  0.00     0.125 C 
HETATM    4  C4  UNL     1      25.332  35.156  -4.961  1.00  0.00     0.038 C 
HETATM    5  C5  UNL     1      23.988  34.879  -5.573  1.00  0.00     0.003 C 
HETATM    6  C6  UNL     1      24.120  33.720  -6.515  1.00  0.00     0.007 C 
HETATM    7  C7  UNL     1      24.521  32.442  -5.882  1.00  0.00     0.016 C 
HETATM    8  C8  UNL     1      26.012  32.192  -5.880  1.00  0.00     0.009 C 
HETATM    9  C9  UNL     1      26.744  33.100  -4.939  1.00  0.00     0.039 C 
ENDROOT
BRANCH   1  10
HETATM   10  N1  UNL     1      22.559  32.312  -4.417  1.00  0.00    -0.075 N 
ATOM     11  H13 UNL     1      22.222  32.150  -3.469  1.00  0.00     0.274 HD
ATOM     12  H12 UNL     1      22.222  33.265  -4.551  1.00  0.00     0.274 HD
ATOM     13  H11 UNL     1      22.117  31.671  -5.077  1.00  0.00     0.274 HD
ENDBRANCH   1  10
BRANCH   3  14
HETATM   14  N2  UNL     1      26.573  34.548  -3.020  1.00  0.00    -0.070 N 
ATOM     15  H23 UNL     1      27.272  35.232  -3.310  1.00  0.00     0.275 HD
ATOM     16  H22 UNL     1      26.021  35.171  -2.432  1.00  0.00     0.275 HD
ATOM     17  H21 UNL     1      26.970  33.757  -2.512  1.00  0.00     0.275 HD
ENDBRANCH   3  14
TORSDOF 2
ENDMDL
MODEL 3
REMARK VINA RESULT: -3.422431663      1.722      2.760
REMARK  2 active torsions:
REMARK  status: ('A' for Active; 'I' for Inactive)
REMARK    1  A    between atoms: N1_1  and  C1_5 
REMARK    2  A    between atoms: C3_7  and  N2_8 
ROOT
HETATM    1  C1  UNL     1      23.805  33.606  -4.018  1.00  0.00     0.190 C 
HETATM    2  C2  UNL     1      23.848  32.390  -4.876  1.00  0.00     0.071 C 
HETATM    3  C3  UNL     1      24.681  32.567  -6.132  1.00  0.00     0.125 C 
HETATM    4  C4  UNL     1      26.162  32.418  -5.857  1.00  0.00     0.038 C 
HETATM    5  C5  UNL     1      26.511  32.851  -4.461  1.00  0.00     0.003 C 
HETATM    6  C6  UNL     1      26.199  34.311  -4.320  1.00  0.00     0.007 C 
HETATM    7  C7  UNL     1      24.769  34.662  -4.482  1.00  0.00     0.016 C 
HETATM    8  C8  UNL     1      24.381  35.047  -5.892  1.00  0.00     0.009 C 
HETATM    9  C9  UNL     1      24.389  33.878  -6.828  1.00  0.00     0.039 C 
ENDROOT
BRANCH   1  10
HETATM   10  N1  UNL     1      24.004  33.298  -2.594  1.00  0.00    -0.075 N 
ATOM     11  H13 UNL     1      23.624  32.381  -2.361  1.00  0.00     0.274 HD
ATOM     12  H12 UNL     1      24.988  33.125  -2.390  1.00  0.00     0.274 HD
ATOM     13  H11 UNL     1      23.623  34.019  -1.981  1.00  0.00     0.274 HD
ENDBRANCH   1  10
BRANCH   3  14
HETATM   14  N2  UNL     1      24.313  31.477  -7.028  1.00  0.00    -0.070 N 
ATOM     15  H23 UNL     1      24.684  30.573  -6.739  1.00  0.00     0.275 HD
ATOM     16  H22 UNL     1      23.324  31.231  -6.979  1.00  0.00     0.275 HD
ATOM     17  H21 UNL     1      24.614  31.757  -7.961  1.00  0.00     0.275 HD
ENDBRANCH   3  14
TORSDOF 2
ENDMDL
MODEL 4
REMARK VINA RESULT: -3.412140467      3.288      4.275
REMARK  2 active torsions:
REMARK  status: ('A' for Active; 'I' for Inactive)
REMARK    1  A    between atoms: N1_1  and  C1_5 
REMARK    2  A    between atoms: C3_7  and  N2_8 
ROOT
HETATM    1  C1  UNL     1      29.089  31.621  -3.947  1.00  0.00     0.190 C 
HETATM    2  C2  UNL     1      27.637  31.624  -3.619  1.00  0.00     0.071 C 
HETATM    3  C3  UNL     1      26.854  32.692  -4.359  1.00  0.00     0.125 C 
HETATM    4  C4  UNL     1      26.527  32.277  -5.778  1.00  0.00     0.038 C 
HETATM    5  C5  UNL     1      27.575  31.359  -6.340  1.00  0.00     0.003 C 
HETATM    6  C6  UNL     1      28.876  32.102  -6.405  1.00  0.00     0.007 C 
HETATM    7  C7  UNL     1      29.414  32.536  -5.094  1.00  0.00     0.016 C 
HETATM    8  C8  UNL     1      29.008  33.936  -4.692  1.00  0.00     0.009 C 
HETATM    9  C9  UNL     1      27.556  34.031  -4.335  1.00  0.00     0.039 C 
ENDROOT
BRANCH   1  10
HETATM   10  N1  UNL     1      29.610  30.268  -4.187  1.00  0.00    -0.075 N 
ATOM     11  H13 UNL     1      30.621  30.282  -4.320  1.00  0.00     0.274 HD
ATOM     12  H12 UNL     1      29.564  29.701  -3.340  1.00  0.00     0.274 HD
ATOM     13  H11 UNL     1      29.145  29.801  -4.966  1.00  0.00     0.274 HD
ENDBRANCH   1  10
BRANCH   3  14
HETATM   14  N2  UNL     1      25.580  32.827  -3.661  1.00  0.00    -0.070 N 
ATOM     15  H23 UNL     1      24.904  33.404  -4.161  1.00  0.00     0.275 HD
ATOM     16  H22 UNL     1      25.031  31.967  -3.653  1.00  0.00     0.275 HD
ATOM     17  H21 UNL     1      25.798  33.177  -2.729  1.00  0.00     0.275 HD
ENDBRANCH   3  14
TORSDOF 2
ENDMDL
MODEL 5
REMARK VINA RESULT: -3.362653014      1.692      2.986
REMARK  2 active torsions:
REMARK  status: ('A' for Active; 'I' for Inactive)
REMARK    1  A    between atoms: N1_1  and  C1_5 
REMARK    2  A    between atoms: C3_7  and  N2_8 
ROOT
HETATM    1  C1  UNL     1      24.136  34.507  -5.574  1.00  0.00     0.190 C 
HETATM    2  C2  UNL     1      25.449  34.741  -4.912  1.00  0.00     0.071 C 
HETATM    3  C3  UNL     1      25.922  33.566  -4.078  1.00  0.00     0.125 C 
HETATM    4  C4  UNL     1      26.552  32.483  -4.928  1.00  0.00     0.038 C 
HETATM    5  C5  UNL     1      25.951  32.443  -6.305  1.00  0.00     0.003 C 
HETATM    6  C6  UNL     1      24.497  32.095  -6.183  1.00  0.00     0.007 C 
HETATM    7  C7  UNL     1      23.679  33.081  -5.438  1.00  0.00     0.016 C 
HETATM    8  C8  UNL     1      23.541  32.783  -3.963  1.00  0.00     0.009 C 
HETATM    9  C9  UNL     1      24.819  33.002  -3.212  1.00  0.00     0.039 C 
ENDROOT
BRANCH   1  10
HETATM   10  N1  UNL     1      24.130  34.933  -6.981  1.00  0.00    -0.075 N 
ATOM     11  H13 UNL     1      24.114  35.949  -7.056  1.00  0.00     0.274 HD
ATOM     12  H12 UNL     1      25.030  34.749  -7.423  1.00  0.00     0.274 HD
ATOM     13  H11 UNL     1      23.368  34.513  -7.513  1.00  0.00     0.274 HD
ENDBRANCH   1  10
BRANCH   3  14
HETATM   14  N2  UNL     1      26.976  34.076  -3.208  1.00  0.00    -0.070 N 
ATOM     15  H23 UNL     1      27.860  34.231  -3.691  1.00  0.00     0.275 HD
ATOM     16  H22 UNL     1      26.823  35.040  -2.910  1.00  0.00     0.275 HD
ATOM     17  H21 UNL     1      27.051  33.420  -2.431  1.00  0.00     0.275 HD
ENDBRANCH   3  14
TORSDOF 2
ENDMDL
