MODEL 1
REMARK VINA RESULT: -6.243861408      0.000      0.000
REMARK  4 active torsions:
REMARK  status: ('A' for Active; 'I' for Inactive)
REMARK    1  A    between atoms: C2_2  and  O1_3 
REMARK       I    between atoms: N1_6  and  C4_8 
REMARK    2  A    between atoms: C4_8  and  C5_10 
REMARK    3  A    between atoms: C5_10  and  C6_11 
REMARK    4  A    between atoms: C7_14  and  C8_15 
ROOT
HETATM    1  C1  UNL     1     -15.931  35.108  -5.305  1.00  0.00     0.053 C 
HETATM    2  C2  UNL     1     -16.058  35.952  -6.527  1.00  0.00     0.106 C 
HETATM    3  C3  UNL     1     -17.451  36.299  -6.906  1.00  0.00     0.070 C 
HETATM    4  N1  UNL     1     -18.447  36.695  -6.196  1.00  0.00    -0.328 N 
ATOM      5  H1  UNL     1     -19.322  36.872  -6.688  1.00  0.00     0.168 HD
HETATM    6  C4  UNL     1     -18.447  36.905  -4.804  1.00  0.00     0.231 C 
HETATM    7  O2  UNL     1     -17.827  37.858  -4.273  1.00  0.00    -0.273 OA
HETATM    8  C7  UNL     1     -17.501  36.099  -8.397  1.00  0.00     0.197 C 
HETATM    9  O7  UNL     1     -16.601  36.922  -9.024  1.00  0.00    -0.362 OA
HETATM   10  C9  UNL     1     -15.310  36.442  -8.754  1.00  0.00     0.183 C 
HETATM   11  C10 UNL     1     -15.531  35.305  -7.777  1.00  0.00     0.024 C 
HETATM   12  C11 UNL     1     -14.439  34.361  -7.637  1.00  0.00     0.022 C 
HETATM   13  C12 UNL     1     -16.781  34.749  -8.483  1.00  0.00     0.012 C 
HETATM   14  C13 UNL     1     -16.517  34.453  -9.925  1.00  0.00     0.020 C 
HETATM   15  C14 UNL     1     -17.454  33.676  -7.728  1.00  0.00     0.020 C 
ENDROOT
BRANCH   2  16
HETATM   16  O1  UNL     1     -15.371  37.148  -6.299  1.00  0.00    -0.383 OA
ATOM     17  H1  UNL     1     -14.770  37.008  -5.577  1.00  0.00     0.211 HD
ENDBRANCH   2  16
BRANCH   8  18
HETATM   18  C8  UNL     1     -18.831  36.087  -8.944  1.00  0.00     0.216 C 
HETATM   19  O5  UNL     1     -19.342  35.071  -9.474  1.00  0.00    -0.645 OA
HETATM   20  O6  UNL     1     -19.610  37.234  -8.897  1.00  0.00    -0.645 OA
ENDBRANCH   8  18
BRANCH   6  21
HETATM   21  C5  UNL     1     -19.195  35.981  -3.946  1.00  0.00     0.216 C 
BRANCH  21  22
HETATM   22  C6  UNL     1     -18.613  35.825  -2.594  1.00  0.00     0.181 C 
HETATM   23  O3  UNL     1     -17.705  35.004  -2.331  1.00  0.00    -0.648 OA
HETATM   24  O4  UNL     1     -19.058  36.600  -1.524  1.00  0.00    -0.648 OA
ENDBRANCH  21  22
ENDBRANCH   6  21
TORSDOF 4
ENDMDL
MODEL 2
REMARK VINA RESULT: -5.824923452      2.150      5.669
REMARK  4 active torsions:
REMARK  status: ('A' for Active; 'I' for Inactive)
REMARK    1  A    between atoms: C2_2  and  O1_3 
REMARK       I    between atoms: N1_6  and  C4_8 
REMARK    2  A    between atoms: C4_8  and  C5_10 
REMARK    3  A    between atoms: C5_10  and  C6_11 
REMARK    4  A    between atoms: C7_14  and  C8_15 
ROOT
HETATM    1  C1  UNL     1     -16.697  35.256  -5.403  1.00  0.00     0.053 C 
HETATM    2  C2  UNL     1     -18.119  35.439  -4.995  1.00  0.00     0.106 C 
HETATM    3  C3  UNL     1     -18.875  36.436  -5.795  1.00  0.00     0.070 C 
HETATM    4  N1  UNL     1     -18.924  36.641  -7.064  1.00  0.00    -0.328 N 
ATOM      5  H1  UNL     1     -19.525  37.400  -7.385  1.00  0.00     0.168 HD
HETATM    6  C4  UNL     1     -18.229  35.919  -8.052  1.00  0.00     0.231 C 
HETATM    7  O2  UNL     1     -18.517  34.733  -8.341  1.00  0.00    -0.273 OA
HETATM    8  C7  UNL     1     -19.649  37.232  -4.779  1.00  0.00     0.197 C 
HETATM    9  O7  UNL     1     -20.499  36.418  -4.076  1.00  0.00    -0.362 OA
HETATM   10  C9  UNL     1     -19.727  35.614  -3.223  1.00  0.00     0.183 C 
HETATM   11  C10 UNL     1     -18.296  35.946  -3.592  1.00  0.00     0.024 C 
HETATM   12  C11 UNL     1     -17.285  35.587  -2.616  1.00  0.00     0.022 C 
HETATM   13  C12 UNL     1     -18.534  37.458  -3.751  1.00  0.00     0.012 C 
HETATM   14  C13 UNL     1     -19.147  38.053  -2.524  1.00  0.00     0.020 C 
HETATM   15  C14 UNL     1     -17.371  38.182  -4.296  1.00  0.00     0.020 C 
ENDROOT
BRANCH   2  16
HETATM   16  O1  UNL     1     -18.768  34.209  -5.130  1.00  0.00    -0.383 OA
ATOM     17  H1  UNL     1     -19.239  34.036  -4.324  1.00  0.00     0.211 HD
ENDBRANCH   2  16
BRANCH   8  18
HETATM   18  C8  UNL     1     -20.221  38.446  -5.295  1.00  0.00     0.216 C 
HETATM   19  O5  UNL     1     -19.628  39.186  -6.116  1.00  0.00    -0.645 OA
HETATM   20  O6  UNL     1     -21.486  38.843  -4.886  1.00  0.00    -0.645 OA
ENDBRANCH   8  18
BRANCH   6  21
HETATM   21  C5  UNL     1     -17.130  36.575  -8.769  1.00  0.00     0.216 C 
BRANCH  21  22
HETATM   22  C6  UNL     1     -17.552  37.229 -10.029  1.00  0.00     0.181 C 
HETATM   23  O3  UNL     1     -18.694  37.714 -10.198  1.00  0.00    -0.648 OA
HETATM   24  O4  UNL     1     -16.680  37.339 -11.110  1.00  0.00    -0.648 OA
ENDBRANCH  21  22
ENDBRANCH   6  21
TORSDOF 4
ENDMDL
MODEL 3
REMARK VINA RESULT: -5.798029197      2.788      4.735
REMARK  4 active torsions:
REMARK  status: ('A' for Active; 'I' for Inactive)
REMARK    1  A    between atoms: C2_2  and  O1_3 
REMARK       I    between atoms: N1_6  and  C4_8 
REMARK    2  A    between atoms: C4_8  and  C5_10 
REMARK    3  A    between atoms: C5_10  and  C6_11 
REMARK    4  A    between atoms: C7_14  and  C8_15 
ROOT
HETATM    1  C1  UNL     1     -18.638  36.058  -2.506  1.00  0.00     0.053 C 
HETATM    2  C2  UNL     1     -18.260  35.257  -3.705  1.00  0.00     0.106 C 
HETATM    3  C3  UNL     1     -16.818  34.915  -3.799  1.00  0.00     0.070 C 
HETATM    4  N1  UNL     1     -15.990  34.488  -2.912  1.00  0.00    -0.328 N 
ATOM      5  H1  UNL     1     -15.032  34.323  -3.219  1.00  0.00     0.168 HD
HETATM    6  C4  UNL     1     -16.279  34.228  -1.559  1.00  0.00     0.231 C 
HETATM    7  O2  UNL     1     -16.994  33.261  -1.202  1.00  0.00    -0.273 OA
HETATM    8  C7  UNL     1     -16.460  35.167  -5.239  1.00  0.00     0.197 C 
HETATM    9  O7  UNL     1     -17.210  34.373  -6.068  1.00  0.00    -0.362 OA
HETATM   10  C9  UNL     1     -18.529  34.851  -6.055  1.00  0.00     0.183 C 
HETATM   11  C10 UNL     1     -18.516  35.951  -5.013  1.00  0.00     0.024 C 
HETATM   12  C11 UNL     1     -19.615  36.896  -5.068  1.00  0.00     0.022 C 
HETATM   13  C12 UNL     1     -17.148  36.524  -5.424  1.00  0.00     0.012 C 
HETATM   14  C13 UNL     1     -17.109  36.872  -6.877  1.00  0.00     0.020 C 
HETATM   15  C14 UNL     1     -16.648  37.566  -4.508  1.00  0.00     0.020 C 
ENDROOT
BRANCH   2  16
HETATM   16  O1  UNL     1     -18.978  34.058  -3.667  1.00  0.00    -0.383 OA
ATOM     17  H1  UNL     1     -19.746  34.193  -3.125  1.00  0.00     0.211 HD
ENDBRANCH   2  16
BRANCH   8  18
HETATM   18  C8  UNL     1     -15.046  35.191  -5.498  1.00  0.00     0.216 C 
HETATM   19  O5  UNL     1     -14.200  35.542  -4.641  1.00  0.00    -0.645 OA
HETATM   20  O6  UNL     1     -14.563  34.811  -6.742  1.00  0.00    -0.645 OA
ENDBRANCH   8  18
BRANCH   6  21
HETATM   21  C5  UNL     1     -15.726  35.117  -0.533  1.00  0.00     0.216 C 
BRANCH  21  22
HETATM   22  C6  UNL     1     -16.527  35.155   0.712  1.00  0.00     0.181 C 
HETATM   23  O3  UNL     1     -17.561  35.850   0.838  1.00  0.00    -0.648 OA
HETATM   24  O4  UNL     1     -16.160  34.405   1.828  1.00  0.00    -0.648 OA
ENDBRANCH  21  22
ENDBRANCH   6  21
TORSDOF 4
ENDMDL
MODEL 4
REMARK VINA RESULT: -5.794719667      2.229      3.118
REMARK  4 active torsions:
REMARK  status: ('A' for Active; 'I' for Inactive)
REMARK    1  A    between atoms: C2_2  and  O1_3 
REMARK       I    between atoms: N1_6  and  C4_8 
REMARK    2  A    between atoms: C4_8  and  C5_10 
REMARK    3  A    between atoms: C5_10  and  C6_11 
REMARK    4  A    between atoms: C7_14  and  C8_15 
ROOT
HETATM    1  C1  UNL     1     -17.984  36.672  -3.771  1.00  0.00     0.053 C 
HETATM    2  C2  UNL     1     -17.155  36.918  -4.985  1.00  0.00     0.106 C 
HETATM    3  C3  UNL     1     -17.927  37.126  -6.237  1.00  0.00     0.070 C 
HETATM    4  N1  UNL     1     -18.978  37.827  -6.476  1.00  0.00    -0.328 N 
ATOM      5  H1  UNL     1     -19.334  37.813  -7.432  1.00  0.00     0.168 HD
HETATM    6  C4  UNL     1     -19.686  38.611  -5.546  1.00  0.00     0.231 C 
HETATM    7  O2  UNL     1     -19.216  39.674  -5.073  1.00  0.00    -0.273 OA
HETATM    8  C7  UNL     1     -17.199  36.311  -7.272  1.00  0.00     0.197 C 
HETATM    9  O7  UNL     1     -15.908  36.751  -7.411  1.00  0.00    -0.362 OA
HETATM   10  C9  UNL     1     -15.195  36.379  -6.261  1.00  0.00     0.183 C 
HETATM   11  C10 UNL     1     -16.245  35.779  -5.349  1.00  0.00     0.024 C 
HETATM   12  C11 UNL     1     -15.754  34.941  -4.272  1.00  0.00     0.022 C 
HETATM   13  C12 UNL     1     -16.992  35.025  -6.465  1.00  0.00     0.012 C 
HETATM   14  C13 UNL     1     -16.075  34.133  -7.238  1.00  0.00     0.020 C 
HETATM   15  C14 UNL     1     -18.252  34.405  -6.014  1.00  0.00     0.020 C 
ENDROOT
BRANCH   2  16
HETATM   16  O1  UNL     1     -16.393  38.068  -4.762  1.00  0.00    -0.383 OA
ATOM     17  H1  UNL     1     -16.865  38.618  -4.148  1.00  0.00     0.211 HD
ENDBRANCH   2  16
BRANCH   8  18
HETATM   18  C8  UNL     1     -17.935  36.121  -8.494  1.00  0.00     0.216 C 
HETATM   19  O5  UNL     1     -19.168  35.893  -8.520  1.00  0.00    -0.645 OA
HETATM   20  O6  UNL     1     -17.279  36.188  -9.714  1.00  0.00    -0.645 OA
ENDBRANCH   8  18
BRANCH   6  21
HETATM   21  C5  UNL     1     -21.017  38.173  -5.116  1.00  0.00     0.216 C 
BRANCH  21  22
HETATM   22  C6  UNL     1     -22.011  39.269  -5.052  1.00  0.00     0.181 C 
HETATM   23  O3  UNL     1     -22.615  39.703  -6.059  1.00  0.00    -0.648 OA
HETATM   24  O4  UNL     1     -22.328  39.884  -3.842  1.00  0.00    -0.648 OA
ENDBRANCH  21  22
ENDBRANCH   6  21
TORSDOF 4
ENDMDL
MODEL 5
REMARK VINA RESULT: -5.777725652      2.020      5.444
REMARK  4 active torsions:
REMARK  status: ('A' for Active; 'I' for Inactive)
REMARK    1  A    between atoms: C2_2  and  O1_3 
REMARK       I    between atoms: N1_6  and  C4_8 
REMARK    2  A    between atoms: C4_8  and  C5_10 
REMARK    3  A    between atoms: C5_10  and  C6_11 
REMARK    4  A    between atoms: C7_14  and  C8_15 
ROOT
HETATM    1  C1  UNL     1     -16.275  35.710  -6.536  1.00  0.00     0.053 C 
HETATM    2  C2  UNL     1     -17.613  35.500  -5.915  1.00  0.00     0.106 C 
HETATM    3  C3  UNL     1     -18.641  36.505  -6.288  1.00  0.00     0.070 C 
HETATM    4  N1  UNL     1     -18.944  37.022  -7.426  1.00  0.00    -0.328 N 
ATOM      5  H1  UNL     1     -19.699  37.707  -7.435  1.00  0.00     0.168 HD
HETATM    6  C4  UNL     1     -18.334  36.734  -8.662  1.00  0.00     0.231 C 
HETATM    7  O2  UNL     1     -18.487  35.632  -9.242  1.00  0.00    -0.273 OA
HETATM    8  C7  UNL     1     -19.333  36.840  -4.995  1.00  0.00     0.197 C 
HETATM    9  O7  UNL     1     -19.913  35.721  -4.455  1.00  0.00    -0.362 OA
HETATM   10  C9  UNL     1     -18.890  34.888  -3.978  1.00  0.00     0.183 C 
HETATM   11  C10 UNL     1     -17.613  35.576  -4.414  1.00  0.00     0.024 C 
HETATM   12  C11 UNL     1     -16.403  35.177  -3.722  1.00  0.00     0.022 C 
HETATM   13  C12 UNL     1     -18.101  37.001  -4.097  1.00  0.00     0.012 C 
HETATM   14  C13 UNL     1     -18.569  37.123  -2.682  1.00  0.00     0.020 C 
HETATM   15  C14 UNL     1     -17.176  38.054  -4.553  1.00  0.00     0.020 C 
ENDROOT
BRANCH   2  16
HETATM   16  O1  UNL     1     -18.084  34.246  -6.316  1.00  0.00    -0.383 OA
ATOM     17  H1  UNL     1     -17.660  33.588  -5.778  1.00  0.00     0.211 HD
ENDBRANCH   2  16
BRANCH   8  18
HETATM   18  C8  UNL     1     -20.164  38.012  -5.060  1.00  0.00     0.216 C 
HETATM   19  O5  UNL     1     -21.275  38.095  -4.482  1.00  0.00    -0.645 OA
HETATM   20  O6  UNL     1     -19.745  39.119  -5.784  1.00  0.00    -0.645 OA
ENDBRANCH   8  18
BRANCH   6  21
HETATM   21  C5  UNL     1     -17.492  37.755  -9.292  1.00  0.00     0.216 C 
BRANCH  21  22
HETATM   22  C6  UNL     1     -16.448  37.196 -10.181  1.00  0.00     0.181 C 
HETATM   23  O3  UNL     1     -15.344  36.780  -9.762  1.00  0.00    -0.648 OA
HETATM   24  O4  UNL     1     -16.648  37.104 -11.558  1.00  0.00    -0.648 OA
ENDBRANCH  21  22
ENDBRANCH   6  21
TORSDOF 4
ENDMDL
