MODEL 1
REMARK VINA RESULT: -5.135463721      0.000      0.000
REMARK  10 active torsions:
REMARK  status: ('A' for Active; 'I' for Inactive)
REMARK    1  A    between atoms: C1_4  and  C2_5 
REMARK    2  A    between atoms: C2_5  and  C3_6 
REMARK    3  A    between atoms: C2_5  and  C13_23 
REMARK    4  A    between atoms: C3_6  and  C4_8 
REMARK    5  A    between atoms: C4_8  and  C12_16 
REMARK    6  A    between atoms: C5_9  and  C6_10 
REMARK    7  A    between atoms: C12_16  and  N2_17 
REMARK    8  A    between atoms: C12_16  and  O2_21 
REMARK    9  A    between atoms: C13_23  and  N3_24 
REMARK   10  A    between atoms: C13_23  and  O3_28 
ROOT
HETATM    1  C4  UNL     1      21.231   0.836 148.283  1.00  0.00     0.044 C 
HETATM    2  C5  UNL     1      20.500   0.886 149.372  1.00  0.00     0.026 C 
ENDROOT
BRANCH   1   3
HETATM    3  C3  UNL     1      20.644   0.133 147.113  1.00  0.00     0.173 C 
HETATM    4  O1  UNL     1      20.169   0.844 146.159  1.00  0.00    -0.292 OA
BRANCH   3   5
HETATM    5  C2  UNL     1      20.576  -1.329 146.968  1.00  0.00     0.154 C 
BRANCH   5   6
HETATM    6  C1  UNL     1      19.144  -1.736 146.618  1.00  0.00     0.069 C 
HETATM    7  N1  UNL     1      18.203  -0.980 147.026  1.00  0.00    -0.410 N 
ATOM      8  H12 UNL     1      18.413  -0.140 147.564  1.00  0.00     0.155 HD
ATOM      9  H11 UNL     1      17.248  -1.252 146.792  1.00  0.00     0.155 HD
ENDBRANCH   5   6
BRANCH   5  10
HETATM   10  C13 UNL     1      21.351  -1.844 145.755  1.00  0.00     0.332 C 
BRANCH  10  11
HETATM   11  N3  UNL     1      22.480  -0.989 145.455  1.00  0.00    -0.052 N 
ATOM     12  H33 UNL     1      22.188  -0.129 144.990  1.00  0.00     0.277 HD
ATOM     13  H32 UNL     1      22.877  -0.580 146.301  1.00  0.00     0.277 HD
ATOM     14  H31 UNL     1      23.185  -1.487 144.913  1.00  0.00     0.277 HD
ENDBRANCH  10  11
BRANCH  10  15
HETATM   15  O3  UNL     1      20.449  -1.652 144.671  1.00  0.00    -0.369 OA
ATOM     16  H3  UNL     1      19.741  -2.256 144.857  1.00  0.00     0.212 HD
ENDBRANCH  10  15
ENDBRANCH   5  10
ENDBRANCH   3   5
ENDBRANCH   1   3
BRANCH   1  17
HETATM   17  C12 UNL     1      22.585   1.395 148.147  1.00  0.00     0.354 C 
BRANCH  17  18
HETATM   18  N2  UNL     1      23.671   0.520 148.462  1.00  0.00    -0.049 N 
ATOM     19  H23 UNL     1      23.586   0.202 149.428  1.00  0.00     0.277 HD
ATOM     20  H22 UNL     1      23.555  -0.363 147.965  1.00  0.00     0.277 HD
ATOM     21  H21 UNL     1      24.609   0.884 148.301  1.00  0.00     0.277 HD
ENDBRANCH  17  18
BRANCH  17  22
HETATM   22  O2  UNL     1      22.803   1.799 146.802  1.00  0.00    -0.366 OA
ATOM     23  H2  UNL     1      23.703   1.621 146.556  1.00  0.00     0.212 HD
ENDBRANCH  17  22
ENDBRANCH   1  17
BRANCH   2  24
HETATM   24  C6  UNL     1      20.734   1.455 150.654  1.00  0.00    -0.035 A 
HETATM   25  C7  UNL     1      21.774   1.229 151.517  1.00  0.00     0.011 A 
HETATM   26  C8  UNL     1      21.904   1.855 152.735  1.00  0.00     0.001 A 
HETATM   27  C9  UNL     1      20.955   2.764 153.142  1.00  0.00     0.000 A 
HETATM   28  C10 UNL     1      19.906   3.010 152.303  1.00  0.00     0.001 A 
HETATM   29  C11 UNL     1      19.772   2.390 151.089  1.00  0.00     0.011 A 
ENDBRANCH   2  24
TORSDOF 10
ENDMDL
MODEL 2
REMARK VINA RESULT: -5.008840592      4.128      5.564
REMARK  10 active torsions:
REMARK  status: ('A' for Active; 'I' for Inactive)
REMARK    1  A    between atoms: C1_4  and  C2_5 
REMARK    2  A    between atoms: C2_5  and  C3_6 
REMARK    3  A    between atoms: C2_5  and  C13_23 
REMARK    4  A    between atoms: C3_6  and  C4_8 
REMARK    5  A    between atoms: C4_8  and  C12_16 
REMARK    6  A    between atoms: C5_9  and  C6_10 
REMARK    7  A    between atoms: C12_16  and  N2_17 
REMARK    8  A    between atoms: C12_16  and  O2_21 
REMARK    9  A    between atoms: C13_23  and  N3_24 
REMARK   10  A    between atoms: C13_23  and  O3_28 
ROOT
HETATM    1  C4  UNL     1      20.468   1.215 153.519  1.00  0.00     0.044 C 
HETATM    2  C5  UNL     1      20.632   0.423 154.553  1.00  0.00     0.026 C 
ENDROOT
BRANCH   1   3
HETATM    3  C3  UNL     1      20.139   0.567 152.224  1.00  0.00     0.173 C 
HETATM    4  O1  UNL     1      18.907   0.332 151.963  1.00  0.00    -0.292 OA
BRANCH   3   5
HETATM    5  C2  UNL     1      21.133   0.179 151.211  1.00  0.00     0.154 C 
BRANCH   5   6
HETATM    6  C1  UNL     1      20.982  -1.310 150.897  1.00  0.00     0.069 C 
HETATM    7  N1  UNL     1      20.397  -2.036 151.767  1.00  0.00    -0.410 N 
ATOM      8  H12 UNL     1      20.050  -1.624 152.633  1.00  0.00     0.155 HD
ATOM      9  H11 UNL     1      20.296  -3.028 151.557  1.00  0.00     0.155 HD
ENDBRANCH   5   6
BRANCH   5  10
HETATM   10  C13 UNL     1      20.869   0.813 149.844  1.00  0.00     0.332 C 
BRANCH  10  11
HETATM   11  N3  UNL     1      20.181   2.080 149.981  1.00  0.00    -0.052 N 
ATOM     12  H33 UNL     1      20.572   2.640 150.739  1.00  0.00     0.277 HD
ATOM     13  H32 UNL     1      20.388   2.705 149.203  1.00  0.00     0.277 HD
ATOM     14  H31 UNL     1      19.178   1.942 150.095  1.00  0.00     0.277 HD
ENDBRANCH  10  11
BRANCH  10  15
HETATM   15  O3  UNL     1      19.916  -0.058 149.247  1.00  0.00    -0.369 OA
ATOM     16  H3  UNL     1      20.054  -0.885 149.694  1.00  0.00     0.212 HD
ENDBRANCH  10  15
ENDBRANCH   5  10
ENDBRANCH   3   5
ENDBRANCH   1   3
BRANCH   1  17
HETATM   17  C12 UNL     1      20.610   2.678 153.545  1.00  0.00     0.354 C 
BRANCH  17  18
HETATM   18  N2  UNL     1      21.868   3.204 153.113  1.00  0.00    -0.049 N 
ATOM     19  H23 UNL     1      22.354   2.509 152.546  1.00  0.00     0.277 HD
ATOM     20  H22 UNL     1      21.714   3.936 152.419  1.00  0.00     0.277 HD
ATOM     21  H21 UNL     1      22.491   3.550 153.843  1.00  0.00     0.277 HD
ENDBRANCH  17  18
BRANCH  17  22
HETATM   22  O2  UNL     1      19.640   3.269 152.690  1.00  0.00    -0.366 OA
ATOM     23  H2  UNL     1      19.365   2.639 152.034  1.00  0.00     0.212 HD
ENDBRANCH  17  22
ENDBRANCH   1  17
BRANCH   2  24
HETATM   24  C6  UNL     1      20.952   0.683 155.915  1.00  0.00    -0.035 A 
HETATM   25  C7  UNL     1      20.130   1.116 156.922  1.00  0.00     0.011 A 
HETATM   26  C8  UNL     1      20.553   1.319 158.215  1.00  0.00     0.001 A 
HETATM   27  C9  UNL     1      21.866   1.087 158.552  1.00  0.00     0.000 A 
HETATM   28  C10 UNL     1      22.710   0.654 157.568  1.00  0.00     0.001 A 
HETATM   29  C11 UNL     1      22.294   0.449 156.279  1.00  0.00     0.011 A 
ENDBRANCH   2  24
TORSDOF 10
ENDMDL
MODEL 3
REMARK VINA RESULT: -4.828159854      4.027      5.230
REMARK  10 active torsions:
REMARK  status: ('A' for Active; 'I' for Inactive)
REMARK    1  A    between atoms: C1_4  and  C2_5 
REMARK    2  A    between atoms: C2_5  and  C3_6 
REMARK    3  A    between atoms: C2_5  and  C13_23 
REMARK    4  A    between atoms: C3_6  and  C4_8 
REMARK    5  A    between atoms: C4_8  and  C12_16 
REMARK    6  A    between atoms: C5_9  and  C6_10 
REMARK    7  A    between atoms: C12_16  and  N2_17 
REMARK    8  A    between atoms: C12_16  and  O2_21 
REMARK    9  A    between atoms: C13_23  and  N3_24 
REMARK   10  A    between atoms: C13_23  and  O3_28 
ROOT
HETATM    1  C4  UNL     1      21.115   1.187 152.968  1.00  0.00     0.044 C 
HETATM    2  C5  UNL     1      22.426   1.256 152.986  1.00  0.00     0.026 C 
ENDROOT
BRANCH   1   3
HETATM    3  C3  UNL     1      20.508   0.218 152.019  1.00  0.00     0.173 C 
HETATM    4  O1  UNL     1      19.245   0.020 152.086  1.00  0.00    -0.292 OA
BRANCH   3   5
HETATM    5  C2  UNL     1      21.259  -0.528 150.999  1.00  0.00     0.154 C 
BRANCH   5   6
HETATM    6  C1  UNL     1      20.963  -2.022 151.143  1.00  0.00     0.069 C 
HETATM    7  N1  UNL     1      20.580  -2.435 152.287  1.00  0.00    -0.410 N 
ATOM      8  H12 UNL     1      20.481  -1.783 153.064  1.00  0.00     0.155 HD
ATOM      9  H11 UNL     1      20.383  -3.431 152.383  1.00  0.00     0.155 HD
ENDBRANCH   5   6
BRANCH   5  10
HETATM   10  C13 UNL     1      20.768  -0.252 149.576  1.00  0.00     0.332 C 
BRANCH  10  11
HETATM   11  N3  UNL     1      20.226   1.086 149.463  1.00  0.00    -0.052 N 
ATOM     12  H33 UNL     1      19.384   1.103 148.888  1.00  0.00     0.277 HD
ATOM     13  H32 UNL     1      19.820   1.403 150.343  1.00  0.00     0.277 HD
ATOM     14  H31 UNL     1      20.929   1.740 149.119  1.00  0.00     0.277 HD
ENDBRANCH  10  11
BRANCH  10  15
HETATM   15  O3  UNL     1      19.646  -1.114 149.433  1.00  0.00    -0.369 OA
ATOM     16  H3  UNL     1      19.876  -1.662 148.691  1.00  0.00     0.212 HD
ENDBRANCH  10  15
ENDBRANCH   5  10
ENDBRANCH   3   5
ENDBRANCH   1   3
BRANCH   1  17
HETATM   17  C12 UNL     1      20.213   2.008 153.789  1.00  0.00     0.354 C 
BRANCH  17  18
HETATM   18  N2  UNL     1      19.164   2.690 153.098  1.00  0.00    -0.049 N 
ATOM     19  H23 UNL     1      19.545   3.502 152.612  1.00  0.00     0.277 HD
ATOM     20  H22 UNL     1      18.853   2.128 152.306  1.00  0.00     0.277 HD
ATOM     21  H21 UNL     1      18.358   2.970 153.657  1.00  0.00     0.277 HD
ENDBRANCH  17  18
BRANCH  17  22
HETATM   22  O2  UNL     1      19.562   1.189 154.751  1.00  0.00    -0.366 OA
ATOM     23  H2  UNL     1      18.825   1.657 155.124  1.00  0.00     0.212 HD
ENDBRANCH  17  22
ENDBRANCH   1  17
BRANCH   2  24
HETATM   24  C6  UNL     1      23.330   2.054 153.742  1.00  0.00    -0.035 A 
HETATM   25  C7  UNL     1      23.880   1.797 154.970  1.00  0.00     0.011 A 
HETATM   26  C8  UNL     1      24.762   2.642 155.602  1.00  0.00     0.001 A 
HETATM   27  C9  UNL     1      25.134   3.820 154.997  1.00  0.00     0.000 A 
HETATM   28  C10 UNL     1      24.601   4.104 153.771  1.00  0.00     0.001 A 
HETATM   29  C11 UNL     1      23.723   3.265 153.138  1.00  0.00     0.011 A 
ENDBRANCH   2  24
TORSDOF 10
ENDMDL
MODEL 4
REMARK VINA RESULT: -4.814463780      4.018      5.251
REMARK  10 active torsions:
REMARK  status: ('A' for Active; 'I' for Inactive)
REMARK    1  A    between atoms: C1_4  and  C2_5 
REMARK    2  A    between atoms: C2_5  and  C3_6 
REMARK    3  A    between atoms: C2_5  and  C13_23 
REMARK    4  A    between atoms: C3_6  and  C4_8 
REMARK    5  A    between atoms: C4_8  and  C12_16 
REMARK    6  A    between atoms: C5_9  and  C6_10 
REMARK    7  A    between atoms: C12_16  and  N2_17 
REMARK    8  A    between atoms: C12_16  and  O2_21 
REMARK    9  A    between atoms: C13_23  and  N3_24 
REMARK   10  A    between atoms: C13_23  and  O3_28 
ROOT
HETATM    1  C4  UNL     1      21.108   1.211 152.892  1.00  0.00     0.044 C 
HETATM    2  C5  UNL     1      22.415   1.330 152.848  1.00  0.00     0.026 C 
ENDROOT
BRANCH   1   3
HETATM    3  C3  UNL     1      20.495   0.207 151.985  1.00  0.00     0.173 C 
HETATM    4  O1  UNL     1      19.233   0.002 152.076  1.00  0.00    -0.292 OA
BRANCH   3   5
HETATM    5  C2  UNL     1      21.237  -0.569 150.980  1.00  0.00     0.154 C 
BRANCH   5   6
HETATM    6  C1  UNL     1      20.913  -2.054 151.146  1.00  0.00     0.069 C 
HETATM    7  N1  UNL     1      20.568  -2.452 152.306  1.00  0.00    -0.410 N 
ATOM      8  H12 UNL     1      20.514  -1.793 153.083  1.00  0.00     0.155 HD
ATOM      9  H11 UNL     1      20.352  -3.443 152.417  1.00  0.00     0.155 HD
ENDBRANCH   5   6
BRANCH   5  10
HETATM   10  C13 UNL     1      20.757  -0.305 149.551  1.00  0.00     0.332 C 
BRANCH  10  11
HETATM   11  N3  UNL     1      20.227   1.036 149.418  1.00  0.00    -0.052 N 
ATOM     12  H33 UNL     1      19.947   1.420 150.321  1.00  0.00     0.277 HD
ATOM     13  H32 UNL     1      20.958   1.707 149.184  1.00  0.00     0.277 HD
ATOM     14  H31 UNL     1      19.462   1.063 148.745  1.00  0.00     0.277 HD
ENDBRANCH  10  11
BRANCH  10  15
HETATM   15  O3  UNL     1      19.629  -1.160 149.411  1.00  0.00    -0.369 OA
ATOM     16  H3  UNL     1      19.716  -1.506 148.530  1.00  0.00     0.212 HD
ENDBRANCH  10  15
ENDBRANCH   5  10
ENDBRANCH   3   5
ENDBRANCH   1   3
BRANCH   1  17
HETATM   17  C12 UNL     1      20.215   2.009 153.746  1.00  0.00     0.354 C 
BRANCH  17  18
HETATM   18  N2  UNL     1      19.144   2.690 153.087  1.00  0.00    -0.049 N 
ATOM     19  H23 UNL     1      19.076   2.369 152.121  1.00  0.00     0.277 HD
ATOM     20  H22 UNL     1      18.251   2.362 153.455  1.00  0.00     0.277 HD
ATOM     21  H21 UNL     1      19.171   3.709 153.110  1.00  0.00     0.277 HD
ENDBRANCH  17  18
BRANCH  17  22
HETATM   22  O2  UNL     1      19.593   1.167 154.707  1.00  0.00    -0.366 OA
ATOM     23  H2  UNL     1      18.799   1.579 155.028  1.00  0.00     0.212 HD
ENDBRANCH  17  22
ENDBRANCH   1  17
BRANCH   2  24
HETATM   24  C6  UNL     1      23.322   2.171 153.551  1.00  0.00    -0.035 A 
HETATM   25  C7  UNL     1      23.815   3.395 153.185  1.00  0.00     0.011 A 
HETATM   26  C8  UNL     1      24.682   4.130 153.961  1.00  0.00     0.001 A 
HETATM   27  C9  UNL     1      25.099   3.638 155.176  1.00  0.00     0.000 A 
HETATM   28  C10 UNL     1      24.623   2.418 155.567  1.00  0.00     0.001 A 
HETATM   29  C11 UNL     1      23.759   1.683 154.799  1.00  0.00     0.011 A 
ENDBRANCH   2  24
TORSDOF 10
ENDMDL
MODEL 5
REMARK VINA RESULT: -4.742365776      2.259      2.669
REMARK  10 active torsions:
REMARK  status: ('A' for Active; 'I' for Inactive)
REMARK    1  A    between atoms: C1_4  and  C2_5 
REMARK    2  A    between atoms: C2_5  and  C3_6 
REMARK    3  A    between atoms: C2_5  and  C13_23 
REMARK    4  A    between atoms: C3_6  and  C4_8 
REMARK    5  A    between atoms: C4_8  and  C12_16 
REMARK    6  A    between atoms: C5_9  and  C6_10 
REMARK    7  A    between atoms: C12_16  and  N2_17 
REMARK    8  A    between atoms: C12_16  and  O2_21 
REMARK    9  A    between atoms: C13_23  and  N3_24 
REMARK   10  A    between atoms: C13_23  and  O3_28 
ROOT
HETATM    1  C4  UNL     1      20.496  -0.587 149.600  1.00  0.00     0.044 C 
HETATM    2  C5  UNL     1      20.572   0.694 149.880  1.00  0.00     0.026 C 
ENDROOT
BRANCH   1   3
HETATM    3  C3  UNL     1      20.041  -0.947 148.232  1.00  0.00     0.173 C 
HETATM    4  O1  UNL     1      18.792  -1.163 148.050  1.00  0.00    -0.292 OA
BRANCH   3   5
HETATM    5  C2  UNL     1      20.928  -1.068 147.065  1.00  0.00     0.154 C 
BRANCH   5   6
HETATM    6  C1  UNL     1      20.595  -2.354 146.307  1.00  0.00     0.069 C 
HETATM    7  N1  UNL     1      20.462  -3.421 146.992  1.00  0.00    -0.410 N 
ATOM      8  H12 UNL     1      20.578  -3.401 148.005  1.00  0.00     0.155 HD
ATOM      9  H11 UNL     1      20.240  -4.278 146.486  1.00  0.00     0.155 HD
ENDBRANCH   5   6
BRANCH   5  10
HETATM   10  C13 UNL     1      20.660  -0.003 146.001  1.00  0.00     0.332 C 
BRANCH  10  11
HETATM   11  N3  UNL     1      21.429  -0.260 144.801  1.00  0.00    -0.052 N 
ATOM     12  H33 UNL     1      22.219   0.379 144.716  1.00  0.00     0.277 HD
ATOM     13  H32 UNL     1      21.945  -1.137 144.866  1.00  0.00     0.277 HD
ATOM     14  H31 UNL     1      20.835  -0.235 143.972  1.00  0.00     0.277 HD
ENDBRANCH  10  11
BRANCH  10  15
HETATM   15  O3  UNL     1      21.231   1.177 146.554  1.00  0.00    -0.369 OA
ATOM     16  H3  UNL     1      22.153   0.963 146.639  1.00  0.00     0.212 HD
ENDBRANCH  10  15
ENDBRANCH   5  10
ENDBRANCH   3   5
ENDBRANCH   1   3
BRANCH   1  17
HETATM   17  C12 UNL     1      20.798  -1.678 150.539  1.00  0.00     0.354 C 
BRANCH  17  18
HETATM   18  N2  UNL     1      20.152  -1.619 151.813  1.00  0.00    -0.049 N 
ATOM     19  H23 UNL     1      19.246  -1.160 151.717  1.00  0.00     0.277 HD
ATOM     20  H22 UNL     1      19.857  -2.555 152.091  1.00  0.00     0.277 HD
ATOM     21  H21 UNL     1      20.679  -1.186 152.571  1.00  0.00     0.277 HD
ENDBRANCH  17  18
BRANCH  17  22
HETATM   22  O2  UNL     1      20.404  -2.920 149.972  1.00  0.00    -0.366 OA
ATOM     23  H2  UNL     1      20.961  -3.614 150.305  1.00  0.00     0.212 HD
ENDBRANCH  17  22
ENDBRANCH   1  17
BRANCH   2  24
HETATM   24  C6  UNL     1      20.952   1.392 151.060  1.00  0.00    -0.035 A 
HETATM   25  C7  UNL     1      22.175   1.432 151.677  1.00  0.00     0.011 A 
HETATM   26  C8  UNL     1      22.430   2.162 152.815  1.00  0.00     0.001 A 
HETATM   27  C9  UNL     1      21.426   2.902 153.394  1.00  0.00     0.000 A 
HETATM   28  C10 UNL     1      20.195   2.881 152.801  1.00  0.00     0.001 A 
HETATM   29  C11 UNL     1      19.936   2.158 151.667  1.00  0.00     0.011 A 
ENDBRANCH   2  24
TORSDOF 10
ENDMDL
