MODEL 1
REMARK VINA RESULT: -5.508610357      0.000      0.000
REMARK  9 active torsions:
REMARK  status: ('A' for Active; 'I' for Inactive)
REMARK    1  A    between atoms: N1_1  and  C1_4 
REMARK    2  A    between atoms: C2_7  and  N3_8 
REMARK    3  A    between atoms: N3_8  and  C3_10 
REMARK    4  A    between atoms: C3_10  and  O1_11 
REMARK    5  A    between atoms: C3_10  and  C4_13 
REMARK    6  A    between atoms: C8_21  and  C9_22 
REMARK    7  A    between atoms: C9_22  and  N6_23 
REMARK    8  A    between atoms: C9_22  and  C10_27 
REMARK    9  A    between atoms: C10_27  and  C11_28 
ROOT
HETATM    1  C1  UNL     1      20.675  -1.600 150.259  1.00  0.00     0.677 A 
HETATM    2  N2  UNL     1      20.735  -0.500 151.064  1.00  0.00    -0.177 N 
ATOM      3  H2  UNL     1      20.926  -0.612 152.059  1.00  0.00     0.185 HD
HETATM    4  C2  UNL     1      20.544   0.731 150.557  1.00  0.00     0.121 A 
HETATM    5  C7  UNL     1      20.288   0.834 149.206  1.00  0.00     0.076 A 
HETATM    6  C8  UNL     1      20.228  -0.269 148.399  1.00  0.00     0.061 A 
HETATM    7  N7  UNL     1      20.423  -1.480 148.940  1.00  0.00    -0.194 N 
ATOM      8  H7  UNL     1      20.381  -2.314 148.352  1.00  0.00     0.184 HD
ENDROOT
BRANCH   4   9
HETATM    9  N3  UNL     1      20.609   1.881 151.407  1.00  0.00    -0.345 N 
ATOM     10  H3  UNL     1      21.302   2.610 151.240  1.00  0.00     0.164 HD
BRANCH   9  11
HETATM   11  C3  UNL     1      19.669   1.994 152.512  1.00  0.00     0.272 C 
BRANCH  11  12
HETATM   12  O1  UNL     1      19.083   3.254 152.425  1.00  0.00    -0.371 OA
ATOM     13  H1  UNL     1      19.435   3.775 153.136  1.00  0.00     0.212 HD
ENDBRANCH  11  12
BRANCH  11  14
HETATM   14  C4  UNL     1      20.310   1.737 153.810  1.00  0.00     0.074 A 
HETATM   15  C5  UNL     1      21.645   1.912 154.111  1.00  0.00     0.118 A 
HETATM   16  N4  UNL     1      21.909   1.588 155.379  1.00  0.00    -0.360 N 
HETATM   17  C6  UNL     1      20.718   1.196 155.904  1.00  0.00     0.180 A 
ATOM     18  H4  UNL     1      22.812   1.627 155.853  1.00  0.00     0.166 HD
HETATM   19  N5  UNL     1      19.755   1.284 154.966  1.00  0.00    -0.351 N 
ATOM     20  H5  UNL     1      18.771   1.049 155.100  1.00  0.00     0.166 HD
ENDBRANCH  11  14
ENDBRANCH   9  11
ENDBRANCH   4   9
BRANCH   1  21
HETATM   21  N1  UNL     1      20.864  -2.757 150.793  1.00  0.00    -0.234 N 
ATOM     22  H12 UNL     1      20.582  -2.941 151.756  1.00  0.00     0.174 HD
ATOM     23  H11 UNL     1      21.305  -3.483 150.228  1.00  0.00     0.174 HD
ENDBRANCH   1  21
BRANCH   6  24
HETATM   24  C9  UNL     1      19.953  -0.164 146.947  1.00  0.00     0.239 C 
BRANCH  24  25
HETATM   25  N6  UNL     1      19.021  -1.130 146.465  1.00  0.00    -0.069 N 
ATOM     26  H63 UNL     1      19.184  -2.036 146.905  1.00  0.00     0.275 HD
ATOM     27  H62 UNL     1      18.085  -0.933 146.818  1.00  0.00     0.275 HD
ATOM     28  H61 UNL     1      19.010  -1.221 145.449  1.00  0.00     0.275 HD
ENDBRANCH  24  25
BRANCH  24  29
HETATM   29  C10 UNL     1      21.227  -0.343 146.143  1.00  0.00     0.108 C 
BRANCH  29  30
HETATM   30  C11 UNL     1      21.267   0.767 145.153  1.00  0.00     0.233 C 
HETATM   31  O2  UNL     1      20.298   1.431 144.838  1.00  0.00    -0.307 OA
ENDBRANCH  29  30
ENDBRANCH  24  29
ENDBRANCH   6  24
TORSDOF 9
ENDMDL
MODEL 2
REMARK VINA RESULT: -5.454072628      2.467      7.245
REMARK  9 active torsions:
REMARK  status: ('A' for Active; 'I' for Inactive)
REMARK    1  A    between atoms: N1_1  and  C1_4 
REMARK    2  A    between atoms: C2_7  and  N3_8 
REMARK    3  A    between atoms: N3_8  and  C3_10 
REMARK    4  A    between atoms: C3_10  and  O1_11 
REMARK    5  A    between atoms: C3_10  and  C4_13 
REMARK    6  A    between atoms: C8_21  and  C9_22 
REMARK    7  A    between atoms: C9_22  and  N6_23 
REMARK    8  A    between atoms: C9_22  and  C10_27 
REMARK    9  A    between atoms: C10_27  and  C11_28 
ROOT
HETATM    1  C1  UNL     1      20.810   1.136 156.581  1.00  0.00     0.677 A 
HETATM    2  N2  UNL     1      19.914   1.316 155.567  1.00  0.00    -0.177 N 
ATOM      3  H2  UNL     1      18.917   1.201 155.748  1.00  0.00     0.185 HD
HETATM    4  C2  UNL     1      20.334   1.643 154.332  1.00  0.00     0.121 A 
HETATM    5  C7  UNL     1      21.690   1.787 154.135  1.00  0.00     0.076 A 
HETATM    6  C8  UNL     1      22.589   1.606 155.152  1.00  0.00     0.061 A 
HETATM    7  N7  UNL     1      22.133   1.281 156.370  1.00  0.00    -0.194 N 
ATOM      8  H7  UNL     1      22.789   1.143 157.139  1.00  0.00     0.184 HD
ENDROOT
BRANCH   4   9
HETATM    9  N3  UNL     1      19.389   1.830 153.273  1.00  0.00    -0.345 N 
ATOM     10  H3  UNL     1      18.418   1.536 153.387  1.00  0.00     0.164 HD
BRANCH   9  11
HETATM   11  C3  UNL     1      19.834   2.445 152.033  1.00  0.00     0.272 C 
BRANCH  11  12
HETATM   12  O1  UNL     1      18.912   3.438 151.714  1.00  0.00    -0.371 OA
ATOM     13  H1  UNL     1      18.528   3.205 150.877  1.00  0.00     0.212 HD
ENDBRANCH  11  12
BRANCH  11  14
HETATM   14  C4  UNL     1      20.020   1.456 150.961  1.00  0.00     0.074 A 
HETATM   15  C5  UNL     1      19.880   0.088 151.078  1.00  0.00     0.118 A 
HETATM   16  N4  UNL     1      20.118  -0.531 149.919  1.00  0.00    -0.360 N 
HETATM   17  C6  UNL     1      20.418   0.460 149.039  1.00  0.00     0.180 A 
ATOM     18  H4  UNL     1      20.082  -1.534 149.735  1.00  0.00     0.166 HD
HETATM   19  N5  UNL     1      20.360   1.654 149.659  1.00  0.00    -0.351 N 
ATOM     20  H5  UNL     1      20.543   2.559 149.225  1.00  0.00     0.166 HD
ENDBRANCH  11  14
ENDBRANCH   9  11
ENDBRANCH   4   9
BRANCH   1  21
HETATM   21  N1  UNL     1      20.357   0.823 157.746  1.00  0.00    -0.234 N 
ATOM     22  H12 UNL     1      19.884  -0.067 157.902  1.00  0.00     0.174 HD
ATOM     23  H11 UNL     1      20.483   1.490 158.508  1.00  0.00     0.174 HD
ENDBRANCH   1  21
BRANCH   6  24
HETATM   24  C9  UNL     1      24.048   1.760 154.945  1.00  0.00     0.239 C 
BRANCH  24  25
HETATM   25  N6  UNL     1      24.829   1.454 156.098  1.00  0.00    -0.069 N 
ATOM     26  H63 UNL     1      25.155   0.488 156.064  1.00  0.00     0.275 HD
ATOM     27  H62 UNL     1      25.725   1.939 156.065  1.00  0.00     0.275 HD
ATOM     28  H61 UNL     1      24.352   1.641 156.980  1.00  0.00     0.275 HD
ENDBRANCH  24  25
BRANCH  24  29
HETATM   29  C10 UNL     1      24.388   3.185 154.549  1.00  0.00     0.108 C 
BRANCH  29  30
HETATM   30  C11 UNL     1      25.365   3.686 155.553  1.00  0.00     0.233 C 
HETATM   31  O2  UNL     1      25.116   4.557 156.366  1.00  0.00    -0.307 OA
ENDBRANCH  29  30
ENDBRANCH  24  29
ENDBRANCH   6  24
TORSDOF 9
ENDMDL
MODEL 3
REMARK VINA RESULT: -5.442400507      1.125      1.373
REMARK  9 active torsions:
REMARK  status: ('A' for Active; 'I' for Inactive)
REMARK    1  A    between atoms: N1_1  and  C1_4 
REMARK    2  A    between atoms: C2_7  and  N3_8 
REMARK    3  A    between atoms: N3_8  and  C3_10 
REMARK    4  A    between atoms: C3_10  and  O1_11 
REMARK    5  A    between atoms: C3_10  and  C4_13 
REMARK    6  A    between atoms: C8_21  and  C9_22 
REMARK    7  A    between atoms: C9_22  and  N6_23 
REMARK    8  A    between atoms: C9_22  and  C10_27 
REMARK    9  A    between atoms: C10_27  and  C11_28 
ROOT
HETATM    1  C1  UNL     1      20.649  -1.695 150.532  1.00  0.00     0.677 A 
HETATM    2  N2  UNL     1      20.599  -0.475 151.141  1.00  0.00    -0.177 N 
ATOM      3  H2  UNL     1      20.613  -0.417 152.159  1.00  0.00     0.185 HD
HETATM    4  C2  UNL     1      20.532   0.653 150.410  1.00  0.00     0.121 A 
HETATM    5  C7  UNL     1      20.516   0.526 149.038  1.00  0.00     0.076 A 
HETATM    6  C8  UNL     1      20.566  -0.699 148.427  1.00  0.00     0.061 A 
HETATM    7  N7  UNL     1      20.632  -1.801 149.188  1.00  0.00    -0.194 N 
ATOM      8  H7  UNL     1      20.670  -2.721 148.750  1.00  0.00     0.184 HD
ENDROOT
BRANCH   4   9
HETATM    9  N3  UNL     1      20.480   1.930 151.055  1.00  0.00    -0.345 N 
ATOM     10  H3  UNL     1      21.048   2.706 150.713  1.00  0.00     0.164 HD
BRANCH   9  11
HETATM   11  C3  UNL     1      19.605   2.103 152.204  1.00  0.00     0.272 C 
BRANCH  11  12
HETATM   12  O1  UNL     1      19.051   3.377 152.108  1.00  0.00    -0.371 OA
ATOM     13  H1  UNL     1      18.326   3.322 151.497  1.00  0.00     0.212 HD
ENDBRANCH  11  12
BRANCH  11  14
HETATM   14  C4  UNL     1      20.306   1.866 153.473  1.00  0.00     0.074 A 
HETATM   15  C5  UNL     1      21.611   2.211 153.763  1.00  0.00     0.118 A 
HETATM   16  N4  UNL     1      21.948   1.856 155.005  1.00  0.00    -0.360 N 
HETATM   17  C6  UNL     1      20.837   1.270 155.525  1.00  0.00     0.180 A 
ATOM     18  H4  UNL     1      22.848   1.995 155.466  1.00  0.00     0.166 HD
HETATM   19  N5  UNL     1      19.849   1.274 154.609  1.00  0.00    -0.351 N 
ATOM     20  H5  UNL     1      18.912   0.895 154.744  1.00  0.00     0.166 HD
ENDBRANCH  11  14
ENDBRANCH   9  11
ENDBRANCH   4   9
BRANCH   1  21
HETATM   21  N1  UNL     1      20.712  -2.745 151.277  1.00  0.00    -0.234 N 
ATOM     22  H12 UNL     1      21.215  -2.728 152.164  1.00  0.00     0.174 HD
ATOM     23  H11 UNL     1      20.247  -3.594 150.954  1.00  0.00     0.174 HD
ENDBRANCH   1  21
BRANCH   6  24
HETATM   24  C9  UNL     1      20.549  -0.841 146.953  1.00  0.00     0.239 C 
BRANCH  24  25
HETATM   25  N6  UNL     1      20.591   0.401 146.254  1.00  0.00    -0.069 N 
ATOM     26  H63 UNL     1      19.791   0.980 146.504  1.00  0.00     0.275 HD
ATOM     27  H62 UNL     1      21.346   0.987 146.609  1.00  0.00     0.275 HD
ATOM     28  H61 UNL     1      20.661   0.301 145.241  1.00  0.00     0.275 HD
ENDBRANCH  24  25
BRANCH  24  29
HETATM   29  C10 UNL     1      19.295  -1.561 146.496  1.00  0.00     0.108 C 
BRANCH  29  30
HETATM   30  C11 UNL     1      18.145  -0.689 146.856  1.00  0.00     0.233 C 
HETATM   31  O2  UNL     1      17.761   0.244 146.175  1.00  0.00    -0.307 OA
ENDBRANCH  29  30
ENDBRANCH  24  29
ENDBRANCH   6  24
TORSDOF 9
ENDMDL
MODEL 4
REMARK VINA RESULT: -5.269773049      4.466      6.775
REMARK  9 active torsions:
REMARK  status: ('A' for Active; 'I' for Inactive)
REMARK    1  A    between atoms: N1_1  and  C1_4 
REMARK    2  A    between atoms: C2_7  and  N3_8 
REMARK    3  A    between atoms: N3_8  and  C3_10 
REMARK    4  A    between atoms: C3_10  and  O1_11 
REMARK    5  A    between atoms: C3_10  and  C4_13 
REMARK    6  A    between atoms: C8_21  and  C9_22 
REMARK    7  A    between atoms: C9_22  and  N6_23 
REMARK    8  A    between atoms: C9_22  and  C10_27 
REMARK    9  A    between atoms: C10_27  and  C11_28 
ROOT
HETATM    1  C1  UNL     1      22.540   1.598 155.465  1.00  0.00     0.677 A 
HETATM    2  N2  UNL     1      23.670   2.319 155.205  1.00  0.00    -0.177 N 
ATOM      3  H2  UNL     1      24.451   2.287 155.860  1.00  0.00     0.185 HD
HETATM    4  C2  UNL     1      23.762   3.069 154.093  1.00  0.00     0.121 A 
HETATM    5  C7  UNL     1      22.682   3.081 153.237  1.00  0.00     0.076 A 
HETATM    6  C8  UNL     1      21.548   2.358 153.498  1.00  0.00     0.061 A 
HETATM    7  N7  UNL     1      21.493   1.621 154.617  1.00  0.00    -0.194 N 
ATOM      8  H7  UNL     1      20.656   1.077 154.827  1.00  0.00     0.184 HD
ENDROOT
BRANCH   4   9
HETATM    9  N3  UNL     1      24.950   3.822 153.825  1.00  0.00    -0.345 N 
ATOM     10  H3  UNL     1      25.124   4.201 152.894  1.00  0.00     0.164 HD
BRANCH   9  11
HETATM   11  C3  UNL     1      25.904   4.038 154.902  1.00  0.00     0.272 C 
BRANCH  11  12
HETATM   12  O1  UNL     1      25.199   4.587 155.970  1.00  0.00    -0.371 OA
ATOM     13  H1  UNL     1      25.296   5.530 155.914  1.00  0.00     0.212 HD
ENDBRANCH  11  12
BRANCH  11  14
HETATM   14  C4  UNL     1      27.045   4.860 154.473  1.00  0.00     0.074 A 
HETATM   15  C5  UNL     1      28.206   5.082 155.185  1.00  0.00     0.118 A 
HETATM   16  N4  UNL     1      29.046   5.877 154.518  1.00  0.00    -0.360 N 
HETATM   17  C6  UNL     1      28.412   6.172 153.353  1.00  0.00     0.180 A 
ATOM     18  H4  UNL     1      29.968   6.195 154.819  1.00  0.00     0.166 HD
HETATM   19  N5  UNL     1      27.210   5.564 153.321  1.00  0.00    -0.351 N 
ATOM     20  H5  UNL     1      26.534   5.622 152.559  1.00  0.00     0.166 HD
ENDBRANCH  11  14
ENDBRANCH   9  11
ENDBRANCH   4   9
BRANCH   1  21
HETATM   21  N1  UNL     1      22.501   0.895 156.545  1.00  0.00    -0.234 N 
ATOM     22  H12 UNL     1      23.077   1.141 157.350  1.00  0.00     0.174 HD
ATOM     23  H11 UNL     1      21.879   0.087 156.572  1.00  0.00     0.174 HD
ENDBRANCH   1  21
BRANCH   6  24
HETATM   24  C9  UNL     1      20.384   2.367 152.582  1.00  0.00     0.239 C 
BRANCH  24  25
HETATM   25  N6  UNL     1      19.145   2.073 153.222  1.00  0.00    -0.069 N 
ATOM     26  H63 UNL     1      18.973   1.068 153.227  1.00  0.00     0.275 HD
ATOM     27  H62 UNL     1      19.211   2.241 154.226  1.00  0.00     0.275 HD
ATOM     28  H61 UNL     1      18.348   2.573 152.827  1.00  0.00     0.275 HD
ENDBRANCH  24  25
BRANCH  24  29
HETATM   29  C10 UNL     1      20.562   1.344 151.476  1.00  0.00     0.108 C 
BRANCH  29  30
HETATM   30  C11 UNL     1      20.164   2.012 150.208  1.00  0.00     0.233 C 
HETATM   31  O2  UNL     1      19.322   2.887 150.136  1.00  0.00    -0.307 OA
ENDBRANCH  29  30
ENDBRANCH  24  29
ENDBRANCH   6  24
TORSDOF 9
ENDMDL
MODEL 5
REMARK VINA RESULT: -5.250800162      2.376      6.895
REMARK  9 active torsions:
REMARK  status: ('A' for Active; 'I' for Inactive)
REMARK    1  A    between atoms: N1_1  and  C1_4 
REMARK    2  A    between atoms: C2_7  and  N3_8 
REMARK    3  A    between atoms: N3_8  and  C3_10 
REMARK    4  A    between atoms: C3_10  and  O1_11 
REMARK    5  A    between atoms: C3_10  and  C4_13 
REMARK    6  A    between atoms: C8_21  and  C9_22 
REMARK    7  A    between atoms: C9_22  and  N6_23 
REMARK    8  A    between atoms: C9_22  and  C10_27 
REMARK    9  A    between atoms: C10_27  and  C11_28 
ROOT
HETATM    1  C1  UNL     1      20.636   1.330 155.675  1.00  0.00     0.677 A 
HETATM    2  N2  UNL     1      19.857   1.370 154.556  1.00  0.00    -0.177 N 
ATOM      3  H2  UNL     1      18.871   1.115 154.617  1.00  0.00     0.185 HD
HETATM    4  C2  UNL     1      20.377   1.742 153.372  1.00  0.00     0.121 A 
HETATM    5  C7  UNL     1      21.713   2.076 153.337  1.00  0.00     0.076 A 
HETATM    6  C8  UNL     1      22.495   2.036 154.461  1.00  0.00     0.061 A 
HETATM    7  N7  UNL     1      21.942   1.661 155.623  1.00  0.00    -0.194 N 
ATOM      8  H7  UNL     1      22.510   1.625 156.470  1.00  0.00     0.184 HD
ENDROOT
BRANCH   4   9
HETATM    9  N3  UNL     1      19.554   1.781 152.202  1.00  0.00    -0.345 N 
ATOM     10  H3  UNL     1      18.538   1.732 152.281  1.00  0.00     0.164 HD
BRANCH   9  11
HETATM   11  C3  UNL     1      20.189   1.893 150.898  1.00  0.00     0.272 C 
BRANCH  11  12
HETATM   12  O1  UNL     1      19.448   2.812 150.159  1.00  0.00    -0.371 OA
ATOM     13  H1  UNL     1      19.602   2.621 149.241  1.00  0.00     0.212 HD
ENDBRANCH  11  12
BRANCH  11  14
HETATM   14  C4  UNL     1      20.327   0.588 150.236  1.00  0.00     0.074 A 
HETATM   15  C5  UNL     1      20.129   0.326 148.896  1.00  0.00     0.118 A 
HETATM   16  N4  UNL     1      20.332  -0.963 148.612  1.00  0.00    -0.360 N 
HETATM   17  C6  UNL     1      20.667  -1.542 149.796  1.00  0.00     0.180 A 
ATOM     18  H4  UNL     1      20.253  -1.416 147.702  1.00  0.00     0.166 HD
HETATM   19  N5  UNL     1      20.665  -0.615 150.774  1.00  0.00    -0.351 N 
ATOM     20  H5  UNL     1      20.881  -0.787 151.756  1.00  0.00     0.166 HD
ENDBRANCH  11  14
ENDBRANCH   9  11
ENDBRANCH   4   9
BRANCH   1  21
HETATM   21  N1  UNL     1      20.091   0.967 156.785  1.00  0.00    -0.234 N 
ATOM     22  H12 UNL     1      20.662   0.751 157.602  1.00  0.00     0.174 HD
ATOM     23  H11 UNL     1      19.074   0.900 156.823  1.00  0.00     0.174 HD
ENDBRANCH   1  21
BRANCH   6  24
HETATM   24  C9  UNL     1      23.932   2.395 154.429  1.00  0.00     0.239 C 
BRANCH  24  25
HETATM   25  N6  UNL     1      24.495   2.635 155.717  1.00  0.00    -0.069 N 
ATOM     26  H63 UNL     1      24.706   3.626 155.836  1.00  0.00     0.275 HD
ATOM     27  H62 UNL     1      23.789   2.521 156.444  1.00  0.00     0.275 HD
ATOM     28  H61 UNL     1      25.316   2.065 155.921  1.00  0.00     0.275 HD
ENDBRANCH  24  25
BRANCH  24  29
HETATM   29  C10 UNL     1      24.155   3.652 153.609  1.00  0.00     0.108 C 
BRANCH  29  30
HETATM   30  C11 UNL     1      25.557   4.083 153.860  1.00  0.00     0.233 C 
HETATM   31  O2  UNL     1      25.881   4.867 154.732  1.00  0.00    -0.307 OA
ENDBRANCH  29  30
ENDBRANCH  24  29
ENDBRANCH   6  24
TORSDOF 9
ENDMDL
