MODEL 1
REMARK VINA RESULT: -4.070922578      0.000      0.000
REMARK  1 active torsions:
REMARK  status: ('A' for Active; 'I' for Inactive)
REMARK    1  A    between atoms: C1_2  and  C2_3 
ROOT
HETATM    1  S1  UNL     1     -15.788 -27.728  14.294  1.00  0.00    -0.084 SA
HETATM    2  C1  UNL     1     -17.292 -28.683  13.836  1.00  0.00     0.046 C 
HETATM    3  C3  UNL     1     -18.287 -27.727  13.319  1.00  0.00     0.026 C 
HETATM    4  C4  UNL     1     -19.700 -27.970  13.705  1.00  0.00     0.021 C 
HETATM    5  C5  UNL     1     -19.818 -28.424  15.130  1.00  0.00     0.113 C 
HETATM    6  N1  UNL     1     -19.067 -29.622  15.278  1.00  0.00    -0.420 N 
ATOM      7  H1  UNL     1     -19.497 -30.492  15.591  1.00  0.00     0.153 HD
HETATM    8  C6  UNL     1     -17.686 -29.539  14.966  1.00  0.00     0.136 C 
ENDROOT
BRANCH   2   9
HETATM    9  C2  UNL     1     -16.794 -29.592  12.697  1.00  0.00     0.137 C 
HETATM   10 CL1  UNL     1     -16.588 -31.206  13.427  1.00  0.00    -0.129 Cl
ENDBRANCH   2   9
TORSDOF 1
ENDMDL
MODEL 2
REMARK VINA RESULT: -3.846645307      2.504      3.371
REMARK  1 active torsions:
REMARK  status: ('A' for Active; 'I' for Inactive)
REMARK    1  A    between atoms: C1_2  and  C2_3 
ROOT
HETATM    1  S1  UNL     1     -18.431 -26.326  15.009  1.00  0.00    -0.084 SA
HETATM    2  C1  UNL     1     -18.681 -27.934  14.152  1.00  0.00     0.046 C 
HETATM    3  C3  UNL     1     -18.609 -28.997  15.171  1.00  0.00     0.026 C 
HETATM    4  C4  UNL     1     -17.916 -30.248  14.772  1.00  0.00     0.021 C 
HETATM    5  C5  UNL     1     -16.698 -29.970  13.942  1.00  0.00     0.113 C 
HETATM    6  N1  UNL     1     -17.105 -29.256  12.782  1.00  0.00    -0.420 N 
ATOM      7  H1  UNL     1     -16.933 -29.613  11.842  1.00  0.00     0.153 HD
HETATM    8  C6  UNL     1     -17.765 -28.021  13.005  1.00  0.00     0.136 C 
ENDROOT
BRANCH   2   9
HETATM    9  C2  UNL     1     -20.119 -27.820  13.611  1.00  0.00     0.137 C 
HETATM   10 CL1  UNL     1     -19.967 -27.060  12.005  1.00  0.00    -0.129 Cl
ENDBRANCH   2   9
TORSDOF 1
ENDMDL
MODEL 3
REMARK VINA RESULT: -3.841692226      1.394      1.775
REMARK  1 active torsions:
REMARK  status: ('A' for Active; 'I' for Inactive)
REMARK    1  A    between atoms: C1_2  and  C2_3 
ROOT
HETATM    1  S1  UNL     1     -16.057 -27.622  14.283  1.00  0.00    -0.084 SA
HETATM    2  C1  UNL     1     -17.801 -28.205  14.258  1.00  0.00     0.046 C 
HETATM    3  C3  UNL     1     -18.229 -28.270  12.849  1.00  0.00     0.026 C 
HETATM    4  C4  UNL     1     -19.620 -27.837  12.560  1.00  0.00     0.021 C 
HETATM    5  C5  UNL     1     -20.010 -26.637  13.371  1.00  0.00     0.113 C 
HETATM    6  N1  UNL     1     -19.887 -26.972  14.747  1.00  0.00    -0.420 N 
ATOM      7  H1  UNL     1     -20.679 -26.920  15.387  1.00  0.00     0.153 HD
HETATM    8  C6  UNL     1     -18.601 -27.384  15.180  1.00  0.00     0.136 C 
ENDROOT
BRANCH   2   9
HETATM    9  C2  UNL     1     -17.702 -29.626  14.843  1.00  0.00     0.137 C 
HETATM   10 CL1  UNL     1     -16.752 -30.566  13.662  1.00  0.00    -0.129 Cl
ENDBRANCH   2   9
TORSDOF 1
ENDMDL
MODEL 4
REMARK VINA RESULT: -3.791517111      2.053      2.845
REMARK  1 active torsions:
REMARK  status: ('A' for Active; 'I' for Inactive)
REMARK    1  A    between atoms: C1_2  and  C2_3 
ROOT
HETATM    1  S1  UNL     1     -19.034 -27.867  12.885  1.00  0.00    -0.084 SA
HETATM    2  C1  UNL     1     -17.799 -28.686  13.974  1.00  0.00     0.046 C 
HETATM    3  C3  UNL     1     -17.036 -29.638  13.146  1.00  0.00     0.026 C 
HETATM    4  C4  UNL     1     -16.690 -30.935  13.780  1.00  0.00     0.021 C 
HETATM    5  C5  UNL     1     -17.815 -31.463  14.620  1.00  0.00     0.113 C 
HETATM    6  N1  UNL     1     -18.106 -30.500  15.626  1.00  0.00    -0.420 N 
ATOM      7  H1  UNL     1     -18.050 -30.725  16.619  1.00  0.00     0.153 HD
HETATM    8  C6  UNL     1     -18.478 -29.210  15.170  1.00  0.00     0.136 C 
ENDROOT
BRANCH   2   9
HETATM    9  C2  UNL     1     -16.891 -27.521  14.410  1.00  0.00     0.137 C 
HETATM   10 CL1  UNL     1     -15.379 -27.721  13.486  1.00  0.00    -0.129 Cl
ENDBRANCH   2   9
TORSDOF 1
ENDMDL
MODEL 5
REMARK VINA RESULT: -3.764127361      2.403      2.676
REMARK  1 active torsions:
REMARK  status: ('A' for Active; 'I' for Inactive)
REMARK    1  A    between atoms: C1_2  and  C2_3 
ROOT
HETATM    1  S1  UNL     1     -17.809 -29.690  14.726  1.00  0.00    -0.084 SA
HETATM    2  C1  UNL     1     -17.838 -28.081  13.836  1.00  0.00     0.046 C 
HETATM    3  C3  UNL     1     -17.877 -27.012  14.850  1.00  0.00     0.026 C 
HETATM    4  C4  UNL     1     -18.738 -25.842  14.545  1.00  0.00     0.021 C 
HETATM    5  C5  UNL     1     -20.024 -26.252  13.891  1.00  0.00     0.113 C 
HETATM    6  N1  UNL     1     -19.710 -26.944  12.689  1.00  0.00    -0.420 N 
ATOM      7  H1  UNL     1     -20.043 -26.623  11.780  1.00  0.00     0.153 HD
HETATM    8  C6  UNL     1     -18.907 -28.104  12.825  1.00  0.00     0.136 C 
ENDROOT
BRANCH   2   9
HETATM    9  C2  UNL     1     -16.484 -28.063  13.103  1.00  0.00     0.137 C 
HETATM   10 CL1  UNL     1     -15.271 -27.660  14.347  1.00  0.00    -0.129 Cl
ENDBRANCH   2   9
TORSDOF 1
ENDMDL
