MODEL 1
REMARK VINA RESULT: -4.761088570      0.000      0.000
REMARK  3 active torsions:
REMARK  status: ('A' for Active; 'I' for Inactive)
REMARK    1  A    between atoms: C1_2  and  N1_3 
REMARK    2  A    between atoms: C1_2  and  N2_6 
REMARK    3  A    between atoms: N2_6  and  C2_8 
ROOT
HETATM    1  C2  UNL     1       8.984  -4.298 -12.282  1.00  0.00     0.033 C 
HETATM    2  C3  UNL     1       8.733  -3.012 -12.987  1.00  0.00     0.035 C 
HETATM    3  C4  UNL     1       8.666  -3.068 -14.476  1.00  0.00    -0.012 C 
HETATM    4  C5  UNL     1      10.005  -2.907 -15.144  1.00  0.00     0.005 C 
HETATM    5  C6  UNL     1      11.124  -3.628 -14.511  1.00  0.00     0.005 C 
HETATM    6  C7  UNL     1      10.838  -4.914 -13.851  1.00  0.00    -0.012 C 
HETATM    7  C8  UNL     1       9.895  -5.830 -14.574  1.00  0.00     0.009 C 
HETATM    8  C9  UNL     1       8.459  -5.513 -14.352  1.00  0.00    -0.012 C 
HETATM    9  C10 UNL     1       8.007  -4.262 -15.071  1.00  0.00     0.009 C 
HETATM   10  C11 UNL     1       8.072  -5.370 -12.931  1.00  0.00     0.035 C 
HETATM   11  C12 UNL     1      10.411  -4.760 -12.407  1.00  0.00     0.035 C 
ENDROOT
BRANCH   1  12
HETATM   12  N2  UNL     1       8.631  -4.294 -10.901  1.00  0.00    -0.357 N 
ATOM     13  H2  UNL     1       8.254  -5.181 -10.566  1.00  0.00     0.162 HD
BRANCH  12  14
HETATM   14  C1  UNL     1       8.705  -3.303  -9.923  1.00  0.00     0.182 C 
HETATM   15  S1  UNL     1       7.352  -2.371  -9.637  1.00  0.00    -0.040 SA
BRANCH  14  16
HETATM   16  N1  UNL     1       9.828  -3.015  -9.148  1.00  0.00    -0.275 N 
HETATM   17 CL1  UNL     1      11.126  -4.221  -9.051  1.00  0.00     0.013 Cl
ATOM     18  H1  UNL     1       9.901  -2.130  -8.647  1.00  0.00     0.183 HD
ENDBRANCH  14  16
ENDBRANCH  12  14
ENDBRANCH   1  12
TORSDOF 3
ENDMDL
MODEL 2
REMARK VINA RESULT: -4.666503163      4.343      5.478
REMARK  3 active torsions:
REMARK  status: ('A' for Active; 'I' for Inactive)
REMARK    1  A    between atoms: C1_2  and  N1_3 
REMARK    2  A    between atoms: C1_2  and  N2_6 
REMARK    3  A    between atoms: N2_6  and  C2_8 
ROOT
HETATM    1  C2  UNL     1      11.163  -6.837  -9.582  1.00  0.00     0.033 C 
HETATM    2  C3  UNL     1       9.882  -6.916 -10.335  1.00  0.00     0.035 C 
HETATM    3  C4  UNL     1       9.672  -5.897 -11.404  1.00  0.00    -0.012 C 
HETATM    4  C5  UNL     1       9.034  -4.628 -10.906  1.00  0.00     0.005 C 
HETATM    5  C6  UNL     1       9.534  -4.128  -9.614  1.00  0.00     0.005 C 
HETATM    6  C7  UNL     1      10.950  -4.358  -9.279  1.00  0.00    -0.012 C 
HETATM    7  C8  UNL     1      11.931  -4.158 -10.396  1.00  0.00     0.009 C 
HETATM    8  C9  UNL     1      12.060  -5.330 -11.302  1.00  0.00    -0.012 C 
HETATM    9  C10 UNL     1      10.864  -5.516 -12.208  1.00  0.00     0.009 C 
HETATM   10  C11 UNL     1      12.298  -6.618 -10.615  1.00  0.00     0.035 C 
HETATM   11  C12 UNL     1      11.192  -5.692  -8.605  1.00  0.00     0.035 C 
ENDROOT
BRANCH   1  12
HETATM   12  N2  UNL     1      11.515  -8.031  -8.888  1.00  0.00    -0.357 N 
ATOM     13  H2  UNL     1      10.773  -8.399  -8.292  1.00  0.00     0.162 HD
BRANCH  12  14
HETATM   14  C1  UNL     1      12.685  -8.788  -8.870  1.00  0.00     0.182 C 
HETATM   15  S1  UNL     1      12.768 -10.140  -9.842  1.00  0.00    -0.040 SA
BRANCH  14  16
HETATM   16  N1  UNL     1      13.814  -8.513  -8.098  1.00  0.00    -0.275 N 
HETATM   17 CL1  UNL     1      15.360  -8.233  -8.923  1.00  0.00     0.013 Cl
ATOM     18  H1  UNL     1      13.752  -8.473  -7.081  1.00  0.00     0.183 HD
ENDBRANCH  14  16
ENDBRANCH  12  14
ENDBRANCH   1  12
TORSDOF 3
ENDMDL
MODEL 3
REMARK VINA RESULT: -4.650670447      3.540      4.874
REMARK  3 active torsions:
REMARK  status: ('A' for Active; 'I' for Inactive)
REMARK    1  A    between atoms: C1_2  and  N1_3 
REMARK    2  A    between atoms: C1_2  and  N2_6 
REMARK    3  A    between atoms: N2_6  and  C2_8 
ROOT
HETATM    1  C2  UNL     1      10.886  -5.424  -9.890  1.00  0.00     0.033 C 
HETATM    2  C3  UNL     1      12.052  -5.612 -10.795  1.00  0.00     0.035 C 
HETATM    3  C4  UNL     1      12.373  -7.014 -11.188  1.00  0.00    -0.012 C 
HETATM    4  C5  UNL     1      13.299  -7.710 -10.228  1.00  0.00     0.005 C 
HETATM    5  C6  UNL     1      13.028  -7.477  -8.798  1.00  0.00     0.005 C 
HETATM    6  C7  UNL     1      11.630  -7.279  -8.378  1.00  0.00    -0.012 C 
HETATM    7  C8  UNL     1      10.617  -8.180  -9.020  1.00  0.00     0.009 C 
HETATM    8  C9  UNL     1      10.170  -7.726 -10.363  1.00  0.00    -0.012 C 
HETATM    9  C10 UNL     1      11.219  -7.920 -11.436  1.00  0.00     0.009 C 
HETATM   10  C11 UNL     1       9.734  -6.314 -10.422  1.00  0.00     0.035 C 
HETATM   11  C12 UNL     1      11.179  -5.838  -8.472  1.00  0.00     0.035 C 
ENDROOT
BRANCH   1  12
HETATM   12  N2  UNL     1      10.358  -4.100  -9.872  1.00  0.00    -0.357 N 
ATOM     13  H2  UNL     1      11.037  -3.386  -9.609  1.00  0.00     0.162 HD
BRANCH  12  14
HETATM   14  C1  UNL     1       9.086  -3.600 -10.148  1.00  0.00     0.182 C 
HETATM   15  S1  UNL     1       8.612  -3.480 -11.742  1.00  0.00    -0.040 SA
BRANCH  14  16
HETATM   16  N1  UNL     1       8.158  -3.183  -9.195  1.00  0.00    -0.275 N 
HETATM   17 CL1  UNL     1       7.079  -1.832  -9.593  1.00  0.00     0.013 Cl
ATOM     18  H1  UNL     1       8.101  -3.645  -8.288  1.00  0.00     0.183 HD
ENDBRANCH  14  16
ENDBRANCH  12  14
ENDBRANCH   1  12
TORSDOF 3
ENDMDL
MODEL 4
REMARK VINA RESULT: -4.634808179      0.393      2.108
REMARK  3 active torsions:
REMARK  status: ('A' for Active; 'I' for Inactive)
REMARK    1  A    between atoms: C1_2  and  N1_3 
REMARK    2  A    between atoms: C1_2  and  N2_6 
REMARK    3  A    between atoms: N2_6  and  C2_8 
ROOT
HETATM    1  C2  UNL     1       8.926  -4.467 -12.204  1.00  0.00     0.033 C 
HETATM    2  C3  UNL     1      10.352  -4.804 -12.457  1.00  0.00     0.035 C 
HETATM    3  C4  UNL     1      10.877  -4.506 -13.821  1.00  0.00    -0.012 C 
HETATM    4  C5  UNL     1      10.677  -5.630 -14.801  1.00  0.00     0.005 C 
HETATM    5  C6  UNL     1       9.370  -6.306 -14.737  1.00  0.00     0.005 C 
HETATM    6  C7  UNL     1       8.190  -5.507 -14.362  1.00  0.00    -0.012 C 
HETATM    7  C8  UNL     1       8.103  -4.138 -14.968  1.00  0.00     0.009 C 
HETATM    8  C9  UNL     1       8.902  -3.109 -14.251  1.00  0.00    -0.012 C 
HETATM    9  C10 UNL     1      10.391  -3.255 -14.465  1.00  0.00     0.009 C 
HETATM   10  C11 UNL     1       8.669  -3.056 -12.791  1.00  0.00     0.035 C 
HETATM   11  C12 UNL     1       7.975  -5.429 -12.865  1.00  0.00     0.035 C 
ENDROOT
BRANCH   1  12
HETATM   12  N2  UNL     1       8.578  -4.368 -10.825  1.00  0.00    -0.357 N 
ATOM     13  H2  UNL     1       8.138  -5.207 -10.446  1.00  0.00     0.162 HD
BRANCH  12  14
HETATM   14  C1  UNL     1       8.726  -3.336  -9.898  1.00  0.00     0.182 C 
HETATM   15  S1  UNL     1       7.413  -2.355  -9.590  1.00  0.00    -0.040 SA
BRANCH  14  16
HETATM   16  N1  UNL     1       9.893  -3.046  -9.193  1.00  0.00    -0.275 N 
HETATM   17 CL1  UNL     1      11.139  -4.301  -9.056  1.00  0.00     0.013 Cl
ATOM     18  H1  UNL     1      10.027  -2.130  -8.764  1.00  0.00     0.183 HD
ENDBRANCH  14  16
ENDBRANCH  12  14
ENDBRANCH   1  12
TORSDOF 3
ENDMDL
MODEL 5
REMARK VINA RESULT: -4.629558982      3.390      4.530
REMARK  3 active torsions:
REMARK  status: ('A' for Active; 'I' for Inactive)
REMARK    1  A    between atoms: C1_2  and  N1_3 
REMARK    2  A    between atoms: C1_2  and  N2_6 
REMARK    3  A    between atoms: N2_6  and  C2_8 
ROOT
HETATM    1  C2  UNL     1      10.588  -5.213 -10.051  1.00  0.00     0.033 C 
HETATM    2  C3  UNL     1       9.573  -6.194 -10.520  1.00  0.00     0.035 C 
HETATM    3  C4  UNL     1       9.968  -7.632 -10.485  1.00  0.00    -0.012 C 
HETATM    4  C5  UNL     1      10.659  -8.095 -11.739  1.00  0.00     0.005 C 
HETATM    5  C6  UNL     1      11.645  -7.159 -12.307  1.00  0.00     0.005 C 
HETATM    6  C7  UNL     1      12.410  -6.307 -11.380  1.00  0.00    -0.012 C 
HETATM    7  C8  UNL     1      12.897  -6.970 -10.126  1.00  0.00     0.009 C 
HETATM    8  C9  UNL     1      11.875  -7.050  -9.049  1.00  0.00    -0.012 C 
HETATM    9  C10 UNL     1      10.795  -8.070  -9.328  1.00  0.00     0.009 C 
HETATM   10  C11 UNL     1      11.204  -5.768  -8.741  1.00  0.00     0.035 C 
HETATM   11  C12 UNL     1      11.703  -5.011 -11.042  1.00  0.00     0.035 C 
ENDROOT
BRANCH   1  12
HETATM   12  N2  UNL     1      10.059  -3.936  -9.703  1.00  0.00    -0.357 N 
ATOM     13  H2  UNL     1      10.678  -3.375  -9.117  1.00  0.00     0.162 HD
BRANCH  12  14
HETATM   14  C1  UNL     1       8.852  -3.310 -10.014  1.00  0.00     0.182 C 
HETATM   15  S1  UNL     1       8.338  -3.328 -11.600  1.00  0.00    -0.040 SA
BRANCH  14  16
HETATM   16  N1  UNL     1       8.022  -2.659  -9.103  1.00  0.00    -0.275 N 
HETATM   17 CL1  UNL     1       6.894  -1.430  -9.708  1.00  0.00     0.013 Cl
ATOM     18  H1  UNL     1       8.061  -2.885  -8.109  1.00  0.00     0.183 HD
ENDBRANCH  14  16
ENDBRANCH  12  14
ENDBRANCH   1  12
TORSDOF 3
ENDMDL
