MODEL 1
REMARK VINA RESULT: -5.202093027      0.000      0.000
REMARK  4 active torsions:
REMARK  status: ('A' for Active; 'I' for Inactive)
REMARK    1  A    between atoms: C2_2  and  N1_4 
REMARK    2  A    between atoms: N1_4  and  C4_6 
REMARK    3  A    between atoms: C4_6  and  N2_8 
REMARK    4  A    between atoms: N2_8  and  C5_10 
ROOT
HETATM    1  C5  UNL     1      10.275  -6.107 -10.773  1.00  0.00     0.117 C 
HETATM    2  C6  UNL     1      11.303  -5.525  -9.866  1.00  0.00     0.028 C 
HETATM    3  C7  UNL     1      11.199  -5.947  -8.442  1.00  0.00     0.002 C 
HETATM    4  C8  UNL     1      12.052  -7.036  -7.958  1.00  0.00     0.000 C 
HETATM    5  C9  UNL     1      12.939  -7.724  -8.943  1.00  0.00     0.000 C 
HETATM    6  C10 UNL     1      12.199  -8.747  -9.783  1.00  0.00     0.003 C 
HETATM    7  C11 UNL     1      11.557  -8.162 -10.994  1.00  0.00     0.039 C 
HETATM    8  C12 UNL     1      10.188  -7.614 -10.756  1.00  0.00     0.192 C 
HETATM    9  F1  UNL     1       9.536  -8.137  -9.684  1.00  0.00    -0.247 F 
ENDROOT
BRANCH   1  10
HETATM   10  N2  UNL     1       8.977  -5.483 -10.716  1.00  0.00    -0.360 N 
ATOM     11  H2  UNL     1       8.290  -5.902 -10.088  1.00  0.00     0.162 HD
BRANCH  10  12
HETATM   12  C4  UNL     1       8.567  -4.357 -11.442  1.00  0.00     0.168 C 
HETATM   13  S1  UNL     1       9.314  -4.006 -12.849  1.00  0.00    -0.041 SA
BRANCH  12  14
HETATM   14  N1  UNL     1       7.512  -3.524 -11.002  1.00  0.00    -0.363 N 
ATOM     15  H1  UNL     1       6.686  -3.403 -11.589  1.00  0.00     0.162 HD
BRANCH  14  16
HETATM   16  C2  UNL     1       7.593  -2.844  -9.737  1.00  0.00     0.075 C 
HETATM   17  C1  UNL     1       6.832  -1.512  -9.886  1.00  0.00     0.032 C 
HETATM   18  C3  UNL     1       9.038  -2.501  -9.394  1.00  0.00     0.032 C 
ENDBRANCH  14  16
ENDBRANCH  12  14
ENDBRANCH  10  12
ENDBRANCH   1  10
TORSDOF 4
ENDMDL
MODEL 2
REMARK VINA RESULT: -4.855904421      1.308      1.718
REMARK  4 active torsions:
REMARK  status: ('A' for Active; 'I' for Inactive)
REMARK    1  A    between atoms: C2_2  and  N1_4 
REMARK    2  A    between atoms: N1_4  and  C4_6 
REMARK    3  A    between atoms: C4_6  and  N2_8 
REMARK    4  A    between atoms: N2_8  and  C5_10 
ROOT
HETATM    1  C5  UNL     1      11.339  -6.353 -10.542  1.00  0.00     0.117 C 
HETATM    2  C6  UNL     1      11.685  -6.323  -9.095  1.00  0.00     0.028 C 
HETATM    3  C7  UNL     1      11.469  -7.605  -8.368  1.00  0.00     0.002 C 
HETATM    4  C8  UNL     1      12.609  -8.500  -8.151  1.00  0.00     0.000 C 
HETATM    5  C9  UNL     1      13.927  -8.115  -8.737  1.00  0.00     0.000 C 
HETATM    6  C10 UNL     1      14.026  -8.433 -10.216  1.00  0.00     0.003 C 
HETATM    7  C11 UNL     1      13.488  -7.352 -11.089  1.00  0.00     0.039 C 
HETATM    8  C12 UNL     1      12.018  -7.442 -11.339  1.00  0.00     0.192 C 
HETATM    9  F1  UNL     1      11.482  -8.681 -11.187  1.00  0.00    -0.247 F 
ENDROOT
BRANCH   1  10
HETATM   10  N2  UNL     1       9.933  -6.251 -10.844  1.00  0.00    -0.360 N 
ATOM     11  H2  UNL     1       9.341  -7.032 -10.559  1.00  0.00     0.162 HD
BRANCH  10  12
HETATM   12  C4  UNL     1       9.302  -5.182 -11.493  1.00  0.00     0.168 C 
HETATM   13  S1  UNL     1       9.783  -4.771 -12.997  1.00  0.00    -0.041 SA
BRANCH  12  14
HETATM   14  N1  UNL     1       8.246  -4.458 -10.892  1.00  0.00    -0.363 N 
ATOM     15  H1  UNL     1       7.345  -4.912 -10.739  1.00  0.00     0.162 HD
BRANCH  14  16
HETATM   16  C2  UNL     1       8.429  -3.087 -10.495  1.00  0.00     0.075 C 
HETATM   17  C1  UNL     1       9.576  -3.061  -9.466  1.00  0.00     0.032 C 
HETATM   18  C3  UNL     1       7.185  -2.551  -9.796  1.00  0.00     0.032 C 
ENDBRANCH  14  16
ENDBRANCH  12  14
ENDBRANCH  10  12
ENDBRANCH   1  10
TORSDOF 4
ENDMDL
MODEL 3
REMARK VINA RESULT: -4.750759605      1.490      2.148
REMARK  4 active torsions:
REMARK  status: ('A' for Active; 'I' for Inactive)
REMARK    1  A    between atoms: C2_2  and  N1_4 
REMARK    2  A    between atoms: N1_4  and  C4_6 
REMARK    3  A    between atoms: C4_6  and  N2_8 
REMARK    4  A    between atoms: N2_8  and  C5_10 
ROOT
HETATM    1  C5  UNL     1      10.059  -5.754 -10.543  1.00  0.00     0.117 C 
HETATM    2  C6  UNL     1      10.685  -6.904 -11.251  1.00  0.00     0.028 C 
HETATM    3  C7  UNL     1      12.132  -6.740 -11.565  1.00  0.00     0.002 C 
HETATM    4  C8  UNL     1      13.127  -7.340 -10.672  1.00  0.00     0.000 C 
HETATM    5  C9  UNL     1      12.640  -8.032  -9.442  1.00  0.00     0.000 C 
HETATM    6  C10 UNL     1      12.297  -7.066  -8.324  1.00  0.00     0.003 C 
HETATM    7  C11 UNL     1      10.904  -6.544  -8.403  1.00  0.00     0.039 C 
HETATM    8  C12 UNL     1      10.751  -5.335  -9.267  1.00  0.00     0.192 C 
HETATM    9  F1  UNL     1      11.885  -4.607  -9.445  1.00  0.00    -0.247 F 
ENDROOT
BRANCH   1  10
HETATM   10  N2  UNL     1       9.718  -4.628 -11.375  1.00  0.00    -0.360 N 
ATOM     11  H2  UNL     1      10.491  -4.069 -11.737  1.00  0.00     0.162 HD
BRANCH  10  12
HETATM   12  C4  UNL     1       8.424  -4.226 -11.733  1.00  0.00     0.168 C 
HETATM   13  S1  UNL     1       7.463  -5.271 -12.537  1.00  0.00    -0.041 SA
BRANCH  12  14
HETATM   14  N1  UNL     1       7.917  -2.947 -11.402  1.00  0.00    -0.363 N 
ATOM     15  H1  UNL     1       7.979  -2.188 -12.080  1.00  0.00     0.162 HD
BRANCH  14  16
HETATM   16  C2  UNL     1       7.314  -2.707 -10.117  1.00  0.00     0.075 C 
HETATM   17  C1  UNL     1       6.526  -1.387 -10.224  1.00  0.00     0.032 C 
HETATM   18  C3  UNL     1       8.378  -2.511  -9.044  1.00  0.00     0.032 C 
ENDBRANCH  14  16
ENDBRANCH  12  14
ENDBRANCH  10  12
ENDBRANCH   1  10
TORSDOF 4
ENDMDL
MODEL 4
REMARK VINA RESULT: -4.715763856      1.733      2.298
REMARK  4 active torsions:
REMARK  status: ('A' for Active; 'I' for Inactive)
REMARK    1  A    between atoms: C2_2  and  N1_4 
REMARK    2  A    between atoms: N1_4  and  C4_6 
REMARK    3  A    between atoms: C4_6  and  N2_8 
REMARK    4  A    between atoms: N2_8  and  C5_10 
ROOT
HETATM    1  C5  UNL     1      10.209  -5.163 -10.477  1.00  0.00     0.117 C 
HETATM    2  C6  UNL     1      11.288  -4.994  -9.466  1.00  0.00     0.028 C 
HETATM    3  C7  UNL     1      11.185  -5.887  -8.279  1.00  0.00     0.002 C 
HETATM    4  C8  UNL     1      11.977  -7.120  -8.245  1.00  0.00     0.000 C 
HETATM    5  C9  UNL     1      12.801  -7.458  -9.443  1.00  0.00     0.000 C 
HETATM    6  C10 UNL     1      11.983  -8.077 -10.560  1.00  0.00     0.003 C 
HETATM    7  C11 UNL     1      11.356  -7.069 -11.460  1.00  0.00     0.039 C 
HETATM    8  C12 UNL     1      10.028  -6.572 -10.990  1.00  0.00     0.192 C 
HETATM    9  F1  UNL     1       9.366  -7.406 -10.146  1.00  0.00    -0.247 F 
ENDROOT
BRANCH   1  10
HETATM   10  N2  UNL     1       8.953  -4.534 -10.153  1.00  0.00    -0.360 N 
ATOM     11  H2  UNL     1       8.544  -4.759  -9.246  1.00  0.00     0.162 HD
BRANCH  10  12
HETATM   12  C4  UNL     1       8.240  -3.642 -10.965  1.00  0.00     0.168 C 
HETATM   13  S1  UNL     1       7.407  -2.425 -10.267  1.00  0.00    -0.041 SA
BRANCH  12  14
HETATM   14  N1  UNL     1       8.234  -3.753 -12.375  1.00  0.00    -0.363 N 
ATOM     15  H1  UNL     1       7.505  -4.296 -12.836  1.00  0.00     0.162 HD
BRANCH  14  16
HETATM   16  C2  UNL     1       9.248  -3.105 -13.166  1.00  0.00     0.075 C 
HETATM   17  C1  UNL     1       8.529  -2.123 -14.111  1.00  0.00     0.032 C 
HETATM   18  C3  UNL     1       9.984  -4.114 -14.039  1.00  0.00     0.032 C 
ENDBRANCH  14  16
ENDBRANCH  12  14
ENDBRANCH  10  12
ENDBRANCH   1  10
TORSDOF 4
ENDMDL
MODEL 5
REMARK VINA RESULT: -4.668847454      1.672      2.056
REMARK  4 active torsions:
REMARK  status: ('A' for Active; 'I' for Inactive)
REMARK    1  A    between atoms: C2_2  and  N1_4 
REMARK    2  A    between atoms: N1_4  and  C4_6 
REMARK    3  A    between atoms: C4_6  and  N2_8 
REMARK    4  A    between atoms: N2_8  and  C5_10 
ROOT
HETATM    1  C5  UNL     1      11.541  -6.710 -10.359  1.00  0.00     0.117 C 
HETATM    2  C6  UNL     1      11.970  -6.700  -8.934  1.00  0.00     0.028 C 
HETATM    3  C7  UNL     1      11.927  -8.023  -8.252  1.00  0.00     0.002 C 
HETATM    4  C8  UNL     1      13.160  -8.806  -8.140  1.00  0.00     0.000 C 
HETATM    5  C9  UNL     1      14.395  -8.268  -8.783  1.00  0.00     0.000 C 
HETATM    6  C10 UNL     1      14.434  -8.519 -10.278  1.00  0.00     0.003 C 
HETATM    7  C11 UNL     1      13.740  -7.465 -11.071  1.00  0.00     0.039 C 
HETATM    8  C12 UNL     1      12.274  -7.693 -11.240  1.00  0.00     0.192 C 
HETATM    9  F1  UNL     1      11.873  -8.986 -11.111  1.00  0.00    -0.247 F 
ENDROOT
BRANCH   1  10
HETATM   10  N2  UNL     1      10.116  -6.740 -10.575  1.00  0.00    -0.360 N 
ATOM     11  H2  UNL     1       9.604  -7.526 -10.175  1.00  0.00     0.162 HD
BRANCH  10  12
HETATM   12  C4  UNL     1       9.367  -5.791 -11.284  1.00  0.00     0.168 C 
HETATM   13  S1  UNL     1       8.355  -6.296 -12.460  1.00  0.00    -0.041 SA
BRANCH  12  14
HETATM   14  N1  UNL     1       9.447  -4.407 -10.999  1.00  0.00    -0.363 N 
ATOM     15  H1  UNL     1       9.580  -3.742 -11.760  1.00  0.00     0.162 HD
BRANCH  14  16
HETATM   16  C2  UNL     1       9.342  -3.930  -9.645  1.00  0.00     0.075 C 
HETATM   17  C1  UNL     1       8.249  -2.844  -9.629  1.00  0.00     0.032 C 
HETATM   18  C3  UNL     1      10.641  -3.268  -9.200  1.00  0.00     0.032 C 
ENDBRANCH  14  16
ENDBRANCH  12  14
ENDBRANCH  10  12
ENDBRANCH   1  10
TORSDOF 4
ENDMDL
