MODEL 1
REMARK VINA RESULT: -8.248749447      0.000      0.000
REMARK  3 active torsions:
REMARK  status: ('A' for Active; 'I' for Inactive)
REMARK    1  A    between atoms: C4_7  and  C5_8 
REMARK    2  A    between atoms: C5_8  and  C6_9 
REMARK    3  A    between atoms: C6_9  and  C7_10 
ROOT
HETATM    1  C5  UNL     1      21.885  30.500   6.945  1.00  0.00     0.016 C 
ENDROOT
BRANCH   1   2
HETATM    2  C4  UNL     1      21.920  31.740   6.116  1.00  0.00     0.052 C 
HETATM    3  C1  UNL     1      21.246  31.435   4.812  1.00  0.00     0.093 C 
HETATM    4  N1  UNL     1      21.375  30.169   4.111  1.00  0.00    -0.087 NA
HETATM    5  N2  UNL     1      20.579  32.446   4.447  1.00  0.00    -0.382 N 
HETATM    6  C2  UNL     1      20.643  33.554   5.350  1.00  0.00     0.121 C 
ATOM      7  H2  UNL     1      20.041  32.469   3.580  1.00  0.00     0.160 HD
HETATM    8  C3  UNL     1      21.195  32.917   6.640  1.00  0.00     0.031 C 
ENDBRANCH   1   2
BRANCH   1   9
HETATM    9  C6  UNL     1      23.103  30.095   7.673  1.00  0.00     0.028 C 
BRANCH   9  10
HETATM   10  C7  UNL     1      24.169  29.651   6.764  1.00  0.00    -0.024 C 
HETATM   11  C8  UNL     1      25.303  29.066   7.073  1.00  0.00    -0.084 C 
HETATM   12  C9  UNL     1      25.712  28.746   8.468  1.00  0.00     0.034 C 
HETATM   13  C13 UNL     1      26.235  28.704   5.955  1.00  0.00     0.034 C 
HETATM   14  C10 UNL     1      27.103  29.380   8.642  1.00  0.00     0.004 C 
HETATM   15  C11 UNL     1      28.018  28.612   7.712  1.00  0.00     0.001 C 
HETATM   16  C12 UNL     1      27.665  29.038   6.305  1.00  0.00     0.004 C 
ENDBRANCH   9  10
ENDBRANCH   1   9
TORSDOF 3
ENDMDL
MODEL 2
REMARK VINA RESULT: -8.025651662      5.174      8.812
REMARK  3 active torsions:
REMARK  status: ('A' for Active; 'I' for Inactive)
REMARK    1  A    between atoms: C4_7  and  C5_8 
REMARK    2  A    between atoms: C5_8  and  C6_9 
REMARK    3  A    between atoms: C6_9  and  C7_10 
ROOT
HETATM    1  C5  UNL     1      30.647  27.684   8.234  1.00  0.00     0.016 C 
ENDROOT
BRANCH   1   2
HETATM    2  C4  UNL     1      30.754  26.202   8.100  1.00  0.00     0.052 C 
HETATM    3  C1  UNL     1      31.831  25.911   7.099  1.00  0.00     0.093 C 
HETATM    4  N1  UNL     1      32.053  26.700   5.898  1.00  0.00    -0.087 NA
HETATM    5  N2  UNL     1      32.477  24.891   7.472  1.00  0.00    -0.382 N 
HETATM    6  C2  UNL     1      32.024  24.324   8.706  1.00  0.00     0.121 C 
ATOM      7  H2  UNL     1      33.256  24.504   6.938  1.00  0.00     0.160 HD
HETATM    8  C3  UNL     1      31.159  25.448   9.306  1.00  0.00     0.031 C 
ENDBRANCH   1   2
BRANCH   1   9
HETATM    9  C6  UNL     1      29.329  28.279   8.531  1.00  0.00     0.028 C 
BRANCH   9  10
HETATM   10  C7  UNL     1      28.477  28.358   7.337  1.00  0.00    -0.024 C 
HETATM   11  C8  UNL     1      27.316  28.959   7.211  1.00  0.00    -0.084 C 
HETATM   12  C9  UNL     1      26.643  29.692   8.319  1.00  0.00     0.034 C 
HETATM   13  C13 UNL     1      26.634  28.900   5.876  1.00  0.00     0.034 C 
HETATM   14  C10 UNL     1      25.232  29.085   8.412  1.00  0.00     0.004 C 
HETATM   15  C11 UNL     1      24.538  29.470   7.123  1.00  0.00     0.001 C 
HETATM   16  C12 UNL     1      25.157  28.631   6.029  1.00  0.00     0.004 C 
ENDBRANCH   9  10
ENDBRANCH   1   9
TORSDOF 3
ENDMDL
MODEL 3
REMARK VINA RESULT: -7.916005901      1.130      1.852
REMARK  3 active torsions:
REMARK  status: ('A' for Active; 'I' for Inactive)
REMARK    1  A    between atoms: C4_7  and  C5_8 
REMARK    2  A    between atoms: C5_8  and  C6_9 
REMARK    3  A    between atoms: C6_9  and  C7_10 
ROOT
HETATM    1  C5  UNL     1      22.017  31.918   6.564  1.00  0.00     0.016 C 
ENDROOT
BRANCH   1   2
HETATM    2  C4  UNL     1      20.931  31.771   5.550  1.00  0.00     0.052 C 
HETATM    3  C1  UNL     1      20.587  33.141   5.050  1.00  0.00     0.093 C 
HETATM    4  N1  UNL     1      20.547  34.324   5.892  1.00  0.00    -0.087 NA
HETATM    5  N2  UNL     1      20.340  33.078   3.811  1.00  0.00    -0.382 N 
HETATM    6  C2  UNL     1      20.463  31.766   3.251  1.00  0.00     0.121 C 
ATOM      7  H2  UNL     1      20.075  33.893   3.257  1.00  0.00     0.160 HD
HETATM    8  C3  UNL     1      21.255  31.002   4.330  1.00  0.00     0.031 C 
ENDBRANCH   1   2
BRANCH   1   9
HETATM    9  C6  UNL     1      22.472  30.722   7.300  1.00  0.00     0.028 C 
BRANCH   9  10
HETATM   10  C7  UNL     1      23.480  29.961   6.548  1.00  0.00    -0.024 C 
HETATM   11  C8  UNL     1      24.558  29.372   7.011  1.00  0.00    -0.084 C 
HETATM   12  C9  UNL     1      24.951  29.383   8.447  1.00  0.00     0.034 C 
HETATM   13  C13 UNL     1      25.438  28.648   6.035  1.00  0.00     0.034 C 
HETATM   14  C10 UNL     1      26.398  29.906   8.469  1.00  0.00     0.004 C 
HETATM   15  C11 UNL     1      27.225  28.843   7.779  1.00  0.00     0.001 C 
HETATM   16  C12 UNL     1      26.897  28.925   6.305  1.00  0.00     0.004 C 
ENDBRANCH   9  10
ENDBRANCH   1   9
TORSDOF 3
ENDMDL
MODEL 4
REMARK VINA RESULT: -7.669019495      6.044      9.344
REMARK  3 active torsions:
REMARK  status: ('A' for Active; 'I' for Inactive)
REMARK    1  A    between atoms: C4_7  and  C5_8 
REMARK    2  A    between atoms: C5_8  and  C6_9 
REMARK    3  A    between atoms: C6_9  and  C7_10 
ROOT
HETATM    1  C5  UNL     1      30.433  26.251   8.703  1.00  0.00     0.016 C 
ENDROOT
BRANCH   1   2
HETATM    2  C4  UNL     1      31.779  26.054   8.089  1.00  0.00     0.052 C 
HETATM    3  C1  UNL     1      32.242  24.673   8.442  1.00  0.00     0.093 C 
HETATM    4  N1  UNL     1      32.006  24.045   9.731  1.00  0.00    -0.087 NA
HETATM    5  N2  UNL     1      32.858  24.180   7.454  1.00  0.00    -0.382 N 
HETATM    6  C2  UNL     1      32.930  25.041   6.313  1.00  0.00     0.121 C 
ATOM      7  H2  UNL     1      33.269  23.246   7.468  1.00  0.00     0.160 HD
HETATM    8  C3  UNL     1      31.856  26.104   6.614  1.00  0.00     0.031 C 
ENDBRANCH   1   2
BRANCH   1   9
HETATM    9  C6  UNL     1      29.907  27.624   8.841  1.00  0.00     0.028 C 
BRANCH   9  10
HETATM   10  C7  UNL     1      29.177  28.059   7.642  1.00  0.00    -0.024 C 
HETATM   11  C8  UNL     1      28.037  28.708   7.582  1.00  0.00    -0.084 C 
HETATM   12  C9  UNL     1      27.263  29.127   8.783  1.00  0.00     0.034 C 
HETATM   13  C13 UNL     1      27.490  29.045   6.227  1.00  0.00     0.034 C 
HETATM   14  C10 UNL     1      25.846  28.564   8.572  1.00  0.00     0.004 C 
HETATM   15  C11 UNL     1      25.284  29.315   7.384  1.00  0.00     0.001 C 
HETATM   16  C12 UNL     1      26.003  28.792   6.160  1.00  0.00     0.004 C 
ENDBRANCH   9  10
ENDBRANCH   1   9
TORSDOF 3
ENDMDL
MODEL 5
REMARK VINA RESULT: -7.589063856      1.365      1.713
REMARK  3 active torsions:
REMARK  status: ('A' for Active; 'I' for Inactive)
REMARK    1  A    between atoms: C4_7  and  C5_8 
REMARK    2  A    between atoms: C5_8  and  C6_9 
REMARK    3  A    between atoms: C6_9  and  C7_10 
ROOT
HETATM    1  C5  UNL     1      21.826  30.026   6.349  1.00  0.00     0.016 C 
ENDROOT
BRANCH   1   2
HETATM    2  C4  UNL     1      21.958  30.439   4.920  1.00  0.00     0.052 C 
HETATM    3  C1  UNL     1      21.618  29.252   4.070  1.00  0.00     0.093 C 
HETATM    4  N1  UNL     1      21.992  27.887   4.400  1.00  0.00    -0.087 NA
HETATM    5  N2  UNL     1      20.979  29.643   3.052  1.00  0.00    -0.382 N 
HETATM    6  C2  UNL     1      20.757  31.056   3.000  1.00  0.00     0.121 C 
ATOM      7  H2  UNL     1      20.649  29.005   2.327  1.00  0.00     0.160 HD
HETATM    8  C3  UNL     1      21.050  31.505   4.445  1.00  0.00     0.031 C 
ENDBRANCH   1   2
BRANCH   1   9
HETATM    9  C6  UNL     1      23.031  30.019   7.201  1.00  0.00     0.028 C 
BRANCH   9  10
HETATM   10  C7  UNL     1      24.228  29.591   6.463  1.00  0.00    -0.024 C 
HETATM   11  C8  UNL     1      25.316  29.034   6.942  1.00  0.00    -0.084 C 
HETATM   12  C9  UNL     1      25.521  28.734   8.386  1.00  0.00     0.034 C 
HETATM   13  C13 UNL     1      26.410  28.683   5.977  1.00  0.00     0.034 C 
HETATM   14  C10 UNL     1      26.858  29.399   8.755  1.00  0.00     0.004 C 
HETATM   15  C11 UNL     1      27.916  28.644   7.978  1.00  0.00     0.001 C 
HETATM   16  C12 UNL     1      27.765  29.051   6.530  1.00  0.00     0.004 C 
ENDBRANCH   9  10
ENDBRANCH   1   9
TORSDOF 3
ENDMDL
