MODEL 1
REMARK VINA RESULT: -9.111325203      0.000      0.000
REMARK  8 active torsions:
REMARK  status: ('A' for Active; 'I' for Inactive)
REMARK    1  A    between atoms: C2_2  and  C3_3 
REMARK    2  A    between atoms: C3_3  and  O1_4 
REMARK    3  A    between atoms: C3_3  and  C4_6 
REMARK    4  A    between atoms: C5_7  and  C6_8 
REMARK    5  A    between atoms: C8_12  and  N2_13 
REMARK    6  A    between atoms: N2_13  and  C9_15 
REMARK    7  A    between atoms: C9_15  and  C10_16 
REMARK    8  A    between atoms: C17_26  and  C18_27 
ROOT
HETATM    1  C6  UNL     1       5.302 -13.343 -25.060  1.00  0.00     0.048 A 
HETATM    2  C7  UNL     1       5.383 -14.470 -25.816  1.00  0.00     0.111 A 
HETATM    3  N1  UNL     1       6.535 -14.894 -26.316  1.00  0.00    -0.350 N 
ATOM      4  H1  UNL     1       6.551 -15.745 -26.879  1.00  0.00     0.166 HD
HETATM    5  C8  UNL     1       7.713 -14.211 -26.092  1.00  0.00     0.127 A 
HETATM    6  C15 UNL     1       7.683 -13.047 -25.320  1.00  0.00     0.103 A 
HETATM    7  C16 UNL     1       8.927 -12.389 -25.020  1.00  0.00     0.104 C 
HETATM    8  N4  UNL     1       9.959 -11.880 -24.752  1.00  0.00    -0.191 NA
HETATM    9  C17 UNL     1       6.481 -12.624 -24.814  1.00  0.00     0.042 A 
ENDROOT
BRANCH   5  10
HETATM   10  N2  UNL     1       8.741 -14.706 -26.621  1.00  0.00    -0.349 N 
ATOM     11  H2  UNL     1       8.904 -14.266 -27.527  1.00  0.00     0.167 HD
BRANCH  10  12
HETATM   12  C9  UNL     1       9.716 -15.643 -26.382  1.00  0.00     0.119 C 
BRANCH  12  13
HETATM   13  C10 UNL     1      11.098 -14.998 -26.470  1.00  0.00     0.047 A 
HETATM   14  C11 UNL     1      11.710 -14.910 -27.701  1.00  0.00     0.031 A 
HETATM   15  C12 UNL     1      12.967 -14.330 -27.821  1.00  0.00     0.004 A 
HETATM   16  C13 UNL     1      13.580 -13.852 -26.690  1.00  0.00     0.017 A 
HETATM   17  C14 UNL     1      12.926 -13.964 -25.473  1.00  0.00     0.088 A 
HETATM   18  N3  UNL     1      11.699 -14.533 -25.386  1.00  0.00    -0.365 N 
ATOM     19  H3  UNL     1      11.236 -14.604 -24.480  1.00  0.00     0.165 HD
ENDBRANCH  12  13
ENDBRANCH  10  12
ENDBRANCH   5  10
BRANCH   9  20
HETATM   20  C18 UNL     1       6.326 -11.460 -23.959  1.00  0.00     0.090 A 
HETATM   21  C19 UNL     1       6.683 -11.307 -22.656  1.00  0.00     0.042 A 
HETATM   22  C20 UNL     1       6.347  -9.996 -22.235  1.00  0.00     0.053 A 
HETATM   23  C21 UNL     1       5.796  -9.432 -23.350  1.00  0.00     0.145 A 
HETATM   24 CL1  UNL     1       5.188  -7.776 -23.409  1.00  0.00    -0.057 Cl
HETATM   25  O2  UNL     1       5.798 -10.295 -24.318  1.00  0.00    -0.298 OA
ENDBRANCH   9  20
BRANCH   1  26
HETATM   26  C5  UNL     1       4.026 -12.928 -24.561  1.00  0.00    -0.062 C 
HETATM   27  C4  UNL     1       2.912 -12.587 -24.160  1.00  0.00    -0.069 C 
BRANCH  27  28
HETATM   28  C3  UNL     1       1.587 -12.167 -23.704  1.00  0.00     0.196 C 
BRANCH  28  29
HETATM   29  C2  UNL     1       1.158 -10.887 -24.392  1.00  0.00     0.040 C 
HETATM   30  C1  UNL     1       2.150  -9.775 -24.138  1.00  0.00     0.009 C 
ENDBRANCH  28  29
BRANCH  28  31
HETATM   31  O1  UNL     1       0.714 -13.205 -23.913  1.00  0.00    -0.383 OA
ATOM     32  H1  UNL     1       1.016 -14.023 -23.537  1.00  0.00     0.211 HD
ENDBRANCH  28  31
ENDBRANCH  27  28
ENDBRANCH   1  26
TORSDOF 8
ENDMDL
MODEL 2
REMARK VINA RESULT: -9.020143585      2.180      3.712
REMARK  8 active torsions:
REMARK  status: ('A' for Active; 'I' for Inactive)
REMARK    1  A    between atoms: C2_2  and  C3_3 
REMARK    2  A    between atoms: C3_3  and  O1_4 
REMARK    3  A    between atoms: C3_3  and  C4_6 
REMARK    4  A    between atoms: C5_7  and  C6_8 
REMARK    5  A    between atoms: C8_12  and  N2_13 
REMARK    6  A    between atoms: N2_13  and  C9_15 
REMARK    7  A    between atoms: C9_15  and  C10_16 
REMARK    8  A    between atoms: C17_26  and  C18_27 
ROOT
HETATM    1  C6  UNL     1       7.143 -11.368 -23.945  1.00  0.00     0.048 A 
HETATM    2  C7  UNL     1       8.495 -11.223 -23.993  1.00  0.00     0.111 A 
HETATM    3  N1  UNL     1       9.262 -12.055 -24.684  1.00  0.00    -0.350 N 
ATOM      4  H1  UNL     1      10.272 -11.910 -24.693  1.00  0.00     0.166 HD
HETATM    5  C8  UNL     1       8.725 -13.111 -25.391  1.00  0.00     0.127 A 
HETATM    6  C15 UNL     1       7.342 -13.302 -25.375  1.00  0.00     0.103 A 
HETATM    7  C16 UNL     1       6.783 -14.353 -26.183  1.00  0.00     0.104 C 
HETATM    8  N4  UNL     1       6.335 -15.196 -26.879  1.00  0.00    -0.191 NA
HETATM    9  C17 UNL     1       6.566 -12.432 -24.652  1.00  0.00     0.042 A 
ENDROOT
BRANCH   5  10
HETATM   10  N2  UNL     1       9.551 -13.834 -26.004  1.00  0.00    -0.349 N 
ATOM     11  H2  UNL     1       9.923 -14.541 -25.369  1.00  0.00     0.167 HD
BRANCH  10  12
HETATM   12  C9  UNL     1      10.118 -13.988 -27.245  1.00  0.00     0.119 C 
BRANCH  12  13
HETATM   13  C10 UNL     1      11.622 -14.217 -27.112  1.00  0.00     0.047 A 
HETATM   14  C11 UNL     1      12.174 -14.277 -25.851  1.00  0.00     0.031 A 
HETATM   15  C12 UNL     1      13.538 -14.483 -25.690  1.00  0.00     0.004 A 
HETATM   16  C13 UNL     1      14.317 -14.626 -26.810  1.00  0.00     0.017 A 
HETATM   17  C14 UNL     1      13.719 -14.558 -28.058  1.00  0.00     0.088 A 
HETATM   18  N3  UNL     1      12.384 -14.356 -28.186  1.00  0.00    -0.365 N 
ATOM     19  H3  UNL     1      11.965 -14.311 -29.114  1.00  0.00     0.165 HD
ENDBRANCH  12  13
ENDBRANCH  10  12
ENDBRANCH   5  10
BRANCH   9  20
HETATM   20  C18 UNL     1       5.116 -12.495 -24.595  1.00  0.00     0.090 A 
HETATM   21  C19 UNL     1       4.214 -11.485 -24.720  1.00  0.00     0.042 A 
HETATM   22  C20 UNL     1       2.905 -12.017 -24.606  1.00  0.00     0.053 A 
HETATM   23  C21 UNL     1       3.116 -13.352 -24.417  1.00  0.00     0.145 A 
HETATM   24 CL1  UNL     1       1.816 -14.528 -24.212  1.00  0.00    -0.057 Cl
HETATM   25  O2  UNL     1       4.390 -13.594 -24.416  1.00  0.00    -0.298 OA
ENDBRANCH   9  20
BRANCH   1  26
HETATM   26  C5  UNL     1       6.372 -10.446 -23.168  1.00  0.00    -0.062 C 
HETATM   27  C4  UNL     1       5.720  -9.626 -22.519  1.00  0.00    -0.069 C 
BRANCH  27  28
HETATM   28  C3  UNL     1       4.968  -8.643 -21.740  1.00  0.00     0.196 C 
BRANCH  28  29
HETATM   29  C2  UNL     1       3.865  -8.021 -22.573  1.00  0.00     0.040 C 
HETATM   30  C1  UNL     1       4.437  -7.213 -23.716  1.00  0.00     0.009 C 
ENDBRANCH  28  29
BRANCH  28  31
HETATM   31  O1  UNL     1       4.499  -9.263 -20.609  1.00  0.00    -0.383 OA
ATOM     32  H1  UNL     1       4.706 -10.189 -20.582  1.00  0.00     0.211 HD
ENDBRANCH  28  31
ENDBRANCH  27  28
ENDBRANCH   1  26
TORSDOF 8
ENDMDL
MODEL 3
REMARK VINA RESULT: -8.614982933      2.846      8.256
REMARK  8 active torsions:
REMARK  status: ('A' for Active; 'I' for Inactive)
REMARK    1  A    between atoms: C2_2  and  C3_3 
REMARK    2  A    between atoms: C3_3  and  O1_4 
REMARK    3  A    between atoms: C3_3  and  C4_6 
REMARK    4  A    between atoms: C5_7  and  C6_8 
REMARK    5  A    between atoms: C8_12  and  N2_13 
REMARK    6  A    between atoms: N2_13  and  C9_15 
REMARK    7  A    between atoms: C9_15  and  C10_16 
REMARK    8  A    between atoms: C17_26  and  C18_27 
ROOT
HETATM    1  C6  UNL     1       5.950 -13.745 -25.516  1.00  0.00     0.048 A 
HETATM    2  C7  UNL     1       5.126 -14.716 -25.994  1.00  0.00     0.111 A 
HETATM    3  N1  UNL     1       3.839 -14.758 -25.679  1.00  0.00    -0.350 N 
ATOM      4  H1  UNL     1       3.257 -15.504 -26.059  1.00  0.00     0.166 HD
HETATM    5  C8  UNL     1       3.270 -13.814 -24.848  1.00  0.00     0.127 A 
HETATM    6  C15 UNL     1       4.073 -12.795 -24.332  1.00  0.00     0.103 A 
HETATM    7  C16 UNL     1       3.455 -11.768 -23.537  1.00  0.00     0.104 C 
HETATM    8  N4  UNL     1       2.927 -10.912 -22.916  1.00  0.00    -0.191 NA
HETATM    9  C17 UNL     1       5.403 -12.772 -24.668  1.00  0.00     0.042 A 
ENDROOT
BRANCH   5  10
HETATM   10  N2  UNL     1       2.042 -13.959 -24.617  1.00  0.00    -0.349 N 
ATOM     11  H2  UNL     1       1.563 -14.230 -25.477  1.00  0.00     0.167 HD
BRANCH  10  12
HETATM   12  C9  UNL     1       1.134 -13.873 -23.592  1.00  0.00     0.119 C 
BRANCH  12  13
HETATM   13  C10 UNL     1       0.085 -12.807 -23.905  1.00  0.00     0.047 A 
HETATM   14  C11 UNL     1      -1.126 -12.858 -23.251  1.00  0.00     0.031 A 
HETATM   15  C12 UNL     1      -2.105 -11.906 -23.509  1.00  0.00     0.004 A 
HETATM   16  C13 UNL     1      -1.837 -10.921 -24.426  1.00  0.00     0.017 A 
HETATM   17  C14 UNL     1      -0.604 -10.911 -25.061  1.00  0.00     0.088 A 
HETATM   18  N3  UNL     1       0.332 -11.852 -24.788  1.00  0.00    -0.365 N 
ATOM     19  H3  UNL     1       1.233 -11.824 -25.266  1.00  0.00     0.165 HD
ENDBRANCH  12  13
ENDBRANCH  10  12
ENDBRANCH   5  10
BRANCH   9  20
HETATM   20  C18 UNL     1       6.330 -11.739 -24.237  1.00  0.00     0.090 A 
HETATM   21  C19 UNL     1       7.466 -11.867 -23.501  1.00  0.00     0.042 A 
HETATM   22  C20 UNL     1       8.054 -10.589 -23.332  1.00  0.00     0.053 A 
HETATM   23  C21 UNL     1       7.207  -9.754 -24.002  1.00  0.00     0.145 A 
HETATM   24 CL1  UNL     1       7.450  -8.011 -24.128  1.00  0.00    -0.057 Cl
HETATM   25  O2  UNL     1       6.231 -10.442 -24.508  1.00  0.00    -0.298 OA
ENDBRANCH   9  20
BRANCH   1  26
HETATM   26  C5  UNL     1       7.334 -13.764 -25.881  1.00  0.00    -0.062 C 
HETATM   27  C4  UNL     1       8.519 -13.756 -26.218  1.00  0.00    -0.069 C 
BRANCH  27  28
HETATM   28  C3  UNL     1       9.919 -13.754 -26.642  1.00  0.00     0.196 C 
BRANCH  28  29
HETATM   29  C2  UNL     1      10.537 -15.127 -26.476  1.00  0.00     0.040 C 
HETATM   30  C1  UNL     1      12.046 -15.048 -26.487  1.00  0.00     0.009 C 
ENDBRANCH  28  29
BRANCH  28  31
HETATM   31  O1  UNL     1       9.973 -13.296 -27.934  1.00  0.00    -0.383 OA
ATOM     32  H1  UNL     1       9.948 -13.996 -28.576  1.00  0.00     0.211 HD
ENDBRANCH  28  31
ENDBRANCH  27  28
ENDBRANCH   1  26
TORSDOF 8
ENDMDL
MODEL 4
REMARK VINA RESULT: -8.525067284      2.141      4.036
REMARK  8 active torsions:
REMARK  status: ('A' for Active; 'I' for Inactive)
REMARK    1  A    between atoms: C2_2  and  C3_3 
REMARK    2  A    between atoms: C3_3  and  O1_4 
REMARK    3  A    between atoms: C3_3  and  C4_6 
REMARK    4  A    between atoms: C5_7  and  C6_8 
REMARK    5  A    between atoms: C8_12  and  N2_13 
REMARK    6  A    between atoms: N2_13  and  C9_15 
REMARK    7  A    between atoms: C9_15  and  C10_16 
REMARK    8  A    between atoms: C17_26  and  C18_27 
ROOT
HETATM    1  C6  UNL     1       5.769 -10.644 -23.782  1.00  0.00     0.048 A 
HETATM    2  C7  UNL     1       7.113 -10.851 -23.768  1.00  0.00     0.111 A 
HETATM    3  N1  UNL     1       7.642 -12.026 -24.079  1.00  0.00    -0.350 N 
ATOM      4  H1  UNL     1       8.655 -12.139 -24.054  1.00  0.00     0.166 HD
HETATM    5  C8  UNL     1       6.852 -13.100 -24.436  1.00  0.00     0.127 A 
HETATM    6  C15 UNL     1       5.465 -12.938 -24.468  1.00  0.00     0.103 A 
HETATM    7  C16 UNL     1       4.655 -14.036 -24.923  1.00  0.00     0.104 C 
HETATM    8  N4  UNL     1       4.005 -14.934 -25.334  1.00  0.00    -0.191 NA
HETATM    9  C17 UNL     1       4.938 -11.716 -24.139  1.00  0.00     0.042 A 
ENDROOT
BRANCH   5  10
HETATM   10  N2  UNL     1       7.466 -14.164 -24.706  1.00  0.00    -0.349 N 
ATOM     11  H2  UNL     1       7.978 -14.480 -23.882  1.00  0.00     0.167 HD
BRANCH  10  12
HETATM   12  C9  UNL     1       7.674 -15.041 -25.742  1.00  0.00     0.119 C 
BRANCH  12  13
HETATM   13  C10 UNL     1       9.028 -14.772 -26.395  1.00  0.00     0.047 A 
HETATM   14  C11 UNL     1      10.084 -15.605 -26.096  1.00  0.00     0.031 A 
HETATM   15  C12 UNL     1      11.331 -15.393 -26.670  1.00  0.00     0.004 A 
HETATM   16  C13 UNL     1      11.485 -14.339 -27.536  1.00  0.00     0.017 A 
HETATM   17  C14 UNL     1      10.394 -13.526 -27.805  1.00  0.00     0.088 A 
HETATM   18  N3  UNL     1       9.188 -13.758 -27.231  1.00  0.00    -0.365 N 
ATOM     19  H3  UNL     1       8.400 -13.148 -27.445  1.00  0.00     0.165 HD
ENDBRANCH  12  13
ENDBRANCH  10  12
ENDBRANCH   5  10
BRANCH   9  20
HETATM   20  C18 UNL     1       3.519 -11.407 -24.181  1.00  0.00     0.090 A 
HETATM   21  C19 UNL     1       2.518 -11.889 -23.398  1.00  0.00     0.042 A 
HETATM   22  C20 UNL     1       1.293 -11.298 -23.795  1.00  0.00     0.053 A 
HETATM   23  C21 UNL     1       1.652 -10.472 -24.822  1.00  0.00     0.145 A 
HETATM   24 CL1  UNL     1       0.510  -9.464 -25.712  1.00  0.00    -0.057 Cl
HETATM   25  O2  UNL     1       2.932 -10.557 -25.018  1.00  0.00    -0.298 OA
ENDBRANCH   9  20
BRANCH   1  26
HETATM   26  C5  UNL     1       5.259  -9.357 -23.420  1.00  0.00    -0.062 C 
HETATM   27  C4  UNL     1       4.810  -8.261 -23.078  1.00  0.00    -0.069 C 
BRANCH  27  28
HETATM   28  C3  UNL     1       4.254  -6.971 -22.671  1.00  0.00     0.196 C 
BRANCH  28  29
HETATM   29  C2  UNL     1       2.887  -6.751 -23.287  1.00  0.00     0.040 C 
HETATM   30  C1  UNL     1       2.942  -6.881 -24.792  1.00  0.00     0.009 C 
ENDBRANCH  28  29
BRANCH  28  31
HETATM   31  O1  UNL     1       4.236  -6.927 -21.300  1.00  0.00    -0.383 OA
ATOM     32  H1  UNL     1       4.746  -7.623 -20.901  1.00  0.00     0.211 HD
ENDBRANCH  28  31
ENDBRANCH  27  28
ENDBRANCH   1  26
TORSDOF 8
ENDMDL
MODEL 5
REMARK VINA RESULT: -8.437690072      1.455      1.788
REMARK  8 active torsions:
REMARK  status: ('A' for Active; 'I' for Inactive)
REMARK    1  A    between atoms: C2_2  and  C3_3 
REMARK    2  A    between atoms: C3_3  and  O1_4 
REMARK    3  A    between atoms: C3_3  and  C4_6 
REMARK    4  A    between atoms: C5_7  and  C6_8 
REMARK    5  A    between atoms: C8_12  and  N2_13 
REMARK    6  A    between atoms: N2_13  and  C9_15 
REMARK    7  A    between atoms: C9_15  and  C10_16 
REMARK    8  A    between atoms: C17_26  and  C18_27 
ROOT
HETATM    1  C6  UNL     1       4.014 -13.073 -24.403  1.00  0.00     0.048 A 
HETATM    2  C7  UNL     1       4.262 -14.341 -24.828  1.00  0.00     0.111 A 
HETATM    3  N1  UNL     1       5.488 -14.754 -25.116  1.00  0.00    -0.350 N 
ATOM      4  H1  UNL     1       5.629 -15.713 -25.433  1.00  0.00     0.166 HD
HETATM    5  C8  UNL     1       6.577 -13.915 -24.997  1.00  0.00     0.127 A 
HETATM    6  C15 UNL     1       6.377 -12.603 -24.562  1.00  0.00     0.103 A 
HETATM    7  C16 UNL     1       7.526 -11.762 -24.359  1.00  0.00     0.104 C 
HETATM    8  N4  UNL     1       8.481 -11.095 -24.161  1.00  0.00    -0.191 NA
HETATM    9  C17 UNL     1       5.099 -12.195 -24.272  1.00  0.00     0.042 A 
ENDROOT
BRANCH   5  10
HETATM   10  N2  UNL     1       7.689 -14.417 -25.302  1.00  0.00    -0.349 N 
ATOM     11  H2  UNL     1       8.266 -14.504 -24.464  1.00  0.00     0.167 HD
BRANCH  10  12
HETATM   12  C9  UNL     1       8.384 -14.886 -26.389  1.00  0.00     0.119 C 
BRANCH  12  13
HETATM   13  C10 UNL     1       9.873 -14.580 -26.234  1.00  0.00     0.047 A 
HETATM   14  C11 UNL     1      10.788 -15.457 -26.775  1.00  0.00     0.031 A 
HETATM   15  C12 UNL     1      12.151 -15.213 -26.655  1.00  0.00     0.004 A 
HETATM   16  C13 UNL     1      12.559 -14.085 -25.989  1.00  0.00     0.017 A 
HETATM   17  C14 UNL     1      11.602 -13.232 -25.461  1.00  0.00     0.088 A 
HETATM   18  N3  UNL     1      10.279 -13.495 -25.594  1.00  0.00    -0.365 N 
ATOM     19  H3  UNL     1       9.593 -12.853 -25.199  1.00  0.00     0.165 HD
ENDBRANCH  12  13
ENDBRANCH  10  12
ENDBRANCH   5  10
BRANCH   9  20
HETATM   20  C18 UNL     1       4.766 -10.875 -23.766  1.00  0.00     0.090 A 
HETATM   21  C19 UNL     1       4.912 -10.382 -22.508  1.00  0.00     0.042 A 
HETATM   22  C20 UNL     1       4.461  -9.039 -22.480  1.00  0.00     0.053 A 
HETATM   23  C21 UNL     1       4.063  -8.807 -23.765  1.00  0.00     0.145 A 
HETATM   24 CL1  UNL     1       3.402  -7.269 -24.322  1.00  0.00    -0.057 Cl
HETATM   25  O2  UNL     1       4.251  -9.876 -24.476  1.00  0.00    -0.298 OA
ENDBRANCH   9  20
BRANCH   1  26
HETATM   26  C5  UNL     1       2.666 -12.683 -24.123  1.00  0.00    -0.062 C 
HETATM   27  C4  UNL     1       1.511 -12.317 -23.898  1.00  0.00    -0.069 C 
BRANCH  27  28
HETATM   28  C3  UNL     1       0.149 -11.865 -23.617  1.00  0.00     0.196 C 
BRANCH  28  29
HETATM   29  C2  UNL     1      -0.321 -10.875 -24.664  1.00  0.00     0.040 C 
HETATM   30  C1  UNL     1      -1.802 -11.026 -24.928  1.00  0.00     0.009 C 
ENDBRANCH  28  29
BRANCH  28  31
HETATM   31  O1  UNL     1      -0.659 -12.971 -23.526  1.00  0.00    -0.383 OA
ATOM     32  H1  UNL     1      -0.669 -13.351 -22.656  1.00  0.00     0.211 HD
ENDBRANCH  28  31
ENDBRANCH  27  28
ENDBRANCH   1  26
TORSDOF 8
ENDMDL
