MODEL 1
REMARK VINA RESULT: -9.456132072      0.000      0.000
REMARK  2 active torsions:
REMARK  status: ('A' for Active; 'I' for Inactive)
REMARK    1  A    between atoms: C4_4  and  C5_5 
REMARK    2  A    between atoms: C6_8  and  C7_9 
ROOT
HETATM    1  C5  UNL     1      17.493  36.291  31.165  1.00  0.00     0.056 A 
HETATM    2  N1  UNL     1      17.272  34.941  31.158  1.00  0.00    -0.340 N 
ATOM      3  H1  UNL     1      18.052  34.315  31.361  1.00  0.00     0.167 HD
HETATM    4  C6  UNL     1      16.080  34.412  30.896  1.00  0.00     0.116 A 
HETATM    5  N3  UNL     1      15.022  35.185  30.622  1.00  0.00    -0.341 N 
ATOM      6  H3  UNL     1      14.115  34.763  30.423  1.00  0.00     0.167 HD
HETATM    7  C15 UNL     1      15.168  36.540  30.612  1.00  0.00     0.046 A 
HETATM    8  C16 UNL     1      14.083  37.349  30.347  1.00  0.00     0.030 A 
HETATM    9  C17 UNL     1      14.260  38.715  30.362  1.00  0.00     0.002 A 
HETATM   10  C18 UNL     1      15.471  39.290  30.630  1.00  0.00     0.001 A 
HETATM   11  C19 UNL     1      16.565  38.458  30.898  1.00  0.00     0.016 A 
HETATM   12  C20 UNL     1      16.415  37.104  30.887  1.00  0.00     0.018 A 
ENDROOT
BRANCH   4  13
HETATM   13  C7  UNL     1      15.974  32.938  30.920  1.00  0.00     0.009 A 
HETATM   14  C8  UNL     1      16.616  32.213  31.896  1.00  0.00     0.017 A 
HETATM   15  C9  UNL     1      16.520  30.844  31.921  1.00  0.00     0.031 A 
HETATM   16  C10 UNL     1      15.782  30.147  30.977  1.00  0.00     0.042 A 
HETATM   17  N2  UNL     1      15.522  28.841  30.767  1.00  0.00    -0.365 N 
HETATM   18  C13 UNL     1      15.148  30.907  30.007  1.00  0.00    -0.007 A 
HETATM   19  C11 UNL     1      14.733  28.703  29.686  1.00  0.00     0.089 A 
ATOM     20  H2  UNL     1      15.870  28.074  31.341  1.00  0.00     0.165 HD
HETATM   21  C12 UNL     1      14.490  29.973  29.201  1.00  0.00     0.030 A 
HETATM   22  C14 UNL     1      15.235  32.278  29.968  1.00  0.00     0.029 A 
ENDBRANCH   4  13
BRANCH   1  23
HETATM   23  C4  UNL     1      18.832  36.768  31.471  1.00  0.00    -0.009 A 
HETATM   24  C3  UNL     1      19.849  36.673  30.515  1.00  0.00     0.014 A 
HETATM   25  C2  UNL     1      21.118  37.154  30.720  1.00  0.00     0.001 A 
HETATM   26  C1  UNL     1      21.426  37.763  31.916  1.00  0.00     0.000 A 
HETATM   27  C22 UNL     1      20.455  37.870  32.869  1.00  0.00     0.001 A 
HETATM   28  C21 UNL     1      19.171  37.375  32.641  1.00  0.00     0.014 A 
ENDBRANCH   1  23
TORSDOF 2
ENDMDL
MODEL 2
REMARK VINA RESULT: -8.632145468      1.800      3.487
REMARK  2 active torsions:
REMARK  status: ('A' for Active; 'I' for Inactive)
REMARK    1  A    between atoms: C4_4  and  C5_5 
REMARK    2  A    between atoms: C6_8  and  C7_9 
ROOT
HETATM    1  C5  UNL     1      17.909  36.100  31.929  1.00  0.00     0.056 A 
HETATM    2  N1  UNL     1      17.124  34.988  31.790  1.00  0.00    -0.340 N 
ATOM      3  H1  UNL     1      16.311  34.882  32.398  1.00  0.00     0.167 HD
HETATM    4  C6  UNL     1      17.379  34.039  30.892  1.00  0.00     0.116 A 
HETATM    5  N3  UNL     1      18.430  34.126  30.069  1.00  0.00    -0.341 N 
ATOM      6  H3  UNL     1      18.611  33.390  29.386  1.00  0.00     0.167 HD
HETATM    7  C15 UNL     1      19.256  35.206  30.151  1.00  0.00     0.046 A 
HETATM    8  C16 UNL     1      20.336  35.317  29.299  1.00  0.00     0.030 A 
HETATM    9  C17 UNL     1      21.141  36.430  29.396  1.00  0.00     0.002 A 
HETATM   10  C18 UNL     1      20.906  37.423  30.305  1.00  0.00     0.001 A 
HETATM   11  C19 UNL     1      19.807  37.300  31.165  1.00  0.00     0.016 A 
HETATM   12  C20 UNL     1      18.997  36.207  31.089  1.00  0.00     0.018 A 
ENDROOT
BRANCH   4  13
HETATM   13  C7  UNL     1      16.452  32.889  30.843  1.00  0.00     0.009 A 
HETATM   14  C8  UNL     1      16.290  32.082  31.945  1.00  0.00     0.017 A 
HETATM   15  C9  UNL     1      15.430  31.013  31.902  1.00  0.00     0.031 A 
HETATM   16  C10 UNL     1      14.701  30.708  30.764  1.00  0.00     0.042 A 
HETATM   17  N2  UNL     1      13.810  29.746  30.450  1.00  0.00    -0.365 N 
HETATM   18  C13 UNL     1      14.887  31.540  29.671  1.00  0.00    -0.007 A 
HETATM   19  C11 UNL     1      13.394  29.908  29.181  1.00  0.00     0.089 A 
ATOM     20  H2  UNL     1      13.497  29.007  31.080  1.00  0.00     0.165 HD
HETATM   21  C12 UNL     1      14.050  31.016  28.681  1.00  0.00     0.030 A 
HETATM   22  C14 UNL     1      15.745  32.614  29.698  1.00  0.00     0.029 A 
ENDBRANCH   4  13
BRANCH   1  23
HETATM   23  C4  UNL     1      17.541  37.081  32.936  1.00  0.00    -0.009 A 
HETATM   24  C3  UNL     1      18.374  37.310  34.036  1.00  0.00     0.014 A 
HETATM   25  C2  UNL     1      18.113  38.259  34.991  1.00  0.00     0.001 A 
HETATM   26  C1  UNL     1      16.980  39.035  34.881  1.00  0.00     0.000 A 
HETATM   27  C22 UNL     1      16.146  38.836  33.819  1.00  0.00     0.001 A 
HETATM   28  C21 UNL     1      16.431  37.865  32.859  1.00  0.00     0.014 A 
ENDBRANCH   1  23
TORSDOF 2
ENDMDL
MODEL 3
REMARK VINA RESULT: -8.173077122      1.456      1.754
REMARK  2 active torsions:
REMARK  status: ('A' for Active; 'I' for Inactive)
REMARK    1  A    between atoms: C4_4  and  C5_5 
REMARK    2  A    between atoms: C6_8  and  C7_9 
ROOT
HETATM    1  C5  UNL     1      16.553  36.537  32.313  1.00  0.00     0.056 A 
HETATM    2  N1  UNL     1      16.538  35.170  32.251  1.00  0.00    -0.340 N 
ATOM      3  H1  UNL     1      17.129  34.644  32.895  1.00  0.00     0.167 HD
HETATM    4  C6  UNL     1      15.785  34.501  31.383  1.00  0.00     0.116 A 
HETATM    5  N3  UNL     1      14.991  35.140  30.515  1.00  0.00    -0.341 N 
ATOM      6  H3  UNL     1      14.419  34.611  29.856  1.00  0.00     0.167 HD
HETATM    7  C15 UNL     1      14.954  36.502  30.519  1.00  0.00     0.046 A 
HETATM    8  C16 UNL     1      14.130  37.173  29.640  1.00  0.00     0.030 A 
HETATM    9  C17 UNL     1      14.102  38.549  29.682  1.00  0.00     0.002 A 
HETATM   10  C18 UNL     1      14.862  39.266  30.563  1.00  0.00     0.001 A 
HETATM   11  C19 UNL     1      15.695  38.574  31.451  1.00  0.00     0.016 A 
HETATM   12  C20 UNL     1      15.741  37.213  31.427  1.00  0.00     0.018 A 
ENDROOT
BRANCH   4  13
HETATM   13  C7  UNL     1      15.861  33.026  31.419  1.00  0.00     0.009 A 
HETATM   14  C8  UNL     1      16.554  32.392  32.423  1.00  0.00     0.017 A 
HETATM   15  C9  UNL     1      16.626  31.021  32.459  1.00  0.00     0.031 A 
HETATM   16  C10 UNL     1      16.012  30.232  31.499  1.00  0.00     0.042 A 
HETATM   17  N2  UNL     1      15.922  28.903  31.294  1.00  0.00    -0.365 N 
HETATM   18  C13 UNL     1      15.322  30.902  30.501  1.00  0.00    -0.007 A 
HETATM   19  C11 UNL     1      15.193  28.662  30.190  1.00  0.00     0.089 A 
ATOM     20  H2  UNL     1      16.343  28.188  31.888  1.00  0.00     0.165 HD
HETATM   21  C12 UNL     1      14.811  29.889  29.684  1.00  0.00     0.030 A 
HETATM   22  C14 UNL     1      15.241  32.273  30.451  1.00  0.00     0.029 A 
ENDBRANCH   4  13
BRANCH   1  23
HETATM   23  C4  UNL     1      17.407  37.173  33.303  1.00  0.00    -0.009 A 
HETATM   24  C3  UNL     1      18.716  36.722  33.497  1.00  0.00     0.014 A 
HETATM   25  C2  UNL     1      19.591  37.312  34.374  1.00  0.00     0.001 A 
HETATM   26  C1  UNL     1      19.180  38.402  35.108  1.00  0.00     0.000 A 
HETATM   27  C22 UNL     1      17.907  38.866  34.941  1.00  0.00     0.001 A 
HETATM   28  C21 UNL     1      17.034  38.251  34.044  1.00  0.00     0.014 A 
ENDBRANCH   1  23
TORSDOF 2
ENDMDL
MODEL 4
REMARK VINA RESULT: -8.144185922      1.826      2.876
REMARK  2 active torsions:
REMARK  status: ('A' for Active; 'I' for Inactive)
REMARK    1  A    between atoms: C4_4  and  C5_5 
REMARK    2  A    between atoms: C6_8  and  C7_9 
ROOT
HETATM    1  C5  UNL     1      18.507  37.055  31.803  1.00  0.00     0.056 A 
HETATM    2  N1  UNL     1      17.843  36.077  31.113  1.00  0.00    -0.340 N 
ATOM      3  H1  UNL     1      18.345  35.561  30.390  1.00  0.00     0.167 HD
HETATM    4  C6  UNL     1      16.570  35.774  31.347  1.00  0.00     0.116 A 
HETATM    5  N3  UNL     1      15.863  36.418  32.284  1.00  0.00    -0.341 N 
ATOM      6  H3  UNL     1      14.887  36.173  32.451  1.00  0.00     0.167 HD
HETATM    7  C15 UNL     1      16.459  37.405  33.011  1.00  0.00     0.046 A 
HETATM    8  C16 UNL     1      15.748  38.067  33.990  1.00  0.00     0.030 A 
HETATM    9  C17 UNL     1      16.385  39.047  34.718  1.00  0.00     0.002 A 
HETATM   10  C18 UNL     1      17.692  39.381  34.504  1.00  0.00     0.001 A 
HETATM   11  C19 UNL     1      18.404  38.701  33.508  1.00  0.00     0.016 A 
HETATM   12  C20 UNL     1      17.796  37.730  32.772  1.00  0.00     0.018 A 
ENDROOT
BRANCH   4  13
HETATM   13  C7  UNL     1      15.970  34.697  30.532  1.00  0.00     0.009 A 
HETATM   14  C8  UNL     1      15.300  34.998  29.370  1.00  0.00     0.017 A 
HETATM   15  C9  UNL     1      14.742  34.000  28.611  1.00  0.00     0.031 A 
HETATM   16  C10 UNL     1      14.831  32.667  28.979  1.00  0.00     0.042 A 
HETATM   17  N2  UNL     1      14.389  31.513  28.440  1.00  0.00    -0.365 N 
HETATM   18  C13 UNL     1      15.512  32.397  30.155  1.00  0.00    -0.007 A 
HETATM   19  C11 UNL     1      14.754  30.478  29.219  1.00  0.00     0.089 A 
ATOM     20  H2  UNL     1      13.859  31.436  27.572  1.00  0.00     0.165 HD
HETATM   21  C12 UNL     1      15.452  31.006  30.288  1.00  0.00     0.030 A 
HETATM   22  C14 UNL     1      16.075  33.385  30.927  1.00  0.00     0.029 A 
ENDBRANCH   4  13
BRANCH   1  23
HETATM   23  C4  UNL     1      19.901  37.305  31.474  1.00  0.00    -0.009 A 
HETATM   24  C3  UNL     1      20.766  37.839  32.434  1.00  0.00     0.014 A 
HETATM   25  C2  UNL     1      22.104  38.046  32.206  1.00  0.00     0.001 A 
HETATM   26  C1  UNL     1      22.639  37.719  30.980  1.00  0.00     0.000 A 
HETATM   27  C22 UNL     1      21.820  37.196  30.022  1.00  0.00     0.001 A 
HETATM   28  C21 UNL     1      20.463  36.994  30.275  1.00  0.00     0.014 A 
ENDBRANCH   1  23
TORSDOF 2
ENDMDL
MODEL 5
REMARK VINA RESULT: -8.111635221      1.849      2.291
REMARK  2 active torsions:
REMARK  status: ('A' for Active; 'I' for Inactive)
REMARK    1  A    between atoms: C4_4  and  C5_5 
REMARK    2  A    between atoms: C6_8  and  C7_9 
ROOT
HETATM    1  C5  UNL     1      18.542  36.663  32.029  1.00  0.00     0.056 A 
HETATM    2  N1  UNL     1      18.060  35.431  31.678  1.00  0.00    -0.340 N 
ATOM      3  H1  UNL     1      18.635  34.830  31.088  1.00  0.00     0.167 HD
HETATM    4  C6  UNL     1      16.871  34.988  32.077  1.00  0.00     0.116 A 
HETATM    5  N3  UNL     1      16.075  35.734  32.852  1.00  0.00    -0.341 N 
ATOM      6  H3  UNL     1      15.166  35.379  33.149  1.00  0.00     0.167 HD
HETATM    7  C15 UNL     1      16.490  36.973  33.240  1.00  0.00     0.046 A 
HETATM    8  C16 UNL     1      15.687  37.747  34.051  1.00  0.00     0.030 A 
HETATM    9  C17 UNL     1      16.143  38.987  34.440  1.00  0.00     0.002 A 
HETATM   10  C18 UNL     1      17.360  39.471  34.051  1.00  0.00     0.001 A 
HETATM   11  C19 UNL     1      18.167  38.676  33.228  1.00  0.00     0.016 A 
HETATM   12  C20 UNL     1      17.737  37.447  32.828  1.00  0.00     0.018 A 
ENDROOT
BRANCH   4  13
HETATM   13  C7  UNL     1      16.468  33.638  31.629  1.00  0.00     0.009 A 
HETATM   14  C8  UNL     1      16.789  32.534  32.382  1.00  0.00     0.017 A 
HETATM   15  C9  UNL     1      16.417  31.279  31.968  1.00  0.00     0.031 A 
HETATM   16  C10 UNL     1      15.711  31.077  30.792  1.00  0.00     0.042 A 
HETATM   17  N2  UNL     1      15.230  29.987  30.162  1.00  0.00    -0.365 N 
HETATM   18  C13 UNL     1      15.404  32.211  30.057  1.00  0.00    -0.007 A 
HETATM   19  C11 UNL     1      14.610  30.356  29.027  1.00  0.00     0.089 A 
ATOM     20  H2  UNL     1      15.322  29.028  30.495  1.00  0.00     0.165 HD
HETATM   21  C12 UNL     1      14.706  31.732  28.944  1.00  0.00     0.030 A 
HETATM   22  C14 UNL     1      15.770  33.474  30.457  1.00  0.00     0.029 A 
ENDBRANCH   4  13
BRANCH   1  23
HETATM   23  C4  UNL     1      19.857  37.051  31.546  1.00  0.00    -0.009 A 
HETATM   24  C3  UNL     1      20.783  37.636  32.416  1.00  0.00     0.014 A 
HETATM   25  C2  UNL     1      22.058  37.973  32.039  1.00  0.00     0.001 A 
HETATM   26  C1  UNL     1      22.467  37.732  30.745  1.00  0.00     0.000 A 
HETATM   27  C22 UNL     1      21.586  37.162  29.873  1.00  0.00     0.001 A 
HETATM   28  C21 UNL     1      20.294  36.827  30.277  1.00  0.00     0.014 A 
ENDBRANCH   1  23
TORSDOF 2
ENDMDL
