MODEL 1
REMARK VINA RESULT: -3.652376177      0.000      0.000
REMARK  2 active torsions:
REMARK  status: ('A' for Active; 'I' for Inactive)
REMARK    1  A    between atoms: C2_2  and  C3_4 
REMARK    2  A    between atoms: C3_4  and  C4_6 
ROOT
HETATM    1  C3  UNL     1     -24.156  42.477  13.245  1.00  0.00     0.298 C 
HETATM    2  F1  UNL     1     -22.801  42.683  12.922  1.00  0.00    -0.234 F 
ENDROOT
BRANCH   1   3
HETATM    3  C2  UNL     1     -24.217  42.645  14.710  1.00  0.00     0.022 C 
HETATM    4  C1  UNL     1     -23.262  43.233  15.396  1.00  0.00     0.030 C 
HETATM    5 BR1  UNL     1     -25.761  41.973  15.599  1.00  0.00    -0.053 Br
ENDBRANCH   1   3
BRANCH   1   6
HETATM    6  C4  UNL     1     -24.948  43.481  12.489  1.00  0.00     0.270 C 
HETATM    7  N1  UNL     1     -26.181  43.139  11.883  1.00  0.00    -0.059 NA
HETATM    8  O1  UNL     1     -24.514  44.660  12.387  1.00  0.00    -0.273 OA
ENDBRANCH   1   6
TORSDOF 2
ENDMDL
MODEL 2
REMARK VINA RESULT: -3.616959422      1.179      1.397
REMARK  2 active torsions:
REMARK  status: ('A' for Active; 'I' for Inactive)
REMARK    1  A    between atoms: C2_2  and  C3_4 
REMARK    2  A    between atoms: C3_4  and  C4_6 
ROOT
HETATM    1  C3  UNL     1     -24.225  42.394  13.235  1.00  0.00     0.298 C 
HETATM    2  F1  UNL     1     -22.847  42.666  13.128  1.00  0.00    -0.234 F 
ENDROOT
BRANCH   1   3
HETATM    3  C2  UNL     1     -24.497  42.423  14.685  1.00  0.00     0.022 C 
HETATM    4  C1  UNL     1     -25.547  41.838  15.220  1.00  0.00     0.030 C 
HETATM    5 BR1  UNL     1     -23.252  43.350  15.787  1.00  0.00    -0.053 Br
ENDBRANCH   1   3
BRANCH   1   6
HETATM    6  C4  UNL     1     -24.943  43.443  12.466  1.00  0.00     0.270 C 
HETATM    7  N1  UNL     1     -26.155  43.160  11.792  1.00  0.00    -0.059 NA
HETATM    8  O1  UNL     1     -24.464  44.609  12.413  1.00  0.00    -0.273 OA
ENDBRANCH   1   6
TORSDOF 2
ENDMDL
MODEL 3
REMARK VINA RESULT: -3.571683960      1.923      1.992
REMARK  2 active torsions:
REMARK  status: ('A' for Active; 'I' for Inactive)
REMARK    1  A    between atoms: C2_2  and  C3_4 
REMARK    2  A    between atoms: C3_4  and  C4_6 
ROOT
HETATM    1  C3  UNL     1     -24.958  43.280  13.137  1.00  0.00     0.298 C 
HETATM    2  F1  UNL     1     -26.336  43.081  12.923  1.00  0.00    -0.234 F 
ENDROOT
BRANCH   1   3
HETATM    3  C2  UNL     1     -24.797  43.208  14.603  1.00  0.00     0.022 C 
HETATM    4  C1  UNL     1     -23.808  43.800  15.236  1.00  0.00     0.030 C 
HETATM    5 BR1  UNL     1     -26.097  42.215  15.575  1.00  0.00    -0.053 Br
ENDBRANCH   1   3
BRANCH   1   6
HETATM    6  C4  UNL     1     -24.238  42.210  12.400  1.00  0.00     0.270 C 
HETATM    7  N1  UNL     1     -24.759  40.897  12.315  1.00  0.00    -0.059 NA
HETATM    8  O1  UNL     1     -23.141  42.478  11.838  1.00  0.00    -0.273 OA
ENDBRANCH   1   6
TORSDOF 2
ENDMDL
MODEL 4
REMARK VINA RESULT: -3.566368469      2.264      2.449
REMARK  2 active torsions:
REMARK  status: ('A' for Active; 'I' for Inactive)
REMARK    1  A    between atoms: C2_2  and  C3_4 
REMARK    2  A    between atoms: C3_4  and  C4_6 
ROOT
HETATM    1  C3  UNL     1     -25.084  43.179  13.205  1.00  0.00     0.298 C 
HETATM    2  F1  UNL     1     -26.418  42.976  12.801  1.00  0.00    -0.234 F 
ENDROOT
BRANCH   1   3
HETATM    3  C2  UNL     1     -25.107  42.993  14.669  1.00  0.00     0.022 C 
HETATM    4  C1  UNL     1     -26.086  42.370  15.289  1.00  0.00     0.030 C 
HETATM    5 BR1  UNL     1     -23.640  43.695  15.659  1.00  0.00    -0.053 Br
ENDBRANCH   1   3
BRANCH   1   6
HETATM    6  C4  UNL     1     -24.248  42.184  12.485  1.00  0.00     0.270 C 
HETATM    7  N1  UNL     1     -24.700  40.860  12.272  1.00  0.00    -0.059 NA
HETATM    8  O1  UNL     1     -23.113  42.527  12.055  1.00  0.00    -0.273 OA
ENDBRANCH   1   6
TORSDOF 2
ENDMDL
MODEL 5
REMARK VINA RESULT: -3.490442526      2.022      2.180
REMARK  2 active torsions:
REMARK  status: ('A' for Active; 'I' for Inactive)
REMARK    1  A    between atoms: C2_2  and  C3_4 
REMARK    2  A    between atoms: C3_4  and  C4_6 
ROOT
HETATM    1  C3  UNL     1     -25.459  42.615  13.199  1.00  0.00     0.298 C 
HETATM    2  F1  UNL     1     -25.483  41.244  12.878  1.00  0.00    -0.234 F 
ENDROOT
BRANCH   1   3
HETATM    3  C2  UNL     1     -25.338  42.650  14.670  1.00  0.00     0.022 C 
HETATM    4  C1  UNL     1     -26.325  42.312  15.470  1.00  0.00     0.030 C 
HETATM    5 BR1  UNL     1     -23.667  43.207  15.392  1.00  0.00    -0.053 Br
ENDBRANCH   1   3
BRANCH   1   6
HETATM    6  C4  UNL     1     -24.304  43.216  12.485  1.00  0.00     0.270 C 
HETATM    7  N1  UNL     1     -23.272  42.411  11.947  1.00  0.00    -0.059 NA
HETATM    8  O1  UNL     1     -24.242  44.470  12.355  1.00  0.00    -0.273 OA
ENDBRANCH   1   6
TORSDOF 2
ENDMDL
