MODEL 1
REMARK VINA RESULT: -3.242636018      0.000      0.000
REMARK  2 active torsions:
REMARK  status: ('A' for Active; 'I' for Inactive)
REMARK    1  A    between atoms: C1_2  and  C2_4 
REMARK    2  A    between atoms: C2_4  and  C3_6 
ROOT
HETATM    1  C2  UNL     1     -25.498  42.917  12.682  1.00  0.00     0.181 C 
HETATM    2 CL1  UNL     1     -24.821  44.541  12.529  1.00  0.00    -0.115 Cl
ENDROOT
BRANCH   1   3
HETATM    3  C1  UNL     1     -24.454  41.943  12.330  1.00  0.00     0.250 C 
HETATM    4  N1  UNL     1     -23.175  42.404  11.977  1.00  0.00    -0.061 NA
HETATM    5  O1  UNL     1     -24.711  40.731  12.348  1.00  0.00    -0.275 OA
ENDBRANCH   1   3
BRANCH   1   6
HETATM    6  C3  UNL     1     -26.043  42.663  14.070  1.00  0.00     0.114 C 
HETATM    7 BR1  UNL     1     -24.682  42.872  15.401  1.00  0.00    -0.094 Br
ENDBRANCH   1   6
TORSDOF 2
ENDMDL
MODEL 2
REMARK VINA RESULT: -3.238458107      2.568      2.726
REMARK  2 active torsions:
REMARK  status: ('A' for Active; 'I' for Inactive)
REMARK    1  A    between atoms: C1_2  and  C2_4 
REMARK    2  A    between atoms: C2_4  and  C3_6 
ROOT
HETATM    1  C2  UNL     1     -23.907  42.645  12.691  1.00  0.00     0.181 C 
HETATM    2 CL1  UNL     1     -24.585  41.022  12.535  1.00  0.00    -0.115 Cl
ENDROOT
BRANCH   1   3
HETATM    3  C1  UNL     1     -24.948  43.620  12.332  1.00  0.00     0.250 C 
HETATM    4  N1  UNL     1     -26.225  43.159  11.970  1.00  0.00    -0.061 NA
HETATM    5  O1  UNL     1     -24.691  44.832  12.352  1.00  0.00    -0.275 OA
ENDBRANCH   1   3
BRANCH   1   6
HETATM    6  C3  UNL     1     -23.370  42.901  14.082  1.00  0.00     0.114 C 
HETATM    7 BR1  UNL     1     -24.734  42.667  15.408  1.00  0.00    -0.094 Br
ENDBRANCH   1   6
TORSDOF 2
ENDMDL
MODEL 3
REMARK VINA RESULT: -3.149147695      1.794      1.794
REMARK  2 active torsions:
REMARK  status: ('A' for Active; 'I' for Inactive)
REMARK    1  A    between atoms: C1_2  and  C2_4 
REMARK    2  A    between atoms: C2_4  and  C3_6 
ROOT
HETATM    1  C2  UNL     1     -25.190  42.283  13.505  1.00  0.00     0.181 C 
HETATM    2 CL1  UNL     1     -26.128  43.041  12.215  1.00  0.00    -0.115 Cl
ENDROOT
BRANCH   1   3
HETATM    3  C1  UNL     1     -23.766  42.561  13.268  1.00  0.00     0.250 C 
HETATM    4  N1  UNL     1     -23.238  42.391  11.978  1.00  0.00    -0.061 NA
HETATM    5  O1  UNL     1     -23.048  42.940  14.205  1.00  0.00    -0.275 OA
ENDBRANCH   1   3
BRANCH   1   6
HETATM    6  C3  UNL     1     -25.625  42.761  14.873  1.00  0.00     0.114 C 
HETATM    7 BR1  UNL     1     -25.544  41.346  16.162  1.00  0.00    -0.094 Br
ENDBRANCH   1   6
TORSDOF 2
ENDMDL
MODEL 4
REMARK VINA RESULT: -3.147200337      2.313      2.404
REMARK  2 active torsions:
REMARK  status: ('A' for Active; 'I' for Inactive)
REMARK    1  A    between atoms: C1_2  and  C2_4 
REMARK    2  A    between atoms: C2_4  and  C3_6 
ROOT
HETATM    1  C2  UNL     1     -24.200  43.264  13.464  1.00  0.00     0.181 C 
HETATM    2 CL1  UNL     1     -23.275  42.496  12.171  1.00  0.00    -0.115 Cl
ENDROOT
BRANCH   1   3
HETATM    3  C1  UNL     1     -25.629  43.006  13.229  1.00  0.00     0.250 C 
HETATM    4  N1  UNL     1     -26.161  43.205  11.944  1.00  0.00    -0.061 NA
HETATM    5  O1  UNL     1     -26.347  42.619  14.162  1.00  0.00    -0.275 OA
ENDBRANCH   1   3
BRANCH   1   6
HETATM    6  C3  UNL     1     -23.771  42.777  14.830  1.00  0.00     0.114 C 
HETATM    7 BR1  UNL     1     -23.742  44.210  16.102  1.00  0.00    -0.094 Br
ENDBRANCH   1   6
TORSDOF 2
ENDMDL
MODEL 5
REMARK VINA RESULT: -3.089999379      1.248      1.248
REMARK  2 active torsions:
REMARK  status: ('A' for Active; 'I' for Inactive)
REMARK    1  A    between atoms: C1_2  and  C2_4 
REMARK    2  A    between atoms: C2_4  and  C3_6 
ROOT
HETATM    1  C2  UNL     1     -25.308  42.978  12.513  1.00  0.00     0.181 C 
HETATM    2 CL1  UNL     1     -24.683  44.629  12.469  1.00  0.00    -0.115 Cl
ENDROOT
BRANCH   1   3
HETATM    3  C1  UNL     1     -24.190  42.051  12.284  1.00  0.00     0.250 C 
HETATM    4  N1  UNL     1     -24.440  40.670  12.241  1.00  0.00    -0.061 NA
HETATM    5  O1  UNL     1     -23.043  42.495  12.131  1.00  0.00    -0.275 OA
ENDBRANCH   1   3
BRANCH   1   6
HETATM    6  C3  UNL     1     -26.014  42.678  13.817  1.00  0.00     0.114 C 
HETATM    7 BR1  UNL     1     -24.825  42.857  15.309  1.00  0.00    -0.094 Br
ENDBRANCH   1   6
TORSDOF 2
ENDMDL
