MODEL 1
REMARK VINA RESULT: -6.646222601      0.000      0.000
REMARK  6 active torsions:
REMARK  status: ('A' for Active; 'I' for Inactive)
REMARK    1  A    between atoms: O1_1  and  C1_3 
REMARK    2  A    between atoms: C1_3  and  C2_4 
REMARK    3  A    between atoms: C6_9  and  O3_10 
REMARK    4  A    between atoms: C7_12  and  O4_13 
REMARK    5  A    between atoms: C8_15  and  O5_16 
REMARK    6  A    between atoms: C9_19  and  O7_20 
ROOT
HETATM    1  C2  UNL     1      10.409  95.815  10.244  1.00  0.00     0.204 C 
HETATM    2  O2  UNL     1       9.680  96.142  11.356  1.00  0.00    -0.337 OA
HETATM    3  C3  UNL     1       9.536  97.519  11.400  1.00  0.00     0.215 C 
HETATM    4  C4  UNL     1       8.124  97.861  11.079  1.00  0.00     0.042 C 
HETATM    5  C5  UNL     1       7.263  98.331  11.976  1.00  0.00     0.008 C 
HETATM    6  C6  UNL     1       7.639  98.563  13.409  1.00  0.00     0.172 C 
HETATM    7  C7  UNL     1       8.752  97.562  13.703  1.00  0.00     0.185 C 
HETATM    8  C8  UNL     1       9.916  97.965  12.796  1.00  0.00     0.216 C 
HETATM    9  O6  UNL     1      10.352  98.059  10.423  1.00  0.00    -0.316 OA
HETATM   10  C9  UNL     1      10.538  97.077   9.456  1.00  0.00     0.292 C 
ENDROOT
BRANCH   8  11
HETATM   11  O5  UNL     1      11.027  97.248  13.211  1.00  0.00    -0.387 OA
ATOM     12  H5  UNL     1      11.766  97.481  12.663  1.00  0.00     0.210 HD
ENDBRANCH   8  11
BRANCH   1  13
HETATM   13  C1  UNL     1       9.728  94.702   9.484  1.00  0.00     0.201 C 
BRANCH  13  14
HETATM   14  O1  UNL     1       9.886  93.466  10.068  1.00  0.00    -0.398 OA
ATOM     15  H1  UNL     1       9.935  92.756   9.440  1.00  0.00     0.209 HD
ENDBRANCH  13  14
ENDBRANCH   1  13
BRANCH   7  16
HETATM   16  O4  UNL     1       9.096  97.508  15.022  1.00  0.00    -0.390 OA
ATOM     17  H4  UNL     1       9.866  98.023  15.231  1.00  0.00     0.210 HD
ENDBRANCH   7  16
BRANCH  10  18
HETATM   18  O7  UNL     1       9.573  97.096   8.472  1.00  0.00    -0.368 OA
ATOM     19  H7  UNL     1       8.875  97.687   8.731  1.00  0.00     0.212 HD
ENDBRANCH  10  18
BRANCH   6  20
HETATM   20  O3  UNL     1       6.562  98.361  14.241  1.00  0.00    -0.389 OA
ATOM     21  H3  UNL     1       6.838  97.995  15.074  1.00  0.00     0.210 HD
ENDBRANCH   6  20
TORSDOF 6
ENDMDL
MODEL 2
REMARK VINA RESULT: -6.617616729      2.306      3.141
REMARK  6 active torsions:
REMARK  status: ('A' for Active; 'I' for Inactive)
REMARK    1  A    between atoms: O1_1  and  C1_3 
REMARK    2  A    between atoms: C1_3  and  C2_4 
REMARK    3  A    between atoms: C6_9  and  O3_10 
REMARK    4  A    between atoms: C7_12  and  O4_13 
REMARK    5  A    between atoms: C8_15  and  O5_16 
REMARK    6  A    between atoms: C9_19  and  O7_20 
ROOT
HETATM    1  C2  UNL     1      10.055  96.074  10.456  1.00  0.00     0.204 C 
HETATM    2  O2  UNL     1       9.104  97.027  10.201  1.00  0.00    -0.337 OA
HETATM    3  C3  UNL     1       9.694  98.277  10.306  1.00  0.00     0.215 C 
HETATM    4  C4  UNL     1       9.818  98.861   8.943  1.00  0.00     0.042 C 
HETATM    5  C5  UNL     1       9.089  99.889   8.518  1.00  0.00     0.008 C 
HETATM    6  C6  UNL     1       8.065 100.562   9.383  1.00  0.00     0.172 C 
HETATM    7  C7  UNL     1       7.583  99.487  10.352  1.00  0.00     0.185 C 
HETATM    8  C8  UNL     1       8.804  99.118  11.196  1.00  0.00     0.216 C 
HETATM    9  O6  UNL     1      10.963  98.102  10.827  1.00  0.00    -0.316 OA
HETATM   10  C9  UNL     1      11.357  96.804  10.517  1.00  0.00     0.292 C 
ENDROOT
BRANCH   8  11
HETATM   11  O5  UNL     1       8.354  98.339  12.249  1.00  0.00    -0.387 OA
ATOM     12  H5  UNL     1       8.310  97.433  11.966  1.00  0.00     0.210 HD
ENDBRANCH   8  11
BRANCH   1  13
HETATM   13  C1  UNL     1      10.018  95.006   9.389  1.00  0.00     0.201 C 
BRANCH  13  14
HETATM   14  O1  UNL     1       9.565  93.791   9.849  1.00  0.00    -0.398 OA
ATOM     15  H1  UNL     1      10.229  93.112   9.835  1.00  0.00     0.209 HD
ENDBRANCH  13  14
ENDBRANCH   1  13
BRANCH   7  16
HETATM   16  O4  UNL     1       6.512  99.876  11.102  1.00  0.00    -0.390 OA
ATOM     17  H4  UNL     1       6.506  99.499  11.973  1.00  0.00     0.210 HD
ENDBRANCH   7  16
BRANCH  10  18
HETATM   18  O7  UNL     1      11.988  96.706   9.296  1.00  0.00    -0.368 OA
ATOM     19  H7  UNL     1      12.655  97.380   9.236  1.00  0.00     0.212 HD
ENDBRANCH  10  18
BRANCH   6  20
HETATM   20  O3  UNL     1       7.023 101.047   8.627  1.00  0.00    -0.389 OA
ATOM     21  H3  UNL     1       6.324 101.377   9.180  1.00  0.00     0.210 HD
ENDBRANCH   6  20
TORSDOF 6
ENDMDL
MODEL 3
REMARK VINA RESULT: -6.532203336      1.539      4.820
REMARK  6 active torsions:
REMARK  status: ('A' for Active; 'I' for Inactive)
REMARK    1  A    between atoms: O1_1  and  C1_3 
REMARK    2  A    between atoms: C1_3  and  C2_4 
REMARK    3  A    between atoms: C6_9  and  O3_10 
REMARK    4  A    between atoms: C7_12  and  O4_13 
REMARK    5  A    between atoms: C8_15  and  O5_16 
REMARK    6  A    between atoms: C9_19  and  O7_20 
ROOT
HETATM    1  C2  UNL     1       9.303  97.311  13.230  1.00  0.00     0.204 C 
HETATM    2  O2  UNL     1      10.065  97.233  12.095  1.00  0.00    -0.337 OA
HETATM    3  C3  UNL     1       9.235  97.383  10.995  1.00  0.00     0.215 C 
HETATM    4  C4  UNL     1       9.491  98.715  10.384  1.00  0.00     0.042 C 
HETATM    5  C5  UNL     1      10.097  98.877   9.212  1.00  0.00     0.008 C 
HETATM    6  C6  UNL     1      10.584  97.721   8.389  1.00  0.00     0.172 C 
HETATM    7  C7  UNL     1      10.895  96.614   9.391  1.00  0.00     0.185 C 
HETATM    8  C8  UNL     1       9.556  96.256  10.036  1.00  0.00     0.216 C 
HETATM    9  O6  UNL     1       7.929  97.350  11.446  1.00  0.00    -0.316 OA
HETATM   10  C9  UNL     1       7.946  97.743  12.780  1.00  0.00     0.292 C 
ENDROOT
BRANCH   8  11
HETATM   11  O5  UNL     1       9.747  95.090  10.760  1.00  0.00    -0.387 OA
ATOM     12  H5  UNL     1       8.953  94.570  10.723  1.00  0.00     0.210 HD
ENDBRANCH   8  11
BRANCH   1  13
HETATM   13  C1  UNL     1       9.936  98.262  14.217  1.00  0.00     0.201 C 
BRANCH  13  14
HETATM   14  O1  UNL     1       9.539  98.044  15.517  1.00  0.00    -0.398 OA
ATOM     15  H1  UNL     1       8.849  98.631  15.802  1.00  0.00     0.209 HD
ENDBRANCH  13  14
ENDBRANCH   1  13
BRANCH   7  16
HETATM   16  O4  UNL     1      11.523  95.540   8.831  1.00  0.00    -0.390 OA
ATOM     17  H4  UNL     1      11.502  94.765   9.379  1.00  0.00     0.210 HD
ENDBRANCH   7  16
BRANCH  10  18
HETATM   18  O7  UNL     1       7.827  99.106  12.944  1.00  0.00    -0.368 OA
ATOM     19  H7  UNL     1       8.046  99.333  13.841  1.00  0.00     0.212 HD
ENDBRANCH  10  18
BRANCH   6  20
HETATM   20  O3  UNL     1      11.705  98.065   7.670  1.00  0.00    -0.389 OA
ATOM     21  H3  UNL     1      11.699  97.654   6.812  1.00  0.00     0.210 HD
ENDBRANCH   6  20
TORSDOF 6
ENDMDL
MODEL 4
REMARK VINA RESULT: -6.067156330      1.454      1.748
REMARK  6 active torsions:
REMARK  status: ('A' for Active; 'I' for Inactive)
REMARK    1  A    between atoms: O1_1  and  C1_3 
REMARK    2  A    between atoms: C1_3  and  C2_4 
REMARK    3  A    between atoms: C6_9  and  O3_10 
REMARK    4  A    between atoms: C7_12  and  O4_13 
REMARK    5  A    between atoms: C8_15  and  O5_16 
REMARK    6  A    between atoms: C9_19  and  O7_20 
ROOT
HETATM    1  C2  UNL     1      10.470  95.121  10.577  1.00  0.00     0.204 C 
HETATM    2  O2  UNL     1       9.488  95.992  10.969  1.00  0.00    -0.337 OA
HETATM    3  C3  UNL     1       9.991  97.282  10.899  1.00  0.00     0.215 C 
HETATM    4  C4  UNL     1       9.352  97.980   9.750  1.00  0.00     0.042 C 
HETATM    5  C5  UNL     1       8.466  98.961   9.890  1.00  0.00     0.008 C 
HETATM    6  C6  UNL     1       8.024  99.460  11.234  1.00  0.00     0.172 C 
HETATM    7  C7  UNL     1       8.172  98.271  12.177  1.00  0.00     0.185 C 
HETATM    8  C8  UNL     1       9.669  97.960  12.214  1.00  0.00     0.216 C 
HETATM    9  O6  UNL     1      11.349  97.193  10.659  1.00  0.00    -0.316 OA
HETATM   10  C9  UNL     1      11.576  95.968  10.039  1.00  0.00     0.292 C 
ENDROOT
BRANCH   8  11
HETATM   11  O5  UNL     1       9.876  97.060  13.246  1.00  0.00    -0.387 OA
ATOM     12  H5  UNL     1       9.346  97.318  13.991  1.00  0.00     0.210 HD
ENDBRANCH   8  11
BRANCH   1  13
HETATM   13  C1  UNL     1       9.922  94.140   9.568  1.00  0.00     0.201 C 
BRANCH  13  14
HETATM   14  O1  UNL     1       9.296  93.058  10.143  1.00  0.00    -0.398 OA
ATOM     15  H1  UNL     1       9.705  92.773  10.951  1.00  0.00     0.209 HD
ENDBRANCH  13  14
ENDBRANCH   1  13
BRANCH   7  16
HETATM   16  O4  UNL     1       7.642  98.493  13.414  1.00  0.00    -0.390 OA
ATOM     17  H4  UNL     1       7.855  97.813  14.042  1.00  0.00     0.210 HD
ENDBRANCH   7  16
BRANCH  10  18
HETATM   18  O7  UNL     1      11.473  96.028   8.666  1.00  0.00    -0.368 OA
ATOM     19  H7  UNL     1      12.265  95.677   8.278  1.00  0.00     0.212 HD
ENDBRANCH  10  18
BRANCH   6  20
HETATM   20  O3  UNL     1       6.720  99.898  11.193  1.00  0.00    -0.389 OA
ATOM     21  H3  UNL     1       6.113  99.169  11.252  1.00  0.00     0.210 HD
ENDBRANCH   6  20
TORSDOF 6
ENDMDL
MODEL 5
REMARK VINA RESULT: -5.976085459      1.637      5.074
REMARK  6 active torsions:
REMARK  status: ('A' for Active; 'I' for Inactive)
REMARK    1  A    between atoms: O1_1  and  C1_3 
REMARK    2  A    between atoms: C1_3  and  C2_4 
REMARK    3  A    between atoms: C6_9  and  O3_10 
REMARK    4  A    between atoms: C7_12  and  O4_13 
REMARK    5  A    between atoms: C8_15  and  O5_16 
REMARK    6  A    between atoms: C9_19  and  O7_20 
ROOT
HETATM    1  C2  UNL     1       7.981  98.978  12.007  1.00  0.00     0.204 C 
HETATM    2  O2  UNL     1       8.302  98.542  10.749  1.00  0.00    -0.337 OA
HETATM    3  C3  UNL     1       9.520  97.883  10.807  1.00  0.00     0.215 C 
HETATM    4  C4  UNL     1       9.281  96.425  10.627  1.00  0.00     0.042 C 
HETATM    5  C5  UNL     1       9.636  95.755   9.536  1.00  0.00     0.008 C 
HETATM    6  C6  UNL     1      10.318  96.413   8.372  1.00  0.00     0.172 C 
HETATM    7  C7  UNL     1       9.849  97.864   8.397  1.00  0.00     0.185 C 
HETATM    8  C8  UNL     1      10.388  98.448   9.703  1.00  0.00     0.216 C 
HETATM    9  O6  UNL     1      10.050  98.089  12.067  1.00  0.00    -0.316 OA
HETATM   10  C9  UNL     1       8.985  98.355  12.922  1.00  0.00     0.292 C 
ENDROOT
BRANCH   8  11
HETATM   11  O5  UNL     1      10.206  99.820   9.646  1.00  0.00    -0.387 OA
ATOM     12  H5  UNL     1      10.766 100.233  10.292  1.00  0.00     0.210 HD
ENDBRANCH   8  11
BRANCH   1  13
HETATM   13  C1  UNL     1       6.557  98.603  12.340  1.00  0.00     0.201 C 
BRANCH  13  14
HETATM   14  O1  UNL     1       6.157  99.030  13.585  1.00  0.00    -0.398 OA
ATOM     15  H1  UNL     1       5.729  99.877  13.573  1.00  0.00     0.209 HD
ENDBRANCH  13  14
ENDBRANCH   1  13
BRANCH   7  16
HETATM   16  O4  UNL     1      10.231  98.574   7.296  1.00  0.00    -0.390 OA
ATOM     17  H4  UNL     1      10.293  99.509   7.454  1.00  0.00     0.210 HD
ENDBRANCH   7  16
BRANCH  10  18
HETATM   18  O7  UNL     1       8.444  97.219  13.482  1.00  0.00    -0.368 OA
ATOM     19  H7  UNL     1       7.614  97.028  13.060  1.00  0.00     0.212 HD
ENDBRANCH  10  18
BRANCH   6  20
HETATM   20  O3  UNL     1       9.973  95.803   7.189  1.00  0.00    -0.389 OA
ATOM     21  H3  UNL     1      10.223  96.338   6.444  1.00  0.00     0.210 HD
ENDBRANCH   6  20
TORSDOF 6
ENDMDL
