MODEL 1
REMARK VINA RESULT: -5.740410147      0.000      0.000
REMARK  2 active torsions:
REMARK  status: ('A' for Active; 'I' for Inactive)
REMARK       I    between atoms: N3_4  and  C2_6 
REMARK    1  A    between atoms: C2_6  and  C3_8 
REMARK    2  A    between atoms: C3_8  and  C4_9 
ROOT
HETATM    1  C3  UNL     1       9.121  -5.601  -0.649  1.00  0.00     0.045 C 
HETATM    2  C9  UNL     1       8.559  -5.523   0.754  1.00  0.00     0.020 C 
HETATM    3  C10 UNL     1       8.453  -4.024   0.964  1.00  0.00     0.001 C 
HETATM    4  C11 UNL     1       7.752  -3.610  -0.318  1.00  0.00     0.001 C 
HETATM    5  C12 UNL     1       8.503  -4.420  -1.353  1.00  0.00     0.020 C 
ENDROOT
BRANCH   1   6
HETATM    6  C2  UNL     1      10.590  -5.518  -0.589  1.00  0.00     0.232 C 
HETATM    7  N3  UNL     1      11.335  -4.406  -1.076  1.00  0.00    -0.303 N 
HETATM    8  C1  UNL     1      12.503  -4.146  -0.631  1.00  0.00     0.203 C 
ATOM      9  H3  UNL     1      10.928  -3.806  -1.793  1.00  0.00     0.171 HD
HETATM   10  N1  UNL     1      13.105  -4.942   0.358  1.00  0.00    -0.066 NA
HETATM   11  N2  UNL     1      13.211  -3.035  -1.136  1.00  0.00    -0.066 NA
HETATM   12  O1  UNL     1      11.213  -6.494  -0.073  1.00  0.00    -0.272 OA
ENDBRANCH   1   6
BRANCH   1  13
HETATM   13  C4  UNL     1       8.710  -6.916  -1.223  1.00  0.00     0.003 C 
HETATM   14  C5  UNL     1       7.976  -6.895  -2.505  1.00  0.00     0.006 C 
HETATM   15  C6  UNL     1       7.394  -8.317  -2.592  1.00  0.00     0.000 C 
HETATM   16  C7  UNL     1       6.902  -8.494  -1.174  1.00  0.00     0.000 C 
HETATM   17  C8  UNL     1       7.815  -7.705  -0.297  1.00  0.00     0.006 C 
ENDBRANCH   1  13
TORSDOF 2
ENDMDL
MODEL 2
REMARK VINA RESULT: -5.491598213      1.735      2.358
REMARK  2 active torsions:
REMARK  status: ('A' for Active; 'I' for Inactive)
REMARK       I    between atoms: N3_4  and  C2_6 
REMARK    1  A    between atoms: C2_6  and  C3_8 
REMARK    2  A    between atoms: C3_8  and  C4_9 
ROOT
HETATM    1  C3  UNL     1       9.073  -6.243  -0.313  1.00  0.00     0.045 C 
HETATM    2  C9  UNL     1      10.286  -6.862   0.348  1.00  0.00     0.020 C 
HETATM    3  C10 UNL     1      10.219  -6.266   1.742  1.00  0.00     0.001 C 
HETATM    4  C11 UNL     1       8.764  -6.527   2.090  1.00  0.00     0.001 C 
HETATM    5  C12 UNL     1       8.067  -6.135   0.805  1.00  0.00     0.020 C 
ENDROOT
BRANCH   1   6
HETATM    6  C2  UNL     1       9.441  -4.930  -0.870  1.00  0.00     0.232 C 
HETATM    7  N3  UNL     1      10.738  -4.626  -1.374  1.00  0.00    -0.303 N 
HETATM    8  C1  UNL     1      10.915  -3.695  -2.229  1.00  0.00     0.203 C 
ATOM      9  H3  UNL     1      11.541  -5.164  -1.047  1.00  0.00     0.171 HD
HETATM   10  N1  UNL     1       9.840  -2.929  -2.711  1.00  0.00    -0.066 NA
HETATM   11  N2  UNL     1      12.213  -3.422  -2.707  1.00  0.00    -0.066 NA
HETATM   12  O1  UNL     1       8.548  -4.032  -0.898  1.00  0.00    -0.272 OA
ENDBRANCH   1   6
BRANCH   1  13
HETATM   13  C4  UNL     1       8.646  -7.159  -1.411  1.00  0.00     0.003 C 
HETATM   14  C5  UNL     1       7.923  -6.558  -2.551  1.00  0.00     0.006 C 
HETATM   15  C6  UNL     1       7.319  -7.783  -3.259  1.00  0.00     0.000 C 
HETATM   16  C7  UNL     1       6.813  -8.562  -2.067  1.00  0.00     0.000 C 
HETATM   17  C8  UNL     1       7.731  -8.260  -0.932  1.00  0.00     0.006 C 
ENDBRANCH   1  13
TORSDOF 2
ENDMDL
MODEL 3
REMARK VINA RESULT: -5.320195840      1.706      2.695
REMARK  2 active torsions:
REMARK  status: ('A' for Active; 'I' for Inactive)
REMARK       I    between atoms: N3_4  and  C2_6 
REMARK    1  A    between atoms: C2_6  and  C3_8 
REMARK    2  A    between atoms: C3_8  and  C4_9 
ROOT
HETATM    1  C3  UNL     1       9.165  -6.002   0.040  1.00  0.00     0.045 C 
HETATM    2  C9  UNL     1      10.342  -6.953  -0.025  1.00  0.00     0.020 C 
HETATM    3  C10 UNL     1      11.166  -6.510   1.170  1.00  0.00     0.001 C 
HETATM    4  C11 UNL     1      10.096  -6.463   2.247  1.00  0.00     0.001 C 
HETATM    5  C12 UNL     1       8.956  -5.785   1.517  1.00  0.00     0.020 C 
ENDROOT
BRANCH   1   6
HETATM    6  C2  UNL     1       9.506  -4.759  -0.671  1.00  0.00     0.232 C 
HETATM    7  N3  UNL     1      10.791  -4.500  -1.228  1.00  0.00    -0.303 N 
HETATM    8  C1  UNL     1      10.942  -3.671  -2.188  1.00  0.00     0.203 C 
ATOM      9  H3  UNL     1      11.607  -4.985  -0.854  1.00  0.00     0.171 HD
HETATM   10  N1  UNL     1       9.849  -2.980  -2.738  1.00  0.00    -0.066 NA
HETATM   11  N2  UNL     1      12.229  -3.439  -2.715  1.00  0.00    -0.066 NA
HETATM   12  O1  UNL     1       8.599  -3.881  -0.788  1.00  0.00    -0.272 OA
ENDBRANCH   1   6
BRANCH   1  13
HETATM   13  C4  UNL     1       8.012  -6.672  -0.630  1.00  0.00     0.003 C 
HETATM   14  C5  UNL     1       7.476  -7.894   0.004  1.00  0.00     0.006 C 
HETATM   15  C6  UNL     1       6.607  -8.506  -1.108  1.00  0.00     0.000 C 
HETATM   16  C7  UNL     1       7.524  -8.330  -2.296  1.00  0.00     0.000 C 
HETATM   17  C8  UNL     1       8.324  -7.096  -2.046  1.00  0.00     0.006 C 
ENDBRANCH   1  13
TORSDOF 2
ENDMDL
MODEL 4
REMARK VINA RESULT: -5.272727162      2.128      2.547
REMARK  2 active torsions:
REMARK  status: ('A' for Active; 'I' for Inactive)
REMARK       I    between atoms: N3_4  and  C2_6 
REMARK    1  A    between atoms: C2_6  and  C3_8 
REMARK    2  A    between atoms: C3_8  and  C4_9 
ROOT
HETATM    1  C3  UNL     1       9.163  -6.009   0.105  1.00  0.00     0.045 C 
HETATM    2  C9  UNL     1       8.229  -5.084   0.855  1.00  0.00     0.020 C 
HETATM    3  C10 UNL     1       8.600  -3.731   0.276  1.00  0.00     0.001 C 
HETATM    4  C11 UNL     1       8.568  -4.043  -1.210  1.00  0.00     0.001 C 
HETATM    5  C12 UNL     1       9.282  -5.377  -1.258  1.00  0.00     0.020 C 
ENDROOT
BRANCH   1   6
HETATM    6  C2  UNL     1      10.453  -6.074   0.812  1.00  0.00     0.232 C 
HETATM    7  N3  UNL     1      10.571  -6.075   2.232  1.00  0.00    -0.303 N 
HETATM    8  C1  UNL     1      11.596  -6.568   2.810  1.00  0.00     0.203 C 
ATOM      9  H3  UNL     1       9.823  -5.673   2.797  1.00  0.00     0.171 HD
HETATM   10  N1  UNL     1      12.653  -7.133   2.076  1.00  0.00    -0.066 NA
HETATM   11  N2  UNL     1      11.680  -6.552   4.218  1.00  0.00    -0.066 NA
HETATM   12  O1  UNL     1      11.506  -6.133   0.110  1.00  0.00    -0.272 OA
ENDBRANCH   1   6
BRANCH   1  13
HETATM   13  C4  UNL     1       8.529  -7.360   0.079  1.00  0.00     0.003 C 
HETATM   14  C5  UNL     1       8.112  -7.887  -1.236  1.00  0.00     0.006 C 
HETATM   15  C6  UNL     1       7.187  -9.058  -0.861  1.00  0.00     0.000 C 
HETATM   16  C7  UNL     1       6.383  -8.421   0.250  1.00  0.00     0.000 C 
HETATM   17  C8  UNL     1       7.278  -7.436   0.922  1.00  0.00     0.006 C 
ENDBRANCH   1  13
TORSDOF 2
ENDMDL
MODEL 5
REMARK VINA RESULT: -5.245604151      2.078      2.526
REMARK  2 active torsions:
REMARK  status: ('A' for Active; 'I' for Inactive)
REMARK       I    between atoms: N3_4  and  C2_6 
REMARK    1  A    between atoms: C2_6  and  C3_8 
REMARK    2  A    between atoms: C3_8  and  C4_9 
ROOT
HETATM    1  C3  UNL     1       9.045  -6.204  -0.504  1.00  0.00     0.045 C 
HETATM    2  C9  UNL     1       8.058  -5.649   0.500  1.00  0.00     0.020 C 
HETATM    3  C10 UNL     1       8.409  -4.173   0.498  1.00  0.00     0.001 C 
HETATM    4  C11 UNL     1       8.439  -3.893  -0.995  1.00  0.00     0.001 C 
HETATM    5  C12 UNL     1       9.194  -5.097  -1.517  1.00  0.00     0.020 C 
ENDROOT
BRANCH   1   6
HETATM    6  C2  UNL     1      10.311  -6.517   0.181  1.00  0.00     0.232 C 
HETATM    7  N3  UNL     1      10.386  -7.275   1.384  1.00  0.00    -0.303 N 
HETATM    8  C1  UNL     1      11.451  -7.901   1.706  1.00  0.00     0.203 C 
ATOM      9  H3  UNL     1       9.574  -7.320   2.000  1.00  0.00     0.171 HD
HETATM   10  N1  UNL     1      12.595  -7.871   0.891  1.00  0.00    -0.066 NA
HETATM   11  N2  UNL     1      11.489  -8.643   2.906  1.00  0.00    -0.066 NA
HETATM   12  O1  UNL     1      11.383  -6.083  -0.337  1.00  0.00    -0.272 OA
ENDBRANCH   1   6
BRANCH   1  13
HETATM   13  C4  UNL     1       8.453  -7.451  -1.070  1.00  0.00     0.003 C 
HETATM   14  C5  UNL     1       7.917  -7.383  -2.446  1.00  0.00     0.006 C 
HETATM   15  C6  UNL     1       7.072  -8.664  -2.551  1.00  0.00     0.000 C 
HETATM   16  C7  UNL     1       6.368  -8.633  -1.213  1.00  0.00     0.000 C 
HETATM   17  C8  UNL     1       7.299  -7.976  -0.250  1.00  0.00     0.006 C 
ENDBRANCH   1  13
TORSDOF 2
ENDMDL
