MODEL 1
REMARK VINA RESULT: -6.322459747      0.000      0.000
REMARK  0 active torsions:
REMARK  status: ('A' for Active; 'I' for Inactive)
ROOT
HETATM    1  C1  UNL     1      67.264  40.506  -2.110  1.00  0.00     0.028 C 
HETATM    2  C2  UNL     1      67.060  39.997  -0.686  1.00  0.00     0.040 C 
HETATM    3  C3  UNL     1      65.531  39.864  -0.540  1.00  0.00     0.028 C 
HETATM    4  C4  UNL     1      67.461  41.010   0.310  1.00  0.00    -0.011 C 
HETATM    5  C5  UNL     1      68.594  40.902   0.947  1.00  0.00     0.001 C 
HETATM    6  C6  UNL     1      69.513  39.777   0.703  1.00  0.00     0.052 C 
HETATM    7  C7  UNL     1      70.565  40.239  -0.262  1.00  0.00     0.035 C 
HETATM    8  C8  UNL     1      71.922  39.656  -0.022  1.00  0.00     0.006 C 
HETATM    9  C9  UNL     1      71.896  38.331   0.687  1.00  0.00     0.040 C 
HETATM   10  C10 UNL     1      71.176  38.406   1.999  1.00  0.00     0.140 C 
HETATM   11  C11 UNL     1      72.183  38.721   3.043  1.00  0.00     0.084 C 
HETATM   12  N1  UNL     1      72.971  38.969   3.853  1.00  0.00    -0.195 NA
HETATM   13  C12 UNL     1      70.613  37.061   2.274  1.00  0.00     0.084 C 
HETATM   14  N2  UNL     1      70.164  36.020   2.499  1.00  0.00    -0.195 NA
HETATM   15  C13 UNL     1      70.079  39.398   2.054  1.00  0.00     0.075 C 
HETATM   16  N3  UNL     1      68.821  38.668   0.136  1.00  0.00    -0.357 N 
ATOM     17  H3  UNL     1      69.254  37.751   0.249  1.00  0.00     0.162 HD
HETATM   18  C14 UNL     1      67.720  38.703  -0.496  1.00  0.00     0.173 C 
HETATM   19  F1  UNL     1      67.173  37.568  -0.984  1.00  0.00    -0.190 F 
ENDROOT
TORSDOF 0
ENDMDL
MODEL 2
REMARK VINA RESULT: -6.099600840      1.845      2.620
REMARK  0 active torsions:
REMARK  status: ('A' for Active; 'I' for Inactive)
ROOT
HETATM    1  C1  UNL     1      70.291  40.225  -1.164  1.00  0.00     0.028 C 
HETATM    2  C2  UNL     1      69.448  39.422  -0.178  1.00  0.00     0.040 C 
HETATM    3  C3  UNL     1      67.999  39.601  -0.676  1.00  0.00     0.028 C 
HETATM    4  C4  UNL     1      69.475  40.024   1.169  1.00  0.00    -0.011 C 
HETATM    5  C5  UNL     1      70.209  39.504   2.114  1.00  0.00     0.001 C 
HETATM    6  C6  UNL     1      71.033  38.305   1.881  1.00  0.00     0.052 C 
HETATM    7  C7  UNL     1      72.436  38.756   1.598  1.00  0.00     0.035 C 
HETATM    8  C8  UNL     1      73.496  37.842   2.128  1.00  0.00     0.006 C 
HETATM    9  C9  UNL     1      73.042  36.419   2.294  1.00  0.00     0.040 C 
HETATM   10  C10 UNL     1      71.840  36.308   3.179  1.00  0.00     0.140 C 
HETATM   11  C11 UNL     1      72.324  36.108   4.567  1.00  0.00     0.084 C 
HETATM   12  N1  UNL     1      72.707  35.953   5.648  1.00  0.00    -0.195 NA
HETATM   13  C12 UNL     1      71.088  35.100   2.759  1.00  0.00     0.084 C 
HETATM   14  N2  UNL     1      70.491  34.163   2.440  1.00  0.00    -0.195 NA
HETATM   15  C13 UNL     1      70.924  37.471   3.138  1.00  0.00     0.075 C 
HETATM   16  N3  UNL     1      70.550  37.566   0.762  1.00  0.00    -0.357 N 
ATOM     17  H3  UNL     1      70.804  36.578   0.721  1.00  0.00     0.162 HD
HETATM   18  C14 UNL     1      69.837  38.010  -0.190  1.00  0.00     0.173 C 
HETATM   19  F1  UNL     1      69.448  37.193  -1.195  1.00  0.00    -0.190 F 
ENDROOT
TORSDOF 0
ENDMDL
MODEL 3
REMARK VINA RESULT: -6.078652539      3.652      5.400
REMARK  0 active torsions:
REMARK  status: ('A' for Active; 'I' for Inactive)
ROOT
HETATM    1  C1  UNL     1      69.842  41.528  -2.262  1.00  0.00     0.028 C 
HETATM    2  C2  UNL     1      68.752  41.860  -1.248  1.00  0.00     0.040 C 
HETATM    3  C3  UNL     1      68.916  43.371  -0.989  1.00  0.00     0.028 C 
HETATM    4  C4  UNL     1      69.009  41.210   0.052  1.00  0.00    -0.011 C 
HETATM    5  C5  UNL     1      68.343  40.146   0.406  1.00  0.00     0.001 C 
HETATM    6  C6  UNL     1      67.316  39.552  -0.468  1.00  0.00     0.052 C 
HETATM    7  C7  UNL     1      67.945  38.414  -1.216  1.00  0.00     0.035 C 
HETATM    8  C8  UNL     1      67.029  37.257  -1.464  1.00  0.00     0.006 C 
HETATM    9  C9  UNL     1      65.574  37.631  -1.486  1.00  0.00     0.040 C 
HETATM   10  C10 UNL     1      65.144  38.308  -0.222  1.00  0.00     0.140 C 
HETATM   11  C11 UNL     1      64.657  37.256   0.705  1.00  0.00     0.084 C 
HETATM   12  N1  UNL     1      64.280  36.432   1.424  1.00  0.00    -0.195 NA
HETATM   13  C12 UNL     1      64.011  39.204  -0.560  1.00  0.00     0.084 C 
HETATM   14  N2  UNL     1      63.130  39.910  -0.811  1.00  0.00    -0.195 NA
HETATM   15  C13 UNL     1      66.195  39.108   0.447  1.00  0.00     0.075 C 
HETATM   16  N3  UNL     1      66.830  40.509  -1.405  1.00  0.00    -0.357 N 
ATOM     17  H3  UNL     1      65.908  40.331  -1.806  1.00  0.00     0.162 HD
HETATM   18  C14 UNL     1      67.426  41.561  -1.793  1.00  0.00     0.173 C 
HETATM   19  F1  UNL     1      66.845  42.386  -2.694  1.00  0.00    -0.190 F 
ENDROOT
TORSDOF 0
ENDMDL
MODEL 4
REMARK VINA RESULT: -5.984693379      1.890      2.993
REMARK  0 active torsions:
REMARK  status: ('A' for Active; 'I' for Inactive)
ROOT
HETATM    1  C1  UNL     1      66.269  39.300  -0.024  1.00  0.00     0.028 C 
HETATM    2  C2  UNL     1      67.627  39.666  -0.614  1.00  0.00     0.040 C 
HETATM    3  C3  UNL     1      67.297  40.636  -1.766  1.00  0.00     0.028 C 
HETATM    4  C4  UNL     1      68.267  38.501  -1.256  1.00  0.00    -0.011 C 
HETATM    5  C5  UNL     1      69.237  37.864  -0.660  1.00  0.00     0.001 C 
HETATM    6  C6  UNL     1      69.730  38.275   0.667  1.00  0.00     0.052 C 
HETATM    7  C7  UNL     1      69.069  37.406   1.696  1.00  0.00     0.035 C 
HETATM    8  C8  UNL     1      69.936  37.070   2.869  1.00  0.00     0.006 C 
HETATM    9  C9  UNL     1      71.021  38.078   3.128  1.00  0.00     0.040 C 
HETATM   10  C10 UNL     1      71.902  38.281   1.934  1.00  0.00     0.140 C 
HETATM   11  C11 UNL     1      73.033  37.328   2.047  1.00  0.00     0.084 C 
HETATM   12  N1  UNL     1      73.913  36.581   2.139  1.00  0.00    -0.195 NA
HETATM   13  C12 UNL     1      72.436  39.663   2.007  1.00  0.00     0.084 C 
HETATM   14  N2  UNL     1      72.857  40.739   2.049  1.00  0.00    -0.195 NA
HETATM   15  C13 UNL     1      71.232  38.102   0.626  1.00  0.00     0.075 C 
HETATM   16  N3  UNL     1      69.402  39.636   0.932  1.00  0.00    -0.357 N 
ATOM     17  H3  UNL     1      69.973  40.117   1.629  1.00  0.00     0.162 HD
HETATM   18  C14 UNL     1      68.474  40.313   0.391  1.00  0.00     0.173 C 
HETATM   19  F1  UNL     1      68.273  41.603   0.739  1.00  0.00    -0.190 F 
ENDROOT
TORSDOF 0
ENDMDL
MODEL 5
REMARK VINA RESULT: -5.967405466      2.149      3.273
REMARK  0 active torsions:
REMARK  status: ('A' for Active; 'I' for Inactive)
ROOT
HETATM    1  C1  UNL     1      66.891  40.934   0.229  1.00  0.00     0.028 C 
HETATM    2  C2  UNL     1      67.924  40.553  -0.826  1.00  0.00     0.040 C 
HETATM    3  C3  UNL     1      67.611  41.475  -2.022  1.00  0.00     0.028 C 
HETATM    4  C4  UNL     1      67.707  39.181  -1.323  1.00  0.00    -0.011 C 
HETATM    5  C5  UNL     1      68.465  38.199  -0.919  1.00  0.00     0.001 C 
HETATM    6  C6  UNL     1      69.561  38.416   0.041  1.00  0.00     0.052 C 
HETATM    7  C7  UNL     1      69.059  38.053   1.407  1.00  0.00     0.035 C 
HETATM    8  C8  UNL     1      70.086  37.427   2.297  1.00  0.00     0.006 C 
HETATM    9  C9  UNL     1      71.500  37.800   1.946  1.00  0.00     0.040 C 
HETATM   10  C10 UNL     1      71.838  37.464   0.527  1.00  0.00     0.140 C 
HETATM   11  C11 UNL     1      72.406  36.093   0.515  1.00  0.00     0.084 C 
HETATM   12  N1  UNL     1      72.848  35.024   0.512  1.00  0.00    -0.195 NA
HETATM   13  C12 UNL     1      72.885  38.416   0.082  1.00  0.00     0.084 C 
HETATM   14  N2  UNL     1      73.699  39.154  -0.279  1.00  0.00    -0.195 NA
HETATM   15  C13 UNL     1      70.702  37.536  -0.420  1.00  0.00     0.075 C 
HETATM   16  N3  UNL     1      69.971  39.782   0.047  1.00  0.00    -0.357 N 
ATOM     17  H3  UNL     1      70.912  39.976   0.389  1.00  0.00     0.162 HD
HETATM   18  C14 UNL     1      69.284  40.781  -0.329  1.00  0.00     0.173 C 
HETATM   19  F1  UNL     1      69.799  42.029  -0.268  1.00  0.00    -0.190 F 
ENDROOT
TORSDOF 0
ENDMDL
