MODEL 1
REMARK VINA RESULT: -7.806412905      0.000      0.000
REMARK  6 active torsions:
REMARK  status: ('A' for Active; 'I' for Inactive)
REMARK    1  A    between atoms: C4_6  and  C5_7 
REMARK    2  A    between atoms: C11_15  and  C12_16 
REMARK    3  A    between atoms: C13_19  and  C14_20 
REMARK    4  A    between atoms: C14_20  and  N4_21 
REMARK    5  A    between atoms: N4_21  and  C15_24 
REMARK    6  A    between atoms: C19_28  and  O1_29 
ROOT
HETATM    1  C12 UNL     1     -15.619   8.483  -6.860  1.00  0.00     0.103 A 
HETATM    2  N3  UNL     1     -14.928   9.339  -7.565  1.00  0.00    -0.350 N 
ATOM      3  H3  UNL     1     -14.542   9.059  -8.468  1.00  0.00     0.166 HD
HETATM    4  C13 UNL     1     -14.726  10.552  -7.124  1.00  0.00     0.042 A 
HETATM    5  C21 UNL     1     -15.272  10.863  -5.902  1.00  0.00     0.078 A 
HETATM    6  S1  UNL     1     -16.035   9.396  -5.477  1.00  0.00    -0.080 SA
ENDROOT
BRANCH   1   7
HETATM    7  C11 UNL     1     -15.987   7.076  -7.129  1.00  0.00     0.089 A 
HETATM    8  C2  UNL     1     -16.797   6.817  -8.194  1.00  0.00     0.035 A 
HETATM    9  C1  UNL     1     -17.315   7.882  -9.079  1.00  0.00     0.070 C 
HETATM   10  N1  UNL     1     -17.115   5.503  -8.407  1.00  0.00    -0.366 N 
HETATM   11  C3  UNL     1     -16.637   4.544  -7.594  1.00  0.00     0.113 A 
ATOM     12  H1  UNL     1     -17.718   5.249  -9.188  1.00  0.00     0.165 HD
HETATM   13  C4  UNL     1     -15.818   4.822  -6.520  1.00  0.00     0.029 A 
HETATM   14  N2  UNL     1     -15.500   6.105  -6.300  1.00  0.00    -0.354 N 
ATOM     15  H2  UNL     1     -14.897   6.356  -5.516  1.00  0.00     0.166 HD
BRANCH  13  16
HETATM   16  C5  UNL     1     -15.323   3.728  -5.655  1.00  0.00     0.037 C 
HETATM   17  C6  UNL     1     -14.922   2.500  -6.424  1.00  0.00     0.011 C 
HETATM   18  C7  UNL     1     -14.381   1.491  -5.433  1.00  0.00     0.001 C 
HETATM   19  C8  UNL     1     -14.357   2.014  -4.020  1.00  0.00     0.000 C 
HETATM   20  C9  UNL     1     -15.692   2.537  -3.567  1.00  0.00     0.001 C 
HETATM   21  C10 UNL     1     -16.391   3.324  -4.670  1.00  0.00     0.011 C 
ENDBRANCH  13  16
ENDBRANCH   1   7
BRANCH   4  22
HETATM   22  C14 UNL     1     -13.932  11.621  -7.875  1.00  0.00     0.289 C 
BRANCH  22  23
HETATM   23  N4  UNL     1     -12.692  11.081  -8.342  1.00  0.00    -0.066 N 
ATOM     24  H42 UNL     1     -12.124  10.696  -7.587  1.00  0.00     0.278 HD
ATOM     25  H41 UNL     1     -12.817  10.221  -8.875  1.00  0.00     0.278 HD
BRANCH  23  26
HETATM   26  C15 UNL     1     -11.999  12.103  -9.091  1.00  0.00     0.188 C 
HETATM   27  C16 UNL     1     -12.853  13.363  -9.151  1.00  0.00     0.033 C 
HETATM   28  C17 UNL     1     -12.052  14.472  -9.778  1.00  0.00     0.004 C 
HETATM   29  C18 UNL     1     -10.987  13.985 -10.712  1.00  0.00     0.032 C 
HETATM   30  C19 UNL     1     -11.468  12.752 -11.451  1.00  0.00     0.120 C 
HETATM   31  C20 UNL     1     -11.734  11.625 -10.487  1.00  0.00     0.064 C 
BRANCH  30  32
HETATM   32  O1  UNL     1     -12.638  13.111 -12.144  1.00  0.00    -0.396 OA
ATOM     33  H1  UNL     1     -13.308  13.284 -11.494  1.00  0.00     0.210 HD
ENDBRANCH  30  32
ENDBRANCH  23  26
ENDBRANCH  22  23
ENDBRANCH   4  22
TORSDOF 6
ENDMDL
MODEL 2
REMARK VINA RESULT: -7.528981769      2.592      3.481
REMARK  6 active torsions:
REMARK  status: ('A' for Active; 'I' for Inactive)
REMARK    1  A    between atoms: C4_6  and  C5_7 
REMARK    2  A    between atoms: C11_15  and  C12_16 
REMARK    3  A    between atoms: C13_19  and  C14_20 
REMARK    4  A    between atoms: C14_20  and  N4_21 
REMARK    5  A    between atoms: N4_21  and  C15_24 
REMARK    6  A    between atoms: C19_28  and  O1_29 
ROOT
HETATM    1  C12 UNL     1     -16.267   6.779  -6.099  1.00  0.00     0.103 A 
HETATM    2  N3  UNL     1     -15.559   7.838  -6.393  1.00  0.00    -0.350 N 
ATOM      3  H3  UNL     1     -14.960   7.834  -7.219  1.00  0.00     0.166 HD
HETATM    4  C13 UNL     1     -15.611   8.901  -5.636  1.00  0.00     0.042 A 
HETATM    5  C21 UNL     1     -16.435   8.839  -4.539  1.00  0.00     0.078 A 
HETATM    6  S1  UNL     1     -17.076   7.262  -4.674  1.00  0.00    -0.080 SA
ENDROOT
BRANCH   1   7
HETATM    7  C11 UNL     1     -16.388   5.472  -6.780  1.00  0.00     0.089 A 
HETATM    8  C2  UNL     1     -17.214   5.386  -7.861  1.00  0.00     0.035 A 
HETATM    9  C1  UNL     1     -17.984   6.540  -8.369  1.00  0.00     0.070 C 
HETATM   10  N1  UNL     1     -17.298   4.158  -8.460  1.00  0.00    -0.366 N 
HETATM   11  C3  UNL     1     -16.592   3.115  -7.987  1.00  0.00     0.113 A 
ATOM     12  H1  UNL     1     -17.901   4.032  -9.272  1.00  0.00     0.165 HD
HETATM   13  C4  UNL     1     -15.760   3.219  -6.892  1.00  0.00     0.029 A 
HETATM   14  N2  UNL     1     -15.669   4.416  -6.295  1.00  0.00    -0.354 N 
ATOM     15  H2  UNL     1     -15.065   4.538  -5.481  1.00  0.00     0.166 HD
BRANCH  13  16
HETATM   16  C5  UNL     1     -15.008   2.040  -6.411  1.00  0.00     0.037 C 
HETATM   17  C6  UNL     1     -14.576   2.156  -4.976  1.00  0.00     0.011 C 
HETATM   18  C7  UNL     1     -13.877   0.867  -4.599  1.00  0.00     0.001 C 
HETATM   19  C8  UNL     1     -13.862  -0.140  -5.719  1.00  0.00     0.000 C 
HETATM   20  C9  UNL     1     -13.296   0.414  -6.997  1.00  0.00     0.001 C 
HETATM   21  C10 UNL     1     -13.769   1.842  -7.248  1.00  0.00     0.011 C 
ENDBRANCH  13  16
ENDBRANCH   1   7
BRANCH   4  22
HETATM   22  C14 UNL     1     -14.819  10.184  -5.896  1.00  0.00     0.289 C 
BRANCH  22  23
HETATM   23  N4  UNL     1     -14.992  10.606  -7.252  1.00  0.00    -0.066 N 
ATOM     24  H42 UNL     1     -14.165  10.435  -7.823  1.00  0.00     0.278 HD
ATOM     25  H41 UNL     1     -15.643  10.013  -7.766  1.00  0.00     0.278 HD
BRANCH  23  26
HETATM   26  C15 UNL     1     -15.390  11.995  -7.252  1.00  0.00     0.188 C 
HETATM   27  C16 UNL     1     -14.209  12.865  -7.662  1.00  0.00     0.033 C 
HETATM   28  C17 UNL     1     -14.679  14.286  -7.830  1.00  0.00     0.004 C 
HETATM   29  C18 UNL     1     -15.880  14.620  -6.998  1.00  0.00     0.032 C 
HETATM   30  C19 UNL     1     -15.813  13.891  -5.672  1.00  0.00     0.120 C 
HETATM   31  C20 UNL     1     -15.844  12.399  -5.882  1.00  0.00     0.064 C 
BRANCH  30  32
HETATM   32  O1  UNL     1     -14.620  14.287  -5.039  1.00  0.00    -0.396 OA
ATOM     33  H1  UNL     1     -14.684  14.025  -4.128  1.00  0.00     0.210 HD
ENDBRANCH  30  32
ENDBRANCH  23  26
ENDBRANCH  22  23
ENDBRANCH   4  22
TORSDOF 6
ENDMDL
MODEL 3
REMARK VINA RESULT: -7.401971531      1.344      1.988
REMARK  6 active torsions:
REMARK  status: ('A' for Active; 'I' for Inactive)
REMARK    1  A    between atoms: C4_6  and  C5_7 
REMARK    2  A    between atoms: C11_15  and  C12_16 
REMARK    3  A    between atoms: C13_19  and  C14_20 
REMARK    4  A    between atoms: C14_20  and  N4_21 
REMARK    5  A    between atoms: N4_21  and  C15_24 
REMARK    6  A    between atoms: C19_28  and  O1_29 
ROOT
HETATM    1  C12 UNL     1     -16.259   7.147  -6.704  1.00  0.00     0.103 A 
HETATM    2  N3  UNL     1     -15.837   8.228  -7.305  1.00  0.00    -0.350 N 
ATOM      3  H3  UNL     1     -15.583   8.192  -8.293  1.00  0.00     0.166 HD
HETATM    4  C13 UNL     1     -15.736   9.354  -6.651  1.00  0.00     0.042 A 
HETATM    5  C21 UNL     1     -16.093   9.332  -5.325  1.00  0.00     0.078 A 
HETATM    6  S1  UNL     1     -16.547   7.700  -5.113  1.00  0.00    -0.080 SA
ENDROOT
BRANCH   1   7
HETATM    7  C11 UNL     1     -16.463   5.772  -7.208  1.00  0.00     0.089 A 
HETATM    8  C2  UNL     1     -17.352   5.586  -8.224  1.00  0.00     0.035 A 
HETATM    9  C1  UNL     1     -18.111   6.698  -8.831  1.00  0.00     0.070 C 
HETATM   10  N1  UNL     1     -17.512   4.298  -8.658  1.00  0.00    -0.366 N 
HETATM   11  C3  UNL     1     -16.815   3.294  -8.097  1.00  0.00     0.113 A 
ATOM     12  H1  UNL     1     -18.165   4.097  -9.415  1.00  0.00     0.165 HD
HETATM   13  C4  UNL     1     -15.918   3.499  -7.069  1.00  0.00     0.029 A 
HETATM   14  N2  UNL     1     -15.752   4.755  -6.632  1.00  0.00    -0.354 N 
ATOM     15  H2  UNL     1     -15.099   4.952  -5.874  1.00  0.00     0.166 HD
BRANCH  13  16
HETATM   16  C5  UNL     1     -15.179   2.358  -6.484  1.00  0.00     0.037 C 
HETATM   17  C6  UNL     1     -14.804   2.570  -5.044  1.00  0.00     0.011 C 
HETATM   18  C7  UNL     1     -14.113   1.313  -4.558  1.00  0.00     0.001 C 
HETATM   19  C8  UNL     1     -14.050   0.236  -5.610  1.00  0.00     0.000 C 
HETATM   20  C9  UNL     1     -13.438   0.711  -6.898  1.00  0.00     0.001 C 
HETATM   21  C10 UNL     1     -13.907   2.116  -7.258  1.00  0.00     0.011 C 
ENDBRANCH  13  16
ENDBRANCH   1   7
BRANCH   4  22
HETATM   22  C14 UNL     1     -15.252  10.668  -7.267  1.00  0.00     0.289 C 
BRANCH  22  23
HETATM   23  N4  UNL     1     -13.952  10.497  -7.839  1.00  0.00    -0.066 N 
ATOM     24  H42 UNL     1     -13.399   9.792  -7.351  1.00  0.00     0.278 HD
ATOM     25  H41 UNL     1     -13.983  10.043  -8.752  1.00  0.00     0.278 HD
BRANCH  23  26
HETATM   26  C15 UNL     1     -13.297  11.784  -7.882  1.00  0.00     0.188 C 
HETATM   27  C16 UNL     1     -14.316  12.867  -8.206  1.00  0.00     0.033 C 
HETATM   28  C17 UNL     1     -13.660  14.217  -8.075  1.00  0.00     0.004 C 
HETATM   29  C18 UNL     1     -12.180  14.185  -8.304  1.00  0.00     0.032 C 
HETATM   30  C19 UNL     1     -11.841  13.170  -9.376  1.00  0.00     0.120 C 
HETATM   31  C20 UNL     1     -12.231  11.782  -8.936  1.00  0.00     0.064 C 
BRANCH  30  32
HETATM   32  O1  UNL     1     -12.537  13.544 -10.540  1.00  0.00    -0.396 OA
ATOM     33  H1  UNL     1     -11.980  14.146 -11.019  1.00  0.00     0.210 HD
ENDBRANCH  30  32
ENDBRANCH  23  26
ENDBRANCH  22  23
ENDBRANCH   4  22
TORSDOF 6
ENDMDL
MODEL 4
REMARK VINA RESULT: -7.292638281      2.648      3.557
REMARK  6 active torsions:
REMARK  status: ('A' for Active; 'I' for Inactive)
REMARK    1  A    between atoms: C4_6  and  C5_7 
REMARK    2  A    between atoms: C11_15  and  C12_16 
REMARK    3  A    between atoms: C13_19  and  C14_20 
REMARK    4  A    between atoms: C14_20  and  N4_21 
REMARK    5  A    between atoms: N4_21  and  C15_24 
REMARK    6  A    between atoms: C19_28  and  O1_29 
ROOT
HETATM    1  C12 UNL     1     -16.412   6.735  -7.776  1.00  0.00     0.103 A 
HETATM    2  N3  UNL     1     -15.925   7.635  -6.962  1.00  0.00    -0.350 N 
ATOM      3  H3  UNL     1     -15.789   7.406  -5.977  1.00  0.00     0.166 HD
HETATM    4  C13 UNL     1     -15.612   8.825  -7.399  1.00  0.00     0.042 A 
HETATM    5  C21 UNL     1     -15.822   9.067  -8.735  1.00  0.00     0.078 A 
HETATM    6  S1  UNL     1     -16.451   7.571  -9.266  1.00  0.00    -0.080 SA
ENDROOT
BRANCH   1   7
HETATM    7  C11 UNL     1     -16.836   5.339  -7.539  1.00  0.00     0.089 A 
HETATM    8  C2  UNL     1     -18.112   4.991  -7.869  1.00  0.00     0.035 A 
HETATM    9  C1  UNL     1     -19.075   5.951  -8.448  1.00  0.00     0.070 C 
HETATM   10  N1  UNL     1     -18.464   3.690  -7.631  1.00  0.00    -0.366 N 
HETATM   11  C3  UNL     1     -17.579   2.827  -7.102  1.00  0.00     0.113 A 
ATOM     12  H1  UNL     1     -19.406   3.372  -7.856  1.00  0.00     0.165 HD
HETATM   13  C4  UNL     1     -16.291   3.195  -6.774  1.00  0.00     0.029 A 
HETATM   14  N2  UNL     1     -15.932   4.466  -7.000  1.00  0.00    -0.354 N 
ATOM     15  H2  UNL     1     -14.989   4.781  -6.772  1.00  0.00     0.166 HD
BRANCH  13  16
HETATM   16  C5  UNL     1     -15.357   2.205  -6.192  1.00  0.00     0.037 C 
HETATM   17  C6  UNL     1     -14.955   2.527  -4.780  1.00  0.00     0.011 C 
HETATM   18  C7  UNL     1     -14.056   1.412  -4.290  1.00  0.00     0.001 C 
HETATM   19  C8  UNL     1     -13.873   0.317  -5.309  1.00  0.00     0.000 C 
HETATM   20  C9  UNL     1     -13.401   0.831  -6.641  1.00  0.00     0.001 C 
HETATM   21  C10 UNL     1     -14.100   2.132  -7.021  1.00  0.00     0.011 C 
ENDBRANCH  13  16
ENDBRANCH   1   7
BRANCH   4  22
HETATM   22  C14 UNL     1     -15.039   9.942  -6.525  1.00  0.00     0.289 C 
BRANCH  22  23
HETATM   23  N4  UNL     1     -14.319  10.880  -7.328  1.00  0.00    -0.066 N 
ATOM     24  H42 UNL     1     -13.336  10.947  -7.065  1.00  0.00     0.278 HD
ATOM     25  H41 UNL     1     -14.185  10.554  -8.285  1.00  0.00     0.278 HD
BRANCH  23  26
HETATM   26  C15 UNL     1     -14.998  12.154  -7.267  1.00  0.00     0.188 C 
HETATM   27  C16 UNL     1     -14.028  13.270  -7.628  1.00  0.00     0.033 C 
HETATM   28  C17 UNL     1     -14.785  14.567  -7.732  1.00  0.00     0.004 C 
HETATM   29  C18 UNL     1     -16.026  14.603  -6.894  1.00  0.00     0.032 C 
HETATM   30  C19 UNL     1     -15.803  13.843  -5.602  1.00  0.00     0.120 C 
HETATM   31  C20 UNL     1     -15.522  12.389  -5.881  1.00  0.00     0.064 C 
BRANCH  30  32
HETATM   32  O1  UNL     1     -14.717  14.450  -4.944  1.00  0.00    -0.396 OA
ATOM     33  H1  UNL     1     -14.807  14.259  -4.018  1.00  0.00     0.210 HD
ENDBRANCH  30  32
ENDBRANCH  23  26
ENDBRANCH  22  23
ENDBRANCH   4  22
TORSDOF 6
ENDMDL
MODEL 5
REMARK VINA RESULT: -7.261965742      2.756      3.973
REMARK  6 active torsions:
REMARK  status: ('A' for Active; 'I' for Inactive)
REMARK    1  A    between atoms: C4_6  and  C5_7 
REMARK    2  A    between atoms: C11_15  and  C12_16 
REMARK    3  A    between atoms: C13_19  and  C14_20 
REMARK    4  A    between atoms: C14_20  and  N4_21 
REMARK    5  A    between atoms: N4_21  and  C15_24 
REMARK    6  A    between atoms: C19_28  and  O1_29 
ROOT
HETATM    1  C12 UNL     1     -16.154   6.377  -7.119  1.00  0.00     0.103 A 
HETATM    2  N3  UNL     1     -15.614   7.568  -7.095  1.00  0.00    -0.350 N 
ATOM      3  H3  UNL     1     -14.981   7.822  -6.336  1.00  0.00     0.166 HD
HETATM    4  C13 UNL     1     -15.878   8.434  -8.036  1.00  0.00     0.042 A 
HETATM    5  C21 UNL     1     -16.737   8.028  -9.027  1.00  0.00     0.078 A 
HETATM    6  S1  UNL     1     -17.104   6.433  -8.538  1.00  0.00    -0.080 SA
ENDROOT
BRANCH   1   7
HETATM    7  C11 UNL     1     -16.021   5.232  -6.194  1.00  0.00     0.089 A 
HETATM    8  C2  UNL     1     -16.689   5.284  -5.007  1.00  0.00     0.035 A 
HETATM    9  C1  UNL     1     -17.532   6.433  -4.617  1.00  0.00     0.070 C 
HETATM   10  N1  UNL     1     -16.536   4.204  -4.180  1.00  0.00    -0.366 N 
HETATM   11  C3  UNL     1     -15.765   3.165  -4.546  1.00  0.00     0.113 A 
ATOM     12  H1  UNL     1     -17.011   4.188  -3.278  1.00  0.00     0.165 HD
HETATM   13  C4  UNL     1     -15.096   3.127  -5.751  1.00  0.00     0.029 A 
HETATM   14  N2  UNL     1     -15.236   4.178  -6.571  1.00  0.00    -0.354 N 
ATOM     15  H2  UNL     1     -14.758   4.192  -7.472  1.00  0.00     0.166 HD
BRANCH  13  16
HETATM   16  C5  UNL     1     -14.258   1.959  -6.104  1.00  0.00     0.037 C 
HETATM   17  C6  UNL     1     -14.595   1.372  -7.446  1.00  0.00     0.011 C 
HETATM   18  C7  UNL     1     -13.631   0.233  -7.706  1.00  0.00     0.001 C 
HETATM   19  C8  UNL     1     -12.619   0.060  -6.603  1.00  0.00     0.000 C 
HETATM   20  C9  UNL     1     -13.251  -0.082  -5.246  1.00  0.00     0.001 C 
HETATM   21  C10 UNL     1     -14.428   0.872  -5.073  1.00  0.00     0.011 C 
ENDBRANCH  13  16
ENDBRANCH   1   7
BRANCH   4  22
HETATM   22  C14 UNL     1     -15.296   9.848  -8.093  1.00  0.00     0.289 C 
BRANCH  22  23
HETATM   23  N4  UNL     1     -15.383  10.472  -6.809  1.00  0.00    -0.066 N 
ATOM     24  H42 UNL     1     -16.070  10.024  -6.202  1.00  0.00     0.278 HD
ATOM     25  H41 UNL     1     -14.558  10.302  -6.235  1.00  0.00     0.278 HD
BRANCH  23  26
HETATM   26  C15 UNL     1     -15.647  11.880  -6.999  1.00  0.00     0.188 C 
HETATM   27  C16 UNL     1     -14.383  12.576  -7.485  1.00  0.00     0.033 C 
HETATM   28  C17 UNL     1     -14.713  14.000  -7.848  1.00  0.00     0.004 C 
HETATM   29  C18 UNL     1     -15.890  14.548  -7.100  1.00  0.00     0.032 C 
HETATM   30  C19 UNL     1     -15.913  13.997  -5.689  1.00  0.00     0.120 C 
HETATM   31  C20 UNL     1     -16.082  12.500  -5.706  1.00  0.00     0.064 C 
BRANCH  30  32
HETATM   32  O1  UNL     1     -14.698  14.361  -5.080  1.00  0.00    -0.396 OA
ATOM     33  H1  UNL     1     -14.383  15.140  -5.522  1.00  0.00     0.210 HD
ENDBRANCH  30  32
ENDBRANCH  23  26
ENDBRANCH  22  23
ENDBRANCH   4  22
TORSDOF 6
ENDMDL
