MODEL 1
REMARK VINA RESULT: -7.561198446      0.000      0.000
REMARK  6 active torsions:
REMARK  status: ('A' for Active; 'I' for Inactive)
REMARK    1  A    between atoms: O1_1  and  C1_3 
REMARK    2  A    between atoms: C5_7  and  N1_8 
REMARK    3  A    between atoms: C7_12  and  C8_13 
REMARK    4  A    between atoms: C11_18  and  N4_19 
REMARK    5  A    between atoms: N4_19  and  C12_21 
REMARK    6  A    between atoms: C16_25  and  C17_26 
ROOT
HETATM    1  N1  UNL     1     -16.017   7.766  -6.921  1.00  0.00    -0.286 N 
HETATM    2  N2  UNL     1     -15.975   7.800  -8.273  1.00  0.00    -0.308 N 
ATOM      3  H2  UNL     1     -16.155   7.011  -8.895  1.00  0.00     0.186 HD
HETATM    4  C6  UNL     1     -15.659   9.033  -8.655  1.00  0.00     0.122 A 
HETATM    5  C7  UNL     1     -15.488   9.847  -7.536  1.00  0.00     0.022 A 
HETATM    6  C16 UNL     1     -15.728   8.987  -6.483  1.00  0.00     0.074 A 
ENDROOT
BRANCH   5   7
HETATM    7  C8  UNL     1     -15.141  11.248  -7.488  1.00  0.00    -0.005 A 
HETATM    8  C9  UNL     1     -15.996  12.158  -6.913  1.00  0.00     0.100 A 
HETATM    9  N3  UNL     1     -15.738  13.468  -6.837  1.00  0.00    -0.372 N 
HETATM   10  C10 UNL     1     -14.616  13.970  -7.327  1.00  0.00     0.116 A 
ATOM     11  H3  UNL     1     -16.416  14.089  -6.395  1.00  0.00     0.164 HD
HETATM   12  C11 UNL     1     -13.707  13.112  -7.923  1.00  0.00     0.044 A 
HETATM   13  C15 UNL     1     -13.964  11.742  -8.008  1.00  0.00     0.044 A 
BRANCH  12  14
HETATM   14  N4  UNL     1     -12.523  13.698  -8.441  1.00  0.00    -0.384 N 
ATOM     15  H4  UNL     1     -12.233  14.637  -8.166  1.00  0.00     0.160 HD
BRANCH  14  16
HETATM   16  C12 UNL     1     -11.741  12.917  -9.371  1.00  0.00     0.082 A 
HETATM   17  C13 UNL     1     -12.012  12.849 -10.804  1.00  0.00     0.027 A 
HETATM   18  C14 UNL     1     -10.855  13.642 -10.323  1.00  0.00     0.027 A 
ENDBRANCH  14  16
ENDBRANCH  12  14
ENDBRANCH   5   7
BRANCH   6  19
HETATM   19  C17 UNL     1     -15.648   9.446  -5.068  1.00  0.00     0.000 A 
HETATM   20  C18 UNL     1     -14.481   9.734  -4.433  1.00  0.00     0.021 A 
HETATM   21  C19 UNL     1     -14.556  10.138  -3.132  1.00  0.00     0.050 A 
HETATM   22  S1  UNL     1     -16.230  10.109  -2.812  1.00  0.00    -0.113 SA
HETATM   23  C20 UNL     1     -16.792   9.590  -4.330  1.00  0.00     0.063 A 
ENDBRANCH   6  19
BRANCH   1  24
HETATM   24  C5  UNL     1     -16.321   6.588  -6.196  1.00  0.00     0.111 C 
HETATM   25  C4  UNL     1     -17.724   6.390  -5.755  1.00  0.00     0.027 C 
HETATM   26  C3  UNL     1     -17.689   5.363  -4.616  1.00  0.00     0.004 C 
HETATM   27  C2  UNL     1     -16.399   4.638  -4.498  1.00  0.00     0.032 C 
HETATM   28  C1  UNL     1     -15.724   4.262  -5.768  1.00  0.00     0.120 C 
HETATM   29  C21 UNL     1     -15.875   5.292  -6.869  1.00  0.00     0.059 C 
BRANCH  28  30
HETATM   30  O1  UNL     1     -16.082   3.034  -6.277  1.00  0.00    -0.396 OA
ATOM     31  H1  UNL     1     -17.012   2.922  -6.440  1.00  0.00     0.210 HD
ENDBRANCH  28  30
ENDBRANCH   1  24
TORSDOF 6
ENDMDL
MODEL 2
REMARK VINA RESULT: -7.073242768      1.357      2.998
REMARK  6 active torsions:
REMARK  status: ('A' for Active; 'I' for Inactive)
REMARK    1  A    between atoms: O1_1  and  C1_3 
REMARK    2  A    between atoms: C5_7  and  N1_8 
REMARK    3  A    between atoms: C7_12  and  C8_13 
REMARK    4  A    between atoms: C11_18  and  N4_19 
REMARK    5  A    between atoms: N4_19  and  C12_21 
REMARK    6  A    between atoms: C16_25  and  C17_26 
ROOT
HETATM    1  N1  UNL     1     -16.016   7.831  -6.892  1.00  0.00    -0.286 N 
HETATM    2  N2  UNL     1     -15.976   7.873  -8.245  1.00  0.00    -0.308 N 
ATOM      3  H2  UNL     1     -16.176   7.094  -8.871  1.00  0.00     0.186 HD
HETATM    4  C6  UNL     1     -15.633   9.102  -8.618  1.00  0.00     0.122 A 
HETATM    5  C7  UNL     1     -15.440   9.904  -7.494  1.00  0.00     0.022 A 
HETATM    6  C16 UNL     1     -15.697   9.042  -6.446  1.00  0.00     0.074 A 
ENDROOT
BRANCH   5   7
HETATM    7  C8  UNL     1     -15.061  11.296  -7.437  1.00  0.00    -0.005 A 
HETATM    8  C9  UNL     1     -13.917  11.733  -8.061  1.00  0.00     0.100 A 
HETATM    9  N3  UNL     1     -13.507  13.006  -8.045  1.00  0.00    -0.372 N 
HETATM   10  C10 UNL     1     -14.201  13.936  -7.409  1.00  0.00     0.116 A 
ATOM     11  H3  UNL     1     -12.647  13.263  -8.531  1.00  0.00     0.164 HD
HETATM   12  C11 UNL     1     -15.366  13.568  -6.756  1.00  0.00     0.044 A 
HETATM   13  C15 UNL     1     -15.804  12.243  -6.765  1.00  0.00     0.044 A 
BRANCH  12  14
HETATM   14  N4  UNL     1     -16.071  14.599  -6.082  1.00  0.00    -0.384 N 
ATOM     15  H4  UNL     1     -16.105  15.548  -6.455  1.00  0.00     0.160 HD
BRANCH  14  16
HETATM   16  C12 UNL     1     -16.738  14.255  -4.848  1.00  0.00     0.082 A 
HETATM   17  C13 UNL     1     -16.091  14.281  -3.539  1.00  0.00     0.027 A 
HETATM   18  C14 UNL     1     -17.052  15.354  -3.892  1.00  0.00     0.027 A 
ENDBRANCH  14  16
ENDBRANCH  12  14
ENDBRANCH   5   7
BRANCH   6  19
HETATM   19  C17 UNL     1     -15.603   9.488  -5.028  1.00  0.00     0.000 A 
HETATM   20  C18 UNL     1     -14.428   9.726  -4.389  1.00  0.00     0.021 A 
HETATM   21  C19 UNL     1     -14.490  10.124  -3.085  1.00  0.00     0.050 A 
HETATM   22  S1  UNL     1     -16.165  10.160  -2.769  1.00  0.00    -0.113 SA
HETATM   23  C20 UNL     1     -16.742   9.672  -4.292  1.00  0.00     0.063 A 
ENDBRANCH   6  19
BRANCH   1  24
HETATM   24  C5  UNL     1     -16.344   6.655  -6.175  1.00  0.00     0.111 C 
HETATM   25  C4  UNL     1     -17.751   6.483  -5.737  1.00  0.00     0.027 C 
HETATM   26  C3  UNL     1     -17.739   5.449  -4.604  1.00  0.00     0.004 C 
HETATM   27  C2  UNL     1     -16.464   4.696  -4.489  1.00  0.00     0.032 C 
HETATM   28  C1  UNL     1     -15.796   4.314  -5.762  1.00  0.00     0.120 C 
HETATM   29  C21 UNL     1     -15.924   5.354  -6.856  1.00  0.00     0.059 C 
BRANCH  28  30
HETATM   30  O1  UNL     1     -16.179   3.097  -6.278  1.00  0.00    -0.396 OA
ATOM     31  H1  UNL     1     -16.769   2.594  -5.728  1.00  0.00     0.210 HD
ENDBRANCH  28  30
ENDBRANCH   1  24
TORSDOF 6
ENDMDL
MODEL 3
REMARK VINA RESULT: -6.821581734      2.989      5.192
REMARK  6 active torsions:
REMARK  status: ('A' for Active; 'I' for Inactive)
REMARK    1  A    between atoms: O1_1  and  C1_3 
REMARK    2  A    between atoms: C5_7  and  N1_8 
REMARK    3  A    between atoms: C7_12  and  C8_13 
REMARK    4  A    between atoms: C11_18  and  N4_19 
REMARK    5  A    between atoms: N4_19  and  C12_21 
REMARK    6  A    between atoms: C16_25  and  C17_26 
ROOT
HETATM    1  N1  UNL     1     -15.721  10.787  -6.686  1.00  0.00    -0.286 N 
HETATM    2  N2  UNL     1     -15.238  11.783  -7.465  1.00  0.00    -0.308 N 
ATOM      3  H2  UNL     1     -14.971  11.697  -8.445  1.00  0.00     0.186 HD
HETATM    4  C6  UNL     1     -15.170  12.893  -6.736  1.00  0.00     0.122 A 
HETATM    5  C7  UNL     1     -15.619  12.639  -5.441  1.00  0.00     0.022 A 
HETATM    6  C16 UNL     1     -15.949  11.298  -5.480  1.00  0.00     0.074 A 
ENDROOT
BRANCH   5   7
HETATM    7  C8  UNL     1     -15.715  13.552  -4.327  1.00  0.00    -0.005 A 
HETATM    8  C9  UNL     1     -16.571  14.627  -4.378  1.00  0.00     0.100 A 
HETATM    9  N3  UNL     1     -16.707  15.512  -3.385  1.00  0.00    -0.372 N 
HETATM   10  C10 UNL     1     -16.004  15.395  -2.269  1.00  0.00     0.116 A 
ATOM     11  H3  UNL     1     -17.362  16.287  -3.488  1.00  0.00     0.164 HD
HETATM   12  C11 UNL     1     -15.120  14.335  -2.147  1.00  0.00     0.044 A 
HETATM   13  C15 UNL     1     -14.970  13.406  -3.177  1.00  0.00     0.044 A 
BRANCH  12  14
HETATM   14  N4  UNL     1     -14.384  14.258  -0.937  1.00  0.00    -0.384 N 
ATOM     15  H4  UNL     1     -13.843  15.052  -0.595  1.00  0.00     0.160 HD
BRANCH  14  16
HETATM   16  C12 UNL     1     -14.428  13.013  -0.206  1.00  0.00     0.082 A 
HETATM   17  C13 UNL     1     -13.298  12.094  -0.095  1.00  0.00     0.027 A 
HETATM   18  C14 UNL     1     -13.673  12.925   1.075  1.00  0.00     0.027 A 
ENDBRANCH  14  16
ENDBRANCH  12  14
ENDBRANCH   5   7
BRANCH   6  19
HETATM   19  C17 UNL     1     -16.481  10.590  -4.283  1.00  0.00     0.000 A 
HETATM   20  C18 UNL     1     -15.737   9.760  -3.506  1.00  0.00     0.021 A 
HETATM   21  C19 UNL     1     -16.356   9.171  -2.442  1.00  0.00     0.050 A 
HETATM   22  S1  UNL     1     -17.948   9.773  -2.537  1.00  0.00    -0.113 SA
HETATM   23  C20 UNL     1     -17.789  10.753  -3.916  1.00  0.00     0.063 A 
ENDBRANCH   6  19
BRANCH   1  24
HETATM   24  C5  UNL     1     -15.908   9.467  -7.165  1.00  0.00     0.111 C 
HETATM   25  C4  UNL     1     -15.852   9.250  -8.632  1.00  0.00     0.027 C 
HETATM   26  C3  UNL     1     -16.557   7.916  -8.909  1.00  0.00     0.004 C 
HETATM   27  C2  UNL     1     -16.786   7.092  -7.695  1.00  0.00     0.032 C 
HETATM   28  C1  UNL     1     -15.702   7.086  -6.676  1.00  0.00     0.120 C 
HETATM   29  C21 UNL     1     -15.001   8.421  -6.521  1.00  0.00     0.059 C 
BRANCH  28  30
HETATM   30  O1  UNL     1     -14.743   6.115  -6.852  1.00  0.00    -0.396 OA
ATOM     31  H1  UNL     1     -14.125   6.025  -6.135  1.00  0.00     0.210 HD
ENDBRANCH  28  30
ENDBRANCH   1  24
TORSDOF 6
ENDMDL
MODEL 4
REMARK VINA RESULT: -6.591693304      3.546      5.393
REMARK  6 active torsions:
REMARK  status: ('A' for Active; 'I' for Inactive)
REMARK    1  A    between atoms: O1_1  and  C1_3 
REMARK    2  A    between atoms: C5_7  and  N1_8 
REMARK    3  A    between atoms: C7_12  and  C8_13 
REMARK    4  A    between atoms: C11_18  and  N4_19 
REMARK    5  A    between atoms: N4_19  and  C12_21 
REMARK    6  A    between atoms: C16_25  and  C17_26 
ROOT
HETATM    1  N1  UNL     1     -15.746  10.819  -6.697  1.00  0.00    -0.286 N 
HETATM    2  N2  UNL     1     -15.250  11.805  -7.482  1.00  0.00    -0.308 N 
ATOM      3  H2  UNL     1     -14.962  11.704  -8.455  1.00  0.00     0.186 HD
HETATM    4  C6  UNL     1     -15.203  12.927  -6.771  1.00  0.00     0.122 A 
HETATM    5  C7  UNL     1     -15.678  12.692  -5.481  1.00  0.00     0.022 A 
HETATM    6  C16 UNL     1     -16.001  11.350  -5.505  1.00  0.00     0.074 A 
ENDROOT
BRANCH   5   7
HETATM    7  C8  UNL     1     -15.801  13.623  -4.385  1.00  0.00    -0.005 A 
HETATM    8  C9  UNL     1     -14.902  13.599  -3.345  1.00  0.00     0.100 A 
HETATM    9  N3  UNL     1     -14.960  14.430  -2.299  1.00  0.00    -0.372 N 
HETATM   10  C10 UNL     1     -15.913  15.344  -2.207  1.00  0.00     0.116 A 
ATOM     11  H3  UNL     1     -14.259  14.358  -1.561  1.00  0.00     0.164 HD
HETATM   12  C11 UNL     1     -16.855  15.426  -3.219  1.00  0.00     0.044 A 
HETATM   13  C15 UNL     1     -16.806  14.565  -4.316  1.00  0.00     0.044 A 
BRANCH  12  14
HETATM   14  N4  UNL     1     -17.862  16.416  -3.072  1.00  0.00    -0.384 N 
ATOM     15  H4  UNL     1     -18.788  16.293  -3.481  1.00  0.00     0.160 HD
BRANCH  14  16
HETATM   16  C12 UNL     1     -17.527  17.604  -2.322  1.00  0.00     0.082 A 
HETATM   17  C13 UNL     1     -16.901  18.786  -2.908  1.00  0.00     0.027 A 
HETATM   18  C14 UNL     1     -18.340  18.830  -2.553  1.00  0.00     0.027 A 
ENDBRANCH  14  16
ENDBRANCH  12  14
ENDBRANCH   5   7
BRANCH   6  19
HETATM   19  C17 UNL     1     -16.555  10.658  -4.308  1.00  0.00     0.000 A 
HETATM   20  C18 UNL     1     -17.838  10.800  -3.882  1.00  0.00     0.021 A 
HETATM   21  C19 UNL     1     -18.209  10.111  -2.764  1.00  0.00     0.050 A 
HETATM   22  S1  UNL     1     -16.784   9.286  -2.324  1.00  0.00    -0.113 SA
HETATM   23  C20 UNL     1     -15.757   9.832  -3.564  1.00  0.00     0.063 A 
ENDBRANCH   6  19
BRANCH   1  24
HETATM   24  C5  UNL     1     -15.917   9.491  -7.158  1.00  0.00     0.111 C 
HETATM   25  C4  UNL     1     -15.872   9.257  -8.622  1.00  0.00     0.027 C 
HETATM   26  C3  UNL     1     -16.559   7.909  -8.876  1.00  0.00     0.004 C 
HETATM   27  C2  UNL     1     -16.763   7.097  -7.650  1.00  0.00     0.032 C 
HETATM   28  C1  UNL     1     -15.670   7.120  -6.641  1.00  0.00     0.120 C 
HETATM   29  C21 UNL     1     -14.988   8.466  -6.510  1.00  0.00     0.059 C 
BRANCH  28  30
HETATM   30  O1  UNL     1     -14.698   6.161  -6.814  1.00  0.00    -0.396 OA
ATOM     31  H1  UNL     1     -13.835   6.401  -6.498  1.00  0.00     0.210 HD
ENDBRANCH  28  30
ENDBRANCH   1  24
TORSDOF 6
ENDMDL
MODEL 5
REMARK VINA RESULT: -6.499529476      1.551      1.931
REMARK  6 active torsions:
REMARK  status: ('A' for Active; 'I' for Inactive)
REMARK    1  A    between atoms: O1_1  and  C1_3 
REMARK    2  A    between atoms: C5_7  and  N1_8 
REMARK    3  A    between atoms: C7_12  and  C8_13 
REMARK    4  A    between atoms: C11_18  and  N4_19 
REMARK    5  A    between atoms: N4_19  and  C12_21 
REMARK    6  A    between atoms: C16_25  and  C17_26 
ROOT
HETATM    1  N1  UNL     1     -16.319   8.074  -5.407  1.00  0.00    -0.286 N 
HETATM    2  N2  UNL     1     -16.376   7.643  -6.689  1.00  0.00    -0.308 N 
ATOM      3  H2  UNL     1     -16.711   6.730  -6.997  1.00  0.00     0.186 HD
HETATM    4  C6  UNL     1     -15.921   8.610  -7.480  1.00  0.00     0.122 A 
HETATM    5  C7  UNL     1     -15.552   9.715  -6.714  1.00  0.00     0.022 A 
HETATM    6  C16 UNL     1     -15.829   9.309  -5.423  1.00  0.00     0.074 A 
ENDROOT
BRANCH   5   7
HETATM    7  C8  UNL     1     -15.011  10.978  -7.159  1.00  0.00    -0.005 A 
HETATM    8  C9  UNL     1     -15.750  12.132  -7.046  1.00  0.00     0.100 A 
HETATM    9  N3  UNL     1     -15.310  13.332  -7.440  1.00  0.00    -0.372 N 
HETATM   10  C10 UNL     1     -14.108  13.474  -7.975  1.00  0.00     0.116 A 
ATOM     11  H3  UNL     1     -15.911  14.149  -7.327  1.00  0.00     0.164 HD
HETATM   12  C11 UNL     1     -13.307  12.353  -8.120  1.00  0.00     0.044 A 
HETATM   13  C15 UNL     1     -13.754  11.095  -7.713  1.00  0.00     0.044 A 
BRANCH  12  14
HETATM   14  N4  UNL     1     -12.030  12.555  -8.706  1.00  0.00    -0.384 N 
ATOM     15  H4  UNL     1     -11.175  12.291  -8.215  1.00  0.00     0.160 HD
BRANCH  14  16
HETATM   16  C12 UNL     1     -11.984  13.147 -10.022  1.00  0.00     0.082 A 
HETATM   17  C13 UNL     1     -10.756  13.605 -10.666  1.00  0.00     0.027 A 
HETATM   18  C14 UNL     1     -11.390  12.347 -11.129  1.00  0.00     0.027 A 
ENDBRANCH  14  16
ENDBRANCH  12  14
ENDBRANCH   5   7
BRANCH   6  19
HETATM   19  C17 UNL     1     -15.579  10.199  -4.254  1.00  0.00     0.000 A 
HETATM   20  C18 UNL     1     -16.467  11.126  -3.809  1.00  0.00     0.021 A 
HETATM   21  C19 UNL     1     -16.103  11.877  -2.730  1.00  0.00     0.050 A 
HETATM   22  S1  UNL     1     -14.547  11.291  -2.354  1.00  0.00    -0.113 SA
HETATM   23  C20 UNL     1     -14.398  10.111  -3.569  1.00  0.00     0.063 A 
ENDBRANCH   6  19
BRANCH   1  24
HETATM   24  C5  UNL     1     -16.728   7.271  -4.314  1.00  0.00     0.111 C 
HETATM   25  C4  UNL     1     -17.603   7.894  -3.289  1.00  0.00     0.027 C 
HETATM   26  C3  UNL     1     -17.486   7.032  -2.026  1.00  0.00     0.004 C 
HETATM   27  C2  UNL     1     -16.847   5.711  -2.254  1.00  0.00     0.032 C 
HETATM   28  C1  UNL     1     -17.191   5.011  -3.521  1.00  0.00     0.120 C 
HETATM   29  C21 UNL     1     -17.370   5.941  -4.704  1.00  0.00     0.059 C 
BRANCH  28  30
HETATM   30  O1  UNL     1     -18.293   4.188  -3.451  1.00  0.00    -0.396 OA
ATOM     31  H1  UNL     1     -18.771   4.086  -4.266  1.00  0.00     0.210 HD
ENDBRANCH  28  30
ENDBRANCH   1  24
TORSDOF 6
ENDMDL
