MODEL 1
REMARK VINA RESULT: -7.561338658      0.000      0.000
REMARK  6 active torsions:
REMARK  status: ('A' for Active; 'I' for Inactive)
REMARK    1  A    between atoms: O1_2  and  C2_3 
REMARK    2  A    between atoms: C7_8  and  O2_9 
REMARK    3  A    between atoms: C10_13  and  C11_14 
REMARK    4  A    between atoms: C16_21  and  O3_22 
REMARK    5  A    between atoms: C18_24  and  O4_25 
REMARK    6  A    between atoms: C20_27  and  O5_28 
ROOT
HETATM    1  C11 UNL     1     -15.459  11.816  -4.779  1.00  0.00     0.143 C 
HETATM    2  N1  UNL     1     -15.688  10.655  -5.587  1.00  0.00    -0.410 N 
ATOM      3  H1  UNL     1     -15.327  10.596  -6.540  1.00  0.00     0.154 HD
HETATM    4  C12 UNL     1     -16.436   9.587  -5.018  1.00  0.00     0.119 C 
HETATM    5  C13 UNL     1     -15.569   9.050  -3.869  1.00  0.00     0.058 C 
HETATM    6  C14 UNL     1     -15.321  10.198  -2.925  1.00  0.00    -0.043 A 
HETATM    7  C15 UNL     1     -15.159   9.885  -1.605  1.00  0.00     0.047 A 
HETATM    8  C16 UNL     1     -14.971  10.863  -0.650  1.00  0.00     0.104 A 
HETATM    9  C18 UNL     1     -14.948  12.178  -1.051  1.00  0.00     0.135 A 
HETATM   10  C20 UNL     1     -15.112  12.486  -2.388  1.00  0.00     0.113 A 
HETATM   11  C22 UNL     1     -15.303  11.500  -3.375  1.00  0.00     0.009 A 
ENDROOT
BRANCH   1  12
HETATM   12  C10 UNL     1     -14.247  12.504  -5.417  1.00  0.00     0.156 C 
HETATM   13  C9  UNL     1     -14.418  13.976  -5.499  1.00  0.00     0.039 C 
HETATM   14  C8  UNL     1     -14.789  14.445  -6.860  1.00  0.00     0.044 C 
HETATM   15  C5  UNL     1     -13.781  13.946  -7.832  1.00  0.00    -0.022 A 
HETATM   16  C4  UNL     1     -13.352  12.618  -7.721  1.00  0.00     0.078 A 
HETATM   17  C6  UNL     1     -13.223  14.682  -8.847  1.00  0.00     0.049 A 
HETATM   18  C3  UNL     1     -12.423  12.072  -8.577  1.00  0.00     0.077 A 
HETATM   19  O6  UNL     1     -13.959  11.929  -6.673  1.00  0.00    -0.343 OA
HETATM   20  C2  UNL     1     -11.869  12.819  -9.592  1.00  0.00     0.103 A 
HETATM   21  C7  UNL     1     -12.280  14.127  -9.715  1.00  0.00     0.099 A 
BRANCH  20  22
HETATM   22  O1  UNL     1     -10.921  12.284 -10.475  1.00  0.00    -0.353 OA
HETATM   23  C1  UNL     1     -11.250  11.373 -11.481  1.00  0.00     0.210 C 
ENDBRANCH  20  22
BRANCH  21  24
HETATM   24  O2  UNL     1     -11.740  14.912 -10.731  1.00  0.00    -0.358 OA
ATOM     25  H2  UNL     1     -12.322  15.445 -11.260  1.00  0.00     0.217 HD
ENDBRANCH  21  24
ENDBRANCH   1  12
BRANCH  10  26
HETATM   26  O5  UNL     1     -15.086  13.815  -2.737  1.00  0.00    -0.352 OA
HETATM   27  C21 UNL     1     -16.151  14.714  -2.604  1.00  0.00     0.210 C 
ENDBRANCH  10  26
BRANCH   9  28
HETATM   28  O4  UNL     1     -14.762  13.204  -0.131  1.00  0.00    -0.351 OA
HETATM   29  C19 UNL     1     -13.499  13.760   0.163  1.00  0.00     0.210 C 
ENDBRANCH   9  28
BRANCH   8  30
HETATM   30  O3  UNL     1     -14.802  10.590   0.700  1.00  0.00    -0.353 OA
HETATM   31  C17 UNL     1     -13.585  10.134   1.249  1.00  0.00     0.210 C 
ENDBRANCH   8  30
TORSDOF 6
ENDMDL
MODEL 2
REMARK VINA RESULT: -6.969723343      2.007      3.318
REMARK  6 active torsions:
REMARK  status: ('A' for Active; 'I' for Inactive)
REMARK    1  A    between atoms: O1_2  and  C2_3 
REMARK    2  A    between atoms: C7_8  and  O2_9 
REMARK    3  A    between atoms: C10_13  and  C11_14 
REMARK    4  A    between atoms: C16_21  and  O3_22 
REMARK    5  A    between atoms: C18_24  and  O4_25 
REMARK    6  A    between atoms: C20_27  and  O5_28 
ROOT
HETATM    1  C11 UNL     1     -16.894  11.978  -2.711  1.00  0.00     0.143 C 
HETATM    2  N1  UNL     1     -16.936  10.562  -2.497  1.00  0.00    -0.410 N 
ATOM      3  H1  UNL     1     -17.124   9.918  -3.265  1.00  0.00     0.154 HD
HETATM    4  C12 UNL     1     -16.707  10.083  -1.177  1.00  0.00     0.119 C 
HETATM    5  C13 UNL     1     -15.248  10.443  -0.861  1.00  0.00     0.058 C 
HETATM    6  C14 UNL     1     -15.116  11.937  -1.004  1.00  0.00    -0.043 A 
HETATM    7  C15 UNL     1     -14.190  12.552  -0.211  1.00  0.00     0.047 A 
HETATM    8  C16 UNL     1     -14.019  13.922  -0.230  1.00  0.00     0.104 A 
HETATM    9  C18 UNL     1     -14.808  14.670  -1.071  1.00  0.00     0.135 A 
HETATM   10  C20 UNL     1     -15.743  14.040  -1.871  1.00  0.00     0.113 A 
HETATM   11  C22 UNL     1     -15.927  12.644  -1.864  1.00  0.00     0.009 A 
ENDROOT
BRANCH   1  12
HETATM   12  C10 UNL     1     -16.644  12.139  -4.215  1.00  0.00     0.156 C 
HETATM   13  C9  UNL     1     -16.882  10.878  -4.960  1.00  0.00     0.039 C 
HETATM   14  C8  UNL     1     -15.627  10.168  -5.321  1.00  0.00     0.044 C 
HETATM   15  C5  UNL     1     -14.746  11.100  -6.071  1.00  0.00    -0.022 A 
HETATM   16  C4  UNL     1     -14.611  12.411  -5.599  1.00  0.00     0.078 A 
HETATM   17  C6  UNL     1     -14.037  10.787  -7.204  1.00  0.00     0.049 A 
HETATM   18  C3  UNL     1     -13.816  13.341  -6.229  1.00  0.00     0.077 A 
HETATM   19  O6  UNL     1     -15.354  12.661  -4.447  1.00  0.00    -0.343 OA
HETATM   20  C2  UNL     1     -13.110  13.017  -7.366  1.00  0.00     0.103 A 
HETATM   21  C7  UNL     1     -13.232  11.731  -7.843  1.00  0.00     0.099 A 
BRANCH  20  22
HETATM   22  O1  UNL     1     -12.295  13.947  -8.025  1.00  0.00    -0.353 OA
HETATM   23  C1  UNL     1     -12.803  14.938  -8.867  1.00  0.00     0.210 C 
ENDBRANCH  20  22
BRANCH  21  24
HETATM   24  O2  UNL     1     -12.531  11.368  -8.992  1.00  0.00    -0.358 OA
ATOM     25  H2  UNL     1     -12.181  10.487  -9.058  1.00  0.00     0.217 HD
ENDBRANCH  21  24
ENDBRANCH   1  12
BRANCH  10  26
HETATM   26  O5  UNL     1     -16.509  14.834  -2.690  1.00  0.00    -0.352 OA
HETATM   27  C21 UNL     1     -17.811  15.271  -2.417  1.00  0.00     0.210 C 
ENDBRANCH  10  26
BRANCH   9  28
HETATM   28  O4  UNL     1     -14.679  16.054  -1.130  1.00  0.00    -0.351 OA
HETATM   29  C19 UNL     1     -15.420  16.934  -0.314  1.00  0.00     0.210 C 
ENDBRANCH   9  28
BRANCH   8  30
HETATM   30  O3  UNL     1     -13.091  14.586   0.557  1.00  0.00    -0.353 OA
HETATM   31  C17 UNL     1     -13.329  14.936   1.904  1.00  0.00     0.210 C 
ENDBRANCH   8  30
TORSDOF 6
ENDMDL
MODEL 3
REMARK VINA RESULT: -6.931660009      3.094      5.618
REMARK  6 active torsions:
REMARK  status: ('A' for Active; 'I' for Inactive)
REMARK    1  A    between atoms: O1_2  and  C2_3 
REMARK    2  A    between atoms: C7_8  and  O2_9 
REMARK    3  A    between atoms: C10_13  and  C11_14 
REMARK    4  A    between atoms: C16_21  and  O3_22 
REMARK    5  A    between atoms: C18_24  and  O4_25 
REMARK    6  A    between atoms: C20_27  and  O5_28 
ROOT
HETATM    1  C11 UNL     1     -16.251  14.050  -1.922  1.00  0.00     0.143 C 
HETATM    2  N1  UNL     1     -14.949  13.596  -1.532  1.00  0.00    -0.410 N 
ATOM      3  H1  UNL     1     -14.434  12.922  -2.099  1.00  0.00     0.154 HD
HETATM    4  C12 UNL     1     -14.397  14.116  -0.328  1.00  0.00     0.119 C 
HETATM    5  C13 UNL     1     -14.182  15.614  -0.593  1.00  0.00     0.058 C 
HETATM    6  C14 UNL     1     -15.523  16.199  -0.958  1.00  0.00    -0.043 A 
HETATM    7  C15 UNL     1     -15.735  17.506  -0.624  1.00  0.00     0.047 A 
HETATM    8  C16 UNL     1     -16.942  18.127  -0.872  1.00  0.00     0.104 A 
HETATM    9  C18 UNL     1     -17.945  17.399  -1.469  1.00  0.00     0.135 A 
HETATM   10  C20 UNL     1     -17.722  16.077  -1.803  1.00  0.00     0.113 A 
HETATM   11  C22 UNL     1     -16.495  15.430  -1.559  1.00  0.00     0.009 A 
ENDROOT
BRANCH   1  12
HETATM   12  C10 UNL     1     -16.332  13.762  -3.426  1.00  0.00     0.156 C 
HETATM   13  C9  UNL     1     -17.001  12.468  -3.711  1.00  0.00     0.039 C 
HETATM   14  C8  UNL     1     -16.046  11.380  -4.048  1.00  0.00     0.044 C 
HETATM   15  C5  UNL     1     -15.188  11.825  -5.176  1.00  0.00    -0.022 A 
HETATM   16  C4  UNL     1     -14.671  13.125  -5.145  1.00  0.00     0.078 A 
HETATM   17  C6  UNL     1     -14.848  11.063  -6.266  1.00  0.00     0.049 A 
HETATM   18  C3  UNL     1     -13.867  13.621  -6.146  1.00  0.00     0.077 A 
HETATM   19  O6  UNL     1     -15.052  13.843  -4.012  1.00  0.00    -0.343 OA
HETATM   20  C2  UNL     1     -13.533  12.849  -7.236  1.00  0.00     0.103 A 
HETATM   21  C7  UNL     1     -14.033  11.567  -7.282  1.00  0.00     0.099 A 
BRANCH  20  22
HETATM   22  O1  UNL     1     -12.717  13.332  -8.267  1.00  0.00    -0.353 OA
HETATM   23  C1  UNL     1     -12.815  14.633  -8.766  1.00  0.00     0.210 C 
ENDBRANCH  20  22
BRANCH  21  24
HETATM   24  O2  UNL     1     -13.715  10.757  -8.370  1.00  0.00    -0.358 OA
ATOM     25  H2  UNL     1     -13.591   9.825  -8.229  1.00  0.00     0.217 HD
ENDBRANCH  21  24
ENDBRANCH   1  12
BRANCH  10  26
HETATM   26  O5  UNL     1     -18.757  15.393  -2.393  1.00  0.00    -0.352 OA
HETATM   27  C21 UNL     1     -19.739  14.658  -1.718  1.00  0.00     0.210 C 
ENDBRANCH  10  26
BRANCH   9  28
HETATM   28  O4  UNL     1     -19.182  17.974  -1.741  1.00  0.00    -0.351 OA
HETATM   29  C19 UNL     1     -19.454  18.700  -2.920  1.00  0.00     0.210 C 
ENDBRANCH   9  28
BRANCH   8  30
HETATM   30  O3  UNL     1     -17.200  19.451  -0.551  1.00  0.00    -0.353 OA
HETATM   31  C17 UNL     1     -16.544  20.538  -1.168  1.00  0.00     0.210 C 
ENDBRANCH   8  30
TORSDOF 6
ENDMDL
MODEL 4
REMARK VINA RESULT: -6.826502152      2.634      4.997
REMARK  6 active torsions:
REMARK  status: ('A' for Active; 'I' for Inactive)
REMARK    1  A    between atoms: O1_2  and  C2_3 
REMARK    2  A    between atoms: C7_8  and  O2_9 
REMARK    3  A    between atoms: C10_13  and  C11_14 
REMARK    4  A    between atoms: C16_21  and  O3_22 
REMARK    5  A    between atoms: C18_24  and  O4_25 
REMARK    6  A    between atoms: C20_27  and  O5_28 
ROOT
HETATM    1  C11 UNL     1     -16.211  12.822  -1.577  1.00  0.00     0.143 C 
HETATM    2  N1  UNL     1     -15.046  12.095  -1.167  1.00  0.00    -0.410 N 
ATOM      3  H1  UNL     1     -14.710  11.293  -1.701  1.00  0.00     0.154 HD
HETATM    4  C12 UNL     1     -14.372  12.529   0.008  1.00  0.00     0.119 C 
HETATM    5  C13 UNL     1     -13.818  13.920  -0.330  1.00  0.00     0.058 C 
HETATM    6  C14 UNL     1     -14.989  14.784  -0.721  1.00  0.00    -0.043 A 
HETATM    7  C15 UNL     1     -14.887  16.119  -0.451  1.00  0.00     0.047 A 
HETATM    8  C16 UNL     1     -15.919  16.992  -0.728  1.00  0.00     0.104 A 
HETATM    9  C18 UNL     1     -17.071  16.491  -1.286  1.00  0.00     0.135 A 
HETATM   10  C20 UNL     1     -17.167  15.139  -1.556  1.00  0.00     0.113 A 
HETATM   11  C22 UNL     1     -16.122  14.236  -1.281  1.00  0.00     0.009 A 
ENDROOT
BRANCH   1  12
HETATM   12  C10 UNL     1     -16.377  12.489  -3.064  1.00  0.00     0.156 C 
HETATM   13  C9  UNL     1     -16.422  11.026  -3.308  1.00  0.00     0.039 C 
HETATM   14  C8  UNL     1     -15.140  10.483  -3.829  1.00  0.00     0.044 C 
HETATM   15  C5  UNL     1     -14.756  11.239  -5.048  1.00  0.00    -0.022 A 
HETATM   16  C4  UNL     1     -14.886  12.633  -5.034  1.00  0.00     0.078 A 
HETATM   17  C6  UNL     1     -14.276  10.688  -6.210  1.00  0.00     0.049 A 
HETATM   18  C3  UNL     1     -14.554  13.415  -6.117  1.00  0.00     0.077 A 
HETATM   19  O6  UNL     1     -15.376  13.128  -3.827  1.00  0.00    -0.343 OA
HETATM   20  C2  UNL     1     -14.075  12.850  -7.278  1.00  0.00     0.103 A 
HETATM   21  C7  UNL     1     -13.940  11.481  -7.309  1.00  0.00     0.099 A 
BRANCH  20  22
HETATM   22  O1  UNL     1     -13.731  13.625  -8.394  1.00  0.00    -0.353 OA
HETATM   23  C1  UNL     1     -12.566  14.392  -8.455  1.00  0.00     0.210 C 
ENDBRANCH  20  22
BRANCH  21  24
HETATM   24  O2  UNL     1     -13.457  10.876  -8.467  1.00  0.00    -0.358 OA
ATOM     25  H2  UNL     1     -12.533  10.661  -8.524  1.00  0.00     0.217 HD
ENDBRANCH  21  24
ENDBRANCH   1  12
BRANCH  10  26
HETATM   26  O5  UNL     1     -18.341  14.688  -2.110  1.00  0.00    -0.352 OA
HETATM   27  C21 UNL     1     -19.469  14.263  -1.397  1.00  0.00     0.210 C 
ENDBRANCH  10  26
BRANCH   9  28
HETATM   28  O4  UNL     1     -18.143  17.325  -1.584  1.00  0.00    -0.351 OA
HETATM   29  C19 UNL     1     -18.279  17.998  -2.817  1.00  0.00     0.210 C 
ENDBRANCH   9  28
BRANCH   8  30
HETATM   30  O3  UNL     1     -15.856  18.354  -0.471  1.00  0.00    -0.353 OA
HETATM   31  C17 UNL     1     -15.959  18.901   0.825  1.00  0.00     0.210 C 
ENDBRANCH   8  30
TORSDOF 6
ENDMDL
MODEL 5
REMARK VINA RESULT: -6.722973300      3.245      4.730
REMARK  6 active torsions:
REMARK  status: ('A' for Active; 'I' for Inactive)
REMARK    1  A    between atoms: O1_2  and  C2_3 
REMARK    2  A    between atoms: C7_8  and  O2_9 
REMARK    3  A    between atoms: C10_13  and  C11_14 
REMARK    4  A    between atoms: C16_21  and  O3_22 
REMARK    5  A    between atoms: C18_24  and  O4_25 
REMARK    6  A    between atoms: C20_27  and  O5_28 
ROOT
HETATM    1  C11 UNL     1     -14.964  12.344  -3.884  1.00  0.00     0.143 C 
HETATM    2  N1  UNL     1     -15.591  13.418  -4.597  1.00  0.00    -0.410 N 
ATOM      3  H1  UNL     1     -15.354  13.616  -5.569  1.00  0.00     0.154 HD
HETATM    4  C12 UNL     1     -16.555  14.201  -3.903  1.00  0.00     0.119 C 
HETATM    5  C13 UNL     1     -17.721  13.246  -3.611  1.00  0.00     0.058 C 
HETATM    6  C14 UNL     1     -17.167  12.099  -2.805  1.00  0.00    -0.043 A 
HETATM    7  C15 UNL     1     -18.018  11.500  -1.921  1.00  0.00     0.047 A 
HETATM    8  C16 UNL     1     -17.600  10.470  -1.103  1.00  0.00     0.104 A 
HETATM    9  C18 UNL     1     -16.294  10.049  -1.191  1.00  0.00     0.135 A 
HETATM   10  C20 UNL     1     -15.439  10.661  -2.089  1.00  0.00     0.113 A 
HETATM   11  C22 UNL     1     -15.851  11.711  -2.931  1.00  0.00     0.009 A 
ENDROOT
BRANCH   1  12
HETATM   12  C10 UNL     1     -14.428  11.411  -4.976  1.00  0.00     0.156 C 
HETATM   13  C9  UNL     1     -14.215  12.119  -6.262  1.00  0.00     0.039 C 
HETATM   14  C8  UNL     1     -15.292  11.865  -7.254  1.00  0.00     0.044 C 
HETATM   15  C5  UNL     1     -15.436  10.399  -7.443  1.00  0.00    -0.022 A 
HETATM   16  C4  UNL     1     -15.422   9.578  -6.309  1.00  0.00     0.078 A 
HETATM   17  C6  UNL     1     -15.586   9.763  -8.650  1.00  0.00     0.049 A 
HETATM   18  C3  UNL     1     -15.550   8.210  -6.390  1.00  0.00     0.077 A 
HETATM   19  O6  UNL     1     -15.269  10.286  -5.119  1.00  0.00    -0.343 OA
HETATM   20  C2  UNL     1     -15.698   7.582  -7.606  1.00  0.00     0.103 A 
HETATM   21  C7  UNL     1     -15.715   8.375  -8.732  1.00  0.00     0.099 A 
BRANCH  20  22
HETATM   22  O1  UNL     1     -15.830   6.191  -7.713  1.00  0.00    -0.353 OA
HETATM   23  C1  UNL     1     -15.724   5.333  -6.617  1.00  0.00     0.210 C 
ENDBRANCH  20  22
BRANCH  21  24
HETATM   24  O2  UNL     1     -15.864   7.773  -9.979  1.00  0.00    -0.358 OA
ATOM     25  H2  UNL     1     -15.191   7.179 -10.288  1.00  0.00     0.217 HD
ENDBRANCH  21  24
ENDBRANCH   1  12
BRANCH  10  26
HETATM   26  O5  UNL     1     -14.143  10.207  -2.135  1.00  0.00    -0.352 OA
HETATM   27  C21 UNL     1     -13.083  10.684  -1.354  1.00  0.00     0.210 C 
ENDBRANCH  10  26
BRANCH   9  28
HETATM   28  O4  UNL     1     -15.819   9.017  -0.390  1.00  0.00    -0.351 OA
HETATM   29  C19 UNL     1     -15.454   9.193   0.962  1.00  0.00     0.210 C 
ENDBRANCH   9  28
BRANCH   8  30
HETATM   30  O3  UNL     1     -18.430   9.833  -0.192  1.00  0.00    -0.353 OA
HETATM   31  C17 UNL     1     -19.472   8.962  -0.575  1.00  0.00     0.210 C 
ENDBRANCH   8  30
TORSDOF 6
ENDMDL
