MODEL 1
REMARK VINA RESULT: -6.240555744      0.000      0.000
REMARK  5 active torsions:
REMARK  status: ('A' for Active; 'I' for Inactive)
REMARK    1  A    between atoms: C4_8  and  O2_9 
REMARK    2  A    between atoms: C5_11  and  O3_12 
REMARK    3  A    between atoms: C6_14  and  O4_15 
REMARK    4  A    between atoms: C7_17  and  N2_18 
REMARK    5  A    between atoms: C9_22  and  O7_23 
ROOT
HETATM    1  O1  UNL     1       2.454  21.013  15.209  1.00  0.00    -0.262 OA
HETATM    2  C1  UNL     1       2.828  19.852  14.870  1.00  0.00     0.314 A 
HETATM    3  N1  UNL     1       1.989  18.997  14.091  1.00  0.00    -0.312 N 
ATOM      4  H1  UNL     1       1.074  19.350  13.810  1.00  0.00     0.169 HD
HETATM    5  C2  UNL     1       2.307  17.840  13.732  1.00  0.00     0.116 A 
HETATM    6  S1  UNL     1       1.570  16.470  12.777  1.00  0.00    -0.068 SA
HETATM    7  C3  UNL     1       2.292  15.230  13.878  1.00  0.00     0.057 A 
HETATM    8  C4  UNL     1       1.887  13.939  14.068  1.00  0.00     0.119 A 
HETATM    9  C5  UNL     1       2.532  13.164  15.001  1.00  0.00     0.136 A 
HETATM   10  C6  UNL     1       3.559  13.744  15.695  1.00  0.00     0.136 A 
HETATM   11  C7  UNL     1       3.964  15.078  15.486  1.00  0.00     0.151 A 
HETATM   12  C8  UNL     1       3.319  15.853  14.548  1.00  0.00     0.060 A 
HETATM   13  C9  UNL     1       3.589  17.231  14.114  1.00  0.00     0.218 A 
HETATM   14  N3  UNL     1       4.476  18.027  14.839  1.00  0.00    -0.311 N 
ATOM     15  H3  UNL     1       5.398  17.659  15.073  1.00  0.00     0.166 HD
HETATM   16  C10 UNL     1       4.123  19.354  15.265  1.00  0.00     0.312 A 
HETATM   17  O8  UNL     1       4.942  20.024  15.958  1.00  0.00    -0.262 OA
ENDROOT
BRANCH  11  18
HETATM   18  N2  UNL     1       5.030  15.531  16.315  1.00  0.00    -0.112 N 
HETATM   19  O5  UNL     1       6.194  15.055  16.180  1.00  0.00    -0.532 OA
HETATM   20  O6  UNL     1       4.807  16.486  17.292  1.00  0.00    -0.532 OA
ENDBRANCH  11  18
BRANCH  10  21
HETATM   21  O4  UNL     1       4.213  12.953  16.646  1.00  0.00    -0.356 OA
ATOM     22  H4  UNL     1       5.125  12.746  16.482  1.00  0.00     0.218 HD
ENDBRANCH  10  21
BRANCH   9  23
HETATM   23  O3  UNL     1       2.133  11.849  15.207  1.00  0.00    -0.356 OA
ATOM     24  H3  UNL     1       1.724  11.600  16.027  1.00  0.00     0.218 HD
ENDBRANCH   9  23
BRANCH  13  25
HETATM   25  O7  UNL     1       4.234  17.037  12.821  1.00  0.00    -0.361 OA
ATOM     26  H7  UNL     1       5.148  17.187  13.029  1.00  0.00     0.213 HD
ENDBRANCH  13  25
BRANCH   8  27
HETATM   27  O2  UNL     1       0.851  13.374  13.358  1.00  0.00    -0.357 OA
ATOM     28  H2  UNL     1       0.539  12.493  13.522  1.00  0.00     0.218 HD
ENDBRANCH   8  27
TORSDOF 5
ENDMDL
MODEL 2
REMARK VINA RESULT: -5.629302829      2.014      3.548
REMARK  5 active torsions:
REMARK  status: ('A' for Active; 'I' for Inactive)
REMARK    1  A    between atoms: C4_8  and  O2_9 
REMARK    2  A    between atoms: C5_11  and  O3_12 
REMARK    3  A    between atoms: C6_14  and  O4_15 
REMARK    4  A    between atoms: C7_17  and  N2_18 
REMARK    5  A    between atoms: C9_22  and  O7_23 
ROOT
HETATM    1  O1  UNL     1       6.093  19.833  14.148  1.00  0.00    -0.262 OA
HETATM    2  C1  UNL     1       5.186  18.985  14.398  1.00  0.00     0.314 A 
HETATM    3  N1  UNL     1       5.321  18.042  15.464  1.00  0.00    -0.312 N 
ATOM      4  H1  UNL     1       6.173  18.072  16.024  1.00  0.00     0.169 HD
HETATM    5  C2  UNL     1       4.458  17.181  15.752  1.00  0.00     0.116 A 
HETATM    6  S1  UNL     1       4.238  15.843  16.974  1.00  0.00    -0.068 SA
HETATM    7  C3  UNL     1       3.422  14.781  15.760  1.00  0.00     0.057 A 
HETATM    8  C4  UNL     1       3.287  13.422  15.790  1.00  0.00     0.119 A 
HETATM    9  C5  UNL     1       2.682  12.783  14.734  1.00  0.00     0.136 A 
HETATM   10  C6  UNL     1       2.245  13.564  13.698  1.00  0.00     0.136 A 
HETATM   11  C7  UNL     1       2.393  14.966  13.683  1.00  0.00     0.151 A 
HETATM   12  C8  UNL     1       2.997  15.604  14.744  1.00  0.00     0.060 A 
HETATM   13  C9  UNL     1       3.214  17.038  14.983  1.00  0.00     0.218 A 
HETATM   14  N3  UNL     1       2.997  17.956  13.955  1.00  0.00    -0.311 N 
ATOM     15  H3  UNL     1       2.119  17.924  13.437  1.00  0.00     0.166 HD
HETATM   16  C10 UNL     1       3.980  18.945  13.607  1.00  0.00     0.312 A 
HETATM   17  O8  UNL     1       3.760  19.729  12.639  1.00  0.00    -0.262 OA
ENDROOT
BRANCH  11  18
HETATM   18  N2  UNL     1       1.910  15.619  12.514  1.00  0.00    -0.112 N 
HETATM   19  O5  UNL     1       0.679  15.586  12.223  1.00  0.00    -0.532 OA
HETATM   20  O6  UNL     1       2.779  16.287  11.669  1.00  0.00    -0.532 OA
ENDBRANCH  11  18
BRANCH  10  21
HETATM   21  O4  UNL     1       1.631  12.911  12.624  1.00  0.00    -0.356 OA
ATOM     22  H4  UNL     1       0.721  13.121  12.454  1.00  0.00     0.218 HD
ENDBRANCH  10  21
BRANCH   9  23
HETATM   23  O3  UNL     1       2.535  11.402  14.750  1.00  0.00    -0.356 OA
ATOM     24  H3  UNL     1       3.301  10.845  14.824  1.00  0.00     0.218 HD
ENDBRANCH   9  23
BRANCH  13  25
HETATM   25  O7  UNL     1       2.199  17.351  15.982  1.00  0.00    -0.361 OA
ATOM     26  H7  UNL     1       1.926  16.487  16.268  1.00  0.00     0.213 HD
ENDBRANCH  13  25
BRANCH   8  27
HETATM   27  O2  UNL     1       3.733  12.655  16.844  1.00  0.00    -0.357 OA
ATOM     28  H2  UNL     1       3.797  12.991  17.730  1.00  0.00     0.218 HD
ENDBRANCH   8  27
TORSDOF 5
ENDMDL
MODEL 3
REMARK VINA RESULT: -4.829064624      8.418     10.645
REMARK  5 active torsions:
REMARK  status: ('A' for Active; 'I' for Inactive)
REMARK    1  A    between atoms: C4_8  and  O2_9 
REMARK    2  A    between atoms: C5_11  and  O3_12 
REMARK    3  A    between atoms: C6_14  and  O4_15 
REMARK    4  A    between atoms: C7_17  and  N2_18 
REMARK    5  A    between atoms: C9_22  and  O7_23 
ROOT
HETATM    1  O1  UNL     1       1.064   6.584   9.287  1.00  0.00    -0.262 OA
HETATM    2  C1  UNL     1       0.042   7.088   9.840  1.00  0.00     0.314 A 
HETATM    3  N1  UNL     1      -1.010   7.673   9.070  1.00  0.00    -0.312 N 
ATOM      4  H1  UNL     1      -0.918   7.671   8.054  1.00  0.00     0.169 HD
HETATM    5  C2  UNL     1      -2.039   8.188   9.565  1.00  0.00     0.116 A 
HETATM    6  S1  UNL     1      -3.557   9.011   8.974  1.00  0.00    -0.068 SA
HETATM    7  C3  UNL     1      -3.542  10.174  10.359  1.00  0.00     0.057 A 
HETATM    8  C4  UNL     1      -4.153  11.393  10.437  1.00  0.00     0.119 A 
HETATM    9  C5  UNL     1      -3.973  12.164  11.561  1.00  0.00     0.136 A 
HETATM   10  C6  UNL     1      -3.175  11.652  12.549  1.00  0.00     0.136 A 
HETATM   11  C7  UNL     1      -2.552  10.392  12.451  1.00  0.00     0.151 A 
HETATM   12  C8  UNL     1      -2.737   9.619  11.326  1.00  0.00     0.060 A 
HETATM   13  C9  UNL     1      -2.247   8.269  11.017  1.00  0.00     0.218 A 
HETATM   14  N3  UNL     1      -1.278   7.678  11.829  1.00  0.00    -0.311 N 
ATOM     15  H3  UNL     1      -1.418   7.663  12.839  1.00  0.00     0.166 HD
HETATM   16  C10 UNL     1      -0.089   7.089  11.277  1.00  0.00     0.312 A 
HETATM   17  O8  UNL     1       0.784   6.603  12.053  1.00  0.00    -0.262 OA
ENDROOT
BRANCH  11  18
HETATM   18  N2  UNL     1      -1.733  10.027  13.558  1.00  0.00    -0.112 N 
HETATM   19  O5  UNL     1      -2.072   9.077  14.320  1.00  0.00    -0.532 OA
HETATM   20  O6  UNL     1      -0.563  10.716  13.827  1.00  0.00    -0.532 OA
ENDBRANCH  11  18
BRANCH  10  21
HETATM   21  O4  UNL     1      -2.992  12.440  13.691  1.00  0.00    -0.356 OA
ATOM     22  H4  UNL     1      -3.581  13.175  13.807  1.00  0.00     0.218 HD
ENDBRANCH  10  21
BRANCH   9  23
HETATM   23  O3  UNL     1      -4.587  13.406  11.656  1.00  0.00    -0.356 OA
ATOM     24  H3  UNL     1      -5.494  13.467  11.934  1.00  0.00     0.218 HD
ENDBRANCH   9  23
BRANCH  13  25
HETATM   25  O7  UNL     1      -3.439   7.448  11.202  1.00  0.00    -0.361 OA
ATOM     26  H7  UNL     1      -3.447   7.317  12.142  1.00  0.00     0.213 HD
ENDBRANCH  13  25
BRANCH   8  27
HETATM   27  O2  UNL     1      -4.952  11.889   9.431  1.00  0.00    -0.357 OA
ATOM     28  H2  UNL     1      -5.567  12.599   9.568  1.00  0.00     0.218 HD
ENDBRANCH   8  27
TORSDOF 5
ENDMDL
MODEL 4
REMARK VINA RESULT: -4.021904751      2.521      6.058
REMARK  5 active torsions:
REMARK  status: ('A' for Active; 'I' for Inactive)
REMARK    1  A    between atoms: C4_8  and  O2_9 
REMARK    2  A    between atoms: C5_11  and  O3_12 
REMARK    3  A    between atoms: C6_14  and  O4_15 
REMARK    4  A    between atoms: C7_17  and  N2_18 
REMARK    5  A    between atoms: C9_22  and  O7_23 
ROOT
HETATM    1  O1  UNL     1      -0.629  11.299  15.016  1.00  0.00    -0.262 OA
HETATM    2  C1  UNL     1       0.380  12.004  14.720  1.00  0.00     0.314 A 
HETATM    3  N1  UNL     1       1.414  12.261  15.672  1.00  0.00    -0.312 N 
ATOM      4  H1  UNL     1       1.320  11.856  16.603  1.00  0.00     0.169 HD
HETATM    5  C2  UNL     1       2.430  12.954  15.433  1.00  0.00     0.116 A 
HETATM    6  S1  UNL     1       3.925  13.512  16.320  1.00  0.00    -0.068 SA
HETATM    7  C3  UNL     1       3.882  15.127  15.508  1.00  0.00     0.057 A 
HETATM    8  C4  UNL     1       4.461  16.292  15.925  1.00  0.00     0.119 A 
HETATM    9  C5  UNL     1       4.262  17.440  15.195  1.00  0.00     0.136 A 
HETATM   10  C6  UNL     1       3.481  17.341  14.076  1.00  0.00     0.136 A 
HETATM   11  C7  UNL     1       2.892  16.131  13.659  1.00  0.00     0.151 A 
HETATM   12  C8  UNL     1       3.094  14.981  14.390  1.00  0.00     0.060 A 
HETATM   13  C9  UNL     1       2.640  13.607  14.134  1.00  0.00     0.218 A 
HETATM   14  N3  UNL     1       1.689  13.363  13.142  1.00  0.00    -0.311 N 
ATOM     15  H3  UNL     1       1.831  13.752  12.211  1.00  0.00     0.166 HD
HETATM   16  C10 UNL     1       0.514  12.576  13.402  1.00  0.00     0.312 A 
HETATM   17  O8  UNL     1      -0.344  12.416  12.486  1.00  0.00    -0.262 OA
ENDROOT
BRANCH  11  18
HETATM   18  N2  UNL     1       2.085  16.214  12.489  1.00  0.00    -0.112 N 
HETATM   19  O5  UNL     1       0.846  15.967  12.545  1.00  0.00    -0.532 OA
HETATM   20  O6  UNL     1       2.645  16.550  11.268  1.00  0.00    -0.532 OA
ENDBRANCH  11  18
BRANCH  10  21
HETATM   21  O4  UNL     1       3.280  18.512  13.335  1.00  0.00    -0.356 OA
ATOM     22  H4  UNL     1       2.660  18.467  12.618  1.00  0.00     0.218 HD
ENDBRANCH  10  21
BRANCH   9  23
HETATM   23  O3  UNL     1       4.844  18.632  15.606  1.00  0.00    -0.356 OA
ATOM     24  H3  UNL     1       4.372  19.215  16.188  1.00  0.00     0.218 HD
ENDBRANCH   9  23
BRANCH  13  25
HETATM   25  O7  UNL     1       3.853  12.955  13.655  1.00  0.00    -0.361 OA
ATOM     26  H7  UNL     1       3.510  12.334  13.024  1.00  0.00     0.213 HD
ENDBRANCH  13  25
BRANCH   8  27
HETATM   27  O2  UNL     1       5.244  16.368  17.056  1.00  0.00    -0.357 OA
ATOM     28  H2  UNL     1       5.158  15.759  17.779  1.00  0.00     0.218 HD
ENDBRANCH   8  27
TORSDOF 5
ENDMDL
MODEL 5
REMARK VINA RESULT: -4.008430579      7.913     10.664
REMARK  5 active torsions:
REMARK  status: ('A' for Active; 'I' for Inactive)
REMARK    1  A    between atoms: C4_8  and  O2_9 
REMARK    2  A    between atoms: C5_11  and  O3_12 
REMARK    3  A    between atoms: C6_14  and  O4_15 
REMARK    4  A    between atoms: C7_17  and  N2_18 
REMARK    5  A    between atoms: C9_22  and  O7_23 
ROOT
HETATM    1  O1  UNL     1      -0.885  12.163  14.199  1.00  0.00    -0.262 OA
HETATM    2  C1  UNL     1      -1.333  11.234  13.465  1.00  0.00     0.314 A 
HETATM    3  N1  UNL     1      -0.663   9.976  13.362  1.00  0.00    -0.312 N 
ATOM      4  H1  UNL     1       0.192   9.843  13.902  1.00  0.00     0.169 HD
HETATM    5  C2  UNL     1      -1.061   9.026  12.649  1.00  0.00     0.116 A 
HETATM    6  S1  UNL     1      -0.531   7.327  12.242  1.00  0.00    -0.068 SA
HETATM    7  C3  UNL     1      -1.063   7.504  10.523  1.00  0.00     0.057 A 
HETATM    8  C4  UNL     1      -0.652   6.783   9.438  1.00  0.00     0.119 A 
HETATM    9  C5  UNL     1      -1.131   7.110   8.192  1.00  0.00     0.136 A 
HETATM   10  C6  UNL     1      -2.006   8.160   8.115  1.00  0.00     0.136 A 
HETATM   11  C7  UNL     1      -2.420   8.894   9.245  1.00  0.00     0.151 A 
HETATM   12  C8  UNL     1      -1.941   8.563  10.493  1.00  0.00     0.060 A 
HETATM   13  C9  UNL     1      -2.262   9.132  11.809  1.00  0.00     0.218 A 
HETATM   14  N3  UNL     1      -2.990  10.320  11.894  1.00  0.00    -0.311 N 
ATOM     15  H3  UNL     1      -3.861  10.407  11.371  1.00  0.00     0.166 HD
HETATM   16  C10 UNL     1      -2.544  11.421  12.702  1.00  0.00     0.312 A 
HETATM   17  O8  UNL     1      -3.212  12.495  12.716  1.00  0.00    -0.262 OA
ENDROOT
BRANCH  11  18
HETATM   18  N2  UNL     1      -3.310   9.974   8.980  1.00  0.00    -0.112 N 
HETATM   19  O5  UNL     1      -2.906  11.001   8.363  1.00  0.00    -0.532 OA
HETATM   20  O6  UNL     1      -4.626   9.924   9.408  1.00  0.00    -0.532 OA
ENDBRANCH  11  18
BRANCH  10  21
HETATM   21  O4  UNL     1      -2.491   8.493   6.845  1.00  0.00    -0.356 OA
ATOM     22  H4  UNL     1      -1.967   9.092   6.326  1.00  0.00     0.218 HD
ENDBRANCH  10  21
BRANCH   9  23
HETATM   23  O3  UNL     1      -0.723   6.386   7.079  1.00  0.00    -0.356 OA
ATOM     24  H3  UNL     1      -0.539   5.458   7.158  1.00  0.00     0.218 HD
ENDBRANCH   9  23
BRANCH  13  25
HETATM   25  O7  UNL     1      -3.133   8.118  12.391  1.00  0.00    -0.361 OA
ATOM     26  H7  UNL     1      -3.258   7.520  11.664  1.00  0.00     0.213 HD
ENDBRANCH  13  25
BRANCH   8  27
HETATM   27  O2  UNL     1       0.229   5.729   9.539  1.00  0.00    -0.357 OA
ATOM     28  H2  UNL     1       1.066   5.718   9.091  1.00  0.00     0.218 HD
ENDBRANCH   8  27
TORSDOF 5
ENDMDL
