MODEL 1
REMARK VINA RESULT: -7.482679580      0.000      0.000
REMARK  11 active torsions:
REMARK  status: ('A' for Active; 'I' for Inactive)
REMARK    1  A    between atoms: O1_2  and  C2_3 
REMARK    2  A    between atoms: C3_8  and  C4_9 
REMARK    3  A    between atoms: N3_10  and  N4_12 
REMARK       I    between atoms: N4_12  and  C5_14 
REMARK    4  A    between atoms: C5_14  and  C6_16 
REMARK    5  A    between atoms: C8_20  and  N6_21 
REMARK    6  A    between atoms: C9_26  and  N8_27 
REMARK    7  A    between atoms: N8_27  and  C10_29 
REMARK    8  A    between atoms: C10_29  and  C11_30 
REMARK    9  A    between atoms: C11_30  and  O3_31 
REMARK   10  A    between atoms: O3_31  and  N9_32 
REMARK   11  A    between atoms: C13_36  and  O6_37 
ROOT
HETATM    1  C6  UNL     1      32.730   2.268 -30.176  1.00  0.00     0.093 A 
HETATM    2  C7  UNL     1      33.832   2.667 -29.540  1.00  0.00     0.127 A 
HETATM    3  N5  UNL     1      34.997   2.857 -30.202  1.00  0.00    -0.201 N 
ATOM      4  H5  UNL     1      35.836   3.163 -29.707  1.00  0.00     0.183 HD
HETATM    5  C8  UNL     1      35.024   2.630 -31.539  1.00  0.00     0.677 A 
HETATM    6  N7  UNL     1      33.932   2.222 -32.241  1.00  0.00    -0.176 N 
ATOM      7  H7  UNL     1      33.991   2.061 -33.246  1.00  0.00     0.186 HD
HETATM    8  C9  UNL     1      32.767   2.033 -31.579  1.00  0.00     0.134 A 
ENDROOT
BRANCH   1   9
HETATM    9  C5  UNL     1      31.473   2.034 -29.454  1.00  0.00     0.275 C 
HETATM   10  N4  UNL     1      30.812   3.110 -28.868  1.00  0.00    -0.266 N 
ATOM     11  H4  UNL     1      31.174   4.061 -28.933  1.00  0.00     0.190 HD
HETATM   12  O2  UNL     1      31.050   0.810 -29.410  1.00  0.00    -0.266 OA
BRANCH  10  13
HETATM   13  N3  UNL     1      29.601   2.816 -28.170  1.00  0.00    -0.307 N 
HETATM   14  C4  UNL     1      29.298   3.687 -27.259  1.00  0.00     0.138 C 
ATOM     15  H3  UNL     1      29.027   1.996 -28.369  1.00  0.00     0.186 HD
BRANCH  14  16
HETATM   16  C3  UNL     1      28.064   3.470 -26.483  1.00  0.00     0.067 A 
HETATM   17  N2  UNL     1      27.067   4.348 -26.488  1.00  0.00    -0.297 N 
HETATM   18  N1  UNL     1      25.936   4.153 -25.786  1.00  0.00    -0.277 N 
ATOM     19  H2  UNL     1      27.163   5.200 -27.043  1.00  0.00     0.187 HD
HETATM   20  C2  UNL     1      25.782   3.042 -25.044  1.00  0.00     0.190 A 
ATOM     21  H1  UNL     1      25.193   4.851 -25.816  1.00  0.00     0.189 HD
HETATM   22  C13 UNL     1      26.768   2.082 -24.983  1.00  0.00     0.120 A 
HETATM   23  C12 UNL     1      27.915   2.317 -25.719  1.00  0.00     0.073 A 
BRANCH  20  24
HETATM   24  O1  UNL     1      24.602   2.831 -24.304  1.00  0.00    -0.338 OA
HETATM   25  C1  UNL     1      23.391   3.530 -24.638  1.00  0.00     0.211 C 
ENDBRANCH  20  24
BRANCH  22  26
HETATM   26  O6  UNL     1      26.524   0.977 -24.197  1.00  0.00    -0.357 OA
ATOM     27  H6  UNL     1      27.029   0.194 -24.380  1.00  0.00     0.218 HD
ENDBRANCH  22  26
ENDBRANCH  14  16
ENDBRANCH  10  13
ENDBRANCH   1   9
BRANCH   8  28
HETATM   28  N8  UNL     1      31.728   1.713 -32.127  1.00  0.00    -0.373 N 
ATOM     29  H8  UNL     1      31.726   0.700 -32.003  1.00  0.00     0.161 HD
BRANCH  28  30
HETATM   30  C10 UNL     1      30.592   1.911 -32.795  1.00  0.00     0.150 C 
BRANCH  30  31
HETATM   31  C11 UNL     1      29.595   0.759 -32.546  1.00  0.00     0.227 C 
BRANCH  31  32
HETATM   32  O3  UNL     1      28.428   1.344 -32.118  1.00  0.00    -0.220 OA
BRANCH  32  33
HETATM   33  N9  UNL     1      28.077   1.908 -30.950  1.00  0.00     0.004 N 
HETATM   34  O4  UNL     1      28.197   3.153 -30.779  1.00  0.00    -0.511 OA
HETATM   35  O5  UNL     1      27.558   1.153 -29.885  1.00  0.00    -0.511 OA
ENDBRANCH  32  33
ENDBRANCH  31  32
ENDBRANCH  30  31
ENDBRANCH  28  30
ENDBRANCH   8  28
BRANCH   5  36
HETATM   36  N6  UNL     1      36.123   2.806 -32.147  1.00  0.00    -0.234 N 
ATOM     37  H62 UNL     1      36.725   2.004 -32.331  1.00  0.00     0.174 HD
ATOM     38  H61 UNL     1      36.364   3.756 -32.429  1.00  0.00     0.174 HD
ENDBRANCH   5  36
TORSDOF 11
ENDMDL
MODEL 2
REMARK VINA RESULT: -7.157198357      5.175      7.626
REMARK  11 active torsions:
REMARK  status: ('A' for Active; 'I' for Inactive)
REMARK    1  A    between atoms: O1_2  and  C2_3 
REMARK    2  A    between atoms: C3_8  and  C4_9 
REMARK    3  A    between atoms: N3_10  and  N4_12 
REMARK       I    between atoms: N4_12  and  C5_14 
REMARK    4  A    between atoms: C5_14  and  C6_16 
REMARK    5  A    between atoms: C8_20  and  N6_21 
REMARK    6  A    between atoms: C9_26  and  N8_27 
REMARK    7  A    between atoms: N8_27  and  C10_29 
REMARK    8  A    between atoms: C10_29  and  C11_30 
REMARK    9  A    between atoms: C11_30  and  O3_31 
REMARK   10  A    between atoms: O3_31  and  N9_32 
REMARK   11  A    between atoms: C13_36  and  O6_37 
ROOT
HETATM    1  C6  UNL     1      29.884   1.852 -26.994  1.00  0.00     0.093 A 
HETATM    2  C7  UNL     1      30.486   1.547 -28.144  1.00  0.00     0.127 A 
HETATM    3  N5  UNL     1      29.789   1.449 -29.300  1.00  0.00    -0.201 N 
ATOM      4  H5  UNL     1      30.259   1.215 -30.176  1.00  0.00     0.183 HD
HETATM    5  C8  UNL     1      28.451   1.669 -29.267  1.00  0.00     0.677 A 
HETATM    6  N7  UNL     1      27.782   1.983 -28.124  1.00  0.00    -0.176 N 
ATOM      7  H7  UNL     1      26.774   2.141 -28.139  1.00  0.00     0.186 HD
HETATM    8  C9  UNL     1      28.479   2.082 -26.969  1.00  0.00     0.134 A 
ENDROOT
BRANCH   1   9
HETATM    9  C5  UNL     1      30.634   1.930 -25.734  1.00  0.00     0.275 C 
HETATM   10  N4  UNL     1      31.004   0.755 -25.087  1.00  0.00    -0.266 N 
ATOM     11  H4  UNL     1      30.776  -0.162 -25.470  1.00  0.00     0.190 HD
HETATM   12  O2  UNL     1      30.909   3.119 -25.298  1.00  0.00    -0.266 OA
BRANCH  10  13
HETATM   13  N3  UNL     1      31.721   0.898 -23.859  1.00  0.00    -0.307 N 
HETATM   14  C4  UNL     1      30.989   0.724 -22.804  1.00  0.00     0.138 C 
ATOM     15  H3  UNL     1      32.717   1.116 -23.816  1.00  0.00     0.186 HD
BRANCH  14  16
HETATM   16  C3  UNL     1      31.639   0.850 -21.487  1.00  0.00     0.067 A 
HETATM   17  N2  UNL     1      32.953   0.725 -21.337  1.00  0.00    -0.297 N 
HETATM   18  N1  UNL     1      33.553   0.845 -20.139  1.00  0.00    -0.277 N 
ATOM     19  H2  UNL     1      33.527   0.532 -22.159  1.00  0.00     0.187 HD
HETATM   20  C2  UNL     1      32.822   1.098 -19.037  1.00  0.00     0.190 A 
ATOM     21  H1  UNL     1      34.564   0.743 -20.065  1.00  0.00     0.189 HD
HETATM   22  C13 UNL     1      31.454   1.241 -19.106  1.00  0.00     0.120 A 
HETATM   23  C12 UNL     1      30.874   1.113 -20.355  1.00  0.00     0.073 A 
BRANCH  20  24
HETATM   24  O1  UNL     1      33.441   1.222 -17.779  1.00  0.00    -0.338 OA
HETATM   25  C1  UNL     1      34.580   0.412 -17.436  1.00  0.00     0.211 C 
ENDBRANCH  20  24
BRANCH  22  26
HETATM   26  O6  UNL     1      30.788   1.498 -17.927  1.00  0.00    -0.357 OA
ATOM     27  H6  UNL     1      29.886   1.788 -17.993  1.00  0.00     0.218 HD
ENDBRANCH  22  26
ENDBRANCH  14  16
ENDBRANCH  10  13
ENDBRANCH   1   9
BRANCH   8  28
HETATM   28  N8  UNL     1      27.977   2.401 -25.907  1.00  0.00    -0.373 N 
ATOM     29  H8  UNL     1      28.451   3.282 -25.704  1.00  0.00     0.161 HD
BRANCH  28  30
HETATM   30  C10 UNL     1      27.169   2.273 -24.855  1.00  0.00     0.150 C 
BRANCH  30  31
HETATM   31  C11 UNL     1      26.079   3.367 -24.857  1.00  0.00     0.227 C 
BRANCH  31  32
HETATM   32  O3  UNL     1      24.873   2.711 -24.810  1.00  0.00    -0.220 OA
BRANCH  32  33
HETATM   33  N9  UNL     1      23.621   3.142 -24.585  1.00  0.00     0.004 N 
HETATM   34  O4  UNL     1      23.336   3.757 -23.520  1.00  0.00    -0.511 OA
HETATM   35  O5  UNL     1      22.586   2.940 -25.514  1.00  0.00    -0.511 OA
ENDBRANCH  32  33
ENDBRANCH  31  32
ENDBRANCH  30  31
ENDBRANCH  28  30
ENDBRANCH   8  28
BRANCH   5  36
HETATM   36  N6  UNL     1      27.808   1.569 -30.355  1.00  0.00    -0.234 N 
ATOM     37  H62 UNL     1      27.408   0.668 -30.618  1.00  0.00     0.174 HD
ATOM     38  H61 UNL     1      27.717   2.404 -30.933  1.00  0.00     0.174 HD
ENDBRANCH   5  36
TORSDOF 11
ENDMDL
MODEL 3
REMARK VINA RESULT: -7.128386012      4.505      8.146
REMARK  11 active torsions:
REMARK  status: ('A' for Active; 'I' for Inactive)
REMARK    1  A    between atoms: O1_2  and  C2_3 
REMARK    2  A    between atoms: C3_8  and  C4_9 
REMARK    3  A    between atoms: N3_10  and  N4_12 
REMARK       I    between atoms: N4_12  and  C5_14 
REMARK    4  A    between atoms: C5_14  and  C6_16 
REMARK    5  A    between atoms: C8_20  and  N6_21 
REMARK    6  A    between atoms: C9_26  and  N8_27 
REMARK    7  A    between atoms: N8_27  and  C10_29 
REMARK    8  A    between atoms: C10_29  and  C11_30 
REMARK    9  A    between atoms: C11_30  and  O3_31 
REMARK   10  A    between atoms: O3_31  and  N9_32 
REMARK   11  A    between atoms: C13_36  and  O6_37 
ROOT
HETATM    1  C6  UNL     1      31.902   1.052 -22.347  1.00  0.00     0.093 A 
HETATM    2  C7  UNL     1      33.092   1.358 -21.831  1.00  0.00     0.127 A 
HETATM    3  N5  UNL     1      33.236   1.648 -20.516  1.00  0.00    -0.201 N 
ATOM      4  H5  UNL     1      34.151   1.880 -20.129  1.00  0.00     0.183 HD
HETATM    5  C8  UNL     1      32.134   1.621 -19.726  1.00  0.00     0.677 A 
HETATM    6  N7  UNL     1      30.894   1.316 -20.196  1.00  0.00    -0.176 N 
ATOM      7  H7  UNL     1      30.089   1.306 -19.571  1.00  0.00     0.186 HD
HETATM    8  C9  UNL     1      30.751   1.026 -21.510  1.00  0.00     0.134 A 
ENDROOT
BRANCH   1   9
HETATM    9  C5  UNL     1      31.740   0.767 -23.778  1.00  0.00     0.275 C 
HETATM   10  N4  UNL     1      32.124   1.724 -24.713  1.00  0.00    -0.266 N 
ATOM     11  H4  UNL     1      32.525   2.618 -24.430  1.00  0.00     0.190 HD
HETATM   12  O2  UNL     1      31.236  -0.387 -24.085  1.00  0.00    -0.266 OA
BRANCH  10  13
HETATM   13  N3  UNL     1      31.929   1.392 -26.089  1.00  0.00    -0.307 N 
HETATM   14  C4  UNL     1      30.829   1.860 -26.588  1.00  0.00     0.138 C 
ATOM     15  H3  UNL     1      32.594   0.837 -26.629  1.00  0.00     0.186 HD
BRANCH  14  16
HETATM   16  C3  UNL     1      30.538   1.571 -28.004  1.00  0.00     0.067 A 
HETATM   17  N2  UNL     1      29.373   1.066 -28.393  1.00  0.00    -0.297 N 
HETATM   18  N1  UNL     1      29.100   0.805 -29.685  1.00  0.00    -0.277 N 
ATOM     19  H2  UNL     1      28.660   0.870 -27.689  1.00  0.00     0.187 HD
HETATM   20  C2  UNL     1      30.019   1.051 -30.635  1.00  0.00     0.190 A 
ATOM     21  H1  UNL     1      28.192   0.419 -29.944  1.00  0.00     0.189 HD
HETATM   22  C13 UNL     1      31.254   1.573 -30.316  1.00  0.00     0.120 A 
HETATM   23  C12 UNL     1      31.497   1.829 -28.979  1.00  0.00     0.073 A 
BRANCH  20  24
HETATM   24  O1  UNL     1      29.743   0.778 -31.989  1.00  0.00    -0.338 OA
HETATM   25  C1  UNL     1      28.395   0.829 -32.488  1.00  0.00     0.211 C 
ENDBRANCH  20  24
BRANCH  22  26
HETATM   26  O6  UNL     1      32.133   1.791 -31.355  1.00  0.00    -0.357 OA
ATOM     27  H6  UNL     1      32.252   2.689 -31.640  1.00  0.00     0.218 HD
ENDBRANCH  22  26
ENDBRANCH  14  16
ENDBRANCH  10  13
ENDBRANCH   1   9
BRANCH   8  28
HETATM   28  N8  UNL     1      29.692   0.699 -22.013  1.00  0.00    -0.373 N 
ATOM     29  H8  UNL     1      29.989   0.011 -22.706  1.00  0.00     0.161 HD
BRANCH  28  30
HETATM   30  C10 UNL     1      28.371   0.714 -22.189  1.00  0.00     0.150 C 
BRANCH  30  31
HETATM   31  C11 UNL     1      28.009   0.562 -23.682  1.00  0.00     0.227 C 
BRANCH  31  32
HETATM   32  O3  UNL     1      27.811   1.833 -24.163  1.00  0.00    -0.220 OA
BRANCH  32  33
HETATM   33  N9  UNL     1      27.034   2.315 -25.148  1.00  0.00     0.004 N 
HETATM   34  O4  UNL     1      27.379   2.188 -26.355  1.00  0.00    -0.511 OA
HETATM   35  O5  UNL     1      25.814   2.961 -24.886  1.00  0.00    -0.511 OA
ENDBRANCH  32  33
ENDBRANCH  31  32
ENDBRANCH  30  31
ENDBRANCH  28  30
ENDBRANCH   8  28
BRANCH   5  36
HETATM   36  N6  UNL     1      32.280   1.899 -18.497  1.00  0.00    -0.234 N 
ATOM     37  H62 UNL     1      31.468   1.877 -17.880  1.00  0.00     0.174 HD
ATOM     38  H61 UNL     1      33.216   2.139 -18.171  1.00  0.00     0.174 HD
ENDBRANCH   5  36
TORSDOF 11
ENDMDL
MODEL 4
REMARK VINA RESULT: -7.120580222      3.164      9.073
REMARK  11 active torsions:
REMARK  status: ('A' for Active; 'I' for Inactive)
REMARK    1  A    between atoms: O1_2  and  C2_3 
REMARK    2  A    between atoms: C3_8  and  C4_9 
REMARK    3  A    between atoms: N3_10  and  N4_12 
REMARK       I    between atoms: N4_12  and  C5_14 
REMARK    4  A    between atoms: C5_14  and  C6_16 
REMARK    5  A    between atoms: C8_20  and  N6_21 
REMARK    6  A    between atoms: C9_26  and  N8_27 
REMARK    7  A    between atoms: N8_27  and  C10_29 
REMARK    8  A    between atoms: C10_29  and  C11_30 
REMARK    9  A    between atoms: C11_30  and  O3_31 
REMARK   10  A    between atoms: O3_31  and  N9_32 
REMARK   11  A    between atoms: C13_36  and  O6_37 
ROOT
HETATM    1  C6  UNL     1      27.838   2.595 -25.705  1.00  0.00     0.093 A 
HETATM    2  C7  UNL     1      27.147   3.686 -26.038  1.00  0.00     0.127 A 
HETATM    3  N5  UNL     1      25.866   3.858 -25.636  1.00  0.00    -0.201 N 
ATOM      4  H5  UNL     1      25.344   4.696 -25.894  1.00  0.00     0.183 HD
HETATM    5  C8  UNL     1      25.292   2.889 -24.879  1.00  0.00     0.677 A 
HETATM    6  N7  UNL     1      25.948   1.755 -24.509  1.00  0.00    -0.176 N 
ATOM      7  H7  UNL     1      25.482   1.048 -23.940  1.00  0.00     0.186 HD
HETATM    8  C9  UNL     1      27.228   1.584 -24.911  1.00  0.00     0.134 A 
ENDROOT
BRANCH   1   9
HETATM    9  C5  UNL     1      29.218   2.394 -26.166  1.00  0.00     0.275 C 
HETATM   10  N4  UNL     1      29.458   1.573 -27.264  1.00  0.00    -0.266 N 
ATOM     11  H4  UNL     1      28.698   1.113 -27.764  1.00  0.00     0.190 HD
HETATM   12  O2  UNL     1      30.145   3.010 -25.502  1.00  0.00    -0.266 OA
BRANCH  10  13
HETATM   13  N3  UNL     1      30.822   1.407 -27.655  1.00  0.00    -0.307 N 
HETATM   14  C4  UNL     1      31.078   1.831 -28.852  1.00  0.00     0.138 C 
ATOM     15  H3  UNL     1      31.530   0.992 -27.048  1.00  0.00     0.186 HD
BRANCH  14  16
HETATM   16  C3  UNL     1      32.460   1.703 -29.347  1.00  0.00     0.067 A 
HETATM   17  N2  UNL     1      33.423   1.161 -28.609  1.00  0.00    -0.297 N 
HETATM   18  N1  UNL     1      34.686   1.037 -29.058  1.00  0.00    -0.277 N 
ATOM     19  H2  UNL     1      33.198   0.827 -27.672  1.00  0.00     0.187 HD
HETATM   20  C2  UNL     1      35.014   1.470 -30.289  1.00  0.00     0.190 A 
ATOM     21  H1  UNL     1      35.397   0.614 -28.462  1.00  0.00     0.189 HD
HETATM   22  C13 UNL     1      34.075   2.045 -31.116  1.00  0.00     0.120 A 
HETATM   23  C12 UNL     1      32.789   2.154 -30.622  1.00  0.00     0.073 A 
BRANCH  20  24
HETATM   24  O1  UNL     1      36.333   1.346 -30.765  1.00  0.00    -0.338 OA
HETATM   25  C1  UNL     1      37.369   0.803 -29.927  1.00  0.00     0.211 C 
ENDBRANCH  20  24
BRANCH  22  26
HETATM   26  O6  UNL     1      34.501   2.459 -32.360  1.00  0.00    -0.357 OA
ATOM     27  H6  UNL     1      34.006   2.156 -33.111  1.00  0.00     0.218 HD
ENDBRANCH  22  26
ENDBRANCH  14  16
ENDBRANCH  10  13
ENDBRANCH   1   9
BRANCH   8  28
HETATM   28  N8  UNL     1      27.909   0.626 -24.593  1.00  0.00    -0.373 N 
ATOM     29  H8  UNL     1      28.366   0.389 -25.474  1.00  0.00     0.161 HD
BRANCH  28  30
HETATM   30  C10 UNL     1      28.406  -0.295 -23.768  1.00  0.00     0.150 C 
BRANCH  30  31
HETATM   31  C11 UNL     1      29.740   0.177 -23.150  1.00  0.00     0.227 C 
BRANCH  31  32
HETATM   32  O3  UNL     1      30.701  -0.021 -24.111  1.00  0.00    -0.220 OA
BRANCH  32  33
HETATM   33  N9  UNL     1      31.985   0.366 -24.195  1.00  0.00     0.004 N 
HETATM   34  O4  UNL     1      32.745   0.288 -23.190  1.00  0.00    -0.511 OA
HETATM   35  O5  UNL     1      32.537   0.859 -25.389  1.00  0.00    -0.511 OA
ENDBRANCH  32  33
ENDBRANCH  31  32
ENDBRANCH  30  31
ENDBRANCH  28  30
ENDBRANCH   8  28
BRANCH   5  36
HETATM   36  N6  UNL     1      24.090   3.058 -24.512  1.00  0.00    -0.234 N 
ATOM     37  H62 UNL     1      23.815   3.950 -24.100  1.00  0.00     0.174 HD
ATOM     38  H61 UNL     1      23.439   2.284 -24.643  1.00  0.00     0.174 HD
ENDBRANCH   5  36
TORSDOF 11
ENDMDL
MODEL 5
REMARK VINA RESULT: -7.078076235      4.721      6.931
REMARK  11 active torsions:
REMARK  status: ('A' for Active; 'I' for Inactive)
REMARK    1  A    between atoms: O1_2  and  C2_3 
REMARK    2  A    between atoms: C3_8  and  C4_9 
REMARK    3  A    between atoms: N3_10  and  N4_12 
REMARK       I    between atoms: N4_12  and  C5_14 
REMARK    4  A    between atoms: C5_14  and  C6_16 
REMARK    5  A    between atoms: C8_20  and  N6_21 
REMARK    6  A    between atoms: C9_26  and  N8_27 
REMARK    7  A    between atoms: N8_27  and  C10_29 
REMARK    8  A    between atoms: C10_29  and  C11_30 
REMARK    9  A    between atoms: C11_30  and  O3_31 
REMARK   10  A    between atoms: O3_31  and  N9_32 
REMARK   11  A    between atoms: C13_36  and  O6_37 
ROOT
HETATM    1  C6  UNL     1      29.732   1.721 -28.011  1.00  0.00     0.093 A 
HETATM    2  C7  UNL     1      30.380   0.998 -28.925  1.00  0.00     0.127 A 
HETATM    3  N5  UNL     1      29.827   0.726 -30.130  1.00  0.00    -0.201 N 
ATOM      4  H5  UNL     1      30.330   0.173 -30.824  1.00  0.00     0.183 HD
HETATM    5  C8  UNL     1      28.586   1.208 -30.392  1.00  0.00     0.677 A 
HETATM    6  N7  UNL     1      27.876   1.950 -29.499  1.00  0.00    -0.176 N 
ATOM      7  H7  UNL     1      26.945   2.295 -29.733  1.00  0.00     0.186 HD
HETATM    8  C9  UNL     1      28.431   2.223 -28.296  1.00  0.00     0.134 A 
ENDROOT
BRANCH   1   9
HETATM    9  C5  UNL     1      30.319   1.992 -26.692  1.00  0.00     0.275 C 
HETATM   10  N4  UNL     1      30.225   1.028 -25.692  1.00  0.00    -0.266 N 
ATOM     11  H4  UNL     1      29.765   0.133 -25.853  1.00  0.00     0.190 HD
HETATM   12  O2  UNL     1      30.901   3.140 -26.544  1.00  0.00    -0.266 OA
BRANCH  10  13
HETATM   13  N3  UNL     1      30.805   1.357 -24.428  1.00  0.00    -0.307 N 
HETATM   14  C4  UNL     1      31.022   0.329 -23.671  1.00  0.00     0.138 C 
ATOM     15  H3  UNL     1      31.026   2.313 -24.148  1.00  0.00     0.186 HD
BRANCH  14  16
HETATM   16  C3  UNL     1      31.620   0.566 -22.344  1.00  0.00     0.067 A 
HETATM   17  N2  UNL     1      32.934   0.539 -22.150  1.00  0.00    -0.297 N 
HETATM   18  N1  UNL     1      33.485   0.760 -20.943  1.00  0.00    -0.277 N 
ATOM     19  H2  UNL     1      33.545   0.343 -22.943  1.00  0.00     0.187 HD
HETATM   20  C2  UNL     1      32.704   1.018 -19.878  1.00  0.00     0.190 A 
ATOM     21  H1  UNL     1      34.498   0.731 -20.834  1.00  0.00     0.189 HD
HETATM   22  C13 UNL     1      31.332   1.063 -19.994  1.00  0.00     0.120 A 
HETATM   23  C12 UNL     1      30.803   0.833 -21.249  1.00  0.00     0.073 A 
BRANCH  20  24
HETATM   24  O1  UNL     1      33.272   1.248 -18.610  1.00  0.00    -0.338 OA
HETATM   25  C1  UNL     1      34.281   0.367 -18.086  1.00  0.00     0.211 C 
ENDBRANCH  20  24
BRANCH  22  26
HETATM   26  O6  UNL     1      30.612   1.334 -18.849  1.00  0.00    -0.357 OA
ATOM     27  H6  UNL     1      29.970   2.031 -18.896  1.00  0.00     0.218 HD
ENDBRANCH  22  26
ENDBRANCH  14  16
ENDBRANCH  10  13
ENDBRANCH   1   9
BRANCH   8  28
HETATM   28  N8  UNL     1      27.893   2.914 -27.451  1.00  0.00    -0.373 N 
ATOM     29  H8  UNL     1      27.604   2.220 -26.760  1.00  0.00     0.161 HD
BRANCH  28  30
HETATM   30  C10 UNL     1      27.460   4.048 -26.900  1.00  0.00     0.150 C 
BRANCH  30  31
HETATM   31  C11 UNL     1      27.822   4.109 -25.400  1.00  0.00     0.227 C 
BRANCH  31  32
HETATM   32  O3  UNL     1      26.981   3.230 -24.763  1.00  0.00    -0.220 OA
BRANCH  32  33
HETATM   33  N9  UNL     1      27.073   1.912 -24.515  1.00  0.00     0.004 N 
HETATM   34  O4  UNL     1      26.396   1.085 -25.186  1.00  0.00    -0.511 OA
HETATM   35  O5  UNL     1      27.922   1.400 -23.519  1.00  0.00    -0.511 OA
ENDBRANCH  32  33
ENDBRANCH  31  32
ENDBRANCH  30  31
ENDBRANCH  28  30
ENDBRANCH   8  28
BRANCH   5  36
HETATM   36  N6  UNL     1      28.075   0.942 -31.523  1.00  0.00    -0.234 N 
ATOM     37  H62 UNL     1      28.149   1.626 -32.277  1.00  0.00     0.174 HD
ATOM     38  H61 UNL     1      27.602   0.046 -31.633  1.00  0.00     0.174 HD
ENDBRANCH   5  36
TORSDOF 11
ENDMDL
