MODEL 1
REMARK VINA RESULT: -8.440719281      0.000      0.000
REMARK  10 active torsions:
REMARK  status: ('A' for Active; 'I' for Inactive)
REMARK    1  A    between atoms: N1_4  and  N2_6 
REMARK    2  A    between atoms: N2_6  and  C4_8 
REMARK    3  A    between atoms: C5_11  and  N4_12 
REMARK    4  A    between atoms: C6_18  and  C8_20 
REMARK    5  A    between atoms: N6_23  and  N7_24 
REMARK    6  A    between atoms: N7_24  and  C9_26 
REMARK    7  A    between atoms: C10_29  and  C11_30 
REMARK    8  A    between atoms: C11_30  and  O3_31 
REMARK    9  A    between atoms: C11_30  and  N9_33 
REMARK   10  A    between atoms: C13_42  and  N14_43 
ROOT
HETATM    1  N7  UNL     1      -2.645 -34.880  -9.279  1.00  0.00    -0.112 N 
ATOM      2  H7  UNL     1      -3.423 -35.262  -9.817  1.00  0.00     0.206 HD
ENDROOT
BRANCH   1   3
HETATM    3  N6  UNL     1      -3.106 -34.082  -8.264  1.00  0.00    -0.068 N 
HETATM    4  C4  UNL     1      -3.382 -32.695  -8.541  1.00  0.00     0.715 C 
HETATM    5  N3  UNL     1      -4.408 -32.148  -7.956  1.00  0.00    -0.177 N 
HETATM    6  C5  UNL     1      -5.205 -32.951  -7.061  1.00  0.00     0.399 C 
ATOM      7  H3  UNL     1      -4.645 -31.171  -8.127  1.00  0.00     0.181 HD
HETATM    8  N5  UNL     1      -4.456 -33.825  -6.280  1.00  0.00    -0.343 N 
HETATM    9  C6  UNL     1      -3.448 -34.592  -6.992  1.00  0.00     0.228 C 
ATOM     10  H5  UNL     1      -4.605 -33.922  -5.275  1.00  0.00     0.160 HD
HETATM   11  C7  UNL     1      -4.321 -35.912  -7.319  1.00  0.00     0.078 C 
BRANCH   4  12
HETATM   12  N2  UNL     1      -2.599 -31.921  -9.424  1.00  0.00    -0.131 N 
ATOM     13  H2  UNL     1      -2.739 -31.988 -10.432  1.00  0.00     0.205 HD
BRANCH  12  14
HETATM   14  N1  UNL     1      -1.648 -31.082  -8.912  1.00  0.00    -0.295 N 
HETATM   15  C2  UNL     1      -1.800 -29.788  -8.888  1.00  0.00    -0.004 C 
HETATM   16  C1  UNL     1      -0.669 -29.039  -8.290  1.00  0.00     0.064 C 
HETATM   17  C3  UNL     1      -2.977 -29.073  -9.411  1.00  0.00     0.064 C 
ATOM     18  H1  UNL     1      -0.789 -31.482  -8.535  1.00  0.00     0.186 HD
ENDBRANCH  12  14
ENDBRANCH   4  12
BRANCH   6  19
HETATM   19  N4  UNL     1      -6.015 -32.075  -6.218  1.00  0.00    -0.040 N 
ATOM     20  H43 UNL     1      -5.904 -32.283  -5.225  1.00  0.00     0.279 HD
ATOM     21  H42 UNL     1      -5.664 -31.117  -6.205  1.00  0.00     0.279 HD
ATOM     22  H41 UNL     1      -6.989 -32.126  -6.517  1.00  0.00     0.279 HD
ENDBRANCH   6  19
BRANCH   9  23
HETATM   23  C8  UNL     1      -2.462 -35.016  -6.038  1.00  0.00     0.226 C 
HETATM   24  O1  UNL     1      -1.487 -35.753  -6.393  1.00  0.00    -0.645 OA
HETATM   25  O2  UNL     1      -2.480 -34.688  -4.652  1.00  0.00    -0.645 OA
ENDBRANCH   9  23
ENDBRANCH   1   3
BRANCH   1  26
HETATM   26  C9  UNL     1      -1.444 -35.319  -9.787  1.00  0.00     0.713 A 
HETATM   27  N8  UNL     1      -0.762 -34.917 -10.868  1.00  0.00    -0.173 N 
HETATM   28  C10 UNL     1       0.420 -35.427 -11.254  1.00  0.00     0.165 A 
ATOM     29  H8  UNL     1      -1.168 -34.174 -11.438  1.00  0.00     0.185 HD
HETATM   30  N13 UNL     1       0.945 -36.393 -10.497  1.00  0.00    -0.175 N 
HETATM   31  C13 UNL     1       0.348 -36.859  -9.417  1.00  0.00     0.692 A 
ATOM     32  H13 UNL     1       1.846 -36.788 -10.765  1.00  0.00     0.185 HD
HETATM   33  N15 UNL     1      -0.826 -36.326  -9.082  1.00  0.00    -0.021 N 
ATOM     34  H15 UNL     1      -1.294 -36.687  -8.251  1.00  0.00     0.203 HD
BRANCH  28  35
HETATM   35  C11 UNL     1       1.212 -35.007 -12.428  1.00  0.00     0.332 C 
BRANCH  35  36
HETATM   36  O3  UNL     1       2.426 -34.396 -12.096  1.00  0.00    -0.367 OA
ATOM     37  H3  UNL     1       3.057 -34.391 -12.807  1.00  0.00     0.212 HD
ENDBRANCH  35  36
BRANCH  35  38
HETATM   38  N9  UNL     1       1.528 -36.197 -13.236  1.00  0.00    -0.163 N 
HETATM   39  N10 UNL     1       2.391 -37.166 -13.085  1.00  0.00    -0.206 N 
HETATM   40  N11 UNL     1       1.978 -37.707 -14.203  1.00  0.00    -0.209 N 
ATOM     41  H10 UNL     1       3.095 -37.403 -12.387  1.00  0.00     0.212 HD
HETATM   42  N12 UNL     1       1.105 -36.728 -14.349  1.00  0.00    -0.202 N 
ATOM     43  H11 UNL     1       2.227 -38.538 -14.739  1.00  0.00     0.211 HD
HETATM   44  C12 UNL     1       0.110 -36.426 -15.368  1.00  0.00     0.203 C 
ENDBRANCH  35  38
ENDBRANCH  28  35
BRANCH  31  45
HETATM   45  N14 UNL     1       0.940 -37.808  -8.737  1.00  0.00    -0.234 N 
ATOM     46 2H14 UNL     1       1.644 -38.434  -9.128  1.00  0.00     0.174 HD
ATOM     47 1H14 UNL     1       0.683 -37.937  -7.758  1.00  0.00     0.174 HD
ENDBRANCH  31  45
ENDBRANCH   1  26
TORSDOF 10
ENDMDL
MODEL 2
REMARK VINA RESULT: -8.325918922      1.400      2.030
REMARK  10 active torsions:
REMARK  status: ('A' for Active; 'I' for Inactive)
REMARK    1  A    between atoms: N1_4  and  N2_6 
REMARK    2  A    between atoms: N2_6  and  C4_8 
REMARK    3  A    between atoms: C5_11  and  N4_12 
REMARK    4  A    between atoms: C6_18  and  C8_20 
REMARK    5  A    between atoms: N6_23  and  N7_24 
REMARK    6  A    between atoms: N7_24  and  C9_26 
REMARK    7  A    between atoms: C10_29  and  C11_30 
REMARK    8  A    between atoms: C11_30  and  O3_31 
REMARK    9  A    between atoms: C11_30  and  N9_33 
REMARK   10  A    between atoms: C13_42  and  N14_43 
ROOT
HETATM    1  N7  UNL     1      -1.822 -34.943  -9.188  1.00  0.00    -0.112 N 
ATOM      2  H7  UNL     1      -1.113 -35.340  -8.572  1.00  0.00     0.206 HD
ENDROOT
BRANCH   1   3
HETATM    3  N6  UNL     1      -2.755 -34.245  -8.465  1.00  0.00    -0.068 N 
HETATM    4  C4  UNL     1      -3.308 -33.038  -9.026  1.00  0.00     0.715 C 
HETATM    5  N3  UNL     1      -4.568 -32.789  -8.812  1.00  0.00    -0.177 N 
HETATM    6  C5  UNL     1      -5.335 -33.722  -8.024  1.00  0.00     0.399 C 
ATOM      7  H3  UNL     1      -5.004 -31.950  -9.195  1.00  0.00     0.181 HD
HETATM    8  N5  UNL     1      -4.632 -34.255  -6.948  1.00  0.00    -0.343 N 
HETATM    9  C6  UNL     1      -3.293 -34.729  -7.252  1.00  0.00     0.228 C 
ATOM     10  H5  UNL     1      -5.030 -34.309  -6.011  1.00  0.00     0.160 HD
HETATM   11  C7  UNL     1      -3.639 -36.276  -7.565  1.00  0.00     0.078 C 
BRANCH   4  12
HETATM   12  N2  UNL     1      -2.549 -32.137  -9.800  1.00  0.00    -0.131 N 
ATOM     13  H2  UNL     1      -2.663 -32.103 -10.813  1.00  0.00     0.205 HD
BRANCH  12  14
HETATM   14  N1  UNL     1      -1.655 -31.309  -9.177  1.00  0.00    -0.295 N 
HETATM   15  C2  UNL     1      -1.886 -30.039  -9.001  1.00  0.00    -0.004 C 
HETATM   16  C1  UNL     1      -0.809 -29.301  -8.300  1.00  0.00     0.064 C 
HETATM   17  C3  UNL     1      -3.102 -29.338  -9.453  1.00  0.00     0.064 C 
ATOM     18  H1  UNL     1      -0.777 -31.700  -8.837  1.00  0.00     0.186 HD
ENDBRANCH  12  14
ENDBRANCH   4  12
BRANCH   6  19
HETATM   19  N4  UNL     1      -6.561 -33.073  -7.565  1.00  0.00    -0.040 N 
ATOM     20  H43 UNL     1      -6.796 -32.252  -8.122  1.00  0.00     0.279 HD
ATOM     21  H42 UNL     1      -7.392 -33.628  -7.769  1.00  0.00     0.279 HD
ATOM     22  H41 UNL     1      -6.476 -32.855  -6.572  1.00  0.00     0.279 HD
ENDBRANCH   6  19
BRANCH   9  23
HETATM   23  C8  UNL     1      -2.544 -34.748  -6.026  1.00  0.00     0.226 C 
HETATM   24  O1  UNL     1      -1.272 -34.752  -6.040  1.00  0.00    -0.645 OA
HETATM   25  O2  UNL     1      -3.121 -34.781  -4.724  1.00  0.00    -0.645 OA
ENDBRANCH   9  23
ENDBRANCH   1   3
BRANCH   1  26
HETATM   26  C9  UNL     1      -1.559 -35.268 -10.499  1.00  0.00     0.713 A 
HETATM   27  N8  UNL     1      -0.428 -35.156 -11.210  1.00  0.00    -0.173 N 
HETATM   28  C10 UNL     1      -0.300 -35.523 -12.496  1.00  0.00     0.165 A 
ATOM     29  H8  UNL     1       0.390 -34.767 -10.742  1.00  0.00     0.185 HD
HETATM   30  N13 UNL     1      -1.376 -36.039 -13.094  1.00  0.00    -0.175 N 
HETATM   31  C13 UNL     1      -2.534 -36.184 -12.481  1.00  0.00     0.692 A 
ATOM     32  H13 UNL     1      -1.299 -36.334 -14.068  1.00  0.00     0.185 HD
HETATM   33  N15 UNL     1      -2.612 -35.798 -11.209  1.00  0.00    -0.021 N 
ATOM     34  H15 UNL     1      -3.507 -35.903 -10.732  1.00  0.00     0.203 HD
BRANCH  28  35
HETATM   35  C11 UNL     1       0.928 -35.432 -13.312  1.00  0.00     0.332 C 
BRANCH  35  36
HETATM   36  O3  UNL     1       1.877 -34.542 -12.799  1.00  0.00    -0.367 OA
ATOM     37  H3  UNL     1       2.275 -33.986 -13.460  1.00  0.00     0.212 HD
ENDBRANCH  35  36
BRANCH  35  38
HETATM   38  N9  UNL     1       1.560 -36.762 -13.366  1.00  0.00    -0.163 N 
HETATM   39  N10 UNL     1       1.850 -37.565 -14.355  1.00  0.00    -0.206 N 
HETATM   40  N11 UNL     1       2.340 -38.431 -13.506  1.00  0.00    -0.209 N 
ATOM     41  H10 UNL     1       1.740 -37.531 -15.368  1.00  0.00     0.212 HD
HETATM   42  N12 UNL     1       2.048 -37.615 -12.511  1.00  0.00    -0.202 N 
ATOM     43  H11 UNL     1       2.768 -39.354 -13.582  1.00  0.00     0.211 HD
HETATM   44  C12 UNL     1       2.224 -37.703 -11.068  1.00  0.00     0.203 C 
ENDBRANCH  35  38
ENDBRANCH  28  35
BRANCH  31  45
HETATM   45  N14 UNL     1      -3.534 -36.701 -13.150  1.00  0.00    -0.234 N 
ATOM     46 2H14 UNL     1      -3.728 -36.497 -14.130  1.00  0.00     0.174 HD
ATOM     47 1H14 UNL     1      -4.162 -37.343 -12.666  1.00  0.00     0.174 HD
ENDBRANCH  31  45
ENDBRANCH   1  26
TORSDOF 10
ENDMDL
MODEL 3
REMARK VINA RESULT: -8.310065351      3.351      6.261
REMARK  10 active torsions:
REMARK  status: ('A' for Active; 'I' for Inactive)
REMARK    1  A    between atoms: N1_4  and  N2_6 
REMARK    2  A    between atoms: N2_6  and  C4_8 
REMARK    3  A    between atoms: C5_11  and  N4_12 
REMARK    4  A    between atoms: C6_18  and  C8_20 
REMARK    5  A    between atoms: N6_23  and  N7_24 
REMARK    6  A    between atoms: N7_24  and  C9_26 
REMARK    7  A    between atoms: C10_29  and  C11_30 
REMARK    8  A    between atoms: C11_30  and  O3_31 
REMARK    9  A    between atoms: C11_30  and  N9_33 
REMARK   10  A    between atoms: C13_42  and  N14_43 
ROOT
HETATM    1  N7  UNL     1      -0.092 -35.142 -12.331  1.00  0.00    -0.112 N 
ATOM      2  H7  UNL     1       0.375 -34.245 -12.465  1.00  0.00     0.206 HD
ENDROOT
BRANCH   1   3
HETATM    3  N6  UNL     1      -0.426 -35.319 -11.012  1.00  0.00    -0.068 N 
HETATM    4  C4  UNL     1       0.611 -35.666 -10.074  1.00  0.00     0.715 C 
HETATM    5  N3  UNL     1       0.549 -35.152  -8.879  1.00  0.00    -0.177 N 
HETATM    6  C5  UNL     1      -0.550 -34.275  -8.558  1.00  0.00     0.399 C 
ATOM      7  H3  UNL     1       1.264 -35.364  -8.184  1.00  0.00     0.181 HD
HETATM    8  N5  UNL     1      -1.763 -34.677  -9.109  1.00  0.00    -0.343 N 
HETATM    9  C6  UNL     1      -1.719 -35.047 -10.513  1.00  0.00     0.228 C 
ATOM     10  H5  UNL     1      -2.625 -34.708  -8.564  1.00  0.00     0.160 HD
HETATM   11  C7  UNL     1      -2.098 -33.617 -11.163  1.00  0.00     0.078 C 
BRANCH   4  12
HETATM   12  N2  UNL     1       1.685 -36.519 -10.402  1.00  0.00    -0.131 N 
ATOM     13  H2  UNL     1       2.407 -36.214 -11.055  1.00  0.00     0.205 HD
BRANCH  12  14
HETATM   14  N1  UNL     1       1.748 -37.762  -9.834  1.00  0.00    -0.295 N 
HETATM   15  C2  UNL     1       2.281 -38.782 -10.444  1.00  0.00    -0.004 C 
HETATM   16  C1  UNL     1       2.266 -40.048  -9.673  1.00  0.00     0.064 C 
HETATM   17  C3  UNL     1       2.857 -38.740 -11.800  1.00  0.00     0.064 C 
ATOM     18  H1  UNL     1       1.364 -37.896  -8.899  1.00  0.00     0.186 HD
ENDBRANCH  12  14
ENDBRANCH   4  12
BRANCH   6  19
HETATM   19  N4  UNL     1      -0.662 -34.152  -7.107  1.00  0.00    -0.040 N 
ATOM     20  H43 UNL     1      -1.505 -34.598  -6.744  1.00  0.00     0.279 HD
ATOM     21  H42 UNL     1       0.026 -34.723  -6.616  1.00  0.00     0.279 HD
ATOM     22  H41 UNL     1      -0.603 -33.167  -6.846  1.00  0.00     0.279 HD
ENDBRANCH   6  19
BRANCH   9  23
HETATM   23  C8  UNL     1      -2.845 -35.897 -10.780  1.00  0.00     0.226 C 
HETATM   24  O1  UNL     1      -2.865 -36.649 -11.806  1.00  0.00    -0.645 OA
HETATM   25  O2  UNL     1      -4.015 -35.971  -9.971  1.00  0.00    -0.645 OA
ENDBRANCH   9  23
ENDBRANCH   1   3
BRANCH   1  26
HETATM   26  C9  UNL     1      -0.200 -35.815 -13.526  1.00  0.00     0.713 A 
HETATM   27  N8  UNL     1      -1.247 -35.950 -14.352  1.00  0.00    -0.173 N 
HETATM   28  C10 UNL     1      -1.218 -36.634 -15.508  1.00  0.00     0.165 A 
ATOM     29  H8  UNL     1      -2.124 -35.504 -14.085  1.00  0.00     0.185 HD
HETATM   30  N13 UNL     1      -0.062 -37.208 -15.851  1.00  0.00    -0.175 N 
HETATM   31  C13 UNL     1       1.021 -37.135 -15.102  1.00  0.00     0.692 A 
ATOM     32  H13 UNL     1      -0.014 -37.724 -16.729  1.00  0.00     0.185 HD
HETATM   33  N15 UNL     1       0.938 -36.452 -13.962  1.00  0.00    -0.021 N 
ATOM     34  H15 UNL     1       1.772 -36.398 -13.376  1.00  0.00     0.203 HD
BRANCH  28  35
HETATM   35  C11 UNL     1      -2.341 -36.798 -16.455  1.00  0.00     0.332 C 
BRANCH  35  36
HETATM   36  O3  UNL     1      -1.939 -36.873 -17.793  1.00  0.00    -0.367 OA
ATOM     37  H3  UNL     1      -2.290 -36.176 -18.335  1.00  0.00     0.212 HD
ENDBRANCH  35  36
BRANCH  35  38
HETATM   38  N9  UNL     1      -3.046 -38.052 -16.139  1.00  0.00    -0.163 N 
HETATM   39  N10 UNL     1      -2.890 -39.283 -16.548  1.00  0.00    -0.206 N 
HETATM   40  N11 UNL     1      -3.890 -39.659 -15.792  1.00  0.00    -0.209 N 
ATOM     41  H10 UNL     1      -2.254 -39.755 -17.191  1.00  0.00     0.212 HD
HETATM   42  N12 UNL     1      -4.041 -38.415 -15.380  1.00  0.00    -0.202 N 
ATOM     43  H11 UNL     1      -4.358 -40.545 -15.602  1.00  0.00     0.211 HD
HETATM   44  C12 UNL     1      -4.968 -37.779 -14.454  1.00  0.00     0.203 C 
ENDBRANCH  35  38
ENDBRANCH  28  35
BRANCH  31  45
HETATM   45  N14 UNL     1       2.110 -37.730 -15.521  1.00  0.00    -0.234 N 
ATOM     46 2H14 UNL     1       2.572 -38.488 -15.019  1.00  0.00     0.174 HD
ATOM     47 1H14 UNL     1       2.528 -37.417 -16.397  1.00  0.00     0.174 HD
ENDBRANCH  31  45
ENDBRANCH   1  26
TORSDOF 10
ENDMDL
MODEL 4
REMARK VINA RESULT: -8.123623645      2.445      4.577
REMARK  10 active torsions:
REMARK  status: ('A' for Active; 'I' for Inactive)
REMARK    1  A    between atoms: N1_4  and  N2_6 
REMARK    2  A    between atoms: N2_6  and  C4_8 
REMARK    3  A    between atoms: C5_11  and  N4_12 
REMARK    4  A    between atoms: C6_18  and  C8_20 
REMARK    5  A    between atoms: N6_23  and  N7_24 
REMARK    6  A    between atoms: N7_24  and  C9_26 
REMARK    7  A    between atoms: C10_29  and  C11_30 
REMARK    8  A    between atoms: C11_30  and  O3_31 
REMARK    9  A    between atoms: C11_30  and  N9_33 
REMARK   10  A    between atoms: C13_42  and  N14_43 
ROOT
HETATM    1  N7  UNL     1      -2.674 -32.540  -8.018  1.00  0.00    -0.112 N 
ATOM      2  H7  UNL     1      -2.589 -32.133  -7.087  1.00  0.00     0.206 HD
ENDROOT
BRANCH   1   3
HETATM    3  N6  UNL     1      -3.378 -31.705  -8.848  1.00  0.00    -0.068 N 
HETATM    4  C4  UNL     1      -4.800 -31.572  -8.655  1.00  0.00     0.715 C 
HETATM    5  N3  UNL     1      -5.332 -30.397  -8.835  1.00  0.00    -0.177 N 
HETATM    6  C5  UNL     1      -4.478 -29.302  -9.223  1.00  0.00     0.399 C 
ATOM      7  H3  UNL     1      -6.333 -30.254  -8.704  1.00  0.00     0.181 HD
HETATM    8  N5  UNL     1      -3.484 -29.661 -10.127  1.00  0.00    -0.343 N 
HETATM    9  C6  UNL     1      -2.749 -30.871  -9.797  1.00  0.00     0.228 C 
ATOM     10  H5  UNL     1      -3.284 -29.114 -10.964  1.00  0.00     0.160 HD
HETATM   11  C7  UNL     1      -1.521 -30.205  -8.984  1.00  0.00     0.078 C 
BRANCH   4  12
HETATM   12  N2  UNL     1      -5.624 -32.650  -8.270  1.00  0.00    -0.131 N 
ATOM     13  H2  UNL     1      -5.492 -33.574  -8.681  1.00  0.00     0.205 HD
BRANCH  12  14
HETATM   14  N1  UNL     1      -6.603 -32.442  -7.337  1.00  0.00    -0.295 N 
HETATM   15  C2  UNL     1      -6.426 -32.695  -6.072  1.00  0.00    -0.004 C 
HETATM   16  C1  UNL     1      -7.594 -32.402  -5.208  1.00  0.00     0.064 C 
HETATM   17  C3  UNL     1      -5.186 -33.241  -5.492  1.00  0.00     0.064 C 
ATOM     18  H1  UNL     1      -7.504 -32.075  -7.643  1.00  0.00     0.186 HD
ENDBRANCH  12  14
ENDBRANCH   4  12
BRANCH   6  19
HETATM   19  N4  UNL     1      -5.296 -28.219  -9.764  1.00  0.00    -0.040 N 
ATOM     20  H43 UNL     1      -5.249 -28.170 -10.782  1.00  0.00     0.279 HD
ATOM     21  H42 UNL     1      -6.295 -28.407  -9.674  1.00  0.00     0.279 HD
ATOM     22  H41 UNL     1      -5.027 -27.340  -9.322  1.00  0.00     0.279 HD
ENDBRANCH   6  19
BRANCH   9  23
HETATM   23  C8  UNL     1      -2.169 -31.378 -11.010  1.00  0.00     0.226 C 
HETATM   24  O1  UNL     1      -1.964 -30.612 -12.004  1.00  0.00    -0.645 OA
HETATM   25  O2  UNL     1      -1.798 -32.736 -11.225  1.00  0.00    -0.645 OA
ENDBRANCH   9  23
ENDBRANCH   1   3
BRANCH   1  26
HETATM   26  C9  UNL     1      -2.048 -33.764  -8.070  1.00  0.00     0.713 A 
HETATM   27  N8  UNL     1      -1.071 -34.205  -8.875  1.00  0.00    -0.173 N 
HETATM   28  C10 UNL     1      -0.534 -35.434  -8.815  1.00  0.00     0.165 A 
ATOM     29  H8  UNL     1      -0.712 -33.562  -9.582  1.00  0.00     0.185 HD
HETATM   30  N13 UNL     1      -1.007 -36.263  -7.882  1.00  0.00    -0.175 N 
HETATM   31  C13 UNL     1      -1.969 -35.924  -7.046  1.00  0.00     0.692 A 
ATOM     32  H13 UNL     1      -0.606 -37.199  -7.811  1.00  0.00     0.185 HD
HETATM   33  N15 UNL     1      -2.474 -34.696  -7.152  1.00  0.00    -0.021 N 
ATOM     34  H15 UNL     1      -3.222 -34.431  -6.512  1.00  0.00     0.203 HD
BRANCH  28  35
HETATM   35  C11 UNL     1       0.551 -35.957  -9.672  1.00  0.00     0.332 C 
BRANCH  35  36
HETATM   36  O3  UNL     1       0.602 -37.354  -9.722  1.00  0.00    -0.367 OA
ATOM     37  H3  UNL     1       1.374 -37.692 -10.161  1.00  0.00     0.212 HD
ENDBRANCH  35  36
BRANCH  35  38
HETATM   38  N9  UNL     1       0.339 -35.477 -11.048  1.00  0.00    -0.163 N 
HETATM   39  N10 UNL     1      -0.733 -35.334 -11.781  1.00  0.00    -0.206 N 
HETATM   40  N11 UNL     1       0.003 -34.891 -12.768  1.00  0.00    -0.209 N 
ATOM     41  H10 UNL     1      -1.729 -35.500 -11.642  1.00  0.00     0.212 HD
HETATM   42  N12 UNL     1       1.082 -35.033 -12.023  1.00  0.00    -0.202 N 
ATOM     43  H11 UNL     1      -0.181 -34.569 -13.719  1.00  0.00     0.211 HD
HETATM   44  C12 UNL     1       2.497 -34.782 -12.261  1.00  0.00     0.203 C 
ENDBRANCH  35  38
ENDBRANCH  28  35
BRANCH  31  45
HETATM   45  N14 UNL     1      -2.367 -36.804  -6.163  1.00  0.00    -0.234 N 
ATOM     46 2H14 UNL     1      -1.939 -36.923  -5.245  1.00  0.00     0.174 HD
ATOM     47 1H14 UNL     1      -3.149 -37.414  -6.403  1.00  0.00     0.174 HD
ENDBRANCH  31  45
ENDBRANCH   1  26
TORSDOF 10
ENDMDL
MODEL 5
REMARK VINA RESULT: -8.108613548      2.562      3.697
REMARK  10 active torsions:
REMARK  status: ('A' for Active; 'I' for Inactive)
REMARK    1  A    between atoms: N1_4  and  N2_6 
REMARK    2  A    between atoms: N2_6  and  C4_8 
REMARK    3  A    between atoms: C5_11  and  N4_12 
REMARK    4  A    between atoms: C6_18  and  C8_20 
REMARK    5  A    between atoms: N6_23  and  N7_24 
REMARK    6  A    between atoms: N7_24  and  C9_26 
REMARK    7  A    between atoms: C10_29  and  C11_30 
REMARK    8  A    between atoms: C11_30  and  O3_31 
REMARK    9  A    between atoms: C11_30  and  N9_33 
REMARK   10  A    between atoms: C13_42  and  N14_43 
ROOT
HETATM    1  N7  UNL     1      -2.534 -35.959  -9.604  1.00  0.00    -0.112 N 
ATOM      2  H7  UNL     1      -2.997 -36.851  -9.433  1.00  0.00     0.206 HD
ENDROOT
BRANCH   1   3
HETATM    3  N6  UNL     1      -2.566 -35.175  -8.480  1.00  0.00    -0.068 N 
HETATM    4  C4  UNL     1      -3.793 -34.501  -8.137  1.00  0.00     0.715 C 
HETATM    5  N3  UNL     1      -4.104 -34.404  -6.877  1.00  0.00    -0.177 N 
HETATM    6  C5  UNL     1      -3.206 -34.964  -5.896  1.00  0.00     0.399 C 
ATOM      7  H3  UNL     1      -4.965 -33.941  -6.587  1.00  0.00     0.181 HD
HETATM    8  N5  UNL     1      -1.861 -34.786  -6.205  1.00  0.00    -0.343 N 
HETATM    9  C6  UNL     1      -1.487 -35.105  -7.572  1.00  0.00     0.228 C 
ATOM     10  H5  UNL     1      -1.184 -34.453  -5.518  1.00  0.00     0.160 HD
HETATM   11  C7  UNL     1      -1.052 -36.647  -7.359  1.00  0.00     0.078 C 
BRANCH   4  12
HETATM   12  N2  UNL     1      -4.666 -33.963  -9.106  1.00  0.00    -0.131 N 
ATOM     13  H2  UNL     1      -4.312 -33.337  -9.829  1.00  0.00     0.205 HD
BRANCH  12  14
HETATM   14  N1  UNL     1      -5.994 -34.291  -9.063  1.00  0.00    -0.295 N 
HETATM   15  C2  UNL     1      -6.936 -33.416  -9.273  1.00  0.00    -0.004 C 
HETATM   16  C1  UNL     1      -8.315 -33.953  -9.193  1.00  0.00     0.064 C 
HETATM   17  C3  UNL     1      -6.705 -31.989  -9.560  1.00  0.00     0.064 C 
ATOM     18  H1  UNL     1      -6.256 -35.255  -8.860  1.00  0.00     0.186 HD
ENDBRANCH  12  14
ENDBRANCH   4  12
BRANCH   6  19
HETATM   19  N4  UNL     1      -3.510 -34.399  -4.583  1.00  0.00    -0.040 N 
ATOM     20  H43 UNL     1      -3.616 -33.385  -4.614  1.00  0.00     0.279 HD
ATOM     21  H42 UNL     1      -4.453 -34.633  -4.272  1.00  0.00     0.279 HD
ATOM     22  H41 UNL     1      -2.798 -34.694  -3.916  1.00  0.00     0.279 HD
ENDBRANCH   6  19
BRANCH   9  23
HETATM   23  C8  UNL     1      -0.269 -34.405  -7.870  1.00  0.00     0.226 C 
HETATM   24  O1  UNL     1       0.533 -34.841  -8.757  1.00  0.00    -0.645 OA
HETATM   25  O2  UNL     1       0.161 -33.212  -7.221  1.00  0.00    -0.645 OA
ENDBRANCH   9  23
ENDBRANCH   1   3
BRANCH   1  26
HETATM   26  C9  UNL     1      -2.063 -35.898 -10.896  1.00  0.00     0.713 A 
HETATM   27  N8  UNL     1      -0.822 -35.690 -11.357  1.00  0.00    -0.173 N 
HETATM   28  C10 UNL     1      -0.489 -35.664 -12.658  1.00  0.00     0.165 A 
ATOM     29  H8  UNL     1      -0.080 -35.542 -10.673  1.00  0.00     0.185 HD
HETATM   30  N13 UNL     1      -1.467 -35.867 -13.543  1.00  0.00    -0.175 N 
HETATM   31  C13 UNL     1      -2.720 -36.075 -13.189  1.00  0.00     0.692 A 
ATOM     32  H13 UNL     1      -1.236 -35.861 -14.537  1.00  0.00     0.185 HD
HETATM   33  N15 UNL     1      -3.000 -36.084 -11.887  1.00  0.00    -0.021 N 
ATOM     34  H15 UNL     1      -3.969 -36.238 -11.607  1.00  0.00     0.203 HD
BRANCH  28  35
HETATM   35  C11 UNL     1       0.865 -35.452 -13.210  1.00  0.00     0.332 C 
BRANCH  35  36
HETATM   36  O3  UNL     1       1.659 -34.599 -12.436  1.00  0.00    -0.367 OA
ATOM     37  H3  UNL     1       2.064 -33.899 -12.935  1.00  0.00     0.212 HD
ENDBRANCH  35  36
BRANCH  35  38
HETATM   38  N9  UNL     1       1.557 -36.751 -13.276  1.00  0.00    -0.163 N 
HETATM   39  N10 UNL     1       1.910 -37.517 -14.275  1.00  0.00    -0.206 N 
HETATM   40  N11 UNL     1       2.414 -38.381 -13.432  1.00  0.00    -0.209 N 
ATOM     41  H10 UNL     1       1.827 -37.463 -15.289  1.00  0.00     0.212 HD
HETATM   42  N12 UNL     1       2.058 -37.603 -12.427  1.00  0.00    -0.202 N 
ATOM     43  H11 UNL     1       2.885 -39.282 -13.516  1.00  0.00     0.211 HD
HETATM   44  C12 UNL     1       2.198 -37.718 -10.982  1.00  0.00     0.203 C 
ENDBRANCH  35  38
ENDBRANCH  28  35
BRANCH  31  45
HETATM   45  N14 UNL     1      -3.611 -36.266 -14.128  1.00  0.00    -0.234 N 
ATOM     46 2H14 UNL     1      -3.379 -36.436 -15.107  1.00  0.00     0.174 HD
ATOM     47 1H14 UNL     1      -4.599 -36.238 -13.875  1.00  0.00     0.174 HD
ENDBRANCH  31  45
ENDBRANCH   1  26
TORSDOF 10
ENDMDL
