MODEL 1
REMARK VINA RESULT: -8.449855074      0.000      0.000
REMARK  9 active torsions:
REMARK  status: ('A' for Active; 'I' for Inactive)
REMARK    1  A    between atoms: C1_4  and  C2_5 
REMARK    2  A    between atoms: N3_8  and  C4_9 
REMARK    3  A    between atoms: C4_9  and  C5_10 
REMARK    4  A    between atoms: C5_10  and  C6_12 
REMARK    5  A    between atoms: N6_17  and  C7_18 
REMARK    6  A    between atoms: C9_22  and  N8_23 
REMARK    7  A    between atoms: C14_33  and  N11_34 
REMARK    8  A    between atoms: N11_34  and  N12_36 
REMARK    9  A    between atoms: C15_43  and  N15_44 
ROOT
HETATM    1  C6  UNL     1      -5.547 -32.856  -0.359  1.00  0.00     0.186 A 
HETATM    2  N4  UNL     1      -6.158 -34.080  -0.451  1.00  0.00    -0.265 N 
ATOM      3  H4  UNL     1      -6.662 -34.568   0.289  1.00  0.00     0.190 HD
HETATM    4  N5  UNL     1      -5.966 -34.503  -1.685  1.00  0.00    -0.218 N 
ATOM      5  H5  UNL     1      -6.313 -35.393  -2.043  1.00  0.00     0.210 HD
HETATM    6  N6  UNL     1      -5.270 -33.635  -2.406  1.00  0.00    -0.160 N 
HETATM    7  N13 UNL     1      -5.027 -32.642  -1.578  1.00  0.00    -0.257 N 
ATOM      8  H13 UNL     1      -4.503 -31.805  -1.833  1.00  0.00     0.191 HD
ENDROOT
BRANCH   6   9
HETATM    9  C7  UNL     1      -4.879 -33.740  -3.768  1.00  0.00     0.192 A 
HETATM   10  N7  UNL     1      -3.702 -34.377  -4.057  1.00  0.00    -0.343 N 
HETATM   11  C8  UNL     1      -3.294 -34.518  -5.335  1.00  0.00     0.138 A 
ATOM     12  H7  UNL     1      -3.129 -34.747  -3.300  1.00  0.00     0.167 HD
HETATM   13  C9  UNL     1      -4.032 -34.035  -6.394  1.00  0.00     0.120 A 
HETATM   14  N10 UNL     1      -5.175 -33.418  -6.086  1.00  0.00    -0.323 N 
HETATM   15  C14 UNL     1      -5.626 -33.252  -4.816  1.00  0.00     0.169 A 
ATOM     16  H10 UNL     1      -5.742 -33.049  -6.849  1.00  0.00     0.169 HD
BRANCH  13  17
HETATM   17  N8  UNL     1      -3.621 -34.178  -7.745  1.00  0.00    -0.363 N 
HETATM   18  C10 UNL     1      -3.266 -35.501  -8.282  1.00  0.00     0.152 C 
HETATM   19  C11 UNL     1      -1.784 -35.505  -8.516  1.00  0.00     0.252 C 
HETATM   20  N9  UNL     1      -1.320 -34.158  -8.683  1.00  0.00    -0.072 N 
HETATM   21  C12 UNL     1      -2.206 -33.304  -9.434  1.00  0.00     0.252 C 
ATOM     22  H92 UNL     1      -1.110 -33.741  -7.776  1.00  0.00     0.277 HD
ATOM     23  H91 UNL     1      -0.389 -34.154  -9.099  1.00  0.00     0.277 HD
HETATM   24  C13 UNL     1      -3.523 -33.093  -8.692  1.00  0.00     0.152 C 
ENDBRANCH  13  17
BRANCH  15  25
HETATM   25  N11 UNL     1      -6.849 -32.595  -4.509  1.00  0.00    -0.289 N 
ATOM     26  H11 UNL     1      -7.332 -32.768  -3.628  1.00  0.00     0.188 HD
BRANCH  25  27
HETATM   27  N12 UNL     1      -7.366 -31.708  -5.452  1.00  0.00    -0.344 N 
ATOM     28 2H12 UNL     1      -7.241 -31.889  -6.448  1.00  0.00     0.176 HD
ATOM     29 1H12 UNL     1      -7.865 -30.886  -5.110  1.00  0.00     0.176 HD
ENDBRANCH  25  27
ENDBRANCH  15  25
ENDBRANCH   6   9
BRANCH   1  30
HETATM   30  C5  UNL     1      -5.522 -32.010   0.840  1.00  0.00     0.215 C 
HETATM   31  O1  UNL     1      -5.104 -32.482   1.913  1.00  0.00    -0.287 OA
BRANCH  30  32
HETATM   32  C4  UNL     1      -5.989 -30.624   0.759  1.00  0.00     0.237 C 
BRANCH  32  33
HETATM   33  N3  UNL     1      -4.965 -29.747   1.337  1.00  0.00    -0.269 N 
HETATM   34  C3  UNL     1      -4.188 -28.903   0.592  1.00  0.00     0.148 A 
HETATM   35  C2  UNL     1      -3.328 -28.228   1.421  1.00  0.00     0.066 A 
HETATM   36  N2  UNL     1      -4.263 -28.745  -0.820  1.00  0.00    -0.080 NA
HETATM   37  C15 UNL     1      -3.608 -28.691   2.706  1.00  0.00     0.129 A 
HETATM   38  N14 UNL     1      -4.589 -29.591   2.586  1.00  0.00    -0.281 N 
ATOM     39  H14 UNL     1      -4.998 -30.096   3.372  1.00  0.00     0.189 HD
BRANCH  35  40
HETATM   40  C1  UNL     1      -2.318 -27.225   1.069  1.00  0.00     0.099 C 
HETATM   41  N1  UNL     1      -2.588 -26.377   0.149  1.00  0.00    -0.407 N 
ATOM     42  H12 UNL     1      -3.493 -26.411  -0.320  1.00  0.00     0.155 HD
ATOM     43  H11 UNL     1      -1.886 -25.679  -0.096  1.00  0.00     0.155 HD
ENDBRANCH  35  40
BRANCH  37  44
HETATM   44  N15 UNL     1      -3.026 -28.308   3.781  1.00  0.00    -0.384 N 
ATOM     45 2H15 UNL     1      -2.244 -27.660   3.867  1.00  0.00     0.157 HD
ATOM     46 1H15 UNL     1      -3.267 -28.608   4.726  1.00  0.00     0.157 HD
ENDBRANCH  37  44
ENDBRANCH  32  33
ENDBRANCH  30  32
ENDBRANCH   1  30
TORSDOF 9
ENDMDL
MODEL 2
REMARK VINA RESULT: -8.401371251      1.057      1.545
REMARK  9 active torsions:
REMARK  status: ('A' for Active; 'I' for Inactive)
REMARK    1  A    between atoms: C1_4  and  C2_5 
REMARK    2  A    between atoms: N3_8  and  C4_9 
REMARK    3  A    between atoms: C4_9  and  C5_10 
REMARK    4  A    between atoms: C5_10  and  C6_12 
REMARK    5  A    between atoms: N6_17  and  C7_18 
REMARK    6  A    between atoms: C9_22  and  N8_23 
REMARK    7  A    between atoms: C14_33  and  N11_34 
REMARK    8  A    between atoms: N11_34  and  N12_36 
REMARK    9  A    between atoms: C15_43  and  N15_44 
ROOT
HETATM    1  C6  UNL     1      -5.552 -32.662  -0.362  1.00  0.00     0.186 A 
HETATM    2  N4  UNL     1      -6.182 -33.879  -0.390  1.00  0.00    -0.265 N 
ATOM      3  H4  UNL     1      -6.682 -34.325   0.379  1.00  0.00     0.190 HD
HETATM    4  N5  UNL     1      -6.015 -34.361  -1.606  1.00  0.00    -0.218 N 
ATOM      5  H5  UNL     1      -6.380 -35.261  -1.918  1.00  0.00     0.210 HD
HETATM    6  N6  UNL     1      -5.317 -33.538  -2.376  1.00  0.00    -0.160 N 
HETATM    7  N13 UNL     1      -5.047 -32.512  -1.597  1.00  0.00    -0.257 N 
ATOM      8  H13 UNL     1      -4.515 -31.695  -1.898  1.00  0.00     0.191 HD
ENDROOT
BRANCH   6   9
HETATM    9  C7  UNL     1      -4.948 -33.710  -3.737  1.00  0.00     0.192 A 
HETATM   10  N7  UNL     1      -3.784 -34.377  -4.013  1.00  0.00    -0.343 N 
HETATM   11  C8  UNL     1      -3.397 -34.583  -5.289  1.00  0.00     0.138 A 
ATOM     12  H7  UNL     1      -3.206 -34.721  -3.248  1.00  0.00     0.167 HD
HETATM   13  C9  UNL     1      -4.144 -34.138  -6.358  1.00  0.00     0.120 A 
HETATM   14  N10 UNL     1      -5.273 -33.490  -6.063  1.00  0.00    -0.323 N 
HETATM   15  C14 UNL     1      -5.703 -33.260  -4.795  1.00  0.00     0.169 A 
ATOM     16  H10 UNL     1      -5.847 -33.148  -6.834  1.00  0.00     0.169 HD
BRANCH  13  17
HETATM   17  N8  UNL     1      -3.755 -34.348  -7.708  1.00  0.00    -0.363 N 
HETATM   18  C10 UNL     1      -3.231 -35.654  -8.139  1.00  0.00     0.152 C 
HETATM   19  C11 UNL     1      -1.771 -35.474  -8.432  1.00  0.00     0.252 C 
HETATM   20  N9  UNL     1      -1.508 -34.096  -8.738  1.00  0.00    -0.072 N 
HETATM   21  C12 UNL     1      -2.527 -33.448  -9.524  1.00  0.00     0.252 C 
ATOM     22  H92 UNL     1      -1.334 -33.571  -7.881  1.00  0.00     0.277 HD
ATOM     23  H91 UNL     1      -0.599 -34.002  -9.190  1.00  0.00     0.277 HD
HETATM   24  C13 UNL     1      -3.840 -33.353  -8.750  1.00  0.00     0.152 C 
ENDBRANCH  13  17
BRANCH  15  25
HETATM   25  N11 UNL     1      -6.912 -32.571  -4.502  1.00  0.00    -0.289 N 
ATOM     26  H11 UNL     1      -7.441 -32.776  -3.654  1.00  0.00     0.188 HD
BRANCH  25  27
HETATM   27  N12 UNL     1      -7.351 -31.609  -5.410  1.00  0.00    -0.344 N 
ATOM     28 2H12 UNL     1      -6.956 -30.668  -5.389  1.00  0.00     0.176 HD
ATOM     29 1H12 UNL     1      -8.069 -31.879  -6.082  1.00  0.00     0.176 HD
ENDBRANCH  25  27
ENDBRANCH  15  25
ENDBRANCH   6   9
BRANCH   1  30
HETATM   30  C5  UNL     1      -5.497 -31.763   0.796  1.00  0.00     0.215 C 
HETATM   31  O1  UNL     1      -4.757 -32.046   1.755  1.00  0.00    -0.287 OA
BRANCH  30  32
HETATM   32  C4  UNL     1      -6.313 -30.546   0.808  1.00  0.00     0.237 C 
BRANCH  32  33
HETATM   33  N3  UNL     1      -5.424 -29.382   0.723  1.00  0.00    -0.269 N 
HETATM   34  C3  UNL     1      -5.573 -28.263   1.496  1.00  0.00     0.148 A 
HETATM   35  C2  UNL     1      -4.593 -27.357   1.174  1.00  0.00     0.066 A 
HETATM   36  N2  UNL     1      -6.581 -28.071   2.482  1.00  0.00    -0.080 NA
HETATM   37  C15 UNL     1      -3.837 -27.964   0.174  1.00  0.00     0.129 A 
HETATM   38  N14 UNL     1      -4.383 -29.164  -0.048  1.00  0.00    -0.281 N 
ATOM     39  H14 UNL     1      -4.033 -29.832  -0.735  1.00  0.00     0.189 HD
BRANCH  35  40
HETATM   40  C1  UNL     1      -4.359 -26.026   1.742  1.00  0.00     0.099 C 
HETATM   41  N1  UNL     1      -5.302 -25.161   1.694  1.00  0.00    -0.407 N 
ATOM     42  H12 UNL     1      -6.193 -25.409   1.264  1.00  0.00     0.155 HD
ATOM     43  H11 UNL     1      -5.139 -24.235   2.089  1.00  0.00     0.155 HD
ENDBRANCH  35  40
BRANCH  37  44
HETATM   44  N15 UNL     1      -2.815 -27.453  -0.405  1.00  0.00    -0.384 N 
ATOM     45 2H15 UNL     1      -1.841 -27.738  -0.312  1.00  0.00     0.157 HD
ATOM     46 1H15 UNL     1      -2.831 -26.666  -1.054  1.00  0.00     0.157 HD
ENDBRANCH  37  44
ENDBRANCH  32  33
ENDBRANCH  30  32
ENDBRANCH   1  30
TORSDOF 9
ENDMDL
MODEL 3
REMARK VINA RESULT: -8.255656282      5.055      9.440
REMARK  9 active torsions:
REMARK  status: ('A' for Active; 'I' for Inactive)
REMARK    1  A    between atoms: C1_4  and  C2_5 
REMARK    2  A    between atoms: N3_8  and  C4_9 
REMARK    3  A    between atoms: C4_9  and  C5_10 
REMARK    4  A    between atoms: C5_10  and  C6_12 
REMARK    5  A    between atoms: N6_17  and  C7_18 
REMARK    6  A    between atoms: C9_22  and  N8_23 
REMARK    7  A    between atoms: C14_33  and  N11_34 
REMARK    8  A    between atoms: N11_34  and  N12_36 
REMARK    9  A    between atoms: C15_43  and  N15_44 
ROOT
HETATM    1  C6  UNL     1      -1.785 -34.773  -8.589  1.00  0.00     0.186 A 
HETATM    2  N4  UNL     1      -1.982 -33.542  -9.159  1.00  0.00    -0.265 N 
ATOM      3  H4  UNL     1      -2.205 -32.673  -8.673  1.00  0.00     0.190 HD
HETATM    4  N5  UNL     1      -1.827 -33.700 -10.459  1.00  0.00    -0.218 N 
ATOM      5  H5  UNL     1      -1.917 -32.947 -11.140  1.00  0.00     0.210 HD
HETATM    6  N6  UNL     1      -1.541 -34.956 -10.776  1.00  0.00    -0.160 N 
HETATM    7  N13 UNL     1      -1.521 -35.588  -9.623  1.00  0.00    -0.257 N 
ATOM      8  H13 UNL     1      -1.326 -36.584  -9.525  1.00  0.00     0.191 HD
ENDROOT
BRANCH   6   9
HETATM    9  C7  UNL     1      -1.299 -35.501 -12.065  1.00  0.00     0.192 A 
HETATM   10  N7  UNL     1      -2.323 -36.158 -12.693  1.00  0.00    -0.343 N 
HETATM   11  C8  UNL     1      -2.150 -36.680 -13.925  1.00  0.00     0.138 A 
ATOM     12  H7  UNL     1      -3.224 -36.254 -12.226  1.00  0.00     0.167 HD
HETATM   13  C9  UNL     1      -0.953 -36.577 -14.600  1.00  0.00     0.120 A 
HETATM   14  N10 UNL     1       0.030 -35.933 -13.966  1.00  0.00    -0.323 N 
HETATM   15  C14 UNL     1      -0.098 -35.392 -12.727  1.00  0.00     0.169 A 
ATOM     16  H10 UNL     1       0.928 -35.842 -14.440  1.00  0.00     0.169 HD
BRANCH  13  17
HETATM   17  N8  UNL     1      -0.754 -37.116 -15.898  1.00  0.00    -0.363 N 
HETATM   18  C10 UNL     1       0.553 -36.995 -16.564  1.00  0.00     0.152 C 
HETATM   19  C11 UNL     1       0.387 -36.031 -17.702  1.00  0.00     0.252 C 
HETATM   20  N9  UNL     1      -0.991 -35.993 -18.102  1.00  0.00    -0.072 N 
HETATM   21  C12 UNL     1      -1.660 -37.270 -18.083  1.00  0.00     0.252 C 
ATOM     22  H92 UNL     1      -1.505 -35.316 -17.539  1.00  0.00     0.277 HD
ATOM     23  H91 UNL     1      -1.080 -35.561 -19.022  1.00  0.00     0.277 HD
HETATM   24  C13 UNL     1      -1.761 -37.814 -16.660  1.00  0.00     0.152 C 
ENDBRANCH  13  17
BRANCH  15  25
HETATM   25  N11 UNL     1       0.960 -34.706 -12.071  1.00  0.00    -0.289 N 
ATOM     26  H11 UNL     1       0.811 -34.243 -11.174  1.00  0.00     0.188 HD
BRANCH  25  27
HETATM   27  N12 UNL     1       2.208 -34.684 -12.693  1.00  0.00    -0.344 N 
ATOM     28 2H12 UNL     1       2.277 -34.791 -13.705  1.00  0.00     0.176 HD
ATOM     29 1H12 UNL     1       3.032 -34.560 -12.105  1.00  0.00     0.176 HD
ENDBRANCH  25  27
ENDBRANCH  15  25
ENDBRANCH   6   9
BRANCH   1  30
HETATM   30  C5  UNL     1      -1.847 -35.061  -7.152  1.00  0.00     0.215 C 
HETATM   31  O1  UNL     1      -0.973 -34.597  -6.397  1.00  0.00    -0.287 OA
BRANCH  30  32
HETATM   32  C4  UNL     1      -2.935 -35.889  -6.625  1.00  0.00     0.237 C 
BRANCH  32  33
HETATM   33  N3  UNL     1      -3.774 -35.064  -5.750  1.00  0.00    -0.269 N 
HETATM   34  C3  UNL     1      -4.920 -34.445  -6.169  1.00  0.00     0.148 A 
HETATM   35  C2  UNL     1      -5.468 -33.747  -5.122  1.00  0.00     0.066 A 
HETATM   36  N2  UNL     1      -5.461 -34.518  -7.484  1.00  0.00    -0.080 NA
HETATM   37  C15 UNL     1      -4.614 -33.963  -4.043  1.00  0.00     0.129 A 
HETATM   38  N14 UNL     1      -3.628 -34.752  -4.481  1.00  0.00    -0.281 N 
ATOM     39  H14 UNL     1      -2.855 -35.074  -3.901  1.00  0.00     0.189 HD
BRANCH  35  40
HETATM   40  C1  UNL     1      -6.691 -32.939  -5.105  1.00  0.00     0.099 C 
HETATM   41  N1  UNL     1      -6.959 -32.206  -6.120  1.00  0.00    -0.407 N 
ATOM     42  H12 UNL     1      -6.323 -32.195  -6.917  1.00  0.00     0.155 HD
ATOM     43  H11 UNL     1      -7.809 -31.643  -6.108  1.00  0.00     0.155 HD
ENDBRANCH  35  40
BRANCH  37  44
HETATM   44  N15 UNL     1      -4.767 -33.488  -2.863  1.00  0.00    -0.384 N 
ATOM     45 2H15 UNL     1      -4.918 -34.008  -1.999  1.00  0.00     0.157 HD
ATOM     46 1H15 UNL     1      -4.764 -32.499  -2.615  1.00  0.00     0.157 HD
ENDBRANCH  37  44
ENDBRANCH  32  33
ENDBRANCH  30  32
ENDBRANCH   1  30
TORSDOF 9
ENDMDL
MODEL 4
REMARK VINA RESULT: -8.227308762      5.927     10.861
REMARK  9 active torsions:
REMARK  status: ('A' for Active; 'I' for Inactive)
REMARK    1  A    between atoms: C1_4  and  C2_5 
REMARK    2  A    between atoms: N3_8  and  C4_9 
REMARK    3  A    between atoms: C4_9  and  C5_10 
REMARK    4  A    between atoms: C5_10  and  C6_12 
REMARK    5  A    between atoms: N6_17  and  C7_18 
REMARK    6  A    between atoms: C9_22  and  N8_23 
REMARK    7  A    between atoms: C14_33  and  N11_34 
REMARK    8  A    between atoms: N11_34  and  N12_36 
REMARK    9  A    between atoms: C15_43  and  N15_44 
ROOT
HETATM    1  C6  UNL     1       0.186 -35.294  -9.347  1.00  0.00     0.186 A 
HETATM    2  N4  UNL     1       1.495 -35.502  -9.697  1.00  0.00    -0.265 N 
ATOM      3  H4  UNL     1       2.307 -35.444  -9.083  1.00  0.00     0.190 HD
HETATM    4  N5  UNL     1       1.498 -35.792 -10.983  1.00  0.00    -0.218 N 
ATOM      5  H5  UNL     1       2.341 -35.996 -11.520  1.00  0.00     0.210 HD
HETATM    6  N6  UNL     1       0.275 -35.787 -11.497  1.00  0.00    -0.160 N 
HETATM    7  N13 UNL     1      -0.505 -35.482 -10.482  1.00  0.00    -0.257 N 
ATOM      8  H13 UNL     1      -1.519 -35.398 -10.551  1.00  0.00     0.191 HD
ENDROOT
BRANCH   6   9
HETATM    9  C7  UNL     1      -0.115 -36.060 -12.836  1.00  0.00     0.192 A 
HETATM   10  N7  UNL     1      -1.393 -35.748 -13.214  1.00  0.00    -0.343 N 
HETATM   11  C8  UNL     1      -1.809 -35.971 -14.478  1.00  0.00     0.138 A 
ATOM     12  H7  UNL     1      -2.036 -35.344 -12.535  1.00  0.00     0.167 HD
HETATM   13  C9  UNL     1      -0.978 -36.515 -15.433  1.00  0.00     0.120 A 
HETATM   14  N10 UNL     1       0.263 -36.811 -15.039  1.00  0.00    -0.323 N 
HETATM   15  C14 UNL     1       0.725 -36.605 -13.779  1.00  0.00     0.169 A 
ATOM     16  H10 UNL     1       0.900 -37.217 -15.724  1.00  0.00     0.169 HD
BRANCH  13  17
HETATM   17  N8  UNL     1      -1.396 -36.753 -16.769  1.00  0.00    -0.363 N 
HETATM   18  C10 UNL     1      -2.822 -36.927 -17.086  1.00  0.00     0.152 C 
HETATM   19  C11 UNL     1      -3.025 -38.365 -17.459  1.00  0.00     0.252 C 
HETATM   20  N9  UNL     1      -1.784 -38.924 -17.915  1.00  0.00    -0.072 N 
HETATM   21  C12 UNL     1      -0.984 -38.035 -18.720  1.00  0.00     0.252 C 
ATOM     22  H92 UNL     1      -1.241 -39.272 -17.125  1.00  0.00     0.277 HD
ATOM     23  H91 UNL     1      -1.952 -39.797 -18.413  1.00  0.00     0.277 HD
HETATM   24  C13 UNL     1      -0.507 -36.836 -17.904  1.00  0.00     0.152 C 
ENDBRANCH  13  17
BRANCH  15  25
HETATM   25  N11 UNL     1       2.052 -36.923 -13.381  1.00  0.00    -0.289 N 
ATOM     26  H11 UNL     1       2.691 -36.199 -13.053  1.00  0.00     0.188 HD
BRANCH  25  27
HETATM   27  N12 UNL     1       2.452 -38.257 -13.453  1.00  0.00    -0.344 N 
ATOM     28 2H12 UNL     1       1.981 -38.899 -14.091  1.00  0.00     0.176 HD
ATOM     29 1H12 UNL     1       3.220 -38.557 -12.852  1.00  0.00     0.176 HD
ENDBRANCH  25  27
ENDBRANCH  15  25
ENDBRANCH   6   9
BRANCH   1  30
HETATM   30  C5  UNL     1      -0.287 -34.958  -7.999  1.00  0.00     0.215 C 
HETATM   31  O1  UNL     1      -0.095 -33.814  -7.550  1.00  0.00    -0.287 OA
BRANCH  30  32
HETATM   32  C4  UNL     1      -0.978 -35.974  -7.199  1.00  0.00     0.237 C 
BRANCH  32  33
HETATM   33  N3  UNL     1      -2.406 -35.644  -7.149  1.00  0.00    -0.269 N 
HETATM   34  C3  UNL     1      -3.013 -35.091  -6.056  1.00  0.00     0.148 A 
HETATM   35  C2  UNL     1      -4.348 -34.909  -6.321  1.00  0.00     0.066 A 
HETATM   36  N2  UNL     1      -2.363 -34.751  -4.836  1.00  0.00    -0.080 NA
HETATM   37  C15 UNL     1      -4.535 -35.373  -7.622  1.00  0.00     0.129 A 
HETATM   38  N14 UNL     1      -3.344 -35.795  -8.057  1.00  0.00    -0.281 N 
ATOM     39  H14 UNL     1      -3.182 -36.189  -8.984  1.00  0.00     0.189 HD
BRANCH  35  40
HETATM   40  C1  UNL     1      -5.384 -34.349  -5.449  1.00  0.00     0.099 C 
HETATM   41  N1  UNL     1      -5.418 -34.712  -4.222  1.00  0.00    -0.407 N 
ATOM     42  H12 UNL     1      -4.731 -35.380  -3.873  1.00  0.00     0.155 HD
ATOM     43  H11 UNL     1      -6.139 -34.322  -3.615  1.00  0.00     0.155 HD
ENDBRANCH  35  40
BRANCH  37  44
HETATM   44  N15 UNL     1      -5.646 -35.378  -8.260  1.00  0.00    -0.384 N 
ATOM     45 2H15 UNL     1      -6.540 -35.757  -7.949  1.00  0.00     0.157 HD
ATOM     46 1H15 UNL     1      -5.796 -34.998  -9.195  1.00  0.00     0.157 HD
ENDBRANCH  37  44
ENDBRANCH  32  33
ENDBRANCH  30  32
ENDBRANCH   1  30
TORSDOF 9
ENDMDL
MODEL 5
REMARK VINA RESULT: -8.169495462      4.375      8.412
REMARK  9 active torsions:
REMARK  status: ('A' for Active; 'I' for Inactive)
REMARK    1  A    between atoms: C1_4  and  C2_5 
REMARK    2  A    between atoms: N3_8  and  C4_9 
REMARK    3  A    between atoms: C4_9  and  C5_10 
REMARK    4  A    between atoms: C5_10  and  C6_12 
REMARK    5  A    between atoms: N6_17  and  C7_18 
REMARK    6  A    between atoms: C9_22  and  N8_23 
REMARK    7  A    between atoms: C14_33  and  N11_34 
REMARK    8  A    between atoms: N11_34  and  N12_36 
REMARK    9  A    between atoms: C15_43  and  N15_44 
ROOT
HETATM    1  C6  UNL     1      -3.512 -32.287  -8.886  1.00  0.00     0.186 A 
HETATM    2  N4  UNL     1      -4.000 -33.513  -9.262  1.00  0.00    -0.265 N 
ATOM      3  H4  UNL     1      -3.991 -33.911 -10.200  1.00  0.00     0.190 HD
HETATM    4  N5  UNL     1      -4.482 -34.075  -8.171  1.00  0.00    -0.218 N 
ATOM      5  H5  UNL     1      -4.912 -34.999  -8.148  1.00  0.00     0.210 HD
HETATM    6  N6  UNL     1      -4.340 -33.297  -7.106  1.00  0.00    -0.160 N 
HETATM    7  N13 UNL     1      -3.749 -32.216  -7.567  1.00  0.00    -0.257 N 
ATOM      8  H13 UNL     1      -3.498 -31.415  -6.987  1.00  0.00     0.191 HD
ENDROOT
BRANCH   6   9
HETATM    9  C7  UNL     1      -4.727 -33.566  -5.766  1.00  0.00     0.192 A 
HETATM   10  N7  UNL     1      -5.924 -33.067  -5.325  1.00  0.00    -0.343 N 
HETATM   11  C8  UNL     1      -6.346 -33.308  -4.066  1.00  0.00     0.138 A 
ATOM     12  H7  UNL     1      -6.501 -32.509  -5.953  1.00  0.00     0.167 HD
HETATM   13  C9  UNL     1      -5.603 -34.056  -3.179  1.00  0.00     0.120 A 
HETATM   14  N10 UNL     1      -4.441 -34.530  -3.632  1.00  0.00    -0.323 N 
HETATM   15  C14 UNL     1      -3.975 -34.314  -4.890  1.00  0.00     0.169 A 
ATOM     16  H10 UNL     1      -3.869 -35.087  -2.998  1.00  0.00     0.169 HD
BRANCH  13  17
HETATM   17  N8  UNL     1      -6.033 -34.324  -1.852  1.00  0.00    -0.363 N 
HETATM   18  C10 UNL     1      -6.230 -33.223  -0.895  1.00  0.00     0.152 C 
HETATM   19  C11 UNL     1      -5.143 -33.326   0.133  1.00  0.00     0.252 C 
HETATM   20  N9  UNL     1      -4.658 -34.676   0.188  1.00  0.00    -0.072 N 
HETATM   21  C12 UNL     1      -5.675 -35.688   0.053  1.00  0.00     0.252 C 
ATOM     22  H92 UNL     1      -3.924 -34.816  -0.507  1.00  0.00     0.277 HD
ATOM     23  H91 UNL     1      -4.122 -34.824   1.042  1.00  0.00     0.277 HD
HETATM   24  C13 UNL     1      -6.316 -35.639  -1.332  1.00  0.00     0.152 C 
ENDBRANCH  13  17
BRANCH  15  25
HETATM   25  N11 UNL     1      -2.736 -34.832  -5.355  1.00  0.00    -0.289 N 
ATOM     26  H11 UNL     1      -1.880 -34.281  -5.297  1.00  0.00     0.188 HD
BRANCH  25  27
HETATM   27  N12 UNL     1      -2.728 -36.118  -5.894  1.00  0.00    -0.344 N 
ATOM     28 2H12 UNL     1      -3.375 -36.362  -6.645  1.00  0.00     0.176 HD
ATOM     29 1H12 UNL     1      -2.063 -36.791  -5.513  1.00  0.00     0.176 HD
ENDBRANCH  25  27
ENDBRANCH  15  25
ENDBRANCH   6   9
BRANCH   1  30
HETATM   30  C5  UNL     1      -2.869 -31.321  -9.784  1.00  0.00     0.215 C 
HETATM   31  O1  UNL     1      -2.051 -31.724 -10.631  1.00  0.00    -0.287 OA
BRANCH  30  32
HETATM   32  C4  UNL     1      -3.195 -29.897  -9.670  1.00  0.00     0.237 C 
BRANCH  32  33
HETATM   33  N3  UNL     1      -2.084 -29.211  -9.001  1.00  0.00    -0.269 N 
HETATM   34  C3  UNL     1      -2.088 -27.874  -8.712  1.00  0.00     0.148 A 
HETATM   35  C2  UNL     1      -0.908 -27.539  -8.096  1.00  0.00     0.066 A 
HETATM   36  N2  UNL     1      -3.152 -26.973  -8.999  1.00  0.00    -0.080 NA
HETATM   37  C15 UNL     1      -0.179 -28.724  -8.019  1.00  0.00     0.129 A 
HETATM   38  N14 UNL     1      -0.932 -29.679  -8.574  1.00  0.00    -0.281 N 
ATOM     39  H14 UNL     1      -0.648 -30.654  -8.656  1.00  0.00     0.189 HD
BRANCH  35  40
HETATM   40  C1  UNL     1      -0.474 -26.227  -7.608  1.00  0.00     0.099 C 
HETATM   41  N1  UNL     1      -0.191 -25.316  -8.461  1.00  0.00    -0.407 N 
ATOM     42  H12 UNL     1      -0.271 -25.515  -9.458  1.00  0.00     0.155 HD
ATOM     43  H11 UNL     1       0.112 -24.403  -8.122  1.00  0.00     0.155 HD
ENDBRANCH  35  40
BRANCH  37  44
HETATM   44  N15 UNL     1       0.987 -28.851  -7.504  1.00  0.00    -0.384 N 
ATOM     45 2H15 UNL     1       1.328 -28.451  -6.630  1.00  0.00     0.157 HD
ATOM     46 1H15 UNL     1       1.761 -29.380  -7.908  1.00  0.00     0.157 HD
ENDBRANCH  37  44
ENDBRANCH  32  33
ENDBRANCH  30  32
ENDBRANCH   1  30
TORSDOF 9
ENDMDL
