MODEL 1
REMARK VINA RESULT: -8.225262593      0.000      0.000
REMARK  4 active torsions:
REMARK  status: ('A' for Active; 'I' for Inactive)
REMARK    1  A    between atoms: C2_2  and  N1_5 
REMARK    2  A    between atoms: C7_13  and  N4_14 
REMARK    3  A    between atoms: N4_14  and  N5_16 
REMARK    4  A    between atoms: N5_16  and  C8_18 
ROOT
HETATM    1  N1  UNL     1     -20.142  -2.235  14.332  1.00  0.00    -0.361 N 
ATOM      2  H1  UNL     1     -20.742  -2.471  15.122  1.00  0.00     0.162 HD
HETATM    3  C5  UNL     1     -19.703  -1.029  14.315  1.00  0.00     0.162 A 
HETATM    4  N2  UNL     1     -18.904  -0.530  13.361  1.00  0.00    -0.280 N 
ATOM      5  H2  UNL     1     -18.640  -1.166  12.609  1.00  0.00     0.189 HD
HETATM    6  N3  UNL     1     -18.430   0.682  13.293  1.00  0.00    -0.307 N 
ATOM      7  H3  UNL     1     -17.835   0.877  12.488  1.00  0.00     0.186 HD
HETATM    8  C6  UNL     1     -18.613   1.692  14.121  1.00  0.00     0.145 A 
HETATM    9  C7  UNL     1     -19.378   1.639  15.266  1.00  0.00     0.109 A 
HETATM   10  S2  UNL     1     -20.096   0.125  15.543  1.00  0.00    -0.032 SA
ENDROOT
BRANCH   9  11
HETATM   11  N4  UNL     1     -19.521   2.664  16.040  1.00  0.00    -0.291 N 
ATOM     12  H4  UNL     1     -18.980   2.745  16.901  1.00  0.00     0.187 HD
BRANCH  11  13
HETATM   13  N5  UNL     1     -20.417   3.643  15.683  1.00  0.00    -0.279 N 
ATOM     14  H5  UNL     1     -20.436   3.948  14.710  1.00  0.00     0.189 HD
BRANCH  13  15
HETATM   15  C8  UNL     1     -21.328   4.260  16.608  1.00  0.00     0.156 C 
HETATM   16  N6  UNL     1     -21.081   4.739  17.754  1.00  0.00    -0.360 N 
HETATM   17  C9  UNL     1     -22.084   5.306  18.534  1.00  0.00     0.041 C 
ATOM     18  H6  UNL     1     -20.126   4.708  18.112  1.00  0.00     0.162 HD
HETATM   19  C10 UNL     1     -22.623   4.376  19.622  1.00  0.00     0.039 C 
HETATM   20  C11 UNL     1     -21.467   6.476  19.301  1.00  0.00     0.039 C 
HETATM   21  C12 UNL     1     -23.248   5.779  17.689  1.00  0.00     0.033 C 
HETATM   22  C13 UNL     1     -24.569   5.561  18.351  1.00  0.00     0.030 C 
HETATM   23  C14 UNL     1     -23.074   7.157  17.153  1.00  0.00     0.030 C 
HETATM   24  S1  UNL     1     -23.086   4.517  16.353  1.00  0.00    -0.081 SA
ENDBRANCH  13  15
ENDBRANCH  11  13
ENDBRANCH   9  11
BRANCH   1  25
HETATM   25  C2  UNL     1     -19.913  -3.285  13.410  1.00  0.00     0.021 C 
HETATM   26  C1  UNL     1     -18.492  -3.850  13.516  1.00  0.00     0.037 C 
HETATM   27  C3  UNL     1     -20.852  -4.451  13.792  1.00  0.00     0.037 C 
HETATM   28  C4  UNL     1     -20.196  -2.948  11.985  1.00  0.00     0.037 C 
ENDBRANCH   1  25
TORSDOF 4
ENDMDL
MODEL 2
REMARK VINA RESULT: -8.072338207      0.899      1.778
REMARK  4 active torsions:
REMARK  status: ('A' for Active; 'I' for Inactive)
REMARK    1  A    between atoms: C2_2  and  N1_5 
REMARK    2  A    between atoms: C7_13  and  N4_14 
REMARK    3  A    between atoms: N4_14  and  N5_16 
REMARK    4  A    between atoms: N5_16  and  C8_18 
ROOT
HETATM    1  N1  UNL     1     -20.153  -2.521  14.259  1.00  0.00    -0.361 N 
ATOM      2  H1  UNL     1     -20.843  -2.752  14.974  1.00  0.00     0.162 HD
HETATM    3  C5  UNL     1     -19.769  -1.297  14.240  1.00  0.00     0.162 A 
HETATM    4  N2  UNL     1     -18.871  -0.801  13.377  1.00  0.00    -0.280 N 
ATOM      5  H2  UNL     1     -18.480  -1.455  12.699  1.00  0.00     0.189 HD
HETATM    6  N3  UNL     1     -18.445   0.430  13.312  1.00  0.00    -0.307 N 
ATOM      7  H3  UNL     1     -17.756   0.618  12.584  1.00  0.00     0.186 HD
HETATM    8  C6  UNL     1     -18.781   1.464  14.057  1.00  0.00     0.145 A 
HETATM    9  C7  UNL     1     -19.690   1.423  15.092  1.00  0.00     0.109 A 
HETATM   10  S2  UNL     1     -20.372  -0.111  15.347  1.00  0.00    -0.032 SA
ENDROOT
BRANCH   9  11
HETATM   11  N4  UNL     1     -19.980   2.472  15.789  1.00  0.00    -0.291 N 
ATOM     12  H4  UNL     1     -19.312   2.850  16.462  1.00  0.00     0.187 HD
BRANCH  11  13
HETATM   13  N5  UNL     1     -21.204   3.069  15.608  1.00  0.00    -0.279 N 
ATOM     14  H5  UNL     1     -21.766   2.784  14.806  1.00  0.00     0.189 HD
BRANCH  13  15
HETATM   15  C8  UNL     1     -21.734   4.074  16.489  1.00  0.00     0.156 C 
HETATM   16  N6  UNL     1     -22.769   4.786  16.337  1.00  0.00    -0.360 N 
HETATM   17  C9  UNL     1     -23.150   5.724  17.292  1.00  0.00     0.041 C 
ATOM     18  H6  UNL     1     -23.335   4.671  15.497  1.00  0.00     0.162 HD
HETATM   19  C10 UNL     1     -22.754   7.160  16.943  1.00  0.00     0.039 C 
HETATM   20  C11 UNL     1     -24.679   5.748  17.334  1.00  0.00     0.039 C 
HETATM   21  C12 UNL     1     -22.586   5.391  18.658  1.00  0.00     0.033 C 
HETATM   22  C13 UNL     1     -22.179   6.605  19.427  1.00  0.00     0.030 C 
HETATM   23  C14 UNL     1     -23.436   4.451  19.440  1.00  0.00     0.030 C 
HETATM   24  S1  UNL     1     -21.043   4.567  18.071  1.00  0.00    -0.081 SA
ENDBRANCH  13  15
ENDBRANCH  11  13
ENDBRANCH   9  11
BRANCH   1  25
HETATM   25  C2  UNL     1     -19.757  -3.598  13.429  1.00  0.00     0.021 C 
HETATM   26  C1  UNL     1     -18.282  -3.966  13.620  1.00  0.00     0.037 C 
HETATM   27  C3  UNL     1     -20.556  -4.843  13.871  1.00  0.00     0.037 C 
HETATM   28  C4  UNL     1     -20.024  -3.404  11.974  1.00  0.00     0.037 C 
ENDBRANCH   1  25
TORSDOF 4
ENDMDL
MODEL 3
REMARK VINA RESULT: -7.877926642      1.165      1.772
REMARK  4 active torsions:
REMARK  status: ('A' for Active; 'I' for Inactive)
REMARK    1  A    between atoms: C2_2  and  N1_5 
REMARK    2  A    between atoms: C7_13  and  N4_14 
REMARK    3  A    between atoms: N4_14  and  N5_16 
REMARK    4  A    between atoms: N5_16  and  C8_18 
ROOT
HETATM    1  N1  UNL     1     -18.539  -1.292  12.972  1.00  0.00    -0.361 N 
ATOM      2  H1  UNL     1     -17.743  -0.874  12.491  1.00  0.00     0.162 HD
HETATM    3  C5  UNL     1     -19.210  -0.494  13.721  1.00  0.00     0.162 A 
HETATM    4  N2  UNL     1     -20.287  -0.855  14.433  1.00  0.00    -0.280 N 
ATOM      5  H2  UNL     1     -20.575  -1.830  14.362  1.00  0.00     0.189 HD
HETATM    6  N3  UNL     1     -21.004  -0.090  15.208  1.00  0.00    -0.307 N 
ATOM      7  H3  UNL     1     -21.791  -0.546  15.670  1.00  0.00     0.186 HD
HETATM    8  C6  UNL     1     -20.854   1.192  15.478  1.00  0.00     0.145 A 
HETATM    9  C7  UNL     1     -19.859   1.992  14.958  1.00  0.00     0.109 A 
HETATM   10  S2  UNL     1     -18.801   1.177  13.909  1.00  0.00    -0.032 SA
ENDROOT
BRANCH   9  11
HETATM   11  N4  UNL     1     -19.762   3.245  15.259  1.00  0.00    -0.291 N 
ATOM     12  H4  UNL     1     -19.582   3.941  14.536  1.00  0.00     0.187 HD
BRANCH  11  13
HETATM   13  N5  UNL     1     -19.905   3.621  16.573  1.00  0.00    -0.279 N 
ATOM     14  H5  UNL     1     -19.139   3.429  17.217  1.00  0.00     0.189 HD
BRANCH  13  15
HETATM   15  C8  UNL     1     -21.080   4.273  17.087  1.00  0.00     0.156 C 
HETATM   16  N6  UNL     1     -21.270   4.756  18.241  1.00  0.00    -0.360 N 
HETATM   17  C9  UNL     1     -22.476   5.359  18.585  1.00  0.00     0.041 C 
ATOM     18  H6  UNL     1     -20.523   4.701  18.934  1.00  0.00     0.162 HD
HETATM   19  C10 UNL     1     -23.414   4.455  19.386  1.00  0.00     0.039 C 
HETATM   20  C11 UNL     1     -22.160   6.518  19.531  1.00  0.00     0.039 C 
HETATM   21  C12 UNL     1     -23.220   5.857  17.363  1.00  0.00     0.033 C 
HETATM   22  C13 UNL     1     -24.699   5.683  17.476  1.00  0.00     0.030 C 
HETATM   23  C14 UNL     1     -22.814   7.224  16.936  1.00  0.00     0.030 C 
HETATM   24  S1  UNL     1     -22.602   4.578  16.185  1.00  0.00    -0.081 SA
ENDBRANCH  13  15
ENDBRANCH  11  13
ENDBRANCH   9  11
BRANCH   1  25
HETATM   25  C2  UNL     1     -18.746  -2.669  12.718  1.00  0.00     0.021 C 
HETATM   26  C1  UNL     1     -20.037  -2.927  11.932  1.00  0.00     0.037 C 
HETATM   27  C3  UNL     1     -17.599  -3.149  11.800  1.00  0.00     0.037 C 
HETATM   28  C4  UNL     1     -18.731  -3.543  13.926  1.00  0.00     0.037 C 
ENDBRANCH   1  25
TORSDOF 4
ENDMDL
MODEL 4
REMARK VINA RESULT: -7.742865896      1.572      2.242
REMARK  4 active torsions:
REMARK  status: ('A' for Active; 'I' for Inactive)
REMARK    1  A    between atoms: C2_2  and  N1_5 
REMARK    2  A    between atoms: C7_13  and  N4_14 
REMARK    3  A    between atoms: N4_14  and  N5_16 
REMARK    4  A    between atoms: N5_16  and  C8_18 
ROOT
HETATM    1  N1  UNL     1     -19.615  -1.722  12.294  1.00  0.00    -0.361 N 
ATOM      2  H1  UNL     1     -20.453  -2.213  12.608  1.00  0.00     0.162 HD
HETATM    3  C5  UNL     1     -19.350  -0.634  12.920  1.00  0.00     0.162 A 
HETATM    4  N2  UNL     1     -18.296   0.152  12.654  1.00  0.00    -0.280 N 
ATOM      5  H2  UNL     1     -17.677  -0.154  11.904  1.00  0.00     0.189 HD
HETATM    6  N3  UNL     1     -17.979   1.264  13.255  1.00  0.00    -0.307 N 
ATOM      7  H3  UNL     1     -17.135   1.724  12.912  1.00  0.00     0.186 HD
HETATM    8  C6  UNL     1     -18.597   1.879  14.244  1.00  0.00     0.145 A 
HETATM    9  C7  UNL     1     -19.749   1.427  14.850  1.00  0.00     0.109 A 
HETATM   10  S2  UNL     1     -20.338  -0.031  14.206  1.00  0.00    -0.032 SA
ENDROOT
BRANCH   9  11
HETATM   11  N4  UNL     1     -20.312   2.074  15.817  1.00  0.00    -0.291 N 
ATOM     12  H4  UNL     1     -20.810   1.577  16.555  1.00  0.00     0.187 HD
BRANCH  11  13
HETATM   13  N5  UNL     1     -20.227   3.446  15.832  1.00  0.00    -0.279 N 
ATOM     14  H5  UNL     1     -19.515   3.892  15.255  1.00  0.00     0.189 HD
BRANCH  13  15
HETATM   15  C8  UNL     1     -21.089   4.284  16.620  1.00  0.00     0.156 C 
HETATM   16  N6  UNL     1     -22.224   4.753  16.314  1.00  0.00    -0.360 N 
HETATM   17  C9  UNL     1     -22.939   5.557  17.197  1.00  0.00     0.041 C 
ATOM     18  H6  UNL     1     -22.624   4.536  15.401  1.00  0.00     0.162 HD
HETATM   19  C10 UNL     1     -22.828   7.053  16.900  1.00  0.00     0.039 C 
HETATM   20  C11 UNL     1     -24.423   5.239  17.015  1.00  0.00     0.039 C 
HETATM   21  C12 UNL     1     -22.516   5.322  18.632  1.00  0.00     0.033 C 
HETATM   22  C13 UNL     1     -22.506   6.576  19.444  1.00  0.00     0.030 C 
HETATM   23  C14 UNL     1     -23.237   4.197  19.289  1.00  0.00     0.030 C 
HETATM   24  S1  UNL     1     -20.760   4.878  18.282  1.00  0.00    -0.081 SA
ENDBRANCH  13  15
ENDBRANCH  11  13
ENDBRANCH   9  11
BRANCH   1  25
HETATM   25  C2  UNL     1     -18.912  -2.340  11.232  1.00  0.00     0.021 C 
HETATM   26  C1  UNL     1     -17.623  -3.020  11.708  1.00  0.00     0.037 C 
HETATM   27  C3  UNL     1     -19.803  -3.477  10.685  1.00  0.00     0.037 C 
HETATM   28  C4  UNL     1     -18.593  -1.446  10.082  1.00  0.00     0.037 C 
ENDBRANCH   1  25
TORSDOF 4
ENDMDL
MODEL 5
REMARK VINA RESULT: -7.695799513      1.449      2.475
REMARK  4 active torsions:
REMARK  status: ('A' for Active; 'I' for Inactive)
REMARK    1  A    between atoms: C2_2  and  N1_5 
REMARK    2  A    between atoms: C7_13  and  N4_14 
REMARK    3  A    between atoms: N4_14  and  N5_16 
REMARK    4  A    between atoms: N5_16  and  C8_18 
ROOT
HETATM    1  N1  UNL     1     -18.559  -1.517  12.632  1.00  0.00    -0.361 N 
ATOM      2  H1  UNL     1     -17.891  -1.038  12.027  1.00  0.00     0.162 HD
HETATM    3  C5  UNL     1     -19.163  -0.769  13.482  1.00  0.00     0.162 A 
HETATM    4  N2  UNL     1     -20.074  -1.211  14.362  1.00  0.00    -0.280 N 
ATOM      5  H2  UNL     1     -20.287  -2.208  14.336  1.00  0.00     0.189 HD
HETATM    6  N3  UNL     1     -20.717  -0.501  15.245  1.00  0.00    -0.307 N 
ATOM      7  H3  UNL     1     -21.376  -1.017  15.829  1.00  0.00     0.186 HD
HETATM    8  C6  UNL     1     -20.635   0.792  15.490  1.00  0.00     0.145 A 
HETATM    9  C7  UNL     1     -19.810   1.667  14.816  1.00  0.00     0.109 A 
HETATM   10  S2  UNL     1     -18.872   0.932  13.605  1.00  0.00    -0.032 SA
ENDROOT
BRANCH   9  11
HETATM   11  N4  UNL     1     -19.771   2.927  15.101  1.00  0.00    -0.291 N 
ATOM     12  H4  UNL     1     -19.721   3.626  14.360  1.00  0.00     0.187 HD
BRANCH  11  13
HETATM   13  N5  UNL     1     -19.799   3.307  16.421  1.00  0.00    -0.279 N 
ATOM     14  H5  UNL     1     -19.063   2.965  17.038  1.00  0.00     0.189 HD
BRANCH  13  15
HETATM   15  C8  UNL     1     -20.811   4.163  16.978  1.00  0.00     0.156 C 
HETATM   16  N6  UNL     1     -21.928   4.487  16.479  1.00  0.00    -0.360 N 
HETATM   17  C9  UNL     1     -22.804   5.335  17.151  1.00  0.00     0.041 C 
ATOM     18  H6  UNL     1     -22.192   4.120  15.565  1.00  0.00     0.162 HD
HETATM   19  C10 UNL     1     -22.762   6.783  16.662  1.00  0.00     0.039 C 
HETATM   20  C11 UNL     1     -24.227   4.867  16.843  1.00  0.00     0.039 C 
HETATM   21  C12 UNL     1     -22.552   5.327  18.644  1.00  0.00     0.033 C 
HETATM   22  C13 UNL     1     -22.734   6.671  19.268  1.00  0.00     0.030 C 
HETATM   23  C14 UNL     1     -23.270   4.238  19.363  1.00  0.00     0.030 C 
HETATM   24  S1  UNL     1     -20.739   4.995  18.567  1.00  0.00    -0.081 SA
ENDBRANCH  13  15
ENDBRANCH  11  13
ENDBRANCH   9  11
BRANCH   1  25
HETATM   25  C2  UNL     1     -18.687  -2.909  12.411  1.00  0.00     0.021 C 
HETATM   26  C1  UNL     1     -20.110  -3.303  12.000  1.00  0.00     0.037 C 
HETATM   27  C3  UNL     1     -17.791  -3.273  11.207  1.00  0.00     0.037 C 
HETATM   28  C4  UNL     1     -18.255  -3.771  13.550  1.00  0.00     0.037 C 
ENDBRANCH   1  25
TORSDOF 4
ENDMDL
