MODEL 1
REMARK VINA RESULT: -10.188077980      0.000      0.000
REMARK  5 active torsions:
REMARK  status: ('A' for Active; 'I' for Inactive)
REMARK    1  A    between atoms: C5_5  and  C6_6 
REMARK    2  A    between atoms: C6_6  and  C7_7 
REMARK    3  A    between atoms: C6_6  and  N4_19 
REMARK    4  A    between atoms: C7_7  and  N1_8 
REMARK    5  A    between atoms: N5_22  and  C16_23 
ROOT
HETATM    1  C6  UNL     1      18.228  66.103  45.389  1.00  0.00     0.018 C 
ENDROOT
BRANCH   1   2
HETATM    2  C5  UNL     1      17.810  64.704  45.782  1.00  0.00    -0.017 A 
HETATM    3  C4  UNL     1      18.236  64.123  46.981  1.00  0.00     0.013 A 
HETATM    4  C3  UNL     1      17.862  62.863  47.354  1.00  0.00     0.007 A 
HETATM    5  C2  UNL     1      17.040  62.110  46.548  1.00  0.00    -0.062 A 
HETATM    6  C1  UNL     1      16.672  60.749  47.007  1.00  0.00     0.048 C 
HETATM    7  C24 UNL     1      16.607  62.653  45.367  1.00  0.00     0.007 A 
HETATM    8  C23 UNL     1      16.991  63.934  44.994  1.00  0.00     0.013 A 
ENDBRANCH   1   2
BRANCH   1   9
HETATM    9  C7  UNL     1      18.219  66.987  46.571  1.00  0.00     0.201 C 
BRANCH   9  10
HETATM   10  N1  UNL     1      17.138  67.936  46.683  1.00  0.00    -0.287 N 
HETATM   11  N2  UNL     1      17.135  68.996  47.541  1.00  0.00    -0.308 N 
HETATM   12  C8  UNL     1      16.041  69.717  47.405  1.00  0.00     0.122 A 
ATOM     13  H2  UNL     1      17.883  69.204  48.202  1.00  0.00     0.186 HD
HETATM   14  C9  UNL     1      15.262  69.141  46.426  1.00  0.00     0.024 A 
HETATM   15  C10 UNL     1      14.040  69.428  45.871  1.00  0.00     0.102 A 
HETATM   16  C13 UNL     1      15.987  68.023  45.998  1.00  0.00     0.065 A 
HETATM   17  N3  UNL     1      13.502  68.657  44.915  1.00  0.00    -0.374 N 
HETATM   18  C11 UNL     1      14.188  67.567  44.487  1.00  0.00     0.090 A 
ATOM     19  H3  UNL     1      12.592  68.886  44.516  1.00  0.00     0.164 HD
HETATM   20  C12 UNL     1      15.399  67.256  45.014  1.00  0.00     0.049 A 
ENDBRANCH   9  10
ENDBRANCH   1   9
BRANCH   1  21
HETATM   21  N4  UNL     1      19.251  66.044  44.468  1.00  0.00    -0.278 NA
HETATM   22  C14 UNL     1      18.954  65.021  43.464  1.00  0.00     0.140 C 
HETATM   23  C15 UNL     1      17.923  65.467  42.444  1.00  0.00     0.073 C 
HETATM   24  N5  UNL     1      18.260  66.720  41.896  1.00  0.00    -0.385 N 
HETATM   25  C21 UNL     1      18.489  67.720  42.929  1.00  0.00     0.137 C 
HETATM   26  C22 UNL     1      19.661  67.196  43.729  1.00  0.00     0.115 C 
BRANCH  24  27
HETATM   27  C16 UNL     1      17.552  67.208  40.781  1.00  0.00     0.109 C 
HETATM   28  C17 UNL     1      18.406  67.230  39.565  1.00  0.00     0.028 C 
HETATM   29  C18 UNL     1      17.653  67.660  38.323  1.00  0.00     0.029 C 
HETATM   30  C19 UNL     1      16.242  67.126  38.307  1.00  0.00     0.232 C 
HETATM   31  N6  UNL     1      16.157  65.986  39.193  1.00  0.00    -0.073 N 
HETATM   32  C20 UNL     1      16.215  66.535  40.559  1.00  0.00     0.257 C 
ATOM     33  H62 UNL     1      15.341  65.398  39.024  1.00  0.00     0.277 HD
ATOM     34  H61 UNL     1      16.862  65.273  39.010  1.00  0.00     0.277 HD
ENDBRANCH  24  27
ENDBRANCH   1  21
TORSDOF 5
ENDMDL
MODEL 2
REMARK VINA RESULT: -9.870202535      2.196      5.840
REMARK  5 active torsions:
REMARK  status: ('A' for Active; 'I' for Inactive)
REMARK    1  A    between atoms: C5_5  and  C6_6 
REMARK    2  A    between atoms: C6_6  and  C7_7 
REMARK    3  A    between atoms: C6_6  and  N4_19 
REMARK    4  A    between atoms: C7_7  and  N1_8 
REMARK    5  A    between atoms: N5_22  and  C16_23 
ROOT
HETATM    1  C6  UNL     1      17.969  65.797  44.593  1.00  0.00     0.018 C 
ENDROOT
BRANCH   1   2
HETATM    2  C5  UNL     1      17.606  64.494  45.270  1.00  0.00    -0.017 A 
HETATM    3  C4  UNL     1      16.697  63.600  44.694  1.00  0.00     0.013 A 
HETATM    4  C3  UNL     1      16.364  62.416  45.290  1.00  0.00     0.007 A 
HETATM    5  C2  UNL     1      16.920  62.058  46.495  1.00  0.00    -0.062 A 
HETATM    6  C1  UNL     1      16.515  60.761  47.091  1.00  0.00     0.048 C 
HETATM    7  C24 UNL     1      17.814  62.914  47.082  1.00  0.00     0.007 A 
HETATM    8  C23 UNL     1      18.149  64.115  46.473  1.00  0.00     0.013 A 
ENDBRANCH   1   2
BRANCH   1   9
HETATM    9  C7  UNL     1      18.328  65.555  43.183  1.00  0.00     0.201 C 
BRANCH   9  10
HETATM   10  N1  UNL     1      17.340  65.873  42.181  1.00  0.00    -0.287 N 
HETATM   11  N2  UNL     1      16.012  65.588  42.297  1.00  0.00    -0.308 N 
HETATM   12  C8  UNL     1      15.337  66.024  41.253  1.00  0.00     0.122 A 
ATOM     13  H2  UNL     1      15.594  65.100  43.090  1.00  0.00     0.186 HD
HETATM   14  C9  UNL     1      16.221  66.629  40.388  1.00  0.00     0.024 A 
HETATM   15  C10 UNL     1      16.109  67.241  39.165  1.00  0.00     0.102 A 
HETATM   16  C13 UNL     1      17.470  66.512  41.008  1.00  0.00     0.065 A 
HETATM   17  N3  UNL     1      17.178  67.739  38.526  1.00  0.00    -0.374 N 
HETATM   18  C11 UNL     1      18.399  67.635  39.109  1.00  0.00     0.090 A 
ATOM     19  H3  UNL     1      17.074  68.190  37.617  1.00  0.00     0.164 HD
HETATM   20  C12 UNL     1      18.543  67.036  40.317  1.00  0.00     0.049 A 
ENDBRANCH   9  10
ENDBRANCH   1   9
BRANCH   1  21
HETATM   21  N4  UNL     1      17.125  66.797  45.022  1.00  0.00    -0.278 NA
HETATM   22  C14 UNL     1      17.254  66.967  46.470  1.00  0.00     0.140 C 
HETATM   23  C15 UNL     1      18.511  67.716  46.873  1.00  0.00     0.073 C 
HETATM   24  N5  UNL     1      18.644  68.915  46.147  1.00  0.00    -0.385 N 
HETATM   25  C21 UNL     1      18.568  68.689  44.710  1.00  0.00     0.137 C 
HETATM   26  C22 UNL     1      17.187  68.116  44.476  1.00  0.00     0.115 C 
BRANCH  24  27
HETATM   27  C16 UNL     1      19.622  69.854  46.523  1.00  0.00     0.109 C 
HETATM   28  C17 UNL     1      19.495  71.110  45.739  1.00  0.00     0.028 C 
HETATM   29  C18 UNL     1      20.471  72.181  46.179  1.00  0.00     0.029 C 
HETATM   30  C19 UNL     1      20.671  72.182  47.674  1.00  0.00     0.232 C 
HETATM   31  N6  UNL     1      19.546  71.524  48.302  1.00  0.00    -0.073 N 
HETATM   32  C20 UNL     1      19.710  70.089  48.015  1.00  0.00     0.257 C 
ATOM     33  H62 UNL     1      19.453  71.734  49.295  1.00  0.00     0.277 HD
ATOM     34  H61 UNL     1      18.642  71.897  48.013  1.00  0.00     0.277 HD
ENDBRANCH  24  27
ENDBRANCH   1  21
TORSDOF 5
ENDMDL
MODEL 3
REMARK VINA RESULT: -9.812795763      2.222      5.669
REMARK  5 active torsions:
REMARK  status: ('A' for Active; 'I' for Inactive)
REMARK    1  A    between atoms: C5_5  and  C6_6 
REMARK    2  A    between atoms: C6_6  and  C7_7 
REMARK    3  A    between atoms: C6_6  and  N4_19 
REMARK    4  A    between atoms: C7_7  and  N1_8 
REMARK    5  A    between atoms: N5_22  and  C16_23 
ROOT
HETATM    1  C6  UNL     1      18.286  65.858  44.446  1.00  0.00     0.018 C 
ENDROOT
BRANCH   1   2
HETATM    2  C5  UNL     1      17.798  64.618  45.161  1.00  0.00    -0.017 A 
HETATM    3  C4  UNL     1      16.911  63.724  44.550  1.00  0.00     0.013 A 
HETATM    4  C3  UNL     1      16.466  62.595  45.180  1.00  0.00     0.007 A 
HETATM    5  C2  UNL     1      16.882  62.297  46.455  1.00  0.00    -0.062 A 
HETATM    6  C1  UNL     1      16.360  61.059  47.085  1.00  0.00     0.048 C 
HETATM    7  C24 UNL     1      17.749  63.154  47.078  1.00  0.00     0.007 A 
HETATM    8  C23 UNL     1      18.198  64.298  46.434  1.00  0.00     0.013 A 
ENDBRANCH   1   2
BRANCH   1   9
HETATM    9  C7  UNL     1      18.809  65.503  43.112  1.00  0.00     0.201 C 
BRANCH   9  10
HETATM   10  N1  UNL     1      18.199  66.137  41.968  1.00  0.00    -0.287 N 
HETATM   11  N2  UNL     1      18.869  66.928  41.082  1.00  0.00    -0.308 N 
HETATM   12  C8  UNL     1      18.074  67.341  40.116  1.00  0.00     0.122 A 
ATOM     13  H2  UNL     1      19.857  67.168  41.158  1.00  0.00     0.186 HD
HETATM   14  C9  UNL     1      16.818  66.823  40.337  1.00  0.00     0.024 A 
HETATM   15  C10 UNL     1      15.609  66.913  39.694  1.00  0.00     0.102 A 
HETATM   16  C13 UNL     1      16.938  66.072  41.512  1.00  0.00     0.065 A 
HETATM   17  N3  UNL     1      14.514  66.297  40.162  1.00  0.00    -0.374 N 
HETATM   18  C11 UNL     1      14.609  65.565  41.301  1.00  0.00     0.090 A 
ATOM     19  H3  UNL     1      13.624  66.377  39.670  1.00  0.00     0.164 HD
HETATM   20  C12 UNL     1      15.788  65.455  41.960  1.00  0.00     0.049 A 
ENDBRANCH   9  10
ENDBRANCH   1   9
BRANCH   1  21
HETATM   21  N4  UNL     1      17.428  66.908  44.693  1.00  0.00    -0.278 NA
HETATM   22  C14 UNL     1      17.300  67.111  46.137  1.00  0.00     0.140 C 
HETATM   23  C15 UNL     1      18.498  67.812  46.750  1.00  0.00     0.073 C 
HETATM   24  N5  UNL     1      18.821  68.983  46.038  1.00  0.00    -0.385 N 
HETATM   25  C21 UNL     1      18.998  68.721  44.616  1.00  0.00     0.137 C 
HETATM   26  C22 UNL     1      17.656  68.207  44.143  1.00  0.00     0.115 C 
BRANCH  24  27
HETATM   27  C16 UNL     1      19.761  69.886  46.569  1.00  0.00     0.109 C 
HETATM   28  C17 UNL     1      19.806  71.145  45.781  1.00  0.00     0.028 C 
HETATM   29  C18 UNL     1      20.738  72.181  46.376  1.00  0.00     0.029 C 
HETATM   30  C19 UNL     1      20.696  72.176  47.884  1.00  0.00     0.232 C 
HETATM   31  N6  UNL     1      19.463  71.560  48.321  1.00  0.00    -0.073 N 
HETATM   32  C20 UNL     1      19.617  70.119  48.058  1.00  0.00     0.257 C 
ATOM     33  H62 UNL     1      19.220  71.774  49.289  1.00  0.00     0.277 HD
ATOM     34  H61 UNL     1      18.630  71.966  47.894  1.00  0.00     0.277 HD
ENDBRANCH  24  27
ENDBRANCH   1  21
TORSDOF 5
ENDMDL
MODEL 4
REMARK VINA RESULT: -9.395354372      1.425      2.348
REMARK  5 active torsions:
REMARK  status: ('A' for Active; 'I' for Inactive)
REMARK    1  A    between atoms: C5_5  and  C6_6 
REMARK    2  A    between atoms: C6_6  and  C7_7 
REMARK    3  A    between atoms: C6_6  and  N4_19 
REMARK    4  A    between atoms: C7_7  and  N1_8 
REMARK    5  A    between atoms: N5_22  and  C16_23 
ROOT
HETATM    1  C6  UNL     1      18.245  66.134  45.621  1.00  0.00     0.018 C 
ENDROOT
BRANCH   1   2
HETATM    2  C5  UNL     1      17.764  64.715  45.825  1.00  0.00    -0.017 A 
HETATM    3  C4  UNL     1      18.198  63.946  46.910  1.00  0.00     0.013 A 
HETATM    4  C3  UNL     1      17.768  62.664  47.112  1.00  0.00     0.007 A 
HETATM    5  C2  UNL     1      16.880  62.079  46.242  1.00  0.00    -0.062 A 
HETATM    6  C1  UNL     1      16.454  60.684  46.515  1.00  0.00     0.048 C 
HETATM    7  C24 UNL     1      16.438  62.808  45.170  1.00  0.00     0.007 A 
HETATM    8  C23 UNL     1      16.878  64.110  44.970  1.00  0.00     0.013 A 
ENDBRANCH   1   2
BRANCH   1   9
HETATM    9  C7  UNL     1      18.300  66.844  46.914  1.00  0.00     0.201 C 
BRANCH   9  10
HETATM   10  N1  UNL     1      17.748  68.176  46.966  1.00  0.00    -0.287 N 
HETATM   11  N2  UNL     1      16.420  68.450  47.116  1.00  0.00    -0.308 N 
HETATM   12  C8  UNL     1      16.204  69.748  47.169  1.00  0.00     0.122 A 
ATOM     13  H2  UNL     1      15.690  67.741  47.180  1.00  0.00     0.186 HD
HETATM   14  C9  UNL     1      17.414  70.394  47.051  1.00  0.00     0.024 A 
HETATM   15  C10 UNL     1      17.810  71.708  47.025  1.00  0.00     0.102 A 
HETATM   16  C13 UNL     1      18.360  69.370  46.925  1.00  0.00     0.065 A 
HETATM   17  N3  UNL     1      19.097  72.054  46.876  1.00  0.00    -0.374 N 
HETATM   18  C11 UNL     1      20.029  71.076  46.750  1.00  0.00     0.090 A 
ATOM     19  H3  UNL     1      19.370  73.036  46.859  1.00  0.00     0.164 HD
HETATM   20  C12 UNL     1      19.672  69.768  46.773  1.00  0.00     0.049 A 
ENDBRANCH   9  10
ENDBRANCH   1   9
BRANCH   1  21
HETATM   21  N4  UNL     1      19.247  66.157  44.676  1.00  0.00    -0.278 NA
HETATM   22  C14 UNL     1      19.009  65.114  43.678  1.00  0.00     0.140 C 
HETATM   23  C15 UNL     1      17.922  65.477  42.682  1.00  0.00     0.073 C 
HETATM   24  N5  UNL     1      18.146  66.753  42.129  1.00  0.00    -0.385 N 
HETATM   25  C21 UNL     1      18.318  67.768  43.159  1.00  0.00     0.137 C 
HETATM   26  C22 UNL     1      19.546  67.339  43.930  1.00  0.00     0.115 C 
BRANCH  24  27
HETATM   27  C16 UNL     1      17.375  67.183  41.032  1.00  0.00     0.109 C 
HETATM   28  C17 UNL     1      18.170  67.175  39.777  1.00  0.00     0.028 C 
HETATM   29  C18 UNL     1      17.350  67.541  38.557  1.00  0.00     0.029 C 
HETATM   30  C19 UNL     1      15.952  66.979  38.628  1.00  0.00     0.232 C 
HETATM   31  N6  UNL     1      15.934  65.873  39.560  1.00  0.00    -0.073 N 
HETATM   32  C20 UNL     1      16.044  66.474  40.900  1.00  0.00     0.257 C 
ATOM     33  H62 UNL     1      15.124  65.262  39.452  1.00  0.00     0.277 HD
ATOM     34  H61 UNL     1      16.645  65.167  39.369  1.00  0.00     0.277 HD
ENDBRANCH  24  27
ENDBRANCH   1  21
TORSDOF 5
ENDMDL
MODEL 5
REMARK VINA RESULT: -9.105569512      3.869      7.701
REMARK  5 active torsions:
REMARK  status: ('A' for Active; 'I' for Inactive)
REMARK    1  A    between atoms: C5_5  and  C6_6 
REMARK    2  A    between atoms: C6_6  and  C7_7 
REMARK    3  A    between atoms: C6_6  and  N4_19 
REMARK    4  A    between atoms: C7_7  and  N1_8 
REMARK    5  A    between atoms: N5_22  and  C16_23 
ROOT
HETATM    1  C6  UNL     1      18.760  69.405  46.507  1.00  0.00     0.018 C 
ENDROOT
BRANCH   1   2
HETATM    2  C5  UNL     1      17.291  69.089  46.674  1.00  0.00    -0.017 A 
HETATM    3  C4  UNL     1      16.617  69.359  47.870  1.00  0.00     0.013 A 
HETATM    4  C3  UNL     1      15.288  69.086  48.035  1.00  0.00     0.007 A 
HETATM    5  C2  UNL     1      14.557  68.527  47.013  1.00  0.00    -0.062 A 
HETATM    6  C1  UNL     1      13.119  68.252  47.256  1.00  0.00     0.048 C 
HETATM    7  C24 UNL     1      15.190  68.252  45.831  1.00  0.00     0.007 A 
HETATM    8  C23 UNL     1      16.540  68.532  45.669  1.00  0.00     0.013 A 
ENDBRANCH   1   2
BRANCH   1   9
HETATM    9  C7  UNL     1      19.535  68.157  46.362  1.00  0.00     0.201 C 
BRANCH   9  10
HETATM   10  N1  UNL     1      19.322  67.377  45.167  1.00  0.00    -0.287 N 
HETATM   11  N2  UNL     1      19.771  67.733  43.929  1.00  0.00    -0.308 N 
HETATM   12  C8  UNL     1      19.467  66.819  43.031  1.00  0.00     0.122 A 
ATOM     13  H2  UNL     1      20.276  68.595  43.725  1.00  0.00     0.186 HD
HETATM   14  C9  UNL     1      18.789  65.800  43.662  1.00  0.00     0.024 A 
HETATM   15  C10 UNL     1      18.225  64.617  43.254  1.00  0.00     0.102 A 
HETATM   16  C13 UNL     1      18.718  66.189  45.004  1.00  0.00     0.065 A 
HETATM   17  N3  UNL     1      17.592  63.804  44.112  1.00  0.00    -0.374 N 
HETATM   18  C11 UNL     1      17.510  64.165  45.418  1.00  0.00     0.090 A 
ATOM     19  H3  UNL     1      17.179  62.930  43.789  1.00  0.00     0.164 HD
HETATM   20  C12 UNL     1      18.058  65.327  45.854  1.00  0.00     0.049 A 
ENDBRANCH   9  10
ENDBRANCH   1   9
BRANCH   1  21
HETATM   21  N4  UNL     1      18.911  70.515  45.704  1.00  0.00    -0.278 NA
HETATM   22  C14 UNL     1      18.316  71.681  46.358  1.00  0.00     0.140 C 
HETATM   23  C15 UNL     1      19.177  72.245  47.473  1.00  0.00     0.073 C 
HETATM   24  N5  UNL     1      20.501  72.450  47.039  1.00  0.00    -0.385 N 
HETATM   25  C21 UNL     1      21.071  71.246  46.451  1.00  0.00     0.137 C 
HETATM   26  C22 UNL     1      20.197  70.943  45.253  1.00  0.00     0.115 C 
BRANCH  24  27
HETATM   27  C16 UNL     1      21.400  73.164  47.853  1.00  0.00     0.109 C 
HETATM   28  C17 UNL     1      20.743  74.337  48.485  1.00  0.00     0.028 C 
HETATM   29  C18 UNL     1      21.652  75.077  49.445  1.00  0.00     0.029 C 
HETATM   30  C19 UNL     1      22.538  74.135  50.222  1.00  0.00     0.232 C 
HETATM   31  N6  UNL     1      21.952  72.813  50.206  1.00  0.00    -0.073 N 
HETATM   32  C20 UNL     1      22.155  72.299  48.840  1.00  0.00     0.257 C 
ATOM     33  H62 UNL     1      22.316  72.196  50.932  1.00  0.00     0.277 HD
ATOM     34  H61 UNL     1      20.978  72.795  50.508  1.00  0.00     0.277 HD
ENDBRANCH  24  27
ENDBRANCH   1  21
TORSDOF 5
ENDMDL
