MODEL 1
REMARK VINA RESULT: -6.971428581      0.000      0.000
REMARK  13 active torsions:
REMARK  status: ('A' for Active; 'I' for Inactive)
REMARK    1  A    between atoms: C2_2  and  O1_3 
REMARK    2  A    between atoms: O1_3  and  C3_4 
REMARK    3  A    between atoms: C3_4  and  C4_6 
REMARK    4  A    between atoms: C4_6  and  C5_7 
REMARK    5  A    between atoms: C5_7  and  C6_8 
REMARK       I    between atoms: C6_8  and  N1_10 
REMARK    6  A    between atoms: N1_10  and  C7_12 
REMARK    7  A    between atoms: C11_16  and  C12_17 
REMARK    8  A    between atoms: C12_17  and  N2_18 
REMARK    9  A    between atoms: N2_18  and  N3_19 
REMARK   10  A    between atoms: N3_19  and  C13_21 
REMARK   11  A    between atoms: C13_21  and  O4_22 
REMARK   12  A    between atoms: C13_21  and  C14_24 
REMARK   13  A    between atoms: C19_30  and  O5_31 
ROOT
HETATM    1  C7  UNL     1      -7.713   4.481  30.305  1.00  0.00     0.077 A 
HETATM    2  C8  UNL     1      -8.328   4.332  29.104  1.00  0.00     0.045 A 
HETATM    3  C9  UNL     1      -8.064   5.235  28.125  1.00  0.00    -0.040 A 
HETATM    4  C10 UNL     1      -8.728   5.128  26.754  1.00  0.00     0.050 C 
HETATM    5  C11 UNL     1      -7.192   6.235  28.425  1.00  0.00     0.043 A 
HETATM    6  S1  UNL     1      -6.763   5.903  30.040  1.00  0.00    -0.070 SA
ENDROOT
BRANCH   5   7
HETATM    7  C12 UNL     1      -6.722   7.332  27.545  1.00  0.00     0.228 C 
BRANCH   7   8
HETATM    8  N2  UNL     1      -6.221   8.376  27.745  1.00  0.00    -0.335 NA
BRANCH   8   9
HETATM    9  N3  UNL     1      -5.583   9.448  28.180  1.00  0.00    -0.213 N 
ATOM     10  H3  UNL     1      -5.969  10.351  27.903  1.00  0.00     0.204 HD
BRANCH   9  11
HETATM   11  C13 UNL     1      -4.425   9.481  28.988  1.00  0.00     0.178 C 
BRANCH  11  12
HETATM   12  O4  UNL     1      -4.492  10.434  29.876  1.00  0.00    -0.344 OA
ATOM     13  H4  UNL     1      -4.870  10.123  30.689  1.00  0.00     0.219 HD
ENDBRANCH  11  12
BRANCH  11  14
HETATM   14  C14 UNL     1      -3.248   8.676  28.993  1.00  0.00     0.051 A 
HETATM   15  C15 UNL     1      -3.302   7.409  29.577  1.00  0.00     0.038 A 
HETATM   16  C16 UNL     1      -2.212   6.583  29.618  1.00  0.00     0.012 A 
HETATM   17 BR1  UNL     1      -2.400   4.874  30.439  1.00  0.00    -0.051 Br
HETATM   18  C17 UNL     1      -1.001   6.961  29.084  1.00  0.00     0.022 A 
HETATM   19  C18 UNL     1      -0.927   8.198  28.509  1.00  0.00     0.039 A 
HETATM   20  C19 UNL     1      -2.033   9.050  28.462  1.00  0.00     0.082 A 
BRANCH  20  21
HETATM   21  O5  UNL     1      -1.891  10.291  27.862  1.00  0.00    -0.355 OA
HETATM   22  C20 UNL     1      -0.751  10.543  27.078  1.00  0.00     0.210 C 
ENDBRANCH  20  21
ENDBRANCH  11  14
ENDBRANCH   9  11
ENDBRANCH   8   9
ENDBRANCH   7   8
ENDBRANCH   5   7
BRANCH   1  23
HETATM   23  N1  UNL     1      -7.782   3.708  31.515  1.00  0.00    -0.321 N 
HETATM   24  C6  UNL     1      -6.773   2.884  32.024  1.00  0.00     0.223 C 
HETATM   25  O3  UNL     1      -5.668   2.733  31.469  1.00  0.00    -0.273 OA
ATOM     26  H1  UNL     1      -8.647   3.765  32.051  1.00  0.00     0.169 HD
BRANCH  24  27
HETATM   27  C5  UNL     1      -7.003   2.135  33.295  1.00  0.00     0.113 C 
BRANCH  27  28
HETATM   28  C4  UNL     1      -8.125   2.738  34.095  1.00  0.00     0.120 C 
BRANCH  28  29
HETATM   29  C3  UNL     1      -7.585   3.532  35.227  1.00  0.00     0.259 C 
HETATM   30  O2  UNL     1      -8.323   3.949  36.141  1.00  0.00    -0.265 OA
BRANCH  29  31
HETATM   31  O1  UNL     1      -6.205   3.799  35.241  1.00  0.00    -0.322 OA
BRANCH  31  32
HETATM   32  C2  UNL     1      -5.772   5.136  35.216  1.00  0.00     0.174 C 
HETATM   33  C1  UNL     1      -5.758   5.719  33.832  1.00  0.00     0.034 C 
ENDBRANCH  31  32
ENDBRANCH  29  31
ENDBRANCH  28  29
ENDBRANCH  27  28
ENDBRANCH  24  27
ENDBRANCH   1  23
TORSDOF 13
ENDMDL
MODEL 2
REMARK VINA RESULT: -6.884382767      4.557      5.334
REMARK  13 active torsions:
REMARK  status: ('A' for Active; 'I' for Inactive)
REMARK    1  A    between atoms: C2_2  and  O1_3 
REMARK    2  A    between atoms: O1_3  and  C3_4 
REMARK    3  A    between atoms: C3_4  and  C4_6 
REMARK    4  A    between atoms: C4_6  and  C5_7 
REMARK    5  A    between atoms: C5_7  and  C6_8 
REMARK       I    between atoms: C6_8  and  N1_10 
REMARK    6  A    between atoms: N1_10  and  C7_12 
REMARK    7  A    between atoms: C11_16  and  C12_17 
REMARK    8  A    between atoms: C12_17  and  N2_18 
REMARK    9  A    between atoms: N2_18  and  N3_19 
REMARK   10  A    between atoms: N3_19  and  C13_21 
REMARK   11  A    between atoms: C13_21  and  O4_22 
REMARK   12  A    between atoms: C13_21  and  C14_24 
REMARK   13  A    between atoms: C19_30  and  O5_31 
ROOT
HETATM    1  C7  UNL     1      -9.618   8.156  29.765  1.00  0.00     0.077 A 
HETATM    2  C8  UNL     1      -9.357   6.839  29.564  1.00  0.00     0.045 A 
HETATM    3  C9  UNL     1      -8.604   6.485  28.490  1.00  0.00    -0.040 A 
HETATM    4  C10 UNL     1      -8.280   5.021  28.203  1.00  0.00     0.050 C 
HETATM    5  C11 UNL     1      -8.161   7.489  27.688  1.00  0.00     0.043 A 
HETATM    6  S1  UNL     1      -8.793   8.886  28.431  1.00  0.00    -0.070 SA
ENDROOT
BRANCH   5   7
HETATM    7  C12 UNL     1      -7.319   7.384  26.472  1.00  0.00     0.228 C 
BRANCH   7   8
HETATM    8  N2  UNL     1      -6.159   7.358  26.286  1.00  0.00    -0.335 NA
BRANCH   8   9
HETATM    9  N3  UNL     1      -4.838   7.337  26.323  1.00  0.00    -0.213 N 
ATOM     10  H3  UNL     1      -4.362   7.164  25.437  1.00  0.00     0.204 HD
BRANCH   9  11
HETATM   11  C13 UNL     1      -4.014   7.527  27.454  1.00  0.00     0.178 C 
BRANCH  11  12
HETATM   12  O4  UNL     1      -3.323   8.629  27.358  1.00  0.00    -0.344 OA
ATOM     13  H4  UNL     1      -2.539   8.502  26.836  1.00  0.00     0.219 HD
ENDBRANCH  11  12
BRANCH  11  14
HETATM   14  C14 UNL     1      -3.824   6.747  28.631  1.00  0.00     0.051 A 
HETATM   15  C15 UNL     1      -4.936   6.425  29.412  1.00  0.00     0.038 A 
HETATM   16  C16 UNL     1      -4.828   5.679  30.554  1.00  0.00     0.012 A 
HETATM   17 BR1  UNL     1      -6.413   5.299  31.541  1.00  0.00    -0.051 Br
HETATM   18  C17 UNL     1      -3.613   5.208  30.996  1.00  0.00     0.022 A 
HETATM   19  C18 UNL     1      -2.512   5.513  30.247  1.00  0.00     0.039 A 
HETATM   20  C19 UNL     1      -2.609   6.273  29.079  1.00  0.00     0.082 A 
BRANCH  20  21
HETATM   21  O5  UNL     1      -1.454   6.546  28.364  1.00  0.00    -0.355 OA
HETATM   22  C20 UNL     1      -0.499   7.417  28.920  1.00  0.00     0.210 C 
ENDBRANCH  20  21
ENDBRANCH  11  14
ENDBRANCH   9  11
ENDBRANCH   8   9
ENDBRANCH   7   8
ENDBRANCH   5   7
BRANCH   1  23
HETATM   23  N1  UNL     1     -10.366   8.835  30.787  1.00  0.00    -0.321 N 
HETATM   24  C6  UNL     1     -11.718   9.189  30.720  1.00  0.00     0.223 C 
HETATM   25  O3  UNL     1     -12.442   8.940  29.739  1.00  0.00    -0.273 OA
ATOM     26  H1  UNL     1      -9.865   9.081  31.640  1.00  0.00     0.169 HD
BRANCH  24  27
HETATM   27  C5  UNL     1     -12.350   9.904  31.869  1.00  0.00     0.113 C 
BRANCH  27  28
HETATM   28  C4  UNL     1     -11.866   9.366  33.187  1.00  0.00     0.120 C 
BRANCH  28  29
HETATM   29  C3  UNL     1     -11.225  10.445  33.981  1.00  0.00     0.259 C 
HETATM   30  O2  UNL     1     -10.663  11.412  33.431  1.00  0.00    -0.265 OA
BRANCH  29  31
HETATM   31  O1  UNL     1     -11.275  10.346  35.383  1.00  0.00    -0.322 OA
BRANCH  31  32
HETATM   32  C2  UNL     1     -12.121   9.388  35.965  1.00  0.00     0.174 C 
HETATM   33  C1  UNL     1     -13.459   9.949  36.353  1.00  0.00     0.034 C 
ENDBRANCH  31  32
ENDBRANCH  29  31
ENDBRANCH  28  29
ENDBRANCH  27  28
ENDBRANCH  24  27
ENDBRANCH   1  23
TORSDOF 13
ENDMDL
MODEL 3
REMARK VINA RESULT: -6.853155302      2.765      5.022
REMARK  13 active torsions:
REMARK  status: ('A' for Active; 'I' for Inactive)
REMARK    1  A    between atoms: C2_2  and  O1_3 
REMARK    2  A    between atoms: O1_3  and  C3_4 
REMARK    3  A    between atoms: C3_4  and  C4_6 
REMARK    4  A    between atoms: C4_6  and  C5_7 
REMARK    5  A    between atoms: C5_7  and  C6_8 
REMARK       I    between atoms: C6_8  and  N1_10 
REMARK    6  A    between atoms: N1_10  and  C7_12 
REMARK    7  A    between atoms: C11_16  and  C12_17 
REMARK    8  A    between atoms: C12_17  and  N2_18 
REMARK    9  A    between atoms: N2_18  and  N3_19 
REMARK   10  A    between atoms: N3_19  and  C13_21 
REMARK   11  A    between atoms: C13_21  and  O4_22 
REMARK   12  A    between atoms: C13_21  and  C14_24 
REMARK   13  A    between atoms: C19_30  and  O5_31 
ROOT
HETATM    1  C7  UNL     1      -2.886   6.719  30.213  1.00  0.00     0.077 A 
HETATM    2  C8  UNL     1      -1.594   6.867  29.823  1.00  0.00     0.045 A 
HETATM    3  C9  UNL     1      -1.322   7.705  28.790  1.00  0.00    -0.040 A 
HETATM    4  C10 UNL     1       0.109   7.911  28.298  1.00  0.00     0.050 C 
HETATM    5  C11 UNL     1      -2.377   8.341  28.214  1.00  0.00     0.043 A 
HETATM    6  S1  UNL     1      -3.709   7.769  29.110  1.00  0.00    -0.070 SA
ENDROOT
BRANCH   5   7
HETATM    7  C12 UNL     1      -2.360   9.309  27.091  1.00  0.00     0.228 C 
BRANCH   7   8
HETATM    8  N2  UNL     1      -2.943   9.385  26.074  1.00  0.00    -0.335 NA
BRANCH   8   9
HETATM    9  N3  UNL     1      -3.797   9.507  25.073  1.00  0.00    -0.213 N 
ATOM     10  H3  UNL     1      -3.408   9.807  24.178  1.00  0.00     0.204 HD
BRANCH   9  11
HETATM   11  C13 UNL     1      -5.189   9.268  25.105  1.00  0.00     0.178 C 
BRANCH  11  12
HETATM   12  O4  UNL     1      -5.719   9.388  23.920  1.00  0.00    -0.344 OA
ATOM     13  H4  UNL     1      -6.189   8.601  23.670  1.00  0.00     0.219 HD
ENDBRANCH  11  12
BRANCH  11  14
HETATM   14  C14 UNL     1      -6.068   8.929  26.174  1.00  0.00     0.051 A 
HETATM   15  C15 UNL     1      -6.720   7.694  26.144  1.00  0.00     0.038 A 
HETATM   16  C16 UNL     1      -7.578   7.303  27.136  1.00  0.00     0.012 A 
HETATM   17 BR1  UNL     1      -8.411   5.596  26.991  1.00  0.00    -0.051 Br
HETATM   18  C17 UNL     1      -7.845   8.110  28.218  1.00  0.00     0.022 A 
HETATM   19  C18 UNL     1      -7.218   9.323  28.266  1.00  0.00     0.039 A 
HETATM   20  C19 UNL     1      -6.340   9.733  27.259  1.00  0.00     0.082 A 
BRANCH  20  21
HETATM   21  O5  UNL     1      -5.736  10.976  27.370  1.00  0.00    -0.355 OA
HETATM   22  C20 UNL     1      -6.502  12.130  27.125  1.00  0.00     0.210 C 
ENDBRANCH  20  21
ENDBRANCH  11  14
ENDBRANCH   9  11
ENDBRANCH   8   9
ENDBRANCH   7   8
ENDBRANCH   5   7
BRANCH   1  23
HETATM   23  N1  UNL     1      -3.484   5.926  31.251  1.00  0.00    -0.321 N 
HETATM   24  C6  UNL     1      -4.712   5.259  31.175  1.00  0.00     0.223 C 
HETATM   25  O3  UNL     1      -5.438   5.278  30.163  1.00  0.00    -0.273 OA
ATOM     26  H1  UNL     1      -2.965   5.841  32.125  1.00  0.00     0.169 HD
BRANCH  24  27
HETATM   27  C5  UNL     1      -5.202   4.480  32.350  1.00  0.00     0.113 C 
BRANCH  27  28
HETATM   28  C4  UNL     1      -5.860   5.371  33.367  1.00  0.00     0.120 C 
BRANCH  28  29
HETATM   29  C3  UNL     1      -6.094   4.628  34.631  1.00  0.00     0.259 C 
HETATM   30  O2  UNL     1      -5.819   5.126  35.740  1.00  0.00    -0.265 OA
BRANCH  29  31
HETATM   31  O1  UNL     1      -6.646   3.338  34.541  1.00  0.00    -0.322 OA
BRANCH  31  32
HETATM   32  C2  UNL     1      -8.028   3.205  34.331  1.00  0.00     0.174 C 
HETATM   33  C1  UNL     1      -8.819   3.240  35.607  1.00  0.00     0.034 C 
ENDBRANCH  31  32
ENDBRANCH  29  31
ENDBRANCH  28  29
ENDBRANCH  27  28
ENDBRANCH  24  27
ENDBRANCH   1  23
TORSDOF 13
ENDMDL
MODEL 4
REMARK VINA RESULT: -6.780029459      1.812      2.756
REMARK  13 active torsions:
REMARK  status: ('A' for Active; 'I' for Inactive)
REMARK    1  A    between atoms: C2_2  and  O1_3 
REMARK    2  A    between atoms: O1_3  and  C3_4 
REMARK    3  A    between atoms: C3_4  and  C4_6 
REMARK    4  A    between atoms: C4_6  and  C5_7 
REMARK    5  A    between atoms: C5_7  and  C6_8 
REMARK       I    between atoms: C6_8  and  N1_10 
REMARK    6  A    between atoms: N1_10  and  C7_12 
REMARK    7  A    between atoms: C11_16  and  C12_17 
REMARK    8  A    between atoms: C12_17  and  N2_18 
REMARK    9  A    between atoms: N2_18  and  N3_19 
REMARK   10  A    between atoms: N3_19  and  C13_21 
REMARK   11  A    between atoms: C13_21  and  O4_22 
REMARK   12  A    between atoms: C13_21  and  C14_24 
REMARK   13  A    between atoms: C19_30  and  O5_31 
ROOT
HETATM    1  C7  UNL     1      -7.265   5.217  29.767  1.00  0.00     0.077 A 
HETATM    2  C8  UNL     1      -8.259   4.728  28.983  1.00  0.00     0.045 A 
HETATM    3  C9  UNL     1      -8.541   5.370  27.820  1.00  0.00    -0.040 A 
HETATM    4  C10 UNL     1      -9.652   4.876  26.896  1.00  0.00     0.050 C 
HETATM    5  C11 UNL     1      -7.797   6.469  27.523  1.00  0.00     0.043 A 
HETATM    6  S1  UNL     1      -6.734   6.585  28.850  1.00  0.00    -0.070 SA
ENDROOT
BRANCH   5   7
HETATM    7  C12 UNL     1      -7.885   7.337  26.325  1.00  0.00     0.228 C 
BRANCH   7   8
HETATM    8  N2  UNL     1      -7.091   7.907  25.673  1.00  0.00    -0.335 NA
BRANCH   8   9
HETATM    9  N3  UNL     1      -6.069   8.562  25.151  1.00  0.00    -0.213 N 
ATOM     10  H3  UNL     1      -6.225   8.997  24.241  1.00  0.00     0.204 HD
BRANCH   9  11
HETATM   11  C13 UNL     1      -4.784   8.726  25.714  1.00  0.00     0.178 C 
BRANCH  11  12
HETATM   12  O4  UNL     1      -3.868   8.812  24.789  1.00  0.00    -0.344 OA
ATOM     13  H4  UNL     1      -4.104   9.450  24.127  1.00  0.00     0.219 HD
ENDBRANCH  11  12
BRANCH  11  14
HETATM   14  C14 UNL     1      -4.344   8.811  27.067  1.00  0.00     0.051 A 
HETATM   15  C15 UNL     1      -3.399   7.893  27.527  1.00  0.00     0.038 A 
HETATM   16  C16 UNL     1      -2.931   7.916  28.813  1.00  0.00     0.012 A 
HETATM   17 BR1  UNL     1      -1.640   6.615  29.331  1.00  0.00    -0.051 Br
HETATM   18  C17 UNL     1      -3.374   8.849  29.724  1.00  0.00     0.022 A 
HETATM   19  C18 UNL     1      -4.300   9.755  29.294  1.00  0.00     0.039 A 
HETATM   20  C19 UNL     1      -4.784   9.742  27.983  1.00  0.00     0.082 A 
BRANCH  20  21
HETATM   21  O5  UNL     1      -5.723  10.691  27.611  1.00  0.00    -0.355 OA
HETATM   22  C20 UNL     1      -7.031  10.592  28.119  1.00  0.00     0.210 C 
ENDBRANCH  20  21
ENDBRANCH  11  14
ENDBRANCH   9  11
ENDBRANCH   8   9
ENDBRANCH   7   8
ENDBRANCH   5   7
BRANCH   1  23
HETATM   23  N1  UNL     1      -6.738   4.772  31.027  1.00  0.00    -0.321 N 
HETATM   24  C6  UNL     1      -6.812   3.472  31.538  1.00  0.00     0.223 C 
HETATM   25  O3  UNL     1      -7.354   2.529  30.933  1.00  0.00    -0.273 OA
ATOM     26  H1  UNL     1      -6.267   5.469  31.603  1.00  0.00     0.169 HD
BRANCH  24  27
HETATM   27  C5  UNL     1      -6.220   3.170  32.876  1.00  0.00     0.113 C 
BRANCH  27  28
HETATM   28  C4  UNL     1      -5.355   4.300  33.364  1.00  0.00     0.120 C 
BRANCH  28  29
HETATM   29  C3  UNL     1      -5.765   4.712  34.730  1.00  0.00     0.259 C 
HETATM   30  O2  UNL     1      -5.649   5.891  35.117  1.00  0.00    -0.265 OA
BRANCH  29  31
HETATM   31  O1  UNL     1      -6.297   3.727  35.581  1.00  0.00    -0.322 OA
BRANCH  31  32
HETATM   32  C2  UNL     1      -7.506   3.988  36.246  1.00  0.00     0.174 C 
HETATM   33  C1  UNL     1      -8.683   3.307  35.607  1.00  0.00     0.034 C 
ENDBRANCH  31  32
ENDBRANCH  29  31
ENDBRANCH  28  29
ENDBRANCH  27  28
ENDBRANCH  24  27
ENDBRANCH   1  23
TORSDOF 13
ENDMDL
MODEL 5
REMARK VINA RESULT: -6.711965780      4.427      6.440
REMARK  13 active torsions:
REMARK  status: ('A' for Active; 'I' for Inactive)
REMARK    1  A    between atoms: C2_2  and  O1_3 
REMARK    2  A    between atoms: O1_3  and  C3_4 
REMARK    3  A    between atoms: C3_4  and  C4_6 
REMARK    4  A    between atoms: C4_6  and  C5_7 
REMARK    5  A    between atoms: C5_7  and  C6_8 
REMARK       I    between atoms: C6_8  and  N1_10 
REMARK    6  A    between atoms: N1_10  and  C7_12 
REMARK    7  A    between atoms: C11_16  and  C12_17 
REMARK    8  A    between atoms: C12_17  and  N2_18 
REMARK    9  A    between atoms: N2_18  and  N3_19 
REMARK   10  A    between atoms: N3_19  and  C13_21 
REMARK   11  A    between atoms: C13_21  and  O4_22 
REMARK   12  A    between atoms: C13_21  and  C14_24 
REMARK   13  A    between atoms: C19_30  and  O5_31 
ROOT
HETATM    1  C7  UNL     1      -5.331   6.532  30.049  1.00  0.00     0.077 A 
HETATM    2  C8  UNL     1      -4.304   7.323  29.647  1.00  0.00     0.045 A 
HETATM    3  C9  UNL     1      -4.582   8.590  29.245  1.00  0.00    -0.040 A 
HETATM    4  C10 UNL     1      -3.474   9.529  28.774  1.00  0.00     0.050 C 
HETATM    5  C11 UNL     1      -5.885   8.977  29.277  1.00  0.00     0.043 A 
HETATM    6  S1  UNL     1      -6.687   7.590  29.856  1.00  0.00    -0.070 SA
ENDROOT
BRANCH   5   7
HETATM    7  C12 UNL     1      -6.457  10.295  28.910  1.00  0.00     0.228 C 
BRANCH   7   8
HETATM    8  N2  UNL     1      -7.535  10.760  28.973  1.00  0.00    -0.335 NA
BRANCH   8   9
HETATM    9  N3  UNL     1      -8.823  11.049  29.022  1.00  0.00    -0.213 N 
ATOM     10  H3  UNL     1      -9.295  11.177  28.126  1.00  0.00     0.204 HD
BRANCH   9  11
HETATM   11  C13 UNL     1      -9.619  11.201  30.179  1.00  0.00     0.178 C 
BRANCH  11  12
HETATM   12  O4  UNL     1      -9.363  12.326  30.787  1.00  0.00    -0.344 OA
ATOM     13  H4  UNL     1     -10.123  12.895  30.796  1.00  0.00     0.219 HD
ENDBRANCH  11  12
BRANCH  11  14
HETATM   14  C14 UNL     1     -10.614  10.364  30.763  1.00  0.00     0.051 A 
HETATM   15  C15 UNL     1     -11.109  10.688  32.028  1.00  0.00     0.038 A 
HETATM   16  C16 UNL     1     -12.064   9.930  32.648  1.00  0.00     0.012 A 
HETATM   17 BR1  UNL     1     -12.667  10.468  34.374  1.00  0.00    -0.051 Br
HETATM   18  C17 UNL     1     -12.587   8.803  32.057  1.00  0.00     0.022 A 
HETATM   19  C18 UNL     1     -12.115   8.467  30.820  1.00  0.00     0.039 A 
HETATM   20  C19 UNL     1     -11.140   9.233  30.176  1.00  0.00     0.082 A 
BRANCH  20  21
HETATM   21  O5  UNL     1     -10.705   8.838  28.921  1.00  0.00    -0.355 OA
HETATM   22  C20 UNL     1     -10.436   7.477  28.690  1.00  0.00     0.210 C 
ENDBRANCH  20  21
ENDBRANCH  11  14
ENDBRANCH   9  11
ENDBRANCH   8   9
ENDBRANCH   7   8
ENDBRANCH   5   7
BRANCH   1  23
HETATM   23  N1  UNL     1      -5.361   5.175  30.522  1.00  0.00    -0.321 N 
HETATM   24  C6  UNL     1      -5.283   4.766  31.858  1.00  0.00     0.223 C 
HETATM   25  O3  UNL     1      -5.182   5.561  32.811  1.00  0.00    -0.273 OA
ATOM     26  H1  UNL     1      -5.447   4.442  29.819  1.00  0.00     0.169 HD
BRANCH  24  27
HETATM   27  C5  UNL     1      -5.318   3.310  32.187  1.00  0.00     0.113 C 
BRANCH  27  28
HETATM   28  C4  UNL     1      -6.679   2.721  31.935  1.00  0.00     0.120 C 
BRANCH  28  29
HETATM   29  C3  UNL     1      -7.430   2.591  33.210  1.00  0.00     0.259 C 
HETATM   30  O2  UNL     1      -7.811   1.481  33.631  1.00  0.00    -0.265 OA
BRANCH  29  31
HETATM   31  O1  UNL     1      -7.696   3.764  33.937  1.00  0.00    -0.322 OA
BRANCH  31  32
HETATM   32  C2  UNL     1      -7.597   3.730  35.338  1.00  0.00     0.174 C 
HETATM   33  C1  UNL     1      -6.308   4.309  35.847  1.00  0.00     0.034 C 
ENDBRANCH  31  32
ENDBRANCH  29  31
ENDBRANCH  28  29
ENDBRANCH  27  28
ENDBRANCH  24  27
ENDBRANCH   1  23
TORSDOF 13
ENDMDL
