MODEL 1
REMARK VINA RESULT: -5.153756351      0.000      0.000
REMARK  6 active torsions:
REMARK  status: ('A' for Active; 'I' for Inactive)
REMARK    1  A    between atoms: O1_2  and  C2_3 
REMARK    2  A    between atoms: C2_3  and  N1_4 
REMARK    3  A    between atoms: C2_3  and  C3_8 
REMARK    4  A    between atoms: C5_10  and  C6_11 
REMARK    5  A    between atoms: C6_11  and  C8_13 
REMARK    6  A    between atoms: C8_13  and  N2_14 
ROOT
HETATM    1  C6  UNL     1      15.745   4.072   3.670  1.00  0.00     0.052 C 
HETATM    2  C7  UNL     1      15.082   4.955   2.633  1.00  0.00     0.015 C 
ENDROOT
BRANCH   1   3
HETATM    3  C5  UNL     1      17.033   3.595   3.074  1.00  0.00     0.002 A 
HETATM    4  C3  UNL     1      18.259   3.441   3.888  1.00  0.00     0.047 A 
HETATM    5  C4  UNL     1      18.108   4.675   3.004  1.00  0.00     0.015 A 
BRANCH   4   6
HETATM    6  C2  UNL     1      19.302   2.473   3.357  1.00  0.00     0.322 C 
BRANCH   6   7
HETATM    7  O1  UNL     1      20.514   2.688   4.010  1.00  0.00    -0.364 OA
HETATM    8  C1  UNL     1      21.429   3.229   3.137  1.00  0.00     0.204 C 
ENDBRANCH   6   7
BRANCH   6   9
HETATM    9  N1  UNL     1      18.875   1.117   3.737  1.00  0.00    -0.053 N 
ATOM     10  H13 UNL     1      19.637   0.529   4.074  1.00  0.00     0.277 HD
ATOM     11  H12 UNL     1      18.313   1.091   4.588  1.00  0.00     0.277 HD
ATOM     12  H11 UNL     1      18.397   0.737   2.920  1.00  0.00     0.277 HD
ENDBRANCH   6   9
ENDBRANCH   4   6
ENDBRANCH   1   3
BRANCH   1  13
HETATM   13  C8  UNL     1      14.795   2.929   3.976  1.00  0.00     0.311 A 
HETATM   14  C9  UNL     1      14.945   1.666   3.289  1.00  0.00     0.305 A 
HETATM   15  N3  UNL     1      15.323   1.790   4.701  1.00  0.00    -0.035 N 
ATOM     16  H32 UNL     1      16.165   1.604   5.247  1.00  0.00     0.280 HD
ATOM     17  H31 UNL     1      15.078   1.302   5.564  1.00  0.00     0.280 HD
BRANCH  13  18
HETATM   18  N2  UNL     1      13.447   3.322   4.354  1.00  0.00    -0.042 N 
ATOM     19  H23 UNL     1      13.482   4.049   5.070  1.00  0.00     0.277 HD
ATOM     20  H22 UNL     1      13.007   3.841   3.594  1.00  0.00     0.277 HD
ATOM     21  H21 UNL     1      12.838   2.562   4.657  1.00  0.00     0.277 HD
ENDBRANCH  13  18
ENDBRANCH   1  13
TORSDOF 6
ENDMDL
MODEL 2
REMARK VINA RESULT: -5.110771022      2.328      3.186
REMARK  6 active torsions:
REMARK  status: ('A' for Active; 'I' for Inactive)
REMARK    1  A    between atoms: O1_2  and  C2_3 
REMARK    2  A    between atoms: C2_3  and  N1_4 
REMARK    3  A    between atoms: C2_3  and  C3_8 
REMARK    4  A    between atoms: C5_10  and  C6_11 
REMARK    5  A    between atoms: C6_11  and  C8_13 
REMARK    6  A    between atoms: C8_13  and  N2_14 
ROOT
HETATM    1  C6  UNL     1      16.884   2.843   3.951  1.00  0.00     0.052 C 
HETATM    2  C7  UNL     1      15.448   2.549   3.570  1.00  0.00     0.015 C 
ENDROOT
BRANCH   1   3
HETATM    3  C5  UNL     1      17.485   3.613   2.816  1.00  0.00     0.002 A 
HETATM    4  C3  UNL     1      18.706   4.430   2.988  1.00  0.00     0.047 A 
HETATM    5  C4  UNL     1      17.349   5.124   2.967  1.00  0.00     0.015 A 
BRANCH   4   6
HETATM    6  C2  UNL     1      19.516   4.703   1.733  1.00  0.00     0.322 C 
BRANCH   6   7
HETATM    7  O1  UNL     1      19.469   6.063   1.434  1.00  0.00    -0.364 OA
HETATM    8  C1  UNL     1      20.442   6.375   0.511  1.00  0.00     0.204 C 
ENDBRANCH   6   7
BRANCH   6   9
HETATM    9  N1  UNL     1      20.923   4.409   2.047  1.00  0.00    -0.053 N 
ATOM     10  H13 UNL     1      21.062   3.495   2.478  1.00  0.00     0.277 HD
ATOM     11  H12 UNL     1      21.499   4.245   1.221  1.00  0.00     0.277 HD
ATOM     12  H11 UNL     1      21.248   5.186   2.623  1.00  0.00     0.277 HD
ENDBRANCH   6   9
ENDBRANCH   4   6
ENDBRANCH   1   3
BRANCH   1  13
HETATM   13  C8  UNL     1      17.582   1.514   4.177  1.00  0.00     0.311 A 
HETATM   14  C9  UNL     1      18.859   1.257   3.549  1.00  0.00     0.305 A 
HETATM   15  N3  UNL     1      18.780   1.512   4.992  1.00  0.00    -0.035 N 
ATOM     16  H32 UNL     1      19.220   2.168   5.638  1.00  0.00     0.280 HD
ATOM     17  H31 UNL     1      19.085   1.022   5.833  1.00  0.00     0.280 HD
BRANCH  13  18
HETATM   18  N2  UNL     1      16.701   0.374   4.381  1.00  0.00    -0.042 N 
ATOM     19  H23 UNL     1      16.224   0.458   5.279  1.00  0.00     0.277 HD
ATOM     20  H22 UNL     1      15.904   0.430   3.748  1.00  0.00     0.277 HD
ATOM     21  H21 UNL     1      17.146  -0.540   4.306  1.00  0.00     0.277 HD
ENDBRANCH  13  18
ENDBRANCH   1  13
TORSDOF 6
ENDMDL
MODEL 3
REMARK VINA RESULT: -5.086221111      2.090      2.320
REMARK  6 active torsions:
REMARK  status: ('A' for Active; 'I' for Inactive)
REMARK    1  A    between atoms: O1_2  and  C2_3 
REMARK    2  A    between atoms: C2_3  and  N1_4 
REMARK    3  A    between atoms: C2_3  and  C3_8 
REMARK    4  A    between atoms: C5_10  and  C6_11 
REMARK    5  A    between atoms: C6_11  and  C8_13 
REMARK    6  A    between atoms: C8_13  and  N2_14 
ROOT
HETATM    1  C6  UNL     1      15.737   3.572   3.915  1.00  0.00     0.052 C 
HETATM    2  C7  UNL     1      14.349   4.029   3.513  1.00  0.00     0.015 C 
ENDROOT
BRANCH   1   3
HETATM    3  C5  UNL     1      16.686   4.123   2.896  1.00  0.00     0.002 A 
HETATM    4  C3  UNL     1      18.082   4.470   3.239  1.00  0.00     0.047 A 
HETATM    5  C4  UNL     1      17.048   5.586   3.132  1.00  0.00     0.015 A 
BRANCH   4   6
HETATM    6  C2  UNL     1      19.074   4.488   2.089  1.00  0.00     0.322 C 
BRANCH   6   7
HETATM    7  O1  UNL     1      19.240   5.794   1.635  1.00  0.00    -0.364 OA
HETATM    8  C1  UNL     1      20.232   5.838   0.683  1.00  0.00     0.204 C 
ENDBRANCH   6   7
BRANCH   6   9
HETATM    9  N1  UNL     1      20.380   4.082   2.631  1.00  0.00    -0.053 N 
ATOM     10  H13 UNL     1      20.538   3.074   2.603  1.00  0.00     0.277 HD
ATOM     11  H12 UNL     1      21.167   4.346   2.038  1.00  0.00     0.277 HD
ATOM     12  H11 UNL     1      20.427   4.477   3.570  1.00  0.00     0.277 HD
ENDBRANCH   6   9
ENDBRANCH   4   6
ENDBRANCH   1   3
BRANCH   1  13
HETATM   13  C8  UNL     1      15.734   2.054   3.934  1.00  0.00     0.311 A 
HETATM   14  C9  UNL     1      16.964   1.336   4.181  1.00  0.00     0.305 A 
HETATM   15  N3  UNL     1      15.921   1.396   5.211  1.00  0.00    -0.035 N 
ATOM     16  H32 UNL     1      15.883   1.685   6.189  1.00  0.00     0.280 HD
ATOM     17  H31 UNL     1      15.400   0.709   5.757  1.00  0.00     0.280 HD
BRANCH  13  18
HETATM   18  N2  UNL     1      14.761   1.421   3.057  1.00  0.00    -0.042 N 
ATOM     19  H23 UNL     1      13.829   1.791   3.244  1.00  0.00     0.277 HD
ATOM     20  H22 UNL     1      14.893   1.742   2.098  1.00  0.00     0.277 HD
ATOM     21  H21 UNL     1      14.745   0.402   3.086  1.00  0.00     0.277 HD
ENDBRANCH  13  18
ENDBRANCH   1  13
TORSDOF 6
ENDMDL
MODEL 4
REMARK VINA RESULT: -5.062755143      2.537      4.786
REMARK  6 active torsions:
REMARK  status: ('A' for Active; 'I' for Inactive)
REMARK    1  A    between atoms: O1_2  and  C2_3 
REMARK    2  A    between atoms: C2_3  and  N1_4 
REMARK    3  A    between atoms: C2_3  and  C3_8 
REMARK    4  A    between atoms: C5_10  and  C6_11 
REMARK    5  A    between atoms: C6_11  and  C8_13 
REMARK    6  A    between atoms: C8_13  and  N2_14 
ROOT
HETATM    1  C6  UNL     1      18.092   3.341   3.261  1.00  0.00     0.052 C 
HETATM    2  C7  UNL     1      19.438   3.905   3.669  1.00  0.00     0.015 C 
ENDROOT
BRANCH   1   3
HETATM    3  C5  UNL     1      17.050   4.264   3.813  1.00  0.00     0.002 A 
HETATM    4  C3  UNL     1      15.782   4.525   3.096  1.00  0.00     0.047 A 
HETATM    5  C4  UNL     1      16.902   5.557   3.018  1.00  0.00     0.015 A 
BRANCH   4   6
HETATM    6  C2  UNL     1      14.615   4.999   3.945  1.00  0.00     0.322 C 
BRANCH   6   7
HETATM    7  O1  UNL     1      13.780   5.809   3.179  1.00  0.00    -0.364 OA
HETATM    8  C1  UNL     1      12.636   5.121   2.844  1.00  0.00     0.204 C 
ENDBRANCH   6   7
BRANCH   6   9
HETATM    9  N1  UNL     1      13.816   3.814   4.293  1.00  0.00    -0.053 N 
ATOM     10  H13 UNL     1      13.723   3.666   5.298  1.00  0.00     0.277 HD
ATOM     11  H12 UNL     1      12.822   3.919   4.091  1.00  0.00     0.277 HD
ATOM     12  H11 UNL     1      14.251   3.032   3.804  1.00  0.00     0.277 HD
ENDBRANCH   6   9
ENDBRANCH   4   6
ENDBRANCH   1   3
BRANCH   1  13
HETATM   13  C8  UNL     1      17.985   1.942   3.841  1.00  0.00     0.311 A 
HETATM   14  C9  UNL     1      17.375   1.746   5.137  1.00  0.00     0.305 A 
HETATM   15  N3  UNL     1      16.667   1.344   3.916  1.00  0.00    -0.035 N 
ATOM     16  H32 UNL     1      15.754   1.544   3.507  1.00  0.00     0.280 HD
ATOM     17  H31 UNL     1      16.241   0.481   3.575  1.00  0.00     0.280 HD
BRANCH  13  18
HETATM   18  N2  UNL     1      19.051   1.027   3.463  1.00  0.00    -0.042 N 
ATOM     19  H23 UNL     1      19.381   0.517   4.283  1.00  0.00     0.277 HD
ATOM     20  H22 UNL     1      18.673   0.257   2.912  1.00  0.00     0.277 HD
ATOM     21  H21 UNL     1      19.839   1.453   2.975  1.00  0.00     0.277 HD
ENDBRANCH  13  18
ENDBRANCH   1  13
TORSDOF 6
ENDMDL
MODEL 5
REMARK VINA RESULT: -5.015307592      2.042      2.583
REMARK  6 active torsions:
REMARK  status: ('A' for Active; 'I' for Inactive)
REMARK    1  A    between atoms: O1_2  and  C2_3 
REMARK    2  A    between atoms: C2_3  and  N1_4 
REMARK    3  A    between atoms: C2_3  and  C3_8 
REMARK    4  A    between atoms: C5_10  and  C6_11 
REMARK    5  A    between atoms: C6_11  and  C8_13 
REMARK    6  A    between atoms: C8_13  and  N2_14 
ROOT
HETATM    1  C6  UNL     1      16.824   3.028   3.885  1.00  0.00     0.052 C 
HETATM    2  C7  UNL     1      15.593   2.893   3.012  1.00  0.00     0.015 C 
ENDROOT
BRANCH   1   3
HETATM    3  C5  UNL     1      17.948   3.446   2.987  1.00  0.00     0.002 A 
HETATM    4  C3  UNL     1      19.116   4.195   3.498  1.00  0.00     0.047 A 
HETATM    5  C4  UNL     1      18.017   4.953   2.762  1.00  0.00     0.015 A 
BRANCH   4   6
HETATM    6  C2  UNL     1      20.393   4.090   2.682  1.00  0.00     0.322 C 
BRANCH   6   7
HETATM    7  O1  UNL     1      20.703   5.334   2.137  1.00  0.00    -0.364 OA
HETATM    8  C1  UNL     1      21.089   5.188   0.825  1.00  0.00     0.204 C 
ENDBRANCH   6   7
BRANCH   6   9
HETATM    9  N1  UNL     1      21.486   3.777   3.616  1.00  0.00    -0.053 N 
ATOM     10  H13 UNL     1      21.698   4.536   4.264  1.00  0.00     0.277 HD
ATOM     11  H12 UNL     1      21.234   3.082   4.319  1.00  0.00     0.277 HD
ATOM     12  H11 UNL     1      22.278   3.502   3.037  1.00  0.00     0.277 HD
ENDBRANCH   6   9
ENDBRANCH   4   6
ENDBRANCH   1   3
BRANCH   1  13
HETATM   13  C8  UNL     1      17.080   1.679   4.533  1.00  0.00     0.311 A 
HETATM   14  C9  UNL     1      18.024   0.762   3.936  1.00  0.00     0.305 A 
HETATM   15  N3  UNL     1      18.362   1.472   5.174  1.00  0.00    -0.035 N 
ATOM     16  H32 UNL     1      19.127   2.074   5.479  1.00  0.00     0.280 HD
ATOM     17  H31 UNL     1      18.672   1.197   6.107  1.00  0.00     0.280 HD
BRANCH  13  18
HETATM   18  N2  UNL     1      15.944   1.100   5.235  1.00  0.00    -0.042 N 
ATOM     19  H23 UNL     1      16.096   1.147   6.243  1.00  0.00     0.277 HD
ATOM     20  H22 UNL     1      15.130   1.709   5.147  1.00  0.00     0.277 HD
ATOM     21  H21 UNL     1      15.701   0.148   4.961  1.00  0.00     0.277 HD
ENDBRANCH  13  18
ENDBRANCH   1  13
TORSDOF 6
ENDMDL
