MODEL 1
REMARK VINA RESULT: -6.673839269      0.000      0.000
REMARK  5 active torsions:
REMARK  status: ('A' for Active; 'I' for Inactive)
REMARK    1  A    between atoms: C4_4  and  C5_5 
REMARK    2  A    between atoms: C6_9  and  N1_10 
REMARK    3  A    between atoms: C17_23  and  O3_25 
REMARK    4  A    between atoms: O3_25  and  C19_26 
REMARK    5  A    between atoms: C19_26  and  C20_28 
ROOT
HETATM    1  C1  UNL     1     -18.583  19.639 -15.147  1.00  0.00     0.014 C 
HETATM    2  C2  UNL     1     -19.113  18.689 -14.140  1.00  0.00     0.025 C 
HETATM    3  C3  UNL     1     -20.588  18.548 -14.020  1.00  0.00     0.017 C 
HETATM    4  C4  UNL     1     -21.437  19.756 -13.901  1.00  0.00     0.113 C 
HETATM    5  C6  UNL     1     -22.315  19.608 -12.700  1.00  0.00     0.233 C 
HETATM    6  C9  UNL     1     -22.994  18.286 -12.594  1.00  0.00     0.041 C 
HETATM    7  C10 UNL     1     -22.156  17.093 -12.918  1.00  0.00    -0.005 C 
HETATM    8  C11 UNL     1     -22.301  16.120 -11.732  1.00  0.00     0.011 C 
HETATM    9  C12 UNL     1     -20.707  17.481 -12.990  1.00  0.00    -0.001 C 
HETATM   10  C13 UNL     1     -20.206  17.670 -11.630  1.00  0.00     0.019 C 
HETATM   11  C14 UNL     1     -19.802  16.442 -13.644  1.00  0.00     0.119 C 
HETATM   12  C15 UNL     1     -20.450  15.358 -14.397  1.00  0.00     0.153 C 
HETATM   13  C16 UNL     1     -19.304  14.580 -13.858  1.00  0.00     0.262 C 
HETATM   14  O1  UNL     1     -18.607  13.591 -14.165  1.00  0.00    -0.265 OA
HETATM   15  O2  UNL     1     -19.284  15.459 -12.756  1.00  0.00    -0.305 OA
HETATM   16  C17 UNL     1     -18.723  17.255 -14.331  1.00  0.00     0.103 C 
HETATM   17  C18 UNL     1     -18.900  17.037 -15.871  1.00  0.00     0.050 C 
ENDROOT
BRANCH  16  18
HETATM   18  O3  UNL     1     -17.477  16.811 -14.162  1.00  0.00    -0.307 OA
BRANCH  18  19
HETATM   19  C19 UNL     1     -16.295  16.754 -14.762  1.00  0.00     0.264 C 
HETATM   20  O4  UNL     1     -15.708  17.841 -14.814  1.00  0.00    -0.265 OA
BRANCH  19  21
HETATM   21  C20 UNL     1     -15.656  15.532 -15.348  1.00  0.00     0.085 A 
HETATM   22  C21 UNL     1     -14.142  15.502 -15.241  1.00  0.00     0.015 A 
HETATM   23  C22 UNL     1     -14.918  14.679 -14.312  1.00  0.00     0.015 A 
ENDBRANCH  19  21
ENDBRANCH  18  19
ENDBRANCH  16  18
BRANCH   4  24
HETATM   24  C5  UNL     1     -22.269  19.967 -15.175  1.00  0.00     0.326 C 
HETATM   25  F1  UNL     1     -23.623  19.845 -14.949  1.00  0.00    -0.187 F 
HETATM   26  F2  UNL     1     -22.015  18.935 -16.098  1.00  0.00    -0.187 F 
HETATM   27 CL1  UNL     1     -21.867  21.444 -16.055  1.00  0.00    -0.048 Cl
ENDBRANCH   4  24
BRANCH   5  28
HETATM   28  N1  UNL     1     -23.259  20.671 -12.453  1.00  0.00     0.085 N 
HETATM   29  C7  UNL     1     -22.608  21.985 -12.516  1.00  0.00     0.309 C 
HETATM   30  C8  UNL     1     -23.734  20.537 -11.090  1.00  0.00     0.309 C 
ENDBRANCH   5  28
TORSDOF 5
ENDMDL
MODEL 2
REMARK VINA RESULT: -6.388091270      8.800     11.370
REMARK  5 active torsions:
REMARK  status: ('A' for Active; 'I' for Inactive)
REMARK    1  A    between atoms: C4_4  and  C5_5 
REMARK    2  A    between atoms: C6_9  and  N1_10 
REMARK    3  A    between atoms: C17_23  and  O3_25 
REMARK    4  A    between atoms: O3_25  and  C19_26 
REMARK    5  A    between atoms: C19_26  and  C20_28 
ROOT
HETATM    1  C1  UNL     1     -11.410  12.795 -18.856  1.00  0.00     0.014 C 
HETATM    2  C2  UNL     1     -12.874  12.557 -18.847  1.00  0.00     0.025 C 
HETATM    3  C3  UNL     1     -13.354  11.153 -18.760  1.00  0.00     0.017 C 
HETATM    4  C4  UNL     1     -12.798  10.127 -19.672  1.00  0.00     0.113 C 
HETATM    5  C6  UNL     1     -13.931   9.431 -20.357  1.00  0.00     0.233 C 
HETATM    6  C9  UNL     1     -15.033   9.009 -19.449  1.00  0.00     0.041 C 
HETATM    7  C10 UNL     1     -15.435   9.999 -18.405  1.00  0.00    -0.005 C 
HETATM    8  C11 UNL     1     -16.964  10.164 -18.522  1.00  0.00     0.011 C 
HETATM    9  C12 UNL     1     -14.829  11.341 -18.702  1.00  0.00    -0.001 C 
HETATM   10  C13 UNL     1     -15.567  11.954 -19.804  1.00  0.00     0.019 C 
HETATM   11  C14 UNL     1     -14.879  12.332 -17.544  1.00  0.00     0.119 C 
HETATM   12  C15 UNL     1     -15.204  11.800 -16.212  1.00  0.00     0.153 C 
HETATM   13  C16 UNL     1     -15.878  13.119 -16.080  1.00  0.00     0.262 C 
HETATM   14  O1  UNL     1     -16.184  13.937 -15.188  1.00  0.00    -0.265 OA
HETATM   15  O2  UNL     1     -16.066  13.112 -17.477  1.00  0.00    -0.305 OA
HETATM   16  C17 UNL     1     -13.624  13.166 -17.702  1.00  0.00     0.103 C 
HETATM   17  C18 UNL     1     -12.711  12.855 -16.469  1.00  0.00     0.050 C 
ENDROOT
BRANCH  16  18
HETATM   18  O3  UNL     1     -13.789  14.482 -17.558  1.00  0.00    -0.307 OA
BRANCH  18  19
HETATM   19  C19 UNL     1     -13.202  15.565 -17.064  1.00  0.00     0.264 C 
HETATM   20  O4  UNL     1     -13.676  15.941 -15.985  1.00  0.00    -0.265 OA
BRANCH  19  21
HETATM   21  C20 UNL     1     -12.069  16.321 -17.686  1.00  0.00     0.085 A 
HETATM   22  C21 UNL     1     -11.366  17.284 -16.746  1.00  0.00     0.015 A 
HETATM   23  C22 UNL     1     -10.711  16.011 -17.047  1.00  0.00     0.015 A 
ENDBRANCH  19  21
ENDBRANCH  18  19
ENDBRANCH  16  18
BRANCH   4  24
HETATM   24  C5  UNL     1     -11.919   9.130 -18.901  1.00  0.00     0.326 C 
HETATM   25  F1  UNL     1     -12.622   8.023 -18.476  1.00  0.00    -0.187 F 
HETATM   26  F2  UNL     1     -11.481   9.701 -17.692  1.00  0.00    -0.187 F 
HETATM   27 CL1  UNL     1     -10.428   8.695 -19.740  1.00  0.00    -0.048 Cl
ENDBRANCH   4  24
BRANCH   5  28
HETATM   28  N1  UNL     1     -13.583   8.351 -21.248  1.00  0.00     0.085 N 
HETATM   29  C7  UNL     1     -13.330   8.844 -22.607  1.00  0.00     0.309 C 
HETATM   30  C8  UNL     1     -14.736   7.479 -21.361  1.00  0.00     0.309 C 
ENDBRANCH   5  28
TORSDOF 5
ENDMDL
MODEL 3
REMARK VINA RESULT: -6.085279390      8.724     12.612
REMARK  5 active torsions:
REMARK  status: ('A' for Active; 'I' for Inactive)
REMARK    1  A    between atoms: C4_4  and  C5_5 
REMARK    2  A    between atoms: C6_9  and  N1_10 
REMARK    3  A    between atoms: C17_23  and  O3_25 
REMARK    4  A    between atoms: O3_25  and  C19_26 
REMARK    5  A    between atoms: C19_26  and  C20_28 
ROOT
HETATM    1  C1  UNL     1     -12.149  13.257 -18.121  1.00  0.00     0.014 C 
HETATM    2  C2  UNL     1     -12.975  12.363 -18.968  1.00  0.00     0.025 C 
HETATM    3  C3  UNL     1     -12.276  11.399 -19.857  1.00  0.00     0.017 C 
HETATM    4  C4  UNL     1     -11.182  11.870 -20.738  1.00  0.00     0.113 C 
HETATM    5  C6  UNL     1     -11.474  11.434 -22.139  1.00  0.00     0.233 C 
HETATM    6  C9  UNL     1     -11.884  10.008 -22.266  1.00  0.00     0.041 C 
HETATM    7  C10 UNL     1     -12.842   9.509 -21.234  1.00  0.00    -0.005 C 
HETATM    8  C11 UNL     1     -14.010   8.855 -21.998  1.00  0.00     0.011 C 
HETATM    9  C12 UNL     1     -13.418  10.660 -20.460  1.00  0.00    -0.001 C 
HETATM   10  C13 UNL     1     -14.410  11.334 -21.294  1.00  0.00     0.019 C 
HETATM   11  C14 UNL     1     -14.130  10.267 -19.171  1.00  0.00     0.119 C 
HETATM   12  C15 UNL     1     -13.914   8.902 -18.667  1.00  0.00     0.153 C 
HETATM   13  C16 UNL     1     -15.331   9.057 -18.245  1.00  0.00     0.262 C 
HETATM   14  O1  UNL     1     -16.103   8.638 -17.357  1.00  0.00    -0.265 OA
HETATM   15  O2  UNL     1     -15.507   9.947 -19.324  1.00  0.00    -0.305 OA
HETATM   16  C17 UNL     1     -13.888  11.431 -18.231  1.00  0.00     0.103 C 
HETATM   17  C18 UNL     1     -12.990  10.897 -17.065  1.00  0.00     0.050 C 
ENDROOT
BRANCH  16  18
HETATM   18  O3  UNL     1     -14.955  11.847 -17.548  1.00  0.00    -0.307 OA
BRANCH  18  19
HETATM   19  C19 UNL     1     -15.310  12.417 -16.403  1.00  0.00     0.264 C 
HETATM   20  O4  UNL     1     -15.760  11.622 -15.569  1.00  0.00    -0.265 OA
BRANCH  19  21
HETATM   21  C20 UNL     1     -15.210  13.873 -16.069  1.00  0.00     0.085 A 
HETATM   22  C21 UNL     1     -15.436  14.805 -17.246  1.00  0.00     0.015 A 
HETATM   23  C22 UNL     1     -16.522  14.635 -16.279  1.00  0.00     0.015 A 
ENDBRANCH  19  21
ENDBRANCH  18  19
ENDBRANCH  16  18
BRANCH   4  24
HETATM   24  C5  UNL     1      -9.825  11.330 -20.261  1.00  0.00     0.326 C 
HETATM   25  F1  UNL     1      -9.470  10.157 -20.891  1.00  0.00    -0.187 F 
HETATM   26  F2  UNL     1      -9.904  10.943 -18.910  1.00  0.00    -0.187 F 
HETATM   27 CL1  UNL     1      -8.528  12.527 -20.294  1.00  0.00    -0.048 Cl
ENDBRANCH   4  24
BRANCH   5  28
HETATM   28  N1  UNL     1     -10.483  11.755 -23.137  1.00  0.00     0.085 N 
HETATM   29  C7  UNL     1     -10.818  13.000 -23.838  1.00  0.00     0.309 C 
HETATM   30  C8  UNL     1     -10.519  10.718 -24.150  1.00  0.00     0.309 C 
ENDBRANCH   5  28
TORSDOF 5
ENDMDL
MODEL 4
REMARK VINA RESULT: -6.015297702      3.696      6.747
REMARK  5 active torsions:
REMARK  status: ('A' for Active; 'I' for Inactive)
REMARK    1  A    between atoms: C4_4  and  C5_5 
REMARK    2  A    between atoms: C6_9  and  N1_10 
REMARK    3  A    between atoms: C17_23  and  O3_25 
REMARK    4  A    between atoms: O3_25  and  C19_26 
REMARK    5  A    between atoms: C19_26  and  C20_28 
ROOT
HETATM    1  C1  UNL     1     -18.451  19.115 -15.521  1.00  0.00     0.014 C 
HETATM    2  C2  UNL     1     -19.033  17.779 -15.246  1.00  0.00     0.025 C 
HETATM    3  C3  UNL     1     -18.115  16.689 -14.826  1.00  0.00     0.017 C 
HETATM    4  C4  UNL     1     -16.881  16.425 -15.602  1.00  0.00     0.113 C 
HETATM    5  C6  UNL     1     -16.846  14.974 -15.966  1.00  0.00     0.233 C 
HETATM    6  C9  UNL     1     -17.151  14.050 -14.838  1.00  0.00     0.041 C 
HETATM    7  C10 UNL     1     -18.283  14.455 -13.950  1.00  0.00    -0.005 C 
HETATM    8  C11 UNL     1     -19.228  13.240 -13.863  1.00  0.00     0.011 C 
HETATM    9  C12 UNL     1     -19.065  15.570 -14.581  1.00  0.00    -0.001 C 
HETATM   10  C13 UNL     1     -19.887  15.016 -15.654  1.00  0.00     0.019 C 
HETATM   11  C14 UNL     1     -20.017  16.294 -13.635  1.00  0.00     0.119 C 
HETATM   12  C15 UNL     1     -19.849  16.057 -12.193  1.00  0.00     0.153 C 
HETATM   13  C16 UNL     1     -21.329  16.194 -12.211  1.00  0.00     0.262 C 
HETATM   14  O1  UNL     1     -22.252  16.557 -11.452  1.00  0.00    -0.265 OA
HETATM   15  O2  UNL     1     -21.313  15.716 -13.537  1.00  0.00    -0.305 OA
HETATM   16  C17 UNL     1     -20.037  17.725 -14.135  1.00  0.00     0.103 C 
HETATM   17  C18 UNL     1     -19.385  18.607 -13.019  1.00  0.00     0.050 C 
ENDROOT
BRANCH  16  18
HETATM   18  O3  UNL     1     -21.244  18.286 -14.218  1.00  0.00    -0.307 OA
BRANCH  18  19
HETATM   19  C19 UNL     1     -21.868  19.452 -14.108  1.00  0.00     0.264 C 
HETATM   20  O4  UNL     1     -21.905  20.099 -15.161  1.00  0.00    -0.265 OA
BRANCH  19  21
HETATM   21  C20 UNL     1     -22.495  20.009 -12.867  1.00  0.00     0.085 A 
HETATM   22  C21 UNL     1     -23.537  21.083 -13.118  1.00  0.00     0.015 A 
HETATM   23  C22 UNL     1     -23.999  19.738 -12.774  1.00  0.00     0.015 A 
ENDBRANCH  19  21
ENDBRANCH  18  19
ENDBRANCH  16  18
BRANCH   4  24
HETATM   24  C5  UNL     1     -15.634  16.827 -14.801  1.00  0.00     0.326 C 
HETATM   25  F1  UNL     1     -15.615  16.275 -13.538  1.00  0.00    -0.187 F 
HETATM   26  F2  UNL     1     -15.652  18.209 -14.533  1.00  0.00    -0.187 F 
HETATM   27 CL1  UNL     1     -14.116  16.572 -15.665  1.00  0.00    -0.048 Cl
ENDBRANCH   4  24
BRANCH   5  28
HETATM   28  N1  UNL     1     -15.680  14.514 -16.681  1.00  0.00     0.085 N 
HETATM   29  C7  UNL     1     -15.707  14.956 -18.080  1.00  0.00     0.309 C 
HETATM   30  C8  UNL     1     -15.731  13.066 -16.730  1.00  0.00     0.309 C 
ENDBRANCH   5  28
TORSDOF 5
ENDMDL
MODEL 5
REMARK VINA RESULT: -5.947853472      8.502     12.276
REMARK  5 active torsions:
REMARK  status: ('A' for Active; 'I' for Inactive)
REMARK    1  A    between atoms: C4_4  and  C5_5 
REMARK    2  A    between atoms: C6_9  and  N1_10 
REMARK    3  A    between atoms: C17_23  and  O3_25 
REMARK    4  A    between atoms: O3_25  and  C19_26 
REMARK    5  A    between atoms: C19_26  and  C20_28 
ROOT
HETATM    1  C1  UNL     1     -12.636  12.360 -17.190  1.00  0.00     0.014 C 
HETATM    2  C2  UNL     1     -13.465  11.910 -18.334  1.00  0.00     0.025 C 
HETATM    3  C3  UNL     1     -13.094  10.638 -19.008  1.00  0.00     0.017 C 
HETATM    4  C4  UNL     1     -11.692  10.407 -19.427  1.00  0.00     0.113 C 
HETATM    5  C6  UNL     1     -11.681  10.029 -20.874  1.00  0.00     0.233 C 
HETATM    6  C9  UNL     1     -12.682   8.990 -21.245  1.00  0.00     0.041 C 
HETATM    7  C10 UNL     1     -14.039   9.144 -20.640  1.00  0.00    -0.005 C 
HETATM    8  C11 UNL     1     -15.048   9.079 -21.803  1.00  0.00     0.011 C 
HETATM    9  C12 UNL     1     -14.178  10.504 -20.018  1.00  0.00    -0.001 C 
HETATM   10  C13 UNL     1     -14.359  11.488 -21.082  1.00  0.00     0.019 C 
HETATM   11  C14 UNL     1     -15.372  10.655 -19.081  1.00  0.00     0.119 C 
HETATM   12  C15 UNL     1     -16.049   9.425 -18.643  1.00  0.00     0.153 C 
HETATM   13  C16 UNL     1     -17.244  10.306 -18.714  1.00  0.00     0.262 C 
HETATM   14  O1  UNL     1     -18.365  10.422 -18.176  1.00  0.00    -0.265 OA
HETATM   15  O2  UNL     1     -16.582  11.046 -19.715  1.00  0.00    -0.305 OA
HETATM   16  C17 UNL     1     -14.905  11.638 -18.025  1.00  0.00     0.103 C 
HETATM   17  C18 UNL     1     -14.840  10.856 -16.671  1.00  0.00     0.050 C 
ENDROOT
BRANCH  16  18
HETATM   18  O3  UNL     1     -15.776  12.598 -17.712  1.00  0.00    -0.307 OA
BRANCH  18  19
HETATM   19  C19 UNL     1     -16.076  13.471 -16.759  1.00  0.00     0.264 C 
HETATM   20  O4  UNL     1     -17.235  13.373 -16.338  1.00  0.00    -0.265 OA
BRANCH  19  21
HETATM   21  C20 UNL     1     -15.160  14.511 -16.189  1.00  0.00     0.085 A 
HETATM   22  C21 UNL     1     -15.703  15.220 -14.962  1.00  0.00     0.015 A 
HETATM   23  C22 UNL     1     -14.686  14.186 -14.769  1.00  0.00     0.015 A 
ENDBRANCH  19  21
ENDBRANCH  18  19
ENDBRANCH  16  18
BRANCH   4  24
HETATM   24  C5  UNL     1     -11.035   9.320 -18.563  1.00  0.00     0.326 C 
HETATM   25  F1  UNL     1     -11.245   8.051 -19.059  1.00  0.00    -0.187 F 
HETATM   26  F2  UNL     1     -11.653   9.264 -17.299  1.00  0.00    -0.187 F 
HETATM   27 CL1  UNL     1      -9.334   9.625 -18.201  1.00  0.00    -0.048 Cl
ENDBRANCH   4  24
BRANCH   5  28
HETATM   28  N1  UNL     1     -10.397   9.707 -21.449  1.00  0.00     0.085 N 
HETATM   29  C7  UNL     1      -9.669  10.922 -21.835  1.00  0.00     0.309 C 
HETATM   30  C8  UNL     1     -10.631   8.986 -22.685  1.00  0.00     0.309 C 
ENDBRANCH   5  28
TORSDOF 5
ENDMDL
