MODEL 1
REMARK VINA RESULT: -8.729449754      0.000      0.000
REMARK  3 active torsions:
REMARK  status: ('A' for Active; 'I' for Inactive)
REMARK    1  A    between atoms: C3_3  and  S1_4 
REMARK    2  A    between atoms: S1_4  and  C4_7 
REMARK    3  A    between atoms: C12_18  and  N1_19 
ROOT
HETATM    1  C1  UNL     1     -21.048  17.450 -12.581  1.00  0.00     0.051 C 
HETATM    2  C2  UNL     1     -20.628  17.861 -13.943  1.00  0.00    -0.017 A 
HETATM    3  C3  UNL     1     -19.625  17.193 -14.589  1.00  0.00     0.071 A 
HETATM    4  C10 UNL     1     -19.301  17.681 -15.868  1.00  0.00     0.027 A 
HETATM    5  C11 UNL     1     -19.952  18.752 -16.417  1.00  0.00     0.039 A 
HETATM    6  C12 UNL     1     -20.975  19.431 -15.755  1.00  0.00     0.124 A 
HETATM    7  C13 UNL     1     -21.295  18.960 -14.507  1.00  0.00     0.085 A 
HETATM    8  C14 UNL     1     -22.341  19.623 -13.774  1.00  0.00     0.102 C 
HETATM    9  N2  UNL     1     -23.188  20.152 -13.157  1.00  0.00    -0.191 NA
ENDROOT
BRANCH   6  10
HETATM   10  N1  UNL     1     -21.622  20.539 -16.363  1.00  0.00    -0.114 N 
HETATM   11  O3  UNL     1     -21.097  21.664 -16.350  1.00  0.00    -0.532 OA
HETATM   12  O4  UNL     1     -22.834  20.403 -16.976  1.00  0.00    -0.532 OA
ENDBRANCH   6  10
BRANCH   3  13
HETATM   13  S1  UNL     1     -18.789  15.819 -13.939  1.00  0.00     0.207 S 
HETATM   14  O1  UNL     1     -18.467  16.067 -12.468  1.00  0.00    -0.217 OA
HETATM   15  O2  UNL     1     -19.670  14.576 -13.902  1.00  0.00    -0.217 OA
BRANCH  13  16
HETATM   16  C4  UNL     1     -17.309  15.406 -14.717  1.00  0.00     0.067 A 
HETATM   17  C5  UNL     1     -16.220  16.234 -14.570  1.00  0.00     0.049 A 
HETATM   18  C6  UNL     1     -15.004  15.931 -15.181  1.00  0.00     0.058 A 
HETATM   19 CL1  UNL     1     -13.623  17.004 -14.980  1.00  0.00    -0.082 Cl
HETATM   20  C7  UNL     1     -14.869  14.795 -15.944  1.00  0.00     0.073 A 
HETATM   21 CL2  UNL     1     -13.349  14.383 -16.726  1.00  0.00    -0.081 Cl
HETATM   22  C8  UNL     1     -15.952  13.958 -16.098  1.00  0.00     0.035 A 
HETATM   23 BR1  UNL     1     -15.788  12.357 -17.163  1.00  0.00    -0.049 Br
HETATM   24  C9  UNL     1     -17.135  14.279 -15.487  1.00  0.00     0.044 A 
ENDBRANCH  13  16
ENDBRANCH   3  13
TORSDOF 3
ENDMDL
MODEL 2
REMARK VINA RESULT: -8.682588987      1.325      1.873
REMARK  3 active torsions:
REMARK  status: ('A' for Active; 'I' for Inactive)
REMARK    1  A    between atoms: C3_3  and  S1_4 
REMARK    2  A    between atoms: S1_4  and  C4_7 
REMARK    3  A    between atoms: C12_18  and  N1_19 
ROOT
HETATM    1  C1  UNL     1     -21.032  17.426 -12.610  1.00  0.00     0.051 C 
HETATM    2  C2  UNL     1     -20.594  17.842 -13.965  1.00  0.00    -0.017 A 
HETATM    3  C3  UNL     1     -19.577  17.181 -14.597  1.00  0.00     0.071 A 
HETATM    4  C10 UNL     1     -19.237  17.674 -15.869  1.00  0.00     0.027 A 
HETATM    5  C11 UNL     1     -19.886  18.741 -16.427  1.00  0.00     0.039 A 
HETATM    6  C12 UNL     1     -20.924  19.413 -15.779  1.00  0.00     0.124 A 
HETATM    7  C13 UNL     1     -21.259  18.937 -14.538  1.00  0.00     0.085 A 
HETATM    8  C14 UNL     1     -22.320  19.592 -13.820  1.00  0.00     0.102 C 
HETATM    9  N2  UNL     1     -23.180  20.115 -13.215  1.00  0.00    -0.191 NA
ENDROOT
BRANCH   6  10
HETATM   10  N1  UNL     1     -21.568  20.517 -16.396  1.00  0.00    -0.114 N 
HETATM   11  O3  UNL     1     -21.045  21.643 -16.383  1.00  0.00    -0.532 OA
HETATM   12  O4  UNL     1     -22.776  20.377 -17.016  1.00  0.00    -0.532 OA
ENDBRANCH   6  10
BRANCH   3  13
HETATM   13  S1  UNL     1     -18.742  15.812 -13.936  1.00  0.00     0.207 S 
HETATM   14  O1  UNL     1     -18.406  16.077 -12.471  1.00  0.00    -0.217 OA
HETATM   15  O2  UNL     1     -19.628  14.573 -13.876  1.00  0.00    -0.217 OA
BRANCH  13  16
HETATM   16  C4  UNL     1     -17.271  15.382 -14.721  1.00  0.00     0.067 A 
HETATM   17  C5  UNL     1     -17.251  14.288 -15.556  1.00  0.00     0.049 A 
HETATM   18  C6  UNL     1     -16.081  13.911 -16.212  1.00  0.00     0.058 A 
HETATM   19 CL1  UNL     1     -16.077  12.509 -17.276  1.00  0.00    -0.082 Cl
HETATM   20  C7  UNL     1     -14.919  14.627 -16.039  1.00  0.00     0.073 A 
HETATM   21 CL2  UNL     1     -13.427  14.179 -16.853  1.00  0.00    -0.081 Cl
HETATM   22  C8  UNL     1     -14.927  15.724 -15.206  1.00  0.00     0.035 A 
HETATM   23 BR1  UNL     1     -13.311  16.746 -14.945  1.00  0.00    -0.049 Br
HETATM   24  C9  UNL     1     -16.090  16.073 -14.573  1.00  0.00     0.044 A 
ENDBRANCH  13  16
ENDBRANCH   3  13
TORSDOF 3
ENDMDL
MODEL 3
REMARK VINA RESULT: -7.702012501      4.932      7.284
REMARK  3 active torsions:
REMARK  status: ('A' for Active; 'I' for Inactive)
REMARK    1  A    between atoms: C3_3  and  S1_4 
REMARK    2  A    between atoms: S1_4  and  C4_7 
REMARK    3  A    between atoms: C12_18  and  N1_19 
ROOT
HETATM    1  C1  UNL     1     -19.018  14.094 -14.979  1.00  0.00     0.051 C 
HETATM    2  C2  UNL     1     -17.958  15.128 -14.917  1.00  0.00    -0.017 A 
HETATM    3  C3  UNL     1     -18.184  16.314 -14.274  1.00  0.00     0.071 A 
HETATM    4  C10 UNL     1     -17.113  17.225 -14.294  1.00  0.00     0.027 A 
HETATM    5  C11 UNL     1     -15.930  16.934 -14.916  1.00  0.00     0.039 A 
HETATM    6  C12 UNL     1     -15.702  15.723 -15.571  1.00  0.00     0.124 A 
HETATM    7  C13 UNL     1     -16.743  14.830 -15.556  1.00  0.00     0.085 A 
HETATM    8  C14 UNL     1     -16.568  13.565 -16.218  1.00  0.00     0.102 C 
HETATM    9  N2  UNL     1     -16.448  12.529 -16.756  1.00  0.00    -0.191 NA
ENDROOT
BRANCH   6  10
HETATM   10  N1  UNL     1     -14.459  15.464 -16.205  1.00  0.00    -0.114 N 
HETATM   11  O3  UNL     1     -13.411  15.400 -15.542  1.00  0.00    -0.532 OA
HETATM   12  O4  UNL     1     -14.376  15.281 -17.555  1.00  0.00    -0.532 OA
ENDBRANCH   6  10
BRANCH   3  13
HETATM   13  S1  UNL     1     -19.659  16.715 -13.455  1.00  0.00     0.207 S 
HETATM   14  O1  UNL     1     -20.581  15.498 -13.437  1.00  0.00    -0.217 OA
HETATM   15  O2  UNL     1     -19.433  17.008 -11.976  1.00  0.00    -0.217 OA
BRANCH  13  16
HETATM   16  C4  UNL     1     -20.559  18.020 -14.129  1.00  0.00     0.067 A 
HETATM   17  C5  UNL     1     -20.228  18.488 -15.380  1.00  0.00     0.049 A 
HETATM   18  C6  UNL     1     -20.936  19.539 -15.960  1.00  0.00     0.058 A 
HETATM   19 CL1  UNL     1     -20.496  20.123 -17.561  1.00  0.00    -0.082 Cl
HETATM   20  C7  UNL     1     -21.983  20.130 -15.292  1.00  0.00     0.073 A 
HETATM   21 CL2  UNL     1     -22.897  21.457 -15.997  1.00  0.00    -0.081 Cl
HETATM   22  C8  UNL     1     -22.324  19.670 -14.040  1.00  0.00     0.035 A 
HETATM   23 BR1  UNL     1     -23.789  20.482 -13.082  1.00  0.00    -0.049 Br
HETATM   24  C9  UNL     1     -21.612  18.636 -13.492  1.00  0.00     0.044 A 
ENDBRANCH  13  16
ENDBRANCH   3  13
TORSDOF 3
ENDMDL
MODEL 4
REMARK VINA RESULT: -7.594266197      4.902      7.262
REMARK  3 active torsions:
REMARK  status: ('A' for Active; 'I' for Inactive)
REMARK    1  A    between atoms: C3_3  and  S1_4 
REMARK    2  A    between atoms: S1_4  and  C4_7 
REMARK    3  A    between atoms: C12_18  and  N1_19 
ROOT
HETATM    1  C1  UNL     1     -17.457  17.665 -13.660  1.00  0.00     0.051 C 
HETATM    2  C2  UNL     1     -17.896  16.350 -14.185  1.00  0.00    -0.017 A 
HETATM    3  C3  UNL     1     -19.166  15.900 -13.948  1.00  0.00     0.071 A 
HETATM    4  C10 UNL     1     -19.465  14.633 -14.481  1.00  0.00     0.027 A 
HETATM    5  C11 UNL     1     -18.542  13.911 -15.187  1.00  0.00     0.039 A 
HETATM    6  C12 UNL     1     -17.248  14.374 -15.427  1.00  0.00     0.124 A 
HETATM    7  C13 UNL     1     -16.950  15.608 -14.909  1.00  0.00     0.085 A 
HETATM    8  C14 UNL     1     -15.629  16.137 -15.122  1.00  0.00     0.102 C 
HETATM    9  N2  UNL     1     -14.555  16.586 -15.280  1.00  0.00    -0.191 NA
ENDROOT
BRANCH   6  10
HETATM   10  N1  UNL     1     -16.322  13.589 -16.163  1.00  0.00    -0.114 N 
HETATM   11  O3  UNL     1     -15.745  12.626 -15.633  1.00  0.00    -0.532 OA
HETATM   12  O4  UNL     1     -16.037  13.868 -17.469  1.00  0.00    -0.532 OA
ENDBRANCH   6  10
BRANCH   3  13
HETATM   13  S1  UNL     1     -20.373  16.790 -13.078  1.00  0.00     0.207 S 
HETATM   14  O1  UNL     1     -21.536  15.866 -12.727  1.00  0.00    -0.217 OA
HETATM   15  O2  UNL     1     -19.871  17.257 -11.716  1.00  0.00    -0.217 OA
BRANCH  13  16
HETATM   16  C4  UNL     1     -21.038  18.149 -13.899  1.00  0.00     0.067 A 
HETATM   17  C5  UNL     1     -20.583  18.461 -15.160  1.00  0.00     0.049 A 
HETATM   18  C6  UNL     1     -21.101  19.551 -15.857  1.00  0.00     0.058 A 
HETATM   19 CL1  UNL     1     -20.504  19.932 -17.469  1.00  0.00    -0.082 Cl
HETATM   20  C7  UNL     1     -22.080  20.338 -15.298  1.00  0.00     0.073 A 
HETATM   21 CL2  UNL     1     -22.755  21.719 -16.153  1.00  0.00    -0.081 Cl
HETATM   22  C8  UNL     1     -22.544  20.036 -14.038  1.00  0.00     0.035 A 
HETATM   23 BR1  UNL     1     -23.918  21.126 -13.230  1.00  0.00    -0.049 Br
HETATM   24  C9  UNL     1     -22.018  18.960 -13.373  1.00  0.00     0.044 A 
ENDBRANCH  13  16
ENDBRANCH   3  13
TORSDOF 3
ENDMDL
MODEL 5
REMARK VINA RESULT: -7.479020472      5.116      7.304
REMARK  3 active torsions:
REMARK  status: ('A' for Active; 'I' for Inactive)
REMARK    1  A    between atoms: C3_3  and  S1_4 
REMARK    2  A    between atoms: S1_4  and  C4_7 
REMARK    3  A    between atoms: C12_18  and  N1_19 
ROOT
HETATM    1  C1  UNL     1     -17.559  17.918 -13.631  1.00  0.00     0.051 C 
HETATM    2  C2  UNL     1     -18.017  16.553 -13.985  1.00  0.00    -0.017 A 
HETATM    3  C3  UNL     1     -19.260  16.121 -13.610  1.00  0.00     0.071 A 
HETATM    4  C10 UNL     1     -19.579  14.804 -13.987  1.00  0.00     0.027 A 
HETATM    5  C11 UNL     1     -18.700  14.018 -14.680  1.00  0.00     0.039 A 
HETATM    6  C12 UNL     1     -17.433  14.462 -15.061  1.00  0.00     0.124 A 
HETATM    7  C13 UNL     1     -17.115  15.746 -14.697  1.00  0.00     0.085 A 
HETATM    8  C14 UNL     1     -15.821  16.258 -15.059  1.00  0.00     0.102 C 
HETATM    9  N2  UNL     1     -14.768  16.694 -15.341  1.00  0.00    -0.191 NA
ENDROOT
BRANCH   6  10
HETATM   10  N1  UNL     1     -16.552  13.611 -15.779  1.00  0.00    -0.114 N 
HETATM   11  O3  UNL     1     -16.395  13.750 -17.003  1.00  0.00    -0.532 OA
HETATM   12  O4  UNL     1     -15.856  12.620 -15.150  1.00  0.00    -0.532 OA
ENDBRANCH   6  10
BRANCH   3  13
HETATM   13  S1  UNL     1     -20.413  17.089 -12.750  1.00  0.00     0.207 S 
HETATM   14  O1  UNL     1     -21.522  16.195 -12.200  1.00  0.00    -0.217 OA
HETATM   15  O2  UNL     1     -19.813  17.717 -11.497  1.00  0.00    -0.217 OA
BRANCH  13  16
HETATM   16  C4  UNL     1     -21.174  18.335 -13.662  1.00  0.00     0.067 A 
HETATM   17  C5  UNL     1     -22.245  19.007 -13.118  1.00  0.00     0.049 A 
HETATM   18  C6  UNL     1     -22.885  20.024 -13.824  1.00  0.00     0.058 A 
HETATM   19 CL1  UNL     1     -24.252  20.870 -13.110  1.00  0.00    -0.082 Cl
HETATM   20  C7  UNL     1     -22.456  20.378 -15.083  1.00  0.00     0.073 A 
HETATM   21 CL2  UNL     1     -23.240  21.658 -15.999  1.00  0.00    -0.081 Cl
HETATM   22  C8  UNL     1     -21.386  19.714 -15.637  1.00  0.00     0.035 A 
HETATM   23 BR1  UNL     1     -20.765  20.192 -17.401  1.00  0.00    -0.049 Br
HETATM   24  C9  UNL     1     -20.775  18.718 -14.922  1.00  0.00     0.044 A 
ENDBRANCH  13  16
ENDBRANCH   3  13
TORSDOF 3
ENDMDL
