MODEL 1
REMARK VINA RESULT: -7.888278374      0.000      0.000
REMARK  13 active torsions:
REMARK  status: ('A' for Active; 'I' for Inactive)
REMARK    1  A    between atoms: C2_2  and  C3_3 
REMARK    2  A    between atoms: C3_3  and  C4_4 
REMARK    3  A    between atoms: C4_4  and  C5_5 
REMARK    4  A    between atoms: C5_5  and  N1_6 
REMARK    5  A    between atoms: C5_5  and  C19_24 
REMARK    6  A    between atoms: N1_6  and  C6_8 
REMARK    7  A    between atoms: C6_8  and  C7_10 
REMARK    8  A    between atoms: C7_10  and  C8_11 
REMARK       I    between atoms: C19_24  and  N5_26 
REMARK    9  A    between atoms: N5_26  and  C20_28 
REMARK   10  A    between atoms: C21_33  and  N8_34 
REMARK   11  A    between atoms: N8_34  and  C22_36 
REMARK   12  A    between atoms: C22_36  and  C23_37 
REMARK   13  A    between atoms: C23_37  and  N9_40 
ROOT
HETATM    1  C5  UNL     1      15.927   2.661  19.474  1.00  0.00     0.099 C 
ENDROOT
BRANCH   1   2
HETATM    2  C4  UNL     1      17.106   2.069  19.568  1.00  0.00     0.008 C 
BRANCH   2   3
HETATM    3  C3  UNL     1      18.306   2.523  18.861  1.00  0.00     0.029 C 
BRANCH   3   4
HETATM    4  C2  UNL     1      18.746   1.460  17.883  1.00  0.00    -0.001 C 
HETATM    5  C1  UNL     1      20.130   1.610  17.369  1.00  0.00     0.005 C 
ENDBRANCH   3   4
ENDBRANCH   2   3
ENDBRANCH   1   2
BRANCH   1   6
HETATM    6  N1  UNL     1      15.538   3.598  20.420  1.00  0.00    -0.341 N 
ATOM      7  H1  UNL     1      14.922   3.260  21.159  1.00  0.00     0.167 HD
BRANCH   6   8
HETATM    8  C6  UNL     1      15.867   4.870  20.478  1.00  0.00     0.115 C 
HETATM    9  N2  UNL     1      15.164   5.692  19.580  1.00  0.00    -0.083 NA
BRANCH   8  10
HETATM   10  C7  UNL     1      16.844   5.360  21.428  1.00  0.00     0.052 C 
BRANCH  10  11
HETATM   11  C8  UNL     1      16.545   5.628  22.837  1.00  0.00     0.222 C 
HETATM   12  C9  UNL     1      16.160   7.102  23.029  1.00  0.00     0.066 C 
HETATM   13  C10 UNL     1      15.087   7.478  23.958  1.00  0.00     0.244 C 
HETATM   14  N3  UNL     1      15.262   8.012  25.236  1.00  0.00    -0.055 N 
HETATM   15  C11 UNL     1      14.808   9.456  25.103  1.00  0.00     0.277 C 
HETATM   16  C12 UNL     1      14.149   7.525  26.091  1.00  0.00     0.277 C 
HETATM   17  C13 UNL     1      16.363   8.151  26.047  1.00  0.00     0.201 C 
HETATM   18  C14 UNL     1      16.983   7.079  26.871  1.00  0.00     0.026 C 
HETATM   19  C15 UNL     1      17.386   5.903  26.326  1.00  0.00     0.026 C 
HETATM   20  C16 UNL     1      17.167   5.786  24.955  1.00  0.00     0.202 C 
HETATM   21  N4  UNL     1      17.555   5.154  23.790  1.00  0.00    -0.047 N 
HETATM   22  C17 UNL     1      17.407   3.726  24.006  1.00  0.00     0.279 C 
HETATM   23  C18 UNL     1      18.897   5.503  23.452  1.00  0.00     0.279 C 
ENDBRANCH  10  11
ENDBRANCH   8  10
ENDBRANCH   6   8
ENDBRANCH   1   6
BRANCH   1  24
HETATM   24  C19 UNL     1      15.080   2.255  18.334  1.00  0.00     0.286 C 
HETATM   25  O1  UNL     1      15.124   1.063  17.937  1.00  0.00    -0.265 OA
HETATM   26  N5  UNL     1      14.210   3.106  17.644  1.00  0.00    -0.152 N 
ATOM     27  H5  UNL     1      14.629   3.744  16.967  1.00  0.00     0.187 HD
BRANCH  26  28
HETATM   28  C20 UNL     1      12.949   3.161  17.778  1.00  0.00     0.714 A 
HETATM   29  N6  UNL     1      12.158   2.698  18.764  1.00  0.00    -0.117 N 
HETATM   30  N7  UNL     1      10.891   2.964  18.517  1.00  0.00    -0.117 N 
ATOM     31  H6  UNL     1      12.495   2.205  19.591  1.00  0.00     0.206 HD
HETATM   32  C21 UNL     1      10.866   3.618  17.338  1.00  0.00     0.707 A 
ATOM     33  H7  UNL     1      10.090   2.724  19.102  1.00  0.00     0.206 HD
HETATM   34  N10 UNL     1      12.119   3.737  16.892  1.00  0.00    -0.020 N 
ATOM     35  H10 UNL     1      12.399   4.189  16.022  1.00  0.00     0.203 HD
BRANCH  32  36
HETATM   36  N8  UNL     1       9.818   4.067  16.721  1.00  0.00    -0.222 N 
ATOM     37  H8  UNL     1       9.946   4.848  16.078  1.00  0.00     0.177 HD
BRANCH  36  38
HETATM   38  C22 UNL     1       8.495   3.548  16.875  1.00  0.00     0.175 C 
BRANCH  38  39
HETATM   39  C23 UNL     1       7.872   3.137  15.556  1.00  0.00     0.133 C 
HETATM   40  C24 UNL     1       7.599   4.392  14.764  1.00  0.00     0.047 C 
HETATM   41  C25 UNL     1       6.613   2.350  15.741  1.00  0.00     0.047 C 
BRANCH  39  42
HETATM   42  N9  UNL     1       8.823   2.278  14.856  1.00  0.00    -0.070 N 
ATOM     43  H93 UNL     1       9.630   2.790  14.499  1.00  0.00     0.275 HD
ATOM     44  H92 UNL     1       9.327   1.652  15.484  1.00  0.00     0.275 HD
ATOM     45  H91 UNL     1       8.318   1.779  14.123  1.00  0.00     0.275 HD
ENDBRANCH  39  42
ENDBRANCH  38  39
ENDBRANCH  36  38
ENDBRANCH  32  36
ENDBRANCH  26  28
ENDBRANCH   1  24
TORSDOF 13
ENDMDL
MODEL 2
REMARK VINA RESULT: -7.635712788      5.278      8.217
REMARK  13 active torsions:
REMARK  status: ('A' for Active; 'I' for Inactive)
REMARK    1  A    between atoms: C2_2  and  C3_3 
REMARK    2  A    between atoms: C3_3  and  C4_4 
REMARK    3  A    between atoms: C4_4  and  C5_5 
REMARK    4  A    between atoms: C5_5  and  N1_6 
REMARK    5  A    between atoms: C5_5  and  C19_24 
REMARK    6  A    between atoms: N1_6  and  C6_8 
REMARK    7  A    between atoms: C6_8  and  C7_10 
REMARK    8  A    between atoms: C7_10  and  C8_11 
REMARK       I    between atoms: C19_24  and  N5_26 
REMARK    9  A    between atoms: N5_26  and  C20_28 
REMARK   10  A    between atoms: C21_33  and  N8_34 
REMARK   11  A    between atoms: N8_34  and  C22_36 
REMARK   12  A    between atoms: C22_36  and  C23_37 
REMARK   13  A    between atoms: C23_37  and  N9_40 
ROOT
HETATM    1  C5  UNL     1      16.692   7.012  23.272  1.00  0.00     0.099 C 
ENDROOT
BRANCH   1   2
HETATM    2  C4  UNL     1      15.841   7.768  23.945  1.00  0.00     0.008 C 
BRANCH   2   3
HETATM    3  C3  UNL     1      15.962   9.223  24.066  1.00  0.00     0.029 C 
BRANCH   3   4
HETATM    4  C2  UNL     1      14.806   9.885  23.355  1.00  0.00    -0.001 C 
HETATM    5  C1  UNL     1      14.456  11.241  23.846  1.00  0.00     0.005 C 
ENDBRANCH   3   4
ENDBRANCH   2   3
ENDBRANCH   1   2
BRANCH   1   6
HETATM    6  N1  UNL     1      18.035   6.990  23.619  1.00  0.00    -0.341 N 
ATOM      7  H1  UNL     1      18.561   7.842  23.424  1.00  0.00     0.167 HD
BRANCH   6   8
HETATM    8  C6  UNL     1      18.711   6.005  24.168  1.00  0.00     0.115 C 
HETATM    9  N2  UNL     1      19.525   5.291  23.272  1.00  0.00    -0.083 NA
BRANCH   8  10
HETATM   10  C7  UNL     1      18.635   5.730  25.588  1.00  0.00     0.052 C 
BRANCH  10  11
HETATM   11  C8  UNL     1      19.084   6.665  26.623  1.00  0.00     0.222 C 
HETATM   12  C9  UNL     1      20.496   6.296  27.100  1.00  0.00     0.066 C 
HETATM   13  C10 UNL     1      21.480   7.343  27.398  1.00  0.00     0.244 C 
HETATM   14  N3  UNL     1      21.847   7.780  28.672  1.00  0.00    -0.055 N 
HETATM   15  C11 UNL     1      23.265   7.262  28.850  1.00  0.00     0.277 C 
HETATM   16  C12 UNL     1      22.168   9.227  28.584  1.00  0.00     0.277 C 
HETATM   17  C13 UNL     1      21.322   7.558  29.923  1.00  0.00     0.201 C 
HETATM   18  C14 UNL     1      20.126   8.228  30.501  1.00  0.00     0.026 C 
HETATM   19  C15 UNL     1      18.927   8.218  29.865  1.00  0.00     0.026 C 
HETATM   20  C16 UNL     1      18.914   7.545  28.646  1.00  0.00     0.202 C 
HETATM   21  N4  UNL     1      18.132   6.888  27.717  1.00  0.00    -0.047 N 
HETATM   22  C17 UNL     1      17.095   7.813  27.296  1.00  0.00     0.279 C 
HETATM   23  C18 UNL     1      17.583   5.695  28.276  1.00  0.00     0.279 C 
ENDBRANCH  10  11
ENDBRANCH   8  10
ENDBRANCH   6   8
ENDBRANCH   1   6
BRANCH   1  24
HETATM   24  C19 UNL     1      16.128   6.229  22.153  1.00  0.00     0.286 C 
HETATM   25  O1  UNL     1      15.103   6.656  21.566  1.00  0.00    -0.265 OA
HETATM   26  N5  UNL     1      16.654   5.020  21.680  1.00  0.00    -0.152 N 
ATOM     27  H5  UNL     1      16.451   4.184  22.228  1.00  0.00     0.187 HD
BRANCH  26  28
HETATM   28  C20 UNL     1      17.358   4.866  20.636  1.00  0.00     0.714 A 
HETATM   29  N6  UNL     1      17.177   5.335  19.388  1.00  0.00    -0.117 N 
HETATM   30  N7  UNL     1      18.148   4.940  18.589  1.00  0.00    -0.117 N 
ATOM     31  H6  UNL     1      16.392   5.919  19.098  1.00  0.00     0.206 HD
HETATM   32  C21 UNL     1      18.978   4.194  19.346  1.00  0.00     0.707 A 
ATOM     33  H7  UNL     1      18.251   5.155  17.597  1.00  0.00     0.206 HD
HETATM   34  N10 UNL     1      18.495   4.152  20.590  1.00  0.00    -0.020 N 
ATOM     35  H10 UNL     1      18.919   3.658  21.375  1.00  0.00     0.203 HD
BRANCH  32  36
HETATM   36  N8  UNL     1      20.067   3.607  18.957  1.00  0.00    -0.222 N 
ATOM     37  H8  UNL     1      20.640   4.088  18.264  1.00  0.00     0.177 HD
BRANCH  36  38
HETATM   38  C22 UNL     1      20.523   2.337  19.427  1.00  0.00     0.175 C 
BRANCH  38  39
HETATM   39  C23 UNL     1      20.952   1.418  18.301  1.00  0.00     0.133 C 
HETATM   40  C24 UNL     1      19.760   1.200  17.403  1.00  0.00     0.047 C 
HETATM   41  C25 UNL     1      21.477   0.110  18.803  1.00  0.00     0.047 C 
BRANCH  39  42
HETATM   42  N9  UNL     1      22.038   2.071  17.573  1.00  0.00    -0.070 N 
ATOM     43  H93 UNL     1      21.763   2.972  17.179  1.00  0.00     0.275 HD
ATOM     44  H92 UNL     1      22.776   2.412  18.188  1.00  0.00     0.275 HD
ATOM     45  H91 UNL     1      22.381   1.420  16.867  1.00  0.00     0.275 HD
ENDBRANCH  39  42
ENDBRANCH  38  39
ENDBRANCH  36  38
ENDBRANCH  32  36
ENDBRANCH  26  28
ENDBRANCH   1  24
TORSDOF 13
ENDMDL
MODEL 3
REMARK VINA RESULT: -7.632380037      5.285      8.359
REMARK  13 active torsions:
REMARK  status: ('A' for Active; 'I' for Inactive)
REMARK    1  A    between atoms: C2_2  and  C3_3 
REMARK    2  A    between atoms: C3_3  and  C4_4 
REMARK    3  A    between atoms: C4_4  and  C5_5 
REMARK    4  A    between atoms: C5_5  and  N1_6 
REMARK    5  A    between atoms: C5_5  and  C19_24 
REMARK    6  A    between atoms: N1_6  and  C6_8 
REMARK    7  A    between atoms: C6_8  and  C7_10 
REMARK    8  A    between atoms: C7_10  and  C8_11 
REMARK       I    between atoms: C19_24  and  N5_26 
REMARK    9  A    between atoms: N5_26  and  C20_28 
REMARK   10  A    between atoms: C21_33  and  N8_34 
REMARK   11  A    between atoms: N8_34  and  C22_36 
REMARK   12  A    between atoms: C22_36  and  C23_37 
REMARK   13  A    between atoms: C23_37  and  N9_40 
ROOT
HETATM    1  C5  UNL     1      16.431   7.735  23.595  1.00  0.00     0.099 C 
ENDROOT
BRANCH   1   2
HETATM    2  C4  UNL     1      15.476   8.556  23.191  1.00  0.00     0.008 C 
BRANCH   2   3
HETATM    3  C3  UNL     1      15.465   9.995  23.466  1.00  0.00     0.029 C 
BRANCH   3   4
HETATM    4  C2  UNL     1      14.475  10.291  24.566  1.00  0.00    -0.001 C 
HETATM    5  C1  UNL     1      13.972  11.686  24.605  1.00  0.00     0.005 C 
ENDBRANCH   3   4
ENDBRANCH   2   3
ENDBRANCH   1   2
BRANCH   1   6
HETATM    6  N1  UNL     1      17.510   8.221  24.319  1.00  0.00    -0.341 N 
ATOM      7  H1  UNL     1      18.084   8.923  23.853  1.00  0.00     0.167 HD
BRANCH   6   8
HETATM    8  C6  UNL     1      17.881   7.885  25.536  1.00  0.00     0.115 C 
HETATM    9  N2  UNL     1      16.981   8.272  26.543  1.00  0.00    -0.083 NA
BRANCH   8  10
HETATM   10  C7  UNL     1      19.100   7.143  25.780  1.00  0.00     0.052 C 
BRANCH  10  11
HETATM   11  C8  UNL     1      19.703   6.983  27.106  1.00  0.00     0.222 C 
HETATM   12  C9  UNL     1      20.843   7.994  27.298  1.00  0.00     0.066 C 
HETATM   13  C10 UNL     1      21.041   8.657  28.593  1.00  0.00     0.244 C 
HETATM   14  N3  UNL     1      22.017   8.331  29.537  1.00  0.00    -0.055 N 
HETATM   15  C11 UNL     1      22.988   9.501  29.490  1.00  0.00     0.277 C 
HETATM   16  C12 UNL     1      21.452   8.589  30.886  1.00  0.00     0.277 C 
HETATM   17  C13 UNL     1      22.883   7.270  29.658  1.00  0.00     0.201 C 
HETATM   18  C14 UNL     1      22.540   5.916  30.170  1.00  0.00     0.026 C 
HETATM   19  C15 UNL     1      21.530   5.186  29.632  1.00  0.00     0.026 C 
HETATM   20  C16 UNL     1      20.851   5.803  28.584  1.00  0.00     0.202 C 
HETATM   21  N4  UNL     1      20.069   5.608  27.464  1.00  0.00    -0.047 N 
HETATM   22  C17 UNL     1      18.891   4.871  27.884  1.00  0.00     0.279 C 
HETATM   23  C18 UNL     1      20.799   4.909  26.456  1.00  0.00     0.279 C 
ENDBRANCH  10  11
ENDBRANCH   8  10
ENDBRANCH   6   8
ENDBRANCH   1   6
BRANCH   1  24
HETATM   24  C19 UNL     1      16.276   6.315  23.219  1.00  0.00     0.286 C 
HETATM   25  O1  UNL     1      15.181   5.742  23.442  1.00  0.00    -0.265 OA
HETATM   26  N5  UNL     1      17.273   5.536  22.619  1.00  0.00    -0.152 N 
ATOM     27  H5  UNL     1      18.011   5.184  23.228  1.00  0.00     0.187 HD
BRANCH  26  28
HETATM   28  C20 UNL     1      17.345   5.225  21.391  1.00  0.00     0.714 A 
HETATM   29  N6  UNL     1      16.572   5.596  20.353  1.00  0.00    -0.117 N 
HETATM   30  N7  UNL     1      16.991   5.044  19.231  1.00  0.00    -0.117 N 
ATOM     31  H6  UNL     1      15.769   6.221  20.425  1.00  0.00     0.206 HD
HETATM   32  C21 UNL     1      18.065   4.297  19.558  1.00  0.00     0.707 A 
ATOM     33  H7  UNL     1      16.585   5.160  18.303  1.00  0.00     0.206 HD
HETATM   34  N10 UNL     1      18.277   4.410  20.871  1.00  0.00    -0.020 N 
ATOM     35  H10 UNL     1      19.024   3.952  21.394  1.00  0.00     0.203 HD
BRANCH  32  36
HETATM   36  N8  UNL     1      18.786   3.581  18.753  1.00  0.00    -0.222 N 
ATOM     37  H8  UNL     1      18.519   3.564  17.768  1.00  0.00     0.177 HD
BRANCH  36  38
HETATM   38  C22 UNL     1      19.928   2.815  19.142  1.00  0.00     0.175 C 
BRANCH  38  39
HETATM   39  C23 UNL     1      20.391   1.864  18.055  1.00  0.00     0.133 C 
HETATM   40  C24 UNL     1      19.432   1.985  16.897  1.00  0.00     0.047 C 
HETATM   41  C25 UNL     1      20.463   0.448  18.531  1.00  0.00     0.047 C 
BRANCH  39  42
HETATM   42  N9  UNL     1      21.740   2.257  17.655  1.00  0.00    -0.070 N 
ATOM     43  H93 UNL     1      21.766   3.167  17.195  1.00  0.00     0.275 HD
ATOM     44  H92 UNL     1      22.335   2.490  18.450  1.00  0.00     0.275 HD
ATOM     45  H91 UNL     1      22.128   1.512  17.077  1.00  0.00     0.275 HD
ENDBRANCH  39  42
ENDBRANCH  38  39
ENDBRANCH  36  38
ENDBRANCH  32  36
ENDBRANCH  26  28
ENDBRANCH   1  24
TORSDOF 13
ENDMDL
MODEL 4
REMARK VINA RESULT: -7.572935791      4.210      6.475
REMARK  13 active torsions:
REMARK  status: ('A' for Active; 'I' for Inactive)
REMARK    1  A    between atoms: C2_2  and  C3_3 
REMARK    2  A    between atoms: C3_3  and  C4_4 
REMARK    3  A    between atoms: C4_4  and  C5_5 
REMARK    4  A    between atoms: C5_5  and  N1_6 
REMARK    5  A    between atoms: C5_5  and  C19_24 
REMARK    6  A    between atoms: N1_6  and  C6_8 
REMARK    7  A    between atoms: C6_8  and  C7_10 
REMARK    8  A    between atoms: C7_10  and  C8_11 
REMARK       I    between atoms: C19_24  and  N5_26 
REMARK    9  A    between atoms: N5_26  and  C20_28 
REMARK   10  A    between atoms: C21_33  and  N8_34 
REMARK   11  A    between atoms: N8_34  and  C22_36 
REMARK   12  A    between atoms: C22_36  and  C23_37 
REMARK   13  A    between atoms: C23_37  and  N9_40 
ROOT
HETATM    1  C5  UNL     1      22.389   2.235  21.581  1.00  0.00     0.099 C 
ENDROOT
BRANCH   1   2
HETATM    2  C4  UNL     1      23.624   2.695  21.691  1.00  0.00     0.008 C 
BRANCH   2   3
HETATM    3  C3  UNL     1      24.385   2.699  22.943  1.00  0.00     0.029 C 
BRANCH   3   4
HETATM    4  C2  UNL     1      24.834   4.106  23.255  1.00  0.00    -0.001 C 
HETATM    5  C1  UNL     1      24.846   5.036  22.099  1.00  0.00     0.005 C 
ENDBRANCH   3   4
ENDBRANCH   2   3
ENDBRANCH   1   2
BRANCH   1   6
HETATM    6  N1  UNL     1      21.461   2.476  22.583  1.00  0.00    -0.341 N 
ATOM      7  H1  UNL     1      21.615   1.984  23.464  1.00  0.00     0.167 HD
BRANCH   6   8
HETATM    8  C6  UNL     1      20.407   3.261  22.536  1.00  0.00     0.115 C 
HETATM    9  N2  UNL     1      19.370   2.791  21.713  1.00  0.00    -0.083 NA
BRANCH   8  10
HETATM   10  C7  UNL     1      20.334   4.482  23.313  1.00  0.00     0.052 C 
BRANCH  10  11
HETATM   11  C8  UNL     1      19.144   4.902  24.057  1.00  0.00     0.222 C 
HETATM   12  C9  UNL     1      18.741   6.329  23.657  1.00  0.00     0.066 C 
HETATM   13  C10 UNL     1      17.325   6.691  23.513  1.00  0.00     0.244 C 
HETATM   14  N3  UNL     1      16.569   7.413  24.439  1.00  0.00    -0.055 N 
HETATM   15  C11 UNL     1      16.341   8.758  23.767  1.00  0.00     0.277 C 
HETATM   16  C12 UNL     1      15.172   6.914  24.376  1.00  0.00     0.277 C 
HETATM   17  C13 UNL     1      16.802   7.798  25.738  1.00  0.00     0.201 C 
HETATM   18  C14 UNL     1      16.673   6.936  26.943  1.00  0.00     0.026 C 
HETATM   19  C15 UNL     1      17.335   5.756  27.048  1.00  0.00     0.026 C 
HETATM   20  C16 UNL     1      18.126   5.425  25.950  1.00  0.00     0.202 C 
HETATM   21  N4  UNL     1      19.209   4.693  25.507  1.00  0.00    -0.047 N 
HETATM   22  C17 UNL     1      18.946   3.301  25.824  1.00  0.00     0.279 C 
HETATM   23  C18 UNL     1      20.413   5.156  26.118  1.00  0.00     0.279 C 
ENDBRANCH  10  11
ENDBRANCH   8  10
ENDBRANCH   6   8
ENDBRANCH   1   6
BRANCH   1  24
HETATM   24  C19 UNL     1      22.085   1.462  20.359  1.00  0.00     0.286 C 
HETATM   25  O1  UNL     1      21.792   0.245  20.466  1.00  0.00    -0.265 OA
HETATM   26  N5  UNL     1      22.096   1.985  19.061  1.00  0.00    -0.152 N 
ATOM     27  H5  UNL     1      23.008   2.114  18.624  1.00  0.00     0.187 HD
BRANCH  26  28
HETATM   28  C20 UNL     1      21.080   2.313  18.375  1.00  0.00     0.714 A 
HETATM   29  N6  UNL     1      20.691   1.913  17.150  1.00  0.00    -0.117 N 
HETATM   30  N7  UNL     1      19.564   2.500  16.797  1.00  0.00    -0.117 N 
ATOM     31  H6  UNL     1      21.201   1.245  16.571  1.00  0.00     0.206 HD
HETATM   32  C21 UNL     1      19.219   3.301  17.825  1.00  0.00     0.707 A 
ATOM     33  H7  UNL     1      19.056   2.373  15.922  1.00  0.00     0.206 HD
HETATM   34  N10 UNL     1      20.142   3.184  18.783  1.00  0.00    -0.020 N 
ATOM     35  H10 UNL     1      20.137   3.676  19.677  1.00  0.00     0.203 HD
BRANCH  32  36
HETATM   36  N8  UNL     1      18.173   4.064  17.898  1.00  0.00    -0.222 N 
ATOM     37  H8  UNL     1      17.605   4.167  17.058  1.00  0.00     0.177 HD
BRANCH  36  38
HETATM   38  C22 UNL     1      17.757   4.770  19.068  1.00  0.00     0.175 C 
BRANCH  38  39
HETATM   39  C23 UNL     1      16.289   4.564  19.384  1.00  0.00     0.133 C 
HETATM   40  C24 UNL     1      16.158   4.382  20.876  1.00  0.00     0.047 C 
HETATM   41  C25 UNL     1      15.710   3.390  18.660  1.00  0.00     0.047 C 
BRANCH  39  42
HETATM   42  N9  UNL     1      15.561   5.750  18.939  1.00  0.00    -0.070 N 
ATOM     43  H93 UNL     1      14.669   5.870  19.421  1.00  0.00     0.275 HD
ATOM     44  H92 UNL     1      15.998   6.619  19.245  1.00  0.00     0.275 HD
ATOM     45  H91 UNL     1      15.457   5.696  17.926  1.00  0.00     0.275 HD
ENDBRANCH  39  42
ENDBRANCH  38  39
ENDBRANCH  36  38
ENDBRANCH  32  36
ENDBRANCH  26  28
ENDBRANCH   1  24
TORSDOF 13
ENDMDL
MODEL 5
REMARK VINA RESULT: -7.563897788      1.888      2.952
REMARK  13 active torsions:
REMARK  status: ('A' for Active; 'I' for Inactive)
REMARK    1  A    between atoms: C2_2  and  C3_3 
REMARK    2  A    between atoms: C3_3  and  C4_4 
REMARK    3  A    between atoms: C4_4  and  C5_5 
REMARK    4  A    between atoms: C5_5  and  N1_6 
REMARK    5  A    between atoms: C5_5  and  C19_24 
REMARK    6  A    between atoms: N1_6  and  C6_8 
REMARK    7  A    between atoms: C6_8  and  C7_10 
REMARK    8  A    between atoms: C7_10  and  C8_11 
REMARK       I    between atoms: C19_24  and  N5_26 
REMARK    9  A    between atoms: N5_26  and  C20_28 
REMARK   10  A    between atoms: C21_33  and  N8_34 
REMARK   11  A    between atoms: N8_34  and  C22_36 
REMARK   12  A    between atoms: C22_36  and  C23_37 
REMARK   13  A    between atoms: C23_37  and  N9_40 
ROOT
HETATM    1  C5  UNL     1      18.767   4.105  19.509  1.00  0.00     0.099 C 
ENDROOT
BRANCH   1   2
HETATM    2  C4  UNL     1      19.015   3.588  18.318  1.00  0.00     0.008 C 
BRANCH   2   3
HETATM    3  C3  UNL     1      18.697   2.207  17.944  1.00  0.00     0.029 C 
BRANCH   3   4
HETATM    4  C2  UNL     1      19.835   1.629  17.138  1.00  0.00    -0.001 C 
HETATM    5  C1  UNL     1      21.179   1.773  17.750  1.00  0.00     0.005 C 
ENDBRANCH   3   4
ENDBRANCH   2   3
ENDBRANCH   1   2
BRANCH   1   6
HETATM    6  N1  UNL     1      19.746   4.098  20.492  1.00  0.00    -0.341 N 
ATOM      7  H1  UNL     1      20.665   4.440  20.212  1.00  0.00     0.167 HD
BRANCH   6   8
HETATM    8  C6  UNL     1      19.632   3.704  21.741  1.00  0.00     0.115 C 
HETATM    9  N2  UNL     1      19.387   2.328  21.894  1.00  0.00    -0.083 NA
BRANCH   8  10
HETATM   10  C7  UNL     1      19.793   4.625  22.847  1.00  0.00     0.052 C 
BRANCH  10  11
HETATM   11  C8  UNL     1      18.698   5.037  23.728  1.00  0.00     0.222 C 
HETATM   12  C9  UNL     1      18.324   6.503  23.466  1.00  0.00     0.066 C 
HETATM   13  C10 UNL     1      16.920   6.930  23.484  1.00  0.00     0.244 C 
HETATM   14  N3  UNL     1      16.287   7.613  24.524  1.00  0.00    -0.055 N 
HETATM   15  C11 UNL     1      16.059   9.010  23.969  1.00  0.00     0.277 C 
HETATM   16  C12 UNL     1      14.869   7.174  24.563  1.00  0.00     0.277 C 
HETATM   17  C13 UNL     1      16.657   7.896  25.817  1.00  0.00     0.201 C 
HETATM   18  C14 UNL     1      16.602   6.956  26.968  1.00  0.00     0.026 C 
HETATM   19  C15 UNL     1      17.216   5.747  26.931  1.00  0.00     0.026 C 
HETATM   20  C16 UNL     1      17.886   5.464  25.742  1.00  0.00     0.202 C 
HETATM   21  N4  UNL     1      18.888   4.723  25.149  1.00  0.00    -0.047 N 
HETATM   22  C17 UNL     1      18.593   3.324  25.396  1.00  0.00     0.279 C 
HETATM   23  C18 UNL     1      20.164   5.095  25.671  1.00  0.00     0.279 C 
ENDBRANCH  10  11
ENDBRANCH   8  10
ENDBRANCH   6   8
ENDBRANCH   1   6
BRANCH   1  24
HETATM   24  C19 UNL     1      17.413   4.659  19.713  1.00  0.00     0.286 C 
HETATM   25  O1  UNL     1      17.167   5.828  19.323  1.00  0.00    -0.265 OA
HETATM   26  N5  UNL     1      16.354   3.972  20.320  1.00  0.00    -0.152 N 
ATOM     27  H5  UNL     1      16.366   3.912  21.337  1.00  0.00     0.187 HD
BRANCH  26  28
HETATM   28  C20 UNL     1      15.379   3.419  19.724  1.00  0.00     0.714 A 
HETATM   29  N6  UNL     1      14.828   2.204  19.901  1.00  0.00    -0.117 N 
HETATM   30  N7  UNL     1      13.823   2.015  19.069  1.00  0.00    -0.117 N 
ATOM     31  H6  UNL     1      15.147   1.520  20.587  1.00  0.00     0.206 HD
HETATM   32  C21 UNL     1      13.725   3.143  18.336  1.00  0.00     0.707 A 
ATOM     33  H7  UNL     1      13.237   1.184  18.995  1.00  0.00     0.206 HD
HETATM   34  N10 UNL     1      14.672   3.994  18.737  1.00  0.00    -0.020 N 
ATOM     35  H10 UNL     1      14.833   4.927  18.357  1.00  0.00     0.203 HD
BRANCH  32  36
HETATM   36  N8  UNL     1      12.866   3.385  17.395  1.00  0.00    -0.222 N 
ATOM     37  H8  UNL     1      13.201   3.365  16.433  1.00  0.00     0.177 HD
BRANCH  36  38
HETATM   38  C22 UNL     1      11.483   3.678  17.607  1.00  0.00     0.175 C 
BRANCH  38  39
HETATM   39  C23 UNL     1      10.586   2.484  17.343  1.00  0.00     0.133 C 
HETATM   40  C24 UNL     1       9.344   2.986  16.650  1.00  0.00     0.047 C 
HETATM   41  C25 UNL     1      10.228   1.753  18.597  1.00  0.00     0.047 C 
BRANCH  39  42
HETATM   42  N9  UNL     1      11.317   1.551  16.489  1.00  0.00    -0.070 N 
ATOM     43  H93 UNL     1      11.529   1.940  15.569  1.00  0.00     0.275 HD
ATOM     44  H92 UNL     1      12.278   1.402  16.798  1.00  0.00     0.275 HD
ATOM     45  H91 UNL     1      10.780   0.685  16.436  1.00  0.00     0.275 HD
ENDBRANCH  39  42
ENDBRANCH  38  39
ENDBRANCH  36  38
ENDBRANCH  32  36
ENDBRANCH  26  28
ENDBRANCH   1  24
TORSDOF 13
ENDMDL
