MODEL 1
REMARK VINA RESULT: -8.158747928      0.000      0.000
REMARK  14 active torsions:
REMARK  status: ('A' for Active; 'I' for Inactive)
REMARK    1  A    between atoms: C3_5  and  O1_6 
REMARK    2  A    between atoms: C5_9  and  C6_10 
REMARK    3  A    between atoms: C6_10  and  C7_11 
REMARK    4  A    between atoms: C7_11  and  N2_12 
REMARK    5  A    between atoms: N2_12  and  C10_15 
REMARK    6  A    between atoms: C10_15  and  C11_16 
REMARK    7  A    between atoms: C13_20  and  C14_21 
REMARK    8  A    between atoms: C15_22  and  C16_23 
REMARK    9  A    between atoms: C17_24  and  N4_25 
REMARK   10  A    between atoms: N4_25  and  C18_26 
REMARK   11  A    between atoms: C18_26  and  C19_27 
REMARK   12  A    between atoms: C19_27  and  N5_28 
REMARK   13  A    between atoms: C27_40  and  N8_41 
REMARK   14  A    between atoms: N8_41  and  N9_42 
ROOT
HETATM    1  C11 UNL     1      22.788   7.185  29.773  1.00  0.00     0.045 A 
HETATM    2  C12 UNL     1      22.479   6.092  29.029  1.00  0.00     0.105 A 
HETATM    3  N3  UNL     1      21.610   6.134  27.996  1.00  0.00    -0.358 N 
ATOM      4  H3  UNL     1      21.389   5.301  27.452  1.00  0.00     0.166 HD
HETATM    5  C13 UNL     1      21.048   7.332  27.717  1.00  0.00     0.090 A 
HETATM    6  C26 UNL     1      21.331   8.453  28.433  1.00  0.00     0.086 A 
HETATM    7  C27 UNL     1      22.218   8.434  29.505  1.00  0.00     0.146 A 
ENDROOT
BRANCH   5   8
HETATM    8  C14 UNL     1      20.044   7.392  26.714  1.00  0.00    -0.035 C 
HETATM    9  C15 UNL     1      19.252   7.409  25.848  1.00  0.00    -0.007 C 
BRANCH   9  10
HETATM   10  C16 UNL     1      18.375   7.402  24.798  1.00  0.00     0.004 C 
HETATM   11  C17 UNL     1      17.628   7.346  23.888  1.00  0.00     0.013 C 
BRANCH  11  12
HETATM   12  N4  UNL     1      16.744   7.235  22.821  1.00  0.00    -0.159 NA
BRANCH  12  13
HETATM   13  C18 UNL     1      15.587   8.021  22.967  1.00  0.00     0.145 C 
BRANCH  13  14
HETATM   14  C19 UNL     1      14.822   7.814  24.305  1.00  0.00     0.144 C 
BRANCH  14  15
HETATM   15  N5  UNL     1      14.623   9.233  24.704  1.00  0.00    -0.363 N 
HETATM   16  C20 UNL     1      15.098  10.119  23.802  1.00  0.00     0.091 A 
HETATM   17  C21 UNL     1      14.813  11.454  23.946  1.00  0.00     0.032 A 
HETATM   18  C22 UNL     1      14.053  11.861  25.008  1.00  0.00     0.011 A 
HETATM   19  C23 UNL     1      13.602  13.105  25.400  1.00  0.00     0.120 A 
HETATM   20  C24 UNL     1      13.581  10.942  25.916  1.00  0.00     0.075 A 
HETATM   21  N6  UNL     1      12.880  12.890  26.521  1.00  0.00    -0.311 N 
HETATM   22  N7  UNL     1      12.871  11.597  26.822  1.00  0.00    -0.299 N 
ATOM     23  H6  UNL     1      12.409  13.617  27.060  1.00  0.00     0.186 HD
ATOM     24  H7  UNL     1      12.396  11.177  27.621  1.00  0.00     0.187 HD
HETATM   25  C25 UNL     1      13.887   9.596  25.741  1.00  0.00     0.122 A 
ENDBRANCH  14  15
ENDBRANCH  13  14
ENDBRANCH  12  13
ENDBRANCH  11  12
ENDBRANCH   9  10
ENDBRANCH   5   8
BRANCH   7  26
HETATM   26  N8  UNL     1      22.490   9.466  30.151  1.00  0.00    -0.332 NA
BRANCH  26  27
HETATM   27  N9  UNL     1      22.888  10.495  30.718  1.00  0.00    -0.280 N 
ATOM     28  H92 UNL     1      23.443  10.620  29.871  1.00  0.00     0.191 HD
ATOM     29  H91 UNL     1      23.142  11.310  31.277  1.00  0.00     0.191 HD
ENDBRANCH  26  27
ENDBRANCH   7  26
BRANCH   1  30
HETATM   30  C10 UNL     1      23.614   7.047  31.010  1.00  0.00     0.217 C 
BRANCH  30  31
HETATM   31  N2  UNL     1      22.987   6.408  32.062  1.00  0.00    -0.053 N 
HETATM   32  C8  UNL     1      22.989   7.471  33.147  1.00  0.00     0.277 C 
HETATM   33  C9  UNL     1      23.955   5.419  32.694  1.00  0.00     0.277 C 
BRANCH  31  34
HETATM   34  C7  UNL     1      21.787   5.671  32.077  1.00  0.00     0.246 C 
BRANCH  34  35
HETATM   35  C6  UNL     1      20.667   6.568  32.621  1.00  0.00     0.069 C 
BRANCH  35  36
HETATM   36  C5  UNL     1      19.609   6.968  31.689  1.00  0.00    -0.030 A 
HETATM   37  C2  UNL     1      18.953   8.236  31.745  1.00  0.00     0.013 A 
HETATM   38  C1  UNL     1      19.238   9.277  32.737  1.00  0.00     0.068 C 
HETATM   39  N1  UNL     1      18.062   8.305  30.733  1.00  0.00    -0.341 N 
HETATM   40  C3  UNL     1      18.078   7.165  30.016  1.00  0.00     0.140 A 
ATOM     41  H1  UNL     1      17.461   9.107  30.538  1.00  0.00     0.167 HD
HETATM   42  C4  UNL     1      19.035   6.356  30.614  1.00  0.00     0.065 A 
BRANCH  40  43
HETATM   43  O1  UNL     1      17.295   6.865  28.908  1.00  0.00    -0.346 OA
ATOM     44  H1  UNL     1      16.979   6.007  28.648  1.00  0.00     0.219 HD
ENDBRANCH  40  43
ENDBRANCH  35  36
ENDBRANCH  34  35
ENDBRANCH  31  34
ENDBRANCH  30  31
ENDBRANCH   1  30
TORSDOF 14
ENDMDL
MODEL 2
REMARK VINA RESULT: -7.947358062      2.677      3.911
REMARK  14 active torsions:
REMARK  status: ('A' for Active; 'I' for Inactive)
REMARK    1  A    between atoms: C3_5  and  O1_6 
REMARK    2  A    between atoms: C5_9  and  C6_10 
REMARK    3  A    between atoms: C6_10  and  C7_11 
REMARK    4  A    between atoms: C7_11  and  N2_12 
REMARK    5  A    between atoms: N2_12  and  C10_15 
REMARK    6  A    between atoms: C10_15  and  C11_16 
REMARK    7  A    between atoms: C13_20  and  C14_21 
REMARK    8  A    between atoms: C15_22  and  C16_23 
REMARK    9  A    between atoms: C17_24  and  N4_25 
REMARK   10  A    between atoms: N4_25  and  C18_26 
REMARK   11  A    between atoms: C18_26  and  C19_27 
REMARK   12  A    between atoms: C19_27  and  N5_28 
REMARK   13  A    between atoms: C27_40  and  N8_41 
REMARK   14  A    between atoms: N8_41  and  N9_42 
ROOT
HETATM    1  C11 UNL     1      21.933   6.108  30.625  1.00  0.00     0.045 A 
HETATM    2  C12 UNL     1      22.207   5.399  29.499  1.00  0.00     0.105 A 
HETATM    3  N3  UNL     1      21.595   5.638  28.320  1.00  0.00    -0.358 N 
ATOM      4  H3  UNL     1      21.812   5.092  27.487  1.00  0.00     0.166 HD
HETATM    5  C13 UNL     1      20.681   6.634  28.294  1.00  0.00     0.090 A 
HETATM    6  C26 UNL     1      20.378   7.372  29.396  1.00  0.00     0.086 A 
HETATM    7  C27 UNL     1      20.991   7.142  30.623  1.00  0.00     0.146 A 
ENDROOT
BRANCH   5   8
HETATM    8  C14 UNL     1      19.934   6.838  27.103  1.00  0.00    -0.035 C 
HETATM    9  C15 UNL     1      19.326   7.067  26.126  1.00  0.00    -0.007 C 
BRANCH   9  10
HETATM   10  C16 UNL     1      18.621   7.401  25.002  1.00  0.00     0.004 C 
HETATM   11  C17 UNL     1      18.027   7.643  24.014  1.00  0.00     0.013 C 
BRANCH  11  12
HETATM   12  N4  UNL     1      17.326   7.885  22.837  1.00  0.00    -0.159 NA
BRANCH  12  13
HETATM   13  C18 UNL     1      16.133   8.604  23.033  1.00  0.00     0.145 C 
BRANCH  13  14
HETATM   14  C19 UNL     1      15.128   7.945  24.020  1.00  0.00     0.144 C 
BRANCH  14  15
HETATM   15  N5  UNL     1      14.472   9.164  24.563  1.00  0.00    -0.363 N 
HETATM   16  C20 UNL     1      13.964   8.995  25.804  1.00  0.00     0.091 A 
HETATM   17  C21 UNL     1      13.503  10.084  26.502  1.00  0.00     0.032 A 
HETATM   18  C22 UNL     1      13.565  11.321  25.923  1.00  0.00     0.011 A 
HETATM   19  C23 UNL     1      13.199  12.573  26.373  1.00  0.00     0.120 A 
HETATM   20  C24 UNL     1      14.085  11.469  24.657  1.00  0.00     0.075 A 
HETATM   21  N6  UNL     1      13.510  13.422  25.370  1.00  0.00    -0.311 N 
HETATM   22  N7  UNL     1      14.039  12.757  24.350  1.00  0.00    -0.299 N 
ATOM     23  H6  UNL     1      13.360  14.431  25.392  1.00  0.00     0.186 HD
ATOM     24  H7  UNL     1      14.357  13.169  23.474  1.00  0.00     0.187 HD
HETATM   25  C25 UNL     1      14.544  10.347  23.976  1.00  0.00     0.122 A 
ENDBRANCH  14  15
ENDBRANCH  13  14
ENDBRANCH  12  13
ENDBRANCH  11  12
ENDBRANCH   9  10
ENDBRANCH   5   8
BRANCH   7  26
HETATM   26  N8  UNL     1      20.724   7.830  31.630  1.00  0.00    -0.332 NA
BRANCH  26  27
HETATM   27  N9  UNL     1      20.513   8.630  32.554  1.00  0.00    -0.280 N 
ATOM     28  H92 UNL     1      19.630   8.127  32.645  1.00  0.00     0.191 HD
ATOM     29  H91 UNL     1      20.448   9.336  33.288  1.00  0.00     0.191 HD
ENDBRANCH  26  27
ENDBRANCH   7  26
BRANCH   1  30
HETATM   30  C10 UNL     1      22.505   5.689  31.939  1.00  0.00     0.217 C 
BRANCH  30  31
HETATM   31  N2  UNL     1      23.841   5.995  32.118  1.00  0.00    -0.053 N 
HETATM   32  C8  UNL     1      24.527   4.669  31.839  1.00  0.00     0.277 C 
HETATM   33  C9  UNL     1      24.132   6.107  33.607  1.00  0.00     0.277 C 
BRANCH  31  34
HETATM   34  C7  UNL     1      24.591   7.071  31.605  1.00  0.00     0.246 C 
BRANCH  34  35
HETATM   35  C6  UNL     1      24.116   8.365  32.278  1.00  0.00     0.069 C 
BRANCH  35  36
HETATM   36  C5  UNL     1      24.845   9.597  31.963  1.00  0.00    -0.030 A 
HETATM   37  C2  UNL     1      24.419  10.529  30.966  1.00  0.00     0.013 A 
HETATM   38  C1  UNL     1      23.225  10.364  30.132  1.00  0.00     0.068 C 
HETATM   39  N1  UNL     1      25.282  11.567  30.949  1.00  0.00    -0.341 N 
HETATM   40  C3  UNL     1      26.255  11.382  31.862  1.00  0.00     0.140 A 
ATOM     41  H1  UNL     1      25.207  12.377  30.333  1.00  0.00     0.167 HD
HETATM   42  C4  UNL     1      25.971  10.170  32.478  1.00  0.00     0.065 A 
BRANCH  40  43
HETATM   43  O1  UNL     1      27.322  12.230  32.127  1.00  0.00    -0.346 OA
ATOM     44  H1  UNL     1      27.483  12.711  32.931  1.00  0.00     0.219 HD
ENDBRANCH  40  43
ENDBRANCH  35  36
ENDBRANCH  34  35
ENDBRANCH  31  34
ENDBRANCH  30  31
ENDBRANCH   1  30
TORSDOF 14
ENDMDL
MODEL 3
REMARK VINA RESULT: -7.916005817      1.980      3.516
REMARK  14 active torsions:
REMARK  status: ('A' for Active; 'I' for Inactive)
REMARK    1  A    between atoms: C3_5  and  O1_6 
REMARK    2  A    between atoms: C5_9  and  C6_10 
REMARK    3  A    between atoms: C6_10  and  C7_11 
REMARK    4  A    between atoms: C7_11  and  N2_12 
REMARK    5  A    between atoms: N2_12  and  C10_15 
REMARK    6  A    between atoms: C10_15  and  C11_16 
REMARK    7  A    between atoms: C13_20  and  C14_21 
REMARK    8  A    between atoms: C15_22  and  C16_23 
REMARK    9  A    between atoms: C17_24  and  N4_25 
REMARK   10  A    between atoms: N4_25  and  C18_26 
REMARK   11  A    between atoms: C18_26  and  C19_27 
REMARK   12  A    between atoms: C19_27  and  N5_28 
REMARK   13  A    between atoms: C27_40  and  N8_41 
REMARK   14  A    between atoms: N8_41  and  N9_42 
ROOT
HETATM    1  C11 UNL     1      21.832   7.630  30.837  1.00  0.00     0.045 A 
HETATM    2  C12 UNL     1      21.137   6.534  30.436  1.00  0.00     0.105 A 
HETATM    3  N3  UNL     1      20.543   6.449  29.227  1.00  0.00    -0.358 N 
ATOM      4  H3  UNL     1      20.022   5.619  28.947  1.00  0.00     0.166 HD
HETATM    5  C13 UNL     1      20.670   7.515  28.405  1.00  0.00     0.090 A 
HETATM    6  C26 UNL     1      21.360   8.632  28.763  1.00  0.00     0.086 A 
HETATM    7  C27 UNL     1      21.976   8.745  30.005  1.00  0.00     0.146 A 
ENDROOT
BRANCH   5   8
HETATM    8  C14 UNL     1      19.963   7.509  27.173  1.00  0.00    -0.035 C 
HETATM    9  C15 UNL     1      19.327   7.508  26.188  1.00  0.00    -0.007 C 
BRANCH   9  10
HETATM   10  C16 UNL     1      18.529   7.501  25.076  1.00  0.00     0.004 C 
HETATM   11  C17 UNL     1      17.871   7.460  24.099  1.00  0.00     0.013 C 
BRANCH  11  12
HETATM   12  N4  UNL     1      17.113   7.370  22.937  1.00  0.00    -0.159 NA
BRANCH  12  13
HETATM   13  C18 UNL     1      15.963   8.179  22.953  1.00  0.00     0.145 C 
BRANCH  13  14
HETATM   14  C19 UNL     1      14.990   7.908  24.135  1.00  0.00     0.144 C 
BRANCH  14  15
HETATM   15  N5  UNL     1      14.738   9.304  24.581  1.00  0.00    -0.363 N 
HETATM   16  C20 UNL     1      15.178  10.236  23.707  1.00  0.00     0.091 A 
HETATM   17  C21 UNL     1      14.843  11.554  23.896  1.00  0.00     0.032 A 
HETATM   18  C22 UNL     1      14.070  11.897  24.971  1.00  0.00     0.011 A 
HETATM   19  C23 UNL     1      13.574  13.110  25.404  1.00  0.00     0.120 A 
HETATM   20  C24 UNL     1      13.635  10.931  25.848  1.00  0.00     0.075 A 
HETATM   21  N6  UNL     1      12.862  12.831  26.518  1.00  0.00    -0.311 N 
HETATM   22  N7  UNL     1      12.903  11.530  26.776  1.00  0.00    -0.299 N 
ATOM     23  H6  UNL     1      12.365  13.521  27.081  1.00  0.00     0.186 HD
ATOM     24  H7  UNL     1      12.446  11.066  27.561  1.00  0.00     0.187 HD
HETATM   25  C25 UNL     1      13.991   9.605  25.630  1.00  0.00     0.122 A 
ENDBRANCH  14  15
ENDBRANCH  13  14
ENDBRANCH  12  13
ENDBRANCH  11  12
ENDBRANCH   9  10
ENDBRANCH   5   8
BRANCH   7  26
HETATM   26  N8  UNL     1      22.623   9.764  30.327  1.00  0.00    -0.332 NA
BRANCH  26  27
HETATM   27  N9  UNL     1      23.346  10.685  30.733  1.00  0.00    -0.280 N 
ATOM     28  H92 UNL     1      24.050   9.953  30.823  1.00  0.00     0.191 HD
ATOM     29  H91 UNL     1      23.844  11.517  31.050  1.00  0.00     0.191 HD
ENDBRANCH  26  27
ENDBRANCH   7  26
BRANCH   1  30
HETATM   30  C10 UNL     1      22.317   7.744  32.245  1.00  0.00     0.217 C 
BRANCH  30  31
HETATM   31  N2  UNL     1      23.582   7.234  32.469  1.00  0.00    -0.053 N 
HETATM   32  C8  UNL     1      23.316   6.104  33.450  1.00  0.00     0.277 C 
HETATM   33  C9  UNL     1      24.344   8.176  33.389  1.00  0.00     0.277 C 
BRANCH  31  34
HETATM   34  C7  UNL     1      24.582   6.878  31.544  1.00  0.00     0.246 C 
BRANCH  34  35
HETATM   35  C6  UNL     1      24.658   5.347  31.469  1.00  0.00     0.069 C 
BRANCH  35  36
HETATM   36  C5  UNL     1      24.617   4.733  30.139  1.00  0.00    -0.030 A 
HETATM   37  C2  UNL     1      24.928   3.359  29.899  1.00  0.00     0.013 A 
HETATM   38  C1  UNL     1      25.338   2.407  30.936  1.00  0.00     0.068 C 
HETATM   39  N1  UNL     1      24.760   3.102  28.584  1.00  0.00    -0.341 N 
HETATM   40  C3  UNL     1      24.368   4.215  27.936  1.00  0.00     0.140 A 
ATOM     41  H1  UNL     1      24.910   2.193  28.144  1.00  0.00     0.167 HD
HETATM   42  C4  UNL     1      24.282   5.207  28.904  1.00  0.00     0.065 A 
BRANCH  40  43
HETATM   43  O1  UNL     1      24.106   4.341  26.577  1.00  0.00    -0.346 OA
ATOM     44  H1  UNL     1      23.619   5.038  26.152  1.00  0.00     0.219 HD
ENDBRANCH  40  43
ENDBRANCH  35  36
ENDBRANCH  34  35
ENDBRANCH  31  34
ENDBRANCH  30  31
ENDBRANCH   1  30
TORSDOF 14
ENDMDL
MODEL 4
REMARK VINA RESULT: -7.735122321      2.865      4.290
REMARK  14 active torsions:
REMARK  status: ('A' for Active; 'I' for Inactive)
REMARK    1  A    between atoms: C3_5  and  O1_6 
REMARK    2  A    between atoms: C5_9  and  C6_10 
REMARK    3  A    between atoms: C6_10  and  C7_11 
REMARK    4  A    between atoms: C7_11  and  N2_12 
REMARK    5  A    between atoms: N2_12  and  C10_15 
REMARK    6  A    between atoms: C10_15  and  C11_16 
REMARK    7  A    between atoms: C13_20  and  C14_21 
REMARK    8  A    between atoms: C15_22  and  C16_23 
REMARK    9  A    between atoms: C17_24  and  N4_25 
REMARK   10  A    between atoms: N4_25  and  C18_26 
REMARK   11  A    between atoms: C18_26  and  C19_27 
REMARK   12  A    between atoms: C19_27  and  N5_28 
REMARK   13  A    between atoms: C27_40  and  N8_41 
REMARK   14  A    between atoms: N8_41  and  N9_42 
ROOT
HETATM    1  C11 UNL     1      21.417   6.732  31.000  1.00  0.00     0.045 A 
HETATM    2  C12 UNL     1      21.819   5.931  29.979  1.00  0.00     0.105 A 
HETATM    3  N3  UNL     1      21.353   6.066  28.719  1.00  0.00    -0.358 N 
ATOM      4  H3  UNL     1      21.665   5.452  27.967  1.00  0.00     0.166 HD
HETATM    5  C13 UNL     1      20.454   7.052  28.500  1.00  0.00     0.090 A 
HETATM    6  C26 UNL     1      20.027   7.881  29.491  1.00  0.00     0.086 A 
HETATM    7  C27 UNL     1      20.488   7.758  30.798  1.00  0.00     0.146 A 
ENDROOT
BRANCH   5   8
HETATM    8  C14 UNL     1      19.856   7.151  27.215  1.00  0.00    -0.035 C 
HETATM    9  C15 UNL     1      19.308   7.220  26.180  1.00  0.00    -0.007 C 
BRANCH   9  10
HETATM   10  C16 UNL     1      18.612   7.276  25.003  1.00  0.00     0.004 C 
HETATM   11  C17 UNL     1      17.983   7.359  24.011  1.00  0.00     0.013 C 
BRANCH  11  12
HETATM   12  N4  UNL     1      17.224   7.497  22.854  1.00  0.00    -0.159 NA
BRANCH  12  13
HETATM   13  C18 UNL     1      16.229   8.486  22.950  1.00  0.00     0.145 C 
BRANCH  13  14
HETATM   14  C19 UNL     1      15.061   8.145  23.918  1.00  0.00     0.144 C 
BRANCH  14  15
HETATM   15  N5  UNL     1      14.773   9.502  24.455  1.00  0.00    -0.363 N 
HETATM   16  C20 UNL     1      15.195  10.501  23.649  1.00  0.00     0.091 A 
HETATM   17  C21 UNL     1      14.827  11.794  23.924  1.00  0.00     0.032 A 
HETATM   18  C22 UNL     1      14.040  12.046  25.013  1.00  0.00     0.011 A 
HETATM   19  C23 UNL     1      13.511  13.214  25.523  1.00  0.00     0.120 A 
HETATM   20  C24 UNL     1      13.623  11.013  25.820  1.00  0.00     0.075 A 
HETATM   21  N6  UNL     1      12.800  12.844  26.611  1.00  0.00    -0.311 N 
HETATM   22  N7  UNL     1      12.871  11.529  26.781  1.00  0.00    -0.299 N 
ATOM     23  H6  UNL     1      12.283  13.483  27.215  1.00  0.00     0.186 HD
ATOM     24  H7  UNL     1      12.420  11.003  27.529  1.00  0.00     0.187 HD
HETATM   25  C25 UNL     1      14.013   9.713  25.516  1.00  0.00     0.122 A 
ENDBRANCH  14  15
ENDBRANCH  13  14
ENDBRANCH  12  13
ENDBRANCH  11  12
ENDBRANCH   9  10
ENDBRANCH   5   8
BRANCH   7  26
HETATM   26  N8  UNL     1      20.107   8.528  31.703  1.00  0.00    -0.332 NA
BRANCH  26  27
HETATM   27  N9  UNL     1      19.863   9.356  32.594  1.00  0.00    -0.280 N 
ATOM     28  H92 UNL     1      19.441   8.560  33.072  1.00  0.00     0.191 HD
ATOM     29  H91 UNL     1      19.718  10.119  33.255  1.00  0.00     0.191 HD
ENDBRANCH  26  27
ENDBRANCH   7  26
BRANCH   1  30
HETATM   30  C10 UNL     1      21.825   6.429  32.403  1.00  0.00     0.217 C 
BRANCH  30  31
HETATM   31  N2  UNL     1      23.091   6.862  32.749  1.00  0.00    -0.053 N 
HETATM   32  C8  UNL     1      23.777   5.577  33.181  1.00  0.00     0.277 C 
HETATM   33  C9  UNL     1      23.029   7.565  34.096  1.00  0.00     0.277 C 
BRANCH  31  34
HETATM   34  C7  UNL     1      23.978   7.695  32.041  1.00  0.00     0.246 C 
BRANCH  34  35
HETATM   35  C6  UNL     1      25.345   7.663  32.737  1.00  0.00     0.069 C 
BRANCH  35  36
HETATM   36  C5  UNL     1      26.038   8.940  32.925  1.00  0.00    -0.030 A 
HETATM   37  C2  UNL     1      26.742   9.282  34.121  1.00  0.00     0.013 A 
HETATM   38  C1  UNL     1      26.844   8.418  35.301  1.00  0.00     0.068 C 
HETATM   39  N1  UNL     1      27.296  10.503  33.961  1.00  0.00    -0.341 N 
HETATM   40  C3  UNL     1      27.000  10.996  32.743  1.00  0.00     0.140 A 
ATOM     41  H1  UNL     1      27.860  10.984  34.663  1.00  0.00     0.167 HD
HETATM   42  C4  UNL     1      26.230  10.024  32.119  1.00  0.00     0.065 A 
BRANCH  40  43
HETATM   43  O1  UNL     1      27.386  12.225  32.224  1.00  0.00    -0.346 OA
ATOM     44  H1  UNL     1      26.871  13.024  32.207  1.00  0.00     0.219 HD
ENDBRANCH  40  43
ENDBRANCH  35  36
ENDBRANCH  34  35
ENDBRANCH  31  34
ENDBRANCH  30  31
ENDBRANCH   1  30
TORSDOF 14
ENDMDL
MODEL 5
REMARK VINA RESULT: -7.720504373      1.372      1.533
REMARK  14 active torsions:
REMARK  status: ('A' for Active; 'I' for Inactive)
REMARK    1  A    between atoms: C3_5  and  O1_6 
REMARK    2  A    between atoms: C5_9  and  C6_10 
REMARK    3  A    between atoms: C6_10  and  C7_11 
REMARK    4  A    between atoms: C7_11  and  N2_12 
REMARK    5  A    between atoms: N2_12  and  C10_15 
REMARK    6  A    between atoms: C10_15  and  C11_16 
REMARK    7  A    between atoms: C13_20  and  C14_21 
REMARK    8  A    between atoms: C15_22  and  C16_23 
REMARK    9  A    between atoms: C17_24  and  N4_25 
REMARK   10  A    between atoms: N4_25  and  C18_26 
REMARK   11  A    between atoms: C18_26  and  C19_27 
REMARK   12  A    between atoms: C19_27  and  N5_28 
REMARK   13  A    between atoms: C27_40  and  N8_41 
REMARK   14  A    between atoms: N8_41  and  N9_42 
ROOT
HETATM    1  C11 UNL     1      21.999   7.077  30.373  1.00  0.00     0.045 A 
HETATM    2  C12 UNL     1      21.445   5.974  29.806  1.00  0.00     0.105 A 
HETATM    3  N3  UNL     1      20.793   6.010  28.625  1.00  0.00    -0.358 N 
ATOM      4  H3  UNL     1      20.381   5.171  28.218  1.00  0.00     0.166 HD
HETATM    5  C13 UNL     1      20.712   7.209  28.006  1.00  0.00     0.090 A 
HETATM    6  C26 UNL     1      21.256   8.339  28.534  1.00  0.00     0.086 A 
HETATM    7  C27 UNL     1      21.927   8.329  29.753  1.00  0.00     0.146 A 
ENDROOT
BRANCH   5   8
HETATM    8  C14 UNL     1      19.936   7.309  26.819  1.00  0.00    -0.035 C 
HETATM    9  C15 UNL     1      19.261   7.345  25.862  1.00  0.00    -0.007 C 
BRANCH   9  10
HETATM   10  C16 UNL     1      18.441   7.332  24.766  1.00  0.00     0.004 C 
HETATM   11  C17 UNL     1      17.701   7.297  23.850  1.00  0.00     0.013 C 
BRANCH  11  12
HETATM   12  N4  UNL     1      16.792   7.249  22.799  1.00  0.00    -0.159 NA
BRANCH  12  13
HETATM   13  C18 UNL     1      15.695   8.113  22.966  1.00  0.00     0.145 C 
BRANCH  13  14
HETATM   14  C19 UNL     1      14.870   7.877  24.262  1.00  0.00     0.144 C 
BRANCH  14  15
HETATM   15  N5  UNL     1      14.652   9.288  24.683  1.00  0.00    -0.363 N 
HETATM   16  C20 UNL     1      15.125  10.193  23.799  1.00  0.00     0.091 A 
HETATM   17  C21 UNL     1      14.824  11.522  23.963  1.00  0.00     0.032 A 
HETATM   18  C22 UNL     1      14.051  11.904  25.024  1.00  0.00     0.011 A 
HETATM   19  C23 UNL     1      13.584  13.136  25.432  1.00  0.00     0.120 A 
HETATM   20  C24 UNL     1      13.582  10.965  25.913  1.00  0.00     0.075 A 
HETATM   21  N6  UNL     1      12.855  12.895  26.544  1.00  0.00    -0.311 N 
HETATM   22  N7  UNL     1      12.857  11.598  26.824  1.00  0.00    -0.299 N 
ATOM     23  H6  UNL     1      12.371  13.608  27.090  1.00  0.00     0.186 HD
ATOM     24  H7  UNL     1      12.380  11.160  27.611  1.00  0.00     0.187 HD
HETATM   25  C25 UNL     1      13.904   9.626  25.719  1.00  0.00     0.122 A 
ENDBRANCH  14  15
ENDBRANCH  13  14
ENDBRANCH  12  13
ENDBRANCH  11  12
ENDBRANCH   9  10
ENDBRANCH   5   8
BRANCH   7  26
HETATM   26  N8  UNL     1      22.439   9.362  30.229  1.00  0.00    -0.332 NA
BRANCH  26  27
HETATM   27  N9  UNL     1      22.910  10.456  30.575  1.00  0.00    -0.280 N 
ATOM     28  H92 UNL     1      23.368  10.428  29.664  1.00  0.00     0.191 HD
ATOM     29  H91 UNL     1      23.235  11.341  30.964  1.00  0.00     0.191 HD
ENDBRANCH  26  27
ENDBRANCH   7  26
BRANCH   1  30
HETATM   30  C10 UNL     1      22.551   7.018  31.759  1.00  0.00     0.217 C 
BRANCH  30  31
HETATM   31  N2  UNL     1      21.603   7.001  32.765  1.00  0.00    -0.053 N 
HETATM   32  C8  UNL     1      22.351   7.607  33.939  1.00  0.00     0.277 C 
HETATM   33  C9  UNL     1      21.451   5.579  33.285  1.00  0.00     0.277 C 
BRANCH  31  34
HETATM   34  C7  UNL     1      20.262   7.433  32.741  1.00  0.00     0.246 C 
BRANCH  34  35
HETATM   35  C6  UNL     1      19.349   6.207  32.874  1.00  0.00     0.069 C 
BRANCH  35  36
HETATM   36  C5  UNL     1      18.000   6.305  32.310  1.00  0.00    -0.030 A 
HETATM   37  C2  UNL     1      16.817   5.979  33.042  1.00  0.00     0.013 A 
HETATM   38  C1  UNL     1      16.804   5.495  34.426  1.00  0.00     0.068 C 
HETATM   39  N1  UNL     1      15.745   6.210  32.255  1.00  0.00    -0.341 N 
HETATM   40  C3  UNL     1      16.138   6.659  31.048  1.00  0.00     0.140 A 
ATOM     41  H1  UNL     1      14.774   6.064  32.535  1.00  0.00     0.167 HD
HETATM   42  C4  UNL     1      17.525   6.715  31.098  1.00  0.00     0.065 A 
BRANCH  40  43
HETATM   43  O1  UNL     1      15.321   6.994  29.976  1.00  0.00    -0.346 OA
ATOM     44  H1  UNL     1      15.027   7.865  29.733  1.00  0.00     0.219 HD
ENDBRANCH  40  43
ENDBRANCH  35  36
ENDBRANCH  34  35
ENDBRANCH  31  34
ENDBRANCH  30  31
ENDBRANCH   1  30
TORSDOF 14
ENDMDL
