MODEL 1
REMARK VINA RESULT: -8.470828929      0.000      0.000
REMARK  10 active torsions:
REMARK  status: ('A' for Active; 'I' for Inactive)
REMARK    1  A    between atoms: N1_1  and  C1_4 
REMARK    2  A    between atoms: C4_14  and  N5_15 
REMARK    3  A    between atoms: C6_19  and  C7_20 
REMARK    4  A    between atoms: C7_20  and  O2_21 
REMARK    5  A    between atoms: C7_20  and  N7_23 
REMARK    6  A    between atoms: N7_23  and  O3_24 
REMARK    7  A    between atoms: N10_31  and  C9_32 
REMARK    8  A    between atoms: C10_37  and  C11_38 
REMARK    9  A    between atoms: C11_38  and  N13_39 
REMARK   10  A    between atoms: N13_39  and  C12_42 
ROOT
HETATM    1  C1  UNL     1      78.784 -18.096   7.367  1.00  0.00     0.700 A 
HETATM    2  N2  UNL     1      79.380 -17.891   6.201  1.00  0.00    -0.172 N 
ATOM      3  H2  UNL     1      79.204 -18.410   5.341  1.00  0.00     0.186 HD
HETATM    4  C2  UNL     1      80.262 -16.876   6.347  1.00  0.00     0.171 A 
HETATM    5  N3  UNL     1      81.051 -16.404   5.342  1.00  0.00    -0.290 N 
ATOM      6  H3  UNL     1      80.760 -16.588   4.383  1.00  0.00     0.172 HD
HETATM    7  C3  UNL     1      82.207 -15.700   5.531  1.00  0.00     0.340 C 
HETATM    8  O1  UNL     1      83.028 -15.822   4.605  1.00  0.00    -0.246 OA
HETATM    9  N4  UNL     1      82.525 -14.910   6.599  1.00  0.00    -0.138 N 
ATOM     10  H4  UNL     1      83.465 -14.512   6.589  1.00  0.00     0.189 HD
HETATM   11  C4  UNL     1      81.764 -14.584   7.668  1.00  0.00     0.724 C 
HETATM   12  N9  UNL     1      80.909 -15.441   8.261  1.00  0.00    -0.168 N 
ATOM     13  H9  UNL     1      80.776 -15.330   9.265  1.00  0.00     0.186 HD
HETATM   14  C8  UNL     1      80.202 -16.443   7.656  1.00  0.00     0.207 A 
HETATM   15  N10 UNL     1      79.287 -17.202   8.274  1.00  0.00     0.043 N 
ENDROOT
BRANCH  15  16
HETATM   16  C9  UNL     1      78.864 -17.155   9.628  1.00  0.00     0.721 A 
HETATM   17  N11 UNL     1      77.649 -16.870  10.102  1.00  0.00    -0.129 N 
HETATM   18  N12 UNL     1      77.672 -16.919  11.413  1.00  0.00    -0.273 N 
ATOM     19  H11 UNL     1      76.831 -16.650   9.534  1.00  0.00     0.205 HD
HETATM   20  C10 UNL     1      78.931 -17.241  11.802  1.00  0.00     0.138 A 
ATOM     21  H12 UNL     1      76.882 -16.744  12.032  1.00  0.00     0.189 HD
HETATM   22  N14 UNL     1      79.643 -17.381  10.680  1.00  0.00    -0.175 N 
ATOM     23  H14 UNL     1      80.632 -17.624  10.638  1.00  0.00     0.185 HD
BRANCH  20  24
HETATM   24  C11 UNL     1      79.310 -17.364  13.217  1.00  0.00     0.310 C 
BRANCH  24  25
HETATM   25  N13 UNL     1      79.345 -18.720  13.708  1.00  0.00    -0.064 N 
ATOM     26 2H13 UNL     1      79.057 -19.394  13.000  1.00  0.00     0.278 HD
ATOM     27 1H13 UNL     1      80.298 -19.055  13.849  1.00  0.00     0.278 HD
BRANCH  25  28
HETATM   28  C12 UNL     1      78.536 -18.817  14.929  1.00  0.00     0.186 A 
HETATM   29  C13 UNL     1      78.618 -20.119  15.671  1.00  0.00     0.035 A 
HETATM   30  C14 UNL     1      79.281 -18.889  16.213  1.00  0.00     0.035 A 
ENDBRANCH  25  28
ENDBRANCH  24  25
ENDBRANCH  20  24
ENDBRANCH  15  16
BRANCH   1  31
HETATM   31  N1  UNL     1      77.876 -19.004   7.573  1.00  0.00    -0.233 N 
ATOM     32  H12 UNL     1      77.433 -19.606   6.879  1.00  0.00     0.174 HD
ATOM     33  H11 UNL     1      77.488 -19.227   8.489  1.00  0.00     0.174 HD
ENDBRANCH   1  31
BRANCH  11  34
HETATM   34  N5  UNL     1      81.878 -13.265   8.183  1.00  0.00    -0.020 N 
HETATM   35  N6  UNL     1      82.699 -12.810   9.109  1.00  0.00    -0.274 N 
HETATM   36  C5  UNL     1      82.465 -11.484   9.303  1.00  0.00     0.140 A 
ATOM     37  H6  UNL     1      83.400 -13.364   9.602  1.00  0.00     0.188 HD
HETATM   38  C6  UNL     1      81.450 -11.129   8.446  1.00  0.00     0.091 A 
HETATM   39  N8  UNL     1      81.126 -12.253   7.784  1.00  0.00    -0.263 N 
ATOM     40  H8  UNL     1      80.399 -12.315   7.071  1.00  0.00     0.189 HD
BRANCH  38  41
HETATM   41  C7  UNL     1      80.854  -9.777   8.309  1.00  0.00     0.291 C 
BRANCH  41  42
HETATM   42  O2  UNL     1      81.279  -8.871   9.247  1.00  0.00    -0.372 OA
ATOM     43  H2  UNL     1      81.241  -9.185  10.143  1.00  0.00     0.212 HD
ENDBRANCH  41  42
BRANCH  41  44
HETATM   44  N7  UNL     1      79.386  -9.882   8.250  1.00  0.00    -0.065 NA
BRANCH  44  45
HETATM   45  O3  UNL     1      78.947  -8.590   8.335  1.00  0.00    -0.293 OA
ATOM     46  H3  UNL     1      79.145  -8.215   7.485  1.00  0.00     0.238 HD
ENDBRANCH  44  45
ENDBRANCH  41  44
ENDBRANCH  38  41
ENDBRANCH  11  34
TORSDOF 10
ENDMDL
MODEL 2
REMARK VINA RESULT: -8.463271479      1.065      1.322
REMARK  10 active torsions:
REMARK  status: ('A' for Active; 'I' for Inactive)
REMARK    1  A    between atoms: N1_1  and  C1_4 
REMARK    2  A    between atoms: C4_14  and  N5_15 
REMARK    3  A    between atoms: C6_19  and  C7_20 
REMARK    4  A    between atoms: C7_20  and  O2_21 
REMARK    5  A    between atoms: C7_20  and  N7_23 
REMARK    6  A    between atoms: N7_23  and  O3_24 
REMARK    7  A    between atoms: N10_31  and  C9_32 
REMARK    8  A    between atoms: C10_37  and  C11_38 
REMARK    9  A    between atoms: C11_38  and  N13_39 
REMARK   10  A    between atoms: N13_39  and  C12_42 
ROOT
HETATM    1  C1  UNL     1      78.925 -17.582   7.525  1.00  0.00     0.700 A 
HETATM    2  N2  UNL     1      78.895 -17.041   6.314  1.00  0.00    -0.172 N 
ATOM      3  H2  UNL     1      78.372 -17.397   5.514  1.00  0.00     0.186 HD
HETATM    4  C2  UNL     1      79.677 -15.937   6.323  1.00  0.00     0.171 A 
HETATM    5  N3  UNL     1      79.876 -15.138   5.238  1.00  0.00    -0.290 N 
ATOM      6  H3  UNL     1      79.183 -15.171   4.491  1.00  0.00     0.172 HD
HETATM    7  C3  UNL     1      80.939 -14.294   5.082  1.00  0.00     0.340 C 
HETATM    8  O1  UNL     1      81.240 -14.077   3.895  1.00  0.00    -0.246 OA
HETATM    9  N4  UNL     1      81.667 -13.695   6.071  1.00  0.00    -0.138 N 
ATOM     10  H4  UNL     1      82.466 -13.143   5.758  1.00  0.00     0.189 HD
HETATM   11  C4  UNL     1      81.472 -13.735   7.409  1.00  0.00     0.724 C 
HETATM   12  N9  UNL     1      81.048 -14.832   8.066  1.00  0.00    -0.168 N 
ATOM     13  H9  UNL     1      81.392 -14.954   9.018  1.00  0.00     0.186 HD
HETATM   14  C8  UNL     1      80.207 -15.799   7.590  1.00  0.00     0.207 A 
HETATM   15  N10 UNL     1      79.735 -16.818   8.321  1.00  0.00     0.043 N 
ENDROOT
BRANCH  15  16
HETATM   16  C9  UNL     1      79.990 -17.124   9.684  1.00  0.00     0.721 A 
HETATM   17  N11 UNL     1      81.118 -17.588  10.226  1.00  0.00    -0.129 N 
HETATM   18  N12 UNL     1      80.942 -17.754  11.516  1.00  0.00    -0.273 N 
ATOM     19  H11 UNL     1      81.981 -17.782   9.718  1.00  0.00     0.205 HD
HETATM   20  C10 UNL     1      79.671 -17.391  11.820  1.00  0.00     0.138 A 
ATOM     21  H12 UNL     1      81.640 -18.097  12.175  1.00  0.00     0.189 HD
HETATM   22  N14 UNL     1      79.110 -17.007  10.670  1.00  0.00    -0.175 N 
ATOM     23  H14 UNL     1      78.151 -16.675  10.567  1.00  0.00     0.185 HD
BRANCH  20  24
HETATM   24  C11 UNL     1      79.136 -17.470  13.187  1.00  0.00     0.310 C 
BRANCH  24  25
HETATM   25  N13 UNL     1      79.516 -18.661  13.906  1.00  0.00    -0.064 N 
ATOM     26 2H13 UNL     1      79.512 -19.489  13.312  1.00  0.00     0.278 HD
ATOM     27 1H13 UNL     1      80.505 -18.664  14.153  1.00  0.00     0.278 HD
BRANCH  25  28
HETATM   28  C12 UNL     1      78.651 -18.818  15.081  1.00  0.00     0.186 A 
HETATM   29  C13 UNL     1      78.609 -20.189  15.690  1.00  0.00     0.035 A 
HETATM   30  C14 UNL     1      79.333 -19.071  16.377  1.00  0.00     0.035 A 
ENDBRANCH  25  28
ENDBRANCH  24  25
ENDBRANCH  20  24
ENDBRANCH  15  16
BRANCH   1  31
HETATM   31  N1  UNL     1      78.278 -18.659   7.859  1.00  0.00    -0.233 N 
ATOM     32  H12 UNL     1      77.422 -19.023   7.440  1.00  0.00     0.174 HD
ATOM     33  H11 UNL     1      78.564 -19.289   8.608  1.00  0.00     0.174 HD
ENDBRANCH   1  31
BRANCH  11  34
HETATM   34  N5  UNL     1      81.729 -12.549   8.149  1.00  0.00    -0.020 N 
HETATM   35  N6  UNL     1      82.589 -12.361   9.131  1.00  0.00    -0.274 N 
HETATM   36  C5  UNL     1      82.502 -11.073   9.561  1.00  0.00     0.140 A 
ATOM     37  H6  UNL     1      83.219 -13.069   9.508  1.00  0.00     0.188 HD
HETATM   38  C6  UNL     1      81.540 -10.461   8.794  1.00  0.00     0.091 A 
HETATM   39  N8  UNL     1      81.097 -11.405   7.946  1.00  0.00    -0.263 N 
ATOM     40  H8  UNL     1      80.373 -11.259   7.242  1.00  0.00     0.189 HD
BRANCH  38  41
HETATM   41  C7  UNL     1      81.099  -9.048   8.907  1.00  0.00     0.291 C 
BRANCH  41  42
HETATM   42  O2  UNL     1      81.823  -8.297   9.797  1.00  0.00    -0.372 OA
ATOM     43  H2  UNL     1      81.316  -7.642  10.263  1.00  0.00     0.212 HD
ENDBRANCH  41  42
BRANCH  41  44
HETATM   44  N7  UNL     1      79.651  -8.996   9.173  1.00  0.00    -0.065 NA
BRANCH  44  45
HETATM   45  O3  UNL     1      79.076  -9.456   8.022  1.00  0.00    -0.293 OA
ATOM     46  H3  UNL     1      79.696 -10.090   7.682  1.00  0.00     0.238 HD
ENDBRANCH  44  45
ENDBRANCH  41  44
ENDBRANCH  38  41
ENDBRANCH  11  34
TORSDOF 10
ENDMDL
MODEL 3
REMARK VINA RESULT: -8.236433732      4.529      7.664
REMARK  10 active torsions:
REMARK  status: ('A' for Active; 'I' for Inactive)
REMARK    1  A    between atoms: N1_1  and  C1_4 
REMARK    2  A    between atoms: C4_14  and  N5_15 
REMARK    3  A    between atoms: C6_19  and  C7_20 
REMARK    4  A    between atoms: C7_20  and  O2_21 
REMARK    5  A    between atoms: C7_20  and  N7_23 
REMARK    6  A    between atoms: N7_23  and  O3_24 
REMARK    7  A    between atoms: N10_31  and  C9_32 
REMARK    8  A    between atoms: C10_37  and  C11_38 
REMARK    9  A    between atoms: C11_38  and  N13_39 
REMARK   10  A    between atoms: N13_39  and  C12_42 
ROOT
HETATM    1  C1  UNL     1      80.886 -15.380   3.283  1.00  0.00     0.700 A 
HETATM    2  N2  UNL     1      81.774 -16.109   3.944  1.00  0.00    -0.172 N 
ATOM      3  H2  UNL     1      82.269 -16.923   3.580  1.00  0.00     0.186 HD
HETATM    4  C2  UNL     1      81.911 -15.589   5.186  1.00  0.00     0.171 A 
HETATM    5  N3  UNL     1      82.745 -16.096   6.135  1.00  0.00    -0.290 N 
ATOM      6  H3  UNL     1      83.522 -16.679   5.823  1.00  0.00     0.172 HD
HETATM    7  C3  UNL     1      82.614 -15.879   7.478  1.00  0.00     0.340 C 
HETATM    8  O1  UNL     1      83.079 -16.792   8.184  1.00  0.00    -0.246 OA
HETATM    9  N4  UNL     1      82.043 -14.796   8.085  1.00  0.00    -0.138 N 
ATOM     10  H4  UNL     1      81.984 -14.841   9.103  1.00  0.00     0.189 HD
HETATM   11  C4  UNL     1      81.547 -13.672   7.520  1.00  0.00     0.724 C 
HETATM   12  N9  UNL     1      80.877 -13.662   6.351  1.00  0.00    -0.168 N 
ATOM     13  H9  UNL     1      80.147 -12.957   6.250  1.00  0.00     0.186 HD
HETATM   14  C8  UNL     1      81.072 -14.498   5.287  1.00  0.00     0.207 A 
HETATM   15  N10 UNL     1      80.447 -14.379   4.108  1.00  0.00     0.043 N 
ENDROOT
BRANCH  15  16
HETATM   16  C9  UNL     1      79.481 -13.418   3.709  1.00  0.00     0.721 A 
HETATM   17  N11 UNL     1      78.203 -13.329   4.086  1.00  0.00    -0.129 N 
HETATM   18  N12 UNL     1      77.643 -12.308   3.481  1.00  0.00    -0.273 N 
ATOM     19  H11 UNL     1      77.736 -13.956   4.741  1.00  0.00     0.205 HD
HETATM   20  C10 UNL     1      78.577 -11.719   2.692  1.00  0.00     0.138 A 
ATOM     21  H12 UNL     1      76.674 -12.009   3.586  1.00  0.00     0.189 HD
HETATM   22  N14 UNL     1      79.698 -12.426   2.854  1.00  0.00    -0.175 N 
ATOM     23  H14 UNL     1      80.586 -12.232   2.391  1.00  0.00     0.185 HD
BRANCH  20  24
HETATM   24  C11 UNL     1      78.275 -10.547   1.857  1.00  0.00     0.310 C 
BRANCH  24  25
HETATM   25  N13 UNL     1      76.893 -10.439   1.460  1.00  0.00    -0.064 N 
ATOM     26 2H13 UNL     1      76.772 -10.538   0.452  1.00  0.00     0.278 HD
ATOM     27 1H13 UNL     1      76.343 -11.247   1.752  1.00  0.00     0.278 HD
BRANCH  25  28
HETATM   28  C12 UNL     1      76.337  -9.179   1.966  1.00  0.00     0.186 A 
HETATM   29  C13 UNL     1      74.840  -9.074   1.970  1.00  0.00     0.035 A 
HETATM   30  C14 UNL     1      75.596  -9.250   3.252  1.00  0.00     0.035 A 
ENDBRANCH  25  28
ENDBRANCH  24  25
ENDBRANCH  20  24
ENDBRANCH  15  16
BRANCH   1  31
HETATM   31  N1  UNL     1      80.522 -15.610   2.056  1.00  0.00    -0.233 N 
ATOM     32  H12 UNL     1      81.091 -15.995   1.303  1.00  0.00     0.174 HD
ATOM     33  H11 UNL     1      79.587 -15.425   1.692  1.00  0.00     0.174 HD
ENDBRANCH   1  31
BRANCH  11  34
HETATM   34  N5  UNL     1      81.751 -12.444   8.203  1.00  0.00    -0.020 N 
HETATM   35  N6  UNL     1      82.616 -12.167   9.160  1.00  0.00    -0.274 N 
HETATM   36  C5  UNL     1      82.467 -10.868   9.535  1.00  0.00     0.140 A 
ATOM     37  H6  UNL     1      83.290 -12.823   9.556  1.00  0.00     0.188 HD
HETATM   38  C6  UNL     1      81.461 -10.342   8.761  1.00  0.00     0.091 A 
HETATM   39  N8  UNL     1      81.056 -11.345   7.963  1.00  0.00    -0.263 N 
ATOM     40  H8  UNL     1      80.314 -11.268   7.267  1.00  0.00     0.189 HD
BRANCH  38  41
HETATM   41  C7  UNL     1      80.947  -8.951   8.822  1.00  0.00     0.291 C 
BRANCH  41  42
HETATM   42  O2  UNL     1      81.673  -8.111   9.627  1.00  0.00    -0.372 OA
ATOM     43  H2  UNL     1      81.237  -7.866  10.435  1.00  0.00     0.212 HD
ENDBRANCH  41  42
BRANCH  41  44
HETATM   44  N7  UNL     1      79.515  -8.962   9.165  1.00  0.00    -0.065 NA
BRANCH  44  45
HETATM   45  O3  UNL     1      78.912  -9.570   8.100  1.00  0.00    -0.293 OA
ATOM     46  H3  UNL     1      79.515  -9.438   7.378  1.00  0.00     0.238 HD
ENDBRANCH  44  45
ENDBRANCH  41  44
ENDBRANCH  38  41
ENDBRANCH  11  34
TORSDOF 10
ENDMDL
MODEL 4
REMARK VINA RESULT: -8.153866741      3.148      7.548
REMARK  10 active torsions:
REMARK  status: ('A' for Active; 'I' for Inactive)
REMARK    1  A    between atoms: N1_1  and  C1_4 
REMARK    2  A    between atoms: C4_14  and  N5_15 
REMARK    3  A    between atoms: C6_19  and  C7_20 
REMARK    4  A    between atoms: C7_20  and  O2_21 
REMARK    5  A    between atoms: C7_20  and  N7_23 
REMARK    6  A    between atoms: N7_23  and  O3_24 
REMARK    7  A    between atoms: N10_31  and  C9_32 
REMARK    8  A    between atoms: C10_37  and  C11_38 
REMARK    9  A    between atoms: C11_38  and  N13_39 
REMARK   10  A    between atoms: N13_39  and  C12_42 
ROOT
HETATM    1  C1  UNL     1      81.768 -14.924   5.422  1.00  0.00     0.700 A 
HETATM    2  N2  UNL     1      81.053 -15.832   4.772  1.00  0.00    -0.172 N 
ATOM      3  H2  UNL     1      81.177 -16.104   3.798  1.00  0.00     0.186 HD
HETATM    4  C2  UNL     1      80.130 -16.335   5.625  1.00  0.00     0.171 A 
HETATM    5  N3  UNL     1      79.222 -17.292   5.284  1.00  0.00    -0.290 N 
ATOM      6  H3  UNL     1      79.432 -17.880   4.478  1.00  0.00     0.172 HD
HETATM    7  C3  UNL     1      78.050 -17.519   5.948  1.00  0.00     0.340 C 
HETATM    8  O1  UNL     1      77.153 -18.005   5.236  1.00  0.00    -0.246 OA
HETATM    9  N4  UNL     1      77.788 -17.270   7.266  1.00  0.00    -0.138 N 
ATOM     10  H4  UNL     1      76.830 -17.451   7.567  1.00  0.00     0.189 HD
HETATM   11  C4  UNL     1      78.627 -16.817   8.225  1.00  0.00     0.724 C 
HETATM   12  N9  UNL     1      79.583 -15.895   8.001  1.00  0.00    -0.168 N 
ATOM     13  H9  UNL     1      79.804 -15.270   8.775  1.00  0.00     0.186 HD
HETATM   14  C8  UNL     1      80.287 -15.708   6.844  1.00  0.00     0.207 A 
HETATM   15  N10 UNL     1      81.300 -14.842   6.706  1.00  0.00     0.043 N 
ENDROOT
BRANCH  15  16
HETATM   16  C9  UNL     1      81.846 -13.955   7.672  1.00  0.00     0.721 A 
HETATM   17  N11 UNL     1      82.747 -14.224   8.619  1.00  0.00    -0.129 N 
HETATM   18  N12 UNL     1      82.979 -13.136   9.317  1.00  0.00    -0.273 N 
ATOM     19  H11 UNL     1      83.186 -15.131   8.776  1.00  0.00     0.205 HD
HETATM   20  C10 UNL     1      82.211 -12.138   8.813  1.00  0.00     0.138 A 
ATOM     21  H12 UNL     1      83.624 -13.056  10.102  1.00  0.00     0.189 HD
HETATM   22  N14 UNL     1      81.524 -12.673   7.800  1.00  0.00    -0.175 N 
ATOM     23  H14 UNL     1      80.856 -12.173   7.215  1.00  0.00     0.185 HD
BRANCH  20  24
HETATM   24  C11 UNL     1      82.216 -10.781   9.377  1.00  0.00     0.310 C 
BRANCH  24  25
HETATM   25  N13 UNL     1      81.926  -9.739   8.423  1.00  0.00    -0.064 N 
ATOM     26 2H13 UNL     1      82.757  -9.203   8.173  1.00  0.00     0.278 HD
ATOM     27 1H13 UNL     1      81.709 -10.111   7.499  1.00  0.00     0.278 HD
BRANCH  25  28
HETATM   28  C12 UNL     1      80.852  -8.886   8.944  1.00  0.00     0.186 A 
HETATM   29  C13 UNL     1      80.295  -7.872   7.989  1.00  0.00     0.035 A 
HETATM   30  C14 UNL     1      79.501  -9.088   8.358  1.00  0.00     0.035 A 
ENDBRANCH  25  28
ENDBRANCH  24  25
ENDBRANCH  20  24
ENDBRANCH  15  16
BRANCH   1  31
HETATM   31  N1  UNL     1      82.743 -14.247   4.892  1.00  0.00    -0.233 N 
ATOM     32  H12 UNL     1      82.745 -13.764   3.993  1.00  0.00     0.174 HD
ATOM     33  H11 UNL     1      83.653 -14.115   5.331  1.00  0.00     0.174 HD
ENDBRANCH   1  31
BRANCH  11  34
HETATM   34  N5  UNL     1      78.484 -17.352   9.533  1.00  0.00    -0.020 N 
HETATM   35  N6  UNL     1      77.394 -17.448  10.270  1.00  0.00    -0.274 N 
HETATM   36  C5  UNL     1      77.711 -18.018  11.464  1.00  0.00     0.140 A 
ATOM     37  H6  UNL     1      76.462 -17.143   9.989  1.00  0.00     0.188 HD
HETATM   38  C6  UNL     1      79.060 -18.276  11.438  1.00  0.00     0.091 A 
HETATM   39  N8  UNL     1      79.487 -17.851  10.237  1.00  0.00    -0.263 N 
ATOM     40  H8  UNL     1      80.453 -17.906   9.912  1.00  0.00     0.189 HD
BRANCH  38  41
HETATM   41  C7  UNL     1      79.853 -18.895  12.530  1.00  0.00     0.291 C 
BRANCH  41  42
HETATM   42  O2  UNL     1      79.741 -18.263  13.742  1.00  0.00    -0.372 OA
ATOM     43  H2  UNL     1      79.444 -18.822  14.451  1.00  0.00     0.212 HD
ENDBRANCH  41  42
BRANCH  41  44
HETATM   44  N7  UNL     1      81.254 -19.049  12.102  1.00  0.00    -0.065 NA
BRANCH  44  45
HETATM   45  O3  UNL     1      81.802 -17.808  12.269  1.00  0.00    -0.293 OA
ATOM     46  H3  UNL     1      82.740 -17.960  12.270  1.00  0.00     0.238 HD
ENDBRANCH  44  45
ENDBRANCH  41  44
ENDBRANCH  38  41
ENDBRANCH  11  34
TORSDOF 10
ENDMDL
MODEL 5
REMARK VINA RESULT: -7.870765109      4.667      8.611
REMARK  10 active torsions:
REMARK  status: ('A' for Active; 'I' for Inactive)
REMARK    1  A    between atoms: N1_1  and  C1_4 
REMARK    2  A    between atoms: C4_14  and  N5_15 
REMARK    3  A    between atoms: C6_19  and  C7_20 
REMARK    4  A    between atoms: C7_20  and  O2_21 
REMARK    5  A    between atoms: C7_20  and  N7_23 
REMARK    6  A    between atoms: N7_23  and  O3_24 
REMARK    7  A    between atoms: N10_31  and  C9_32 
REMARK    8  A    between atoms: C10_37  and  C11_38 
REMARK    9  A    between atoms: C11_38  and  N13_39 
REMARK   10  A    between atoms: N13_39  and  C12_42 
ROOT
HETATM    1  C1  UNL     1      78.818 -15.576   2.410  1.00  0.00     0.700 A 
HETATM    2  N2  UNL     1      79.030 -16.709   3.065  1.00  0.00    -0.172 N 
ATOM      3  H2  UNL     1      78.948 -17.648   2.677  1.00  0.00     0.186 HD
HETATM    4  C2  UNL     1      79.372 -16.404   4.338  1.00  0.00     0.171 A 
HETATM    5  N3  UNL     1      79.658 -17.335   5.292  1.00  0.00    -0.290 N 
ATOM      6  H3  UNL     1      79.936 -18.265   4.980  1.00  0.00     0.172 HD
HETATM    7  C3  UNL     1      79.597 -17.108   6.638  1.00  0.00     0.340 C 
HETATM    8  O1  UNL     1      79.360 -18.128   7.310  1.00  0.00    -0.246 OA
HETATM    9  N4  UNL     1      79.767 -15.915   7.281  1.00  0.00    -0.138 N 
ATOM     10  H4  UNL     1      79.624 -15.933   8.291  1.00  0.00     0.189 HD
HETATM   11  C4  UNL     1      80.098 -14.712   6.759  1.00  0.00     0.724 C 
HETATM   12  N9  UNL     1      79.654 -14.271   5.566  1.00  0.00    -0.168 N 
ATOM     13  H9  UNL     1      79.515 -13.265   5.475  1.00  0.00     0.186 HD
HETATM   14  C8  UNL     1      79.369 -15.031   4.466  1.00  0.00     0.207 A 
HETATM   15  N10 UNL     1      79.026 -14.532   3.270  1.00  0.00     0.043 N 
ENDROOT
BRANCH  15  16
HETATM   16  C9  UNL     1      78.878 -13.173   2.886  1.00  0.00     0.721 A 
HETATM   17  N11 UNL     1      77.858 -12.351   3.146  1.00  0.00    -0.129 N 
HETATM   18  N12 UNL     1      78.096 -11.180   2.604  1.00  0.00    -0.273 N 
ATOM     19  H11 UNL     1      77.025 -12.595   3.682  1.00  0.00     0.205 HD
HETATM   20  C10 UNL     1      79.297 -11.241   1.976  1.00  0.00     0.138 A 
ATOM     21  H12 UNL     1      77.485 -10.365   2.647  1.00  0.00     0.189 HD
HETATM   22  N14 UNL     1      79.754 -12.481   2.168  1.00  0.00    -0.175 N 
ATOM     23  H14 UNL     1      80.641 -12.841   1.817  1.00  0.00     0.185 HD
BRANCH  20  24
HETATM   24  C11 UNL     1      79.863 -10.096   1.248  1.00  0.00     0.310 C 
BRANCH  24  25
HETATM   25  N13 UNL     1      80.565 -10.449   0.038  1.00  0.00    -0.064 N 
ATOM     26 2H13 UNL     1      81.523 -10.100   0.032  1.00  0.00     0.278 HD
ATOM     27 1H13 UNL     1      80.773 -11.446  -0.011  1.00  0.00     0.278 HD
BRANCH  25  28
HETATM   28  C12 UNL     1      79.798  -9.984  -1.123  1.00  0.00     0.186 A 
HETATM   29  C13 UNL     1      80.161 -10.602  -2.442  1.00  0.00     0.035 A 
HETATM   30  C14 UNL     1      78.884 -10.974  -1.753  1.00  0.00     0.035 A 
ENDBRANCH  25  28
ENDBRANCH  24  25
ENDBRANCH  20  24
ENDBRANCH  15  16
BRANCH   1  31
HETATM   31  N1  UNL     1      78.472 -15.511   1.158  1.00  0.00    -0.233 N 
ATOM     32  H12 UNL     1      77.834 -14.843   0.725  1.00  0.00     0.174 HD
ATOM     33  H11 UNL     1      78.813 -16.145   0.437  1.00  0.00     0.174 HD
ENDBRANCH   1  31
BRANCH  11  34
HETATM   34  N5  UNL     1      80.964 -13.879   7.518  1.00  0.00    -0.020 N 
HETATM   35  N6  UNL     1      82.012 -14.222   8.242  1.00  0.00    -0.274 N 
HETATM   36  C5  UNL     1      82.548 -13.108   8.808  1.00  0.00     0.140 A 
ATOM     37  H6  UNL     1      82.364 -15.172   8.359  1.00  0.00     0.188 HD
HETATM   38  C6  UNL     1      81.780 -12.044   8.400  1.00  0.00     0.091 A 
HETATM   39  N8  UNL     1      80.825 -12.567   7.613  1.00  0.00    -0.263 N 
ATOM     40  H8  UNL     1      80.093 -12.026   7.152  1.00  0.00     0.189 HD
BRANCH  38  41
HETATM   41  C7  UNL     1      81.987 -10.622   8.772  1.00  0.00     0.291 C 
BRANCH  41  42
HETATM   42  O2  UNL     1      83.149 -10.377   9.458  1.00  0.00    -0.372 OA
ATOM     43  H2  UNL     1      83.248 -10.881  10.258  1.00  0.00     0.212 HD
ENDBRANCH  41  42
BRANCH  41  44
HETATM   44  N7  UNL     1      80.798 -10.113   9.477  1.00  0.00    -0.065 NA
BRANCH  44  45
HETATM   45  O3  UNL     1      79.823 -10.076   8.521  1.00  0.00    -0.293 OA
ATOM     46  H3  UNL     1      79.198  -9.437   8.843  1.00  0.00     0.238 HD
ENDBRANCH  44  45
ENDBRANCH  41  44
ENDBRANCH  38  41
ENDBRANCH  11  34
TORSDOF 10
ENDMDL
