MODEL 1
REMARK VINA RESULT: -5.597985575      0.000      0.000
REMARK  4 active torsions:
REMARK  status: ('A' for Active; 'I' for Inactive)
REMARK    1  A    between atoms: N1_1  and  C1_5 
REMARK    2  A    between atoms: C1_5  and  C2_6 
REMARK    3  A    between atoms: C2_6  and  C3_7 
REMARK    4  A    between atoms: C3_7  and  N2_8 
ROOT
HETATM    1  N2  UNL     1     -44.688   4.862 -32.122  1.00  0.00    -0.310 N 
HETATM    2  C4  UNL     1     -45.361   3.686 -32.089  1.00  0.00     0.097 A 
HETATM    3  C5  UNL     1     -45.993   3.182 -33.201  1.00  0.00     0.034 A 
HETATM    4  C6  UNL     1     -45.930   3.891 -34.358  1.00  0.00     0.094 A 
HETATM    5  N3  UNL     1     -45.267   5.062 -34.412  1.00  0.00    -0.319 N 
ATOM      6  H3  UNL     1     -45.219   5.598 -35.279  1.00  0.00     0.170 HD
HETATM    7  C7  UNL     1     -44.672   5.504 -33.298  1.00  0.00     0.326 A 
HETATM    8  O1  UNL     1     -44.049   6.609 -33.362  1.00  0.00    -0.246 OA
ENDROOT
BRANCH   1   9
HETATM    9  C3  UNL     1     -44.007   5.443 -30.988  1.00  0.00     0.135 C 
BRANCH   9  10
HETATM   10  C2  UNL     1     -45.012   5.551 -29.867  1.00  0.00     0.047 C 
BRANCH  10  11
HETATM   11  C1  UNL     1     -45.994   6.669 -30.062  1.00  0.00     0.231 C 
BRANCH  11  12
HETATM   12  N1  UNL     1     -47.308   6.064 -30.208  1.00  0.00    -0.079 N 
ATOM     13  H13 UNL     1     -48.068   6.691 -29.946  1.00  0.00     0.274 HD
ATOM     14  H12 UNL     1     -47.579   5.928 -31.181  1.00  0.00     0.274 HD
ATOM     15  H11 UNL     1     -47.301   5.198 -29.670  1.00  0.00     0.274 HD
ENDBRANCH  11  12
ENDBRANCH  10  11
ENDBRANCH   9  10
ENDBRANCH   1   9
TORSDOF 4
ENDMDL
MODEL 2
REMARK VINA RESULT: -5.533967066      1.732      2.103
REMARK  4 active torsions:
REMARK  status: ('A' for Active; 'I' for Inactive)
REMARK    1  A    between atoms: N1_1  and  C1_5 
REMARK    2  A    between atoms: C1_5  and  C2_6 
REMARK    3  A    between atoms: C2_6  and  C3_7 
REMARK    4  A    between atoms: C3_7  and  N2_8 
ROOT
HETATM    1  N2  UNL     1     -45.040   4.552 -32.207  1.00  0.00    -0.310 N 
HETATM    2  C4  UNL     1     -44.617   5.426 -33.153  1.00  0.00     0.097 A 
HETATM    3  C5  UNL     1     -44.632   5.107 -34.491  1.00  0.00     0.034 A 
HETATM    4  C6  UNL     1     -45.089   3.882 -34.859  1.00  0.00     0.094 A 
HETATM    5  N3  UNL     1     -45.514   3.000 -33.934  1.00  0.00    -0.319 N 
ATOM      6  H3  UNL     1     -45.857   2.079 -34.208  1.00  0.00     0.170 HD
HETATM    7  C7  UNL     1     -45.475   3.365 -32.648  1.00  0.00     0.326 A 
HETATM    8  O1  UNL     1     -45.880   2.524 -31.786  1.00  0.00    -0.246 OA
ENDROOT
BRANCH   1   9
HETATM    9  C3  UNL     1     -45.047   4.828 -30.789  1.00  0.00     0.135 C 
BRANCH   9  10
HETATM   10  C2  UNL     1     -44.990   6.328 -30.622  1.00  0.00     0.047 C 
BRANCH  10  11
HETATM   11  C1  UNL     1     -46.218   6.894 -29.972  1.00  0.00     0.231 C 
BRANCH  11  12
HETATM   12  N1  UNL     1     -47.289   5.930 -30.166  1.00  0.00    -0.079 N 
ATOM     13  H13 UNL     1     -46.997   5.110 -30.698  1.00  0.00     0.274 HD
ATOM     14  H12 UNL     1     -47.550   5.445 -29.308  1.00  0.00     0.274 HD
ATOM     15  H11 UNL     1     -48.067   6.429 -30.596  1.00  0.00     0.274 HD
ENDBRANCH  11  12
ENDBRANCH  10  11
ENDBRANCH   9  10
ENDBRANCH   1   9
TORSDOF 4
ENDMDL
MODEL 3
REMARK VINA RESULT: -5.434447085      1.084      1.095
REMARK  4 active torsions:
REMARK  status: ('A' for Active; 'I' for Inactive)
REMARK    1  A    between atoms: N1_1  and  C1_5 
REMARK    2  A    between atoms: C1_5  and  C2_6 
REMARK    3  A    between atoms: C2_6  and  C3_7 
REMARK    4  A    between atoms: C3_7  and  N2_8 
ROOT
HETATM    1  N2  UNL     1     -45.062   4.709 -32.108  1.00  0.00    -0.310 N 
HETATM    2  C4  UNL     1     -45.616   3.557 -32.562  1.00  0.00     0.097 A 
HETATM    3  C5  UNL     1     -45.735   3.291 -33.906  1.00  0.00     0.034 A 
HETATM    4  C6  UNL     1     -45.279   4.216 -34.791  1.00  0.00     0.094 A 
HETATM    5  N3  UNL     1     -44.726   5.366 -34.360  1.00  0.00    -0.319 N 
ATOM      6  H3  UNL     1     -44.384   6.062 -35.023  1.00  0.00     0.170 HD
HETATM    7  C7  UNL     1     -44.638   5.570 -33.041  1.00  0.00     0.326 A 
HETATM    8  O1  UNL     1     -44.113   6.659 -32.649  1.00  0.00    -0.246 OA
ENDROOT
BRANCH   1   9
HETATM    9  C3  UNL     1     -44.911   5.045 -30.712  1.00  0.00     0.135 C 
BRANCH   9  10
HETATM   10  C2  UNL     1     -46.265   5.483 -30.205  1.00  0.00     0.047 C 
BRANCH  10  11
HETATM   11  C1  UNL     1     -46.316   6.940 -29.850  1.00  0.00     0.231 C 
BRANCH  11  12
HETATM   12  N1  UNL     1     -45.079   7.253 -29.152  1.00  0.00    -0.079 N 
ATOM     13  H13 UNL     1     -44.299   6.660 -29.434  1.00  0.00     0.274 HD
ATOM     14  H12 UNL     1     -44.675   8.145 -29.436  1.00  0.00     0.274 HD
ATOM     15  H11 UNL     1     -45.278   7.205 -28.153  1.00  0.00     0.274 HD
ENDBRANCH  11  12
ENDBRANCH  10  11
ENDBRANCH   9  10
ENDBRANCH   1   9
TORSDOF 4
ENDMDL
MODEL 4
REMARK VINA RESULT: -5.364884087      1.573      3.977
REMARK  4 active torsions:
REMARK  status: ('A' for Active; 'I' for Inactive)
REMARK    1  A    between atoms: N1_1  and  C1_5 
REMARK    2  A    between atoms: C1_5  and  C2_6 
REMARK    3  A    between atoms: C2_6  and  C3_7 
REMARK    4  A    between atoms: C3_7  and  N2_8 
ROOT
HETATM    1  N2  UNL     1     -44.856   4.782 -32.212  1.00  0.00    -0.310 N 
HETATM    2  C4  UNL     1     -45.480   4.548 -31.031  1.00  0.00     0.097 A 
HETATM    3  C5  UNL     1     -45.193   5.279 -29.903  1.00  0.00     0.034 A 
HETATM    4  C6  UNL     1     -44.258   6.261 -29.989  1.00  0.00     0.094 A 
HETATM    5  N3  UNL     1     -43.627   6.510 -31.152  1.00  0.00    -0.319 N 
ATOM      6  H3  UNL     1     -42.924   7.246 -31.220  1.00  0.00     0.170 HD
HETATM    7  C7  UNL     1     -43.947   5.766 -32.217  1.00  0.00     0.326 A 
HETATM    8  O1  UNL     1     -43.345   6.012 -33.309  1.00  0.00    -0.246 OA
ENDROOT
BRANCH   1   9
HETATM    9  C3  UNL     1     -45.114   4.049 -33.429  1.00  0.00     0.135 C 
BRANCH   9  10
HETATM   10  C2  UNL     1     -46.183   3.027 -33.121  1.00  0.00     0.047 C 
BRANCH  10  11
HETATM   11  C1  UNL     1     -46.344   2.000 -34.202  1.00  0.00     0.231 C 
BRANCH  11  12
HETATM   12  N1  UNL     1     -45.112   1.994 -34.973  1.00  0.00    -0.079 N 
ATOM     13  H13 UNL     1     -45.239   1.657 -35.928  1.00  0.00     0.274 HD
ATOM     14  H12 UNL     1     -44.781   2.929 -35.206  1.00  0.00     0.274 HD
ATOM     15  H11 UNL     1     -44.430   1.448 -34.445  1.00  0.00     0.274 HD
ENDBRANCH  11  12
ENDBRANCH  10  11
ENDBRANCH   9  10
ENDBRANCH   1   9
TORSDOF 4
ENDMDL
MODEL 5
REMARK VINA RESULT: -5.334789719      2.312      2.725
REMARK  4 active torsions:
REMARK  status: ('A' for Active; 'I' for Inactive)
REMARK    1  A    between atoms: N1_1  and  C1_5 
REMARK    2  A    between atoms: C1_5  and  C2_6 
REMARK    3  A    between atoms: C2_6  and  C3_7 
REMARK    4  A    between atoms: C3_7  and  N2_8 
ROOT
HETATM    1  N2  UNL     1     -45.382   4.029 -32.491  1.00  0.00    -0.310 N 
HETATM    2  C4  UNL     1     -44.864   4.736 -33.525  1.00  0.00     0.097 A 
HETATM    3  C5  UNL     1     -44.769   4.204 -34.789  1.00  0.00     0.034 A 
HETATM    4  C6  UNL     1     -45.210   2.935 -34.992  1.00  0.00     0.094 A 
HETATM    5  N3  UNL     1     -45.728   2.216 -33.978  1.00  0.00    -0.319 N 
ATOM      6  H3  UNL     1     -46.060   1.263 -34.127  1.00  0.00     0.170 HD
HETATM    7  C7  UNL     1     -45.796   2.786 -32.769  1.00  0.00     0.326 A 
HETATM    8  O1  UNL     1     -46.288   2.097 -31.821  1.00  0.00    -0.246 OA
ENDROOT
BRANCH   1   9
HETATM    9  C3  UNL     1     -45.508   4.532 -31.142  1.00  0.00     0.135 C 
BRANCH   9  10
HETATM   10  C2  UNL     1     -44.352   5.475 -30.904  1.00  0.00     0.047 C 
BRANCH  10  11
HETATM   11  C1  UNL     1     -44.526   6.320 -29.678  1.00  0.00     0.231 C 
BRANCH  11  12
HETATM   12  N1  UNL     1     -43.293   6.222 -28.913  1.00  0.00    -0.079 N 
ATOM     13  H13 UNL     1     -42.789   5.351 -29.076  1.00  0.00     0.274 HD
ATOM     14  H12 UNL     1     -42.567   6.858 -29.241  1.00  0.00     0.274 HD
ATOM     15  H11 UNL     1     -43.536   6.365 -27.932  1.00  0.00     0.274 HD
ENDBRANCH  11  12
ENDBRANCH  10  11
ENDBRANCH   9  10
ENDBRANCH   1   9
TORSDOF 4
ENDMDL
