MODEL 1
REMARK VINA RESULT: -6.213088935      0.000      0.000
REMARK  3 active torsions:
REMARK  status: ('A' for Active; 'I' for Inactive)
REMARK    1  A    between atoms: N3_4  and  C2_6 
REMARK    2  A    between atoms: C2_6  and  C3_7 
REMARK    3  A    between atoms: C3_7  and  N4_8 
ROOT
HETATM    1  N4  UNL     1     -45.166   5.064 -31.536  1.00  0.00    -0.286 N 
HETATM    2  C4  UNL     1     -44.904   6.207 -30.871  1.00  0.00     0.130 A 
HETATM    3  C5  UNL     1     -46.013   6.560 -30.109  1.00  0.00     0.127 A 
HETATM    4  N5  UNL     1     -46.913   5.588 -30.357  1.00  0.00    -0.296 N 
ATOM      5  H5  UNL     1     -47.849   5.534 -29.957  1.00  0.00     0.187 HD
HETATM    6  N6  UNL     1     -46.392   4.723 -31.197  1.00  0.00    -0.241 N 
ATOM      7  H6  UNL     1     -46.875   3.893 -31.542  1.00  0.00     0.208 HD
ENDROOT
BRANCH   1   8
HETATM    8  C3  UNL     1     -44.279   4.340 -32.449  1.00  0.00     0.169 C 
BRANCH   8   9
HETATM    9  C2  UNL     1     -44.969   4.305 -33.784  1.00  0.00     0.143 C 
BRANCH   9  10
HETATM   10  N3  UNL     1     -45.038   3.011 -34.375  1.00  0.00    -0.365 N 
HETATM   11  C1  UNL     1     -46.080   2.268 -34.235  1.00  0.00     0.197 C 
HETATM   12  N1  UNL     1     -47.174   2.762 -33.474  1.00  0.00    -0.067 NA
HETATM   13  N2  UNL     1     -46.212   0.971 -34.798  1.00  0.00    -0.067 NA
ATOM     14  H3  UNL     1     -44.247   2.666 -34.919  1.00  0.00     0.161 HD
ENDBRANCH   9  10
ENDBRANCH   8   9
ENDBRANCH   1   8
TORSDOF 3
ENDMDL
MODEL 2
REMARK VINA RESULT: -5.981083833      1.800      4.790
REMARK  3 active torsions:
REMARK  status: ('A' for Active; 'I' for Inactive)
REMARK    1  A    between atoms: N3_4  and  C2_6 
REMARK    2  A    between atoms: C2_6  and  C3_7 
REMARK    3  A    between atoms: C3_7  and  N4_8 
ROOT
HETATM    1  N4  UNL     1     -45.207   4.398 -33.318  1.00  0.00    -0.286 N 
HETATM    2  C4  UNL     1     -45.293   3.424 -34.246  1.00  0.00     0.130 A 
HETATM    3  C5  UNL     1     -46.390   2.616 -33.963  1.00  0.00     0.127 A 
HETATM    4  N5  UNL     1     -46.925   3.155 -32.851  1.00  0.00    -0.296 N 
ATOM      5  H5  UNL     1     -47.752   2.808 -32.364  1.00  0.00     0.187 HD
HETATM    6  N6  UNL     1     -46.213   4.200 -32.492  1.00  0.00    -0.241 N 
ATOM      7  H6  UNL     1     -46.415   4.782 -31.679  1.00  0.00     0.208 HD
ENDROOT
BRANCH   1   8
HETATM    8  C3  UNL     1     -44.207   5.464 -33.235  1.00  0.00     0.169 C 
BRANCH   8   9
HETATM    9  C2  UNL     1     -44.535   6.270 -32.009  1.00  0.00     0.143 C 
BRANCH   9  10
HETATM   10  N3  UNL     1     -43.584   6.150 -30.956  1.00  0.00    -0.365 N 
HETATM   11  C1  UNL     1     -43.924   6.322 -29.726  1.00  0.00     0.197 C 
HETATM   12  N1  UNL     1     -45.278   6.637 -29.430  1.00  0.00    -0.067 NA
HETATM   13  N2  UNL     1     -43.026   6.217 -28.631  1.00  0.00    -0.067 NA
ATOM     14  H3  UNL     1     -42.614   5.923 -31.179  1.00  0.00     0.161 HD
ENDBRANCH   9  10
ENDBRANCH   8   9
ENDBRANCH   1   8
TORSDOF 3
ENDMDL
MODEL 3
REMARK VINA RESULT: -5.672666173      2.336      5.372
REMARK  3 active torsions:
REMARK  status: ('A' for Active; 'I' for Inactive)
REMARK    1  A    between atoms: N3_4  and  C2_6 
REMARK    2  A    between atoms: C2_6  and  C3_7 
REMARK    3  A    between atoms: C3_7  and  N4_8 
ROOT
HETATM    1  N4  UNL     1     -45.223   4.671 -32.476  1.00  0.00    -0.286 N 
HETATM    2  C4  UNL     1     -45.002   4.186 -33.715  1.00  0.00     0.130 A 
HETATM    3  C5  UNL     1     -46.073   3.381 -34.090  1.00  0.00     0.127 A 
HETATM    4  N5  UNL     1     -46.908   3.421 -33.034  1.00  0.00    -0.296 N 
ATOM      5  H5  UNL     1     -47.803   2.935 -32.970  1.00  0.00     0.187 HD
HETATM    6  N6  UNL     1     -46.387   4.184 -32.101  1.00  0.00    -0.241 N 
ATOM      7  H6  UNL     1     -46.828   4.376 -31.201  1.00  0.00     0.208 HD
ENDROOT
BRANCH   1   8
HETATM    8  C3  UNL     1     -44.356   5.559 -31.699  1.00  0.00     0.169 C 
BRANCH   8   9
HETATM    9  C2  UNL     1     -44.603   5.243 -30.250  1.00  0.00     0.143 C 
BRANCH   9  10
HETATM   10  N3  UNL     1     -44.556   6.375 -29.387  1.00  0.00    -0.365 N 
HETATM   11  C1  UNL     1     -43.525   6.612 -28.653  1.00  0.00     0.197 C 
HETATM   12  N1  UNL     1     -42.421   5.719 -28.717  1.00  0.00    -0.067 NA
HETATM   13  N2  UNL     1     -43.414   7.721 -27.772  1.00  0.00    -0.067 NA
ATOM     14  H3  UNL     1     -45.354   7.010 -29.348  1.00  0.00     0.161 HD
ENDBRANCH   9  10
ENDBRANCH   8   9
ENDBRANCH   1   8
TORSDOF 3
ENDMDL
MODEL 4
REMARK VINA RESULT: -5.649000922      1.951      5.553
REMARK  3 active torsions:
REMARK  status: ('A' for Active; 'I' for Inactive)
REMARK    1  A    between atoms: N3_4  and  C2_6 
REMARK    2  A    between atoms: C2_6  and  C3_7 
REMARK    3  A    between atoms: C3_7  and  N4_8 
ROOT
HETATM    1  N4  UNL     1     -45.611   1.387 -35.120  1.00  0.00    -0.286 N 
HETATM    2  C4  UNL     1     -45.646   0.243 -35.833  1.00  0.00     0.130 A 
HETATM    3  C5  UNL     1     -44.517   0.173 -36.644  1.00  0.00     0.127 A 
HETATM    4  N5  UNL     1     -43.840   1.305 -36.373  1.00  0.00    -0.296 N 
ATOM      5  H5  UNL     1     -42.953   1.580 -36.797  1.00  0.00     0.187 HD
HETATM    6  N6  UNL     1     -44.502   2.000 -35.476  1.00  0.00    -0.241 N 
ATOM      7  H6  UNL     1     -44.197   2.899 -35.104  1.00  0.00     0.208 HD
ENDROOT
BRANCH   1   8
HETATM    8  C3  UNL     1     -46.598   1.859 -34.147  1.00  0.00     0.169 C 
BRANCH   8   9
HETATM    9  C2  UNL     1     -46.375   3.338 -33.991  1.00  0.00     0.143 C 
BRANCH   9  10
HETATM   10  N3  UNL     1     -46.451   3.805 -32.647  1.00  0.00    -0.365 N 
HETATM   11  C1  UNL     1     -45.390   3.964 -31.935  1.00  0.00     0.197 C 
HETATM   12  N1  UNL     1     -44.127   3.665 -32.515  1.00  0.00    -0.067 NA
HETATM   13  N2  UNL     1     -45.397   4.425 -30.592  1.00  0.00    -0.067 NA
ATOM     14  H3  UNL     1     -47.363   4.016 -32.241  1.00  0.00     0.161 HD
ENDBRANCH   9  10
ENDBRANCH   8   9
ENDBRANCH   1   8
TORSDOF 3
ENDMDL
MODEL 5
REMARK VINA RESULT: -5.590109349      2.046      5.032
REMARK  3 active torsions:
REMARK  status: ('A' for Active; 'I' for Inactive)
REMARK    1  A    between atoms: N3_4  and  C2_6 
REMARK    2  A    between atoms: C2_6  and  C3_7 
REMARK    3  A    between atoms: C3_7  and  N4_8 
ROOT
HETATM    1  N4  UNL     1     -45.397   4.211 -32.675  1.00  0.00    -0.286 N 
HETATM    2  C4  UNL     1     -45.336   3.267 -33.636  1.00  0.00     0.130 A 
HETATM    3  C5  UNL     1     -45.046   3.871 -34.855  1.00  0.00     0.127 A 
HETATM    4  N5  UNL     1     -44.943   5.182 -34.563  1.00  0.00    -0.296 N 
ATOM      5  H5  UNL     1     -44.735   5.923 -35.233  1.00  0.00     0.187 HD
HETATM    6  N6  UNL     1     -45.152   5.355 -33.277  1.00  0.00    -0.241 N 
ATOM      7  H6  UNL     1     -45.129   6.260 -32.807  1.00  0.00     0.208 HD
ENDROOT
BRANCH   1   8
HETATM    8  C3  UNL     1     -45.674   4.015 -31.250  1.00  0.00     0.169 C 
BRANCH   8   9
HETATM    9  C2  UNL     1     -45.820   5.384 -30.647  1.00  0.00     0.143 C 
BRANCH   9  10
HETATM   10  N3  UNL     1     -45.001   5.613 -29.504  1.00  0.00    -0.365 N 
HETATM   11  C1  UNL     1     -43.829   6.132 -29.617  1.00  0.00     0.197 C 
HETATM   12  N1  UNL     1     -43.357   6.480 -30.912  1.00  0.00    -0.067 NA
HETATM   13  N2  UNL     1     -42.963   6.386 -28.519  1.00  0.00    -0.067 NA
ATOM     14  H3  UNL     1     -45.350   5.360 -28.580  1.00  0.00     0.161 HD
ENDBRANCH   9  10
ENDBRANCH   8   9
ENDBRANCH   1   8
TORSDOF 3
ENDMDL
