MODEL 1
REMARK VINA RESULT: -10.020319054      0.000      0.000
REMARK  13 active torsions:
REMARK  status: ('A' for Active; 'I' for Inactive)
REMARK    1  A    between atoms: C7_7  and  C8_8 
REMARK    2  A    between atoms: C8_8  and  C9_9 
REMARK    3  A    between atoms: C9_9  and  N1_10 
REMARK    4  A    between atoms: N1_10  and  S1_12 
REMARK    5  A    between atoms: S1_12  and  N2_15 
REMARK    6  A    between atoms: N2_15  and  C11_17 
REMARK    7  A    between atoms: C11_17  and  C12_19 
REMARK       I    between atoms: N3_20  and  C13_22 
REMARK    8  A    between atoms: C13_22  and  C14_24 
REMARK    9  A    between atoms: C14_24  and  N4_25 
REMARK   10  A    between atoms: C14_24  and  C15_29 
REMARK   11  A    between atoms: C15_29  and  C16_30 
REMARK   12  A    between atoms: C16_30  and  C17_31 
REMARK   13  A    between atoms: C17_31  and  N5_32 
REMARK       I    between atoms: N5_32  and  C18_34 
ROOT
HETATM    1  N2  UNL     1      18.826  44.439  44.524  1.00  0.00    -0.276 N 
HETATM    2  C10 UNL     1      17.863  43.605  45.107  1.00  0.00     0.166 C 
ENDROOT
BRANCH   1   3
HETATM    3  S1  UNL     1      20.065  44.955  45.496  1.00  0.00     0.318 S 
HETATM    4  O1  UNL     1      21.363  44.311  44.997  1.00  0.00    -0.183 OA
HETATM    5  O2  UNL     1      19.823  44.450  46.917  1.00  0.00    -0.183 OA
BRANCH   3   6
HETATM    6  N1  UNL     1      20.308  46.685  45.563  1.00  0.00    -0.302 N 
ATOM      7  H1  UNL     1      19.662  47.385  45.198  1.00  0.00     0.173 HD
BRANCH   6   8
HETATM    8  C9  UNL     1      21.544  46.964  46.204  1.00  0.00     0.148 C 
BRANCH   8   9
HETATM    9  C8  UNL     1      22.629  47.651  45.433  1.00  0.00     0.004 C 
HETATM   10  C19 UNL     1      23.896  46.901  45.262  1.00  0.00     0.016 C 
HETATM   11  C20 UNL     1      23.965  46.004  44.049  1.00  0.00     0.001 C 
HETATM   12  C21 UNL     1      24.710  46.672  42.904  1.00  0.00     0.000 C 
HETATM   13  C22 UNL     1      23.687  47.531  42.193  1.00  0.00     0.000 C 
HETATM   14  C23 UNL     1      23.223  48.590  43.186  1.00  0.00     0.001 C 
HETATM   15  C24 UNL     1      22.134  48.092  44.073  1.00  0.00     0.016 C 
BRANCH   9  16
HETATM   16  C7  UNL     1      22.936  48.857  46.294  1.00  0.00    -0.047 A 
HETATM   17  C6  UNL     1      22.956  50.117  45.738  1.00  0.00     0.014 A 
HETATM   18  C4  UNL     1      23.197  51.244  46.486  1.00  0.00    -0.061 A 
HETATM   19  C3  UNL     1      23.426  51.086  47.837  1.00  0.00     0.013 A 
HETATM   20  C5  UNL     1      23.189  52.597  45.829  1.00  0.00     0.048 C 
HETATM   21  C2  UNL     1      23.415  49.846  48.432  1.00  0.00    -0.061 A 
HETATM   22  C1  UNL     1      23.663  49.686  49.884  1.00  0.00     0.048 C 
HETATM   23  C25 UNL     1      23.162  48.719  47.630  1.00  0.00     0.014 A 
ENDBRANCH   9  16
ENDBRANCH   8   9
ENDBRANCH   6   8
ENDBRANCH   3   6
ENDBRANCH   1   3
BRANCH   1  24
HETATM   24  C11 UNL     1      18.926  44.472  43.150  1.00  0.00     0.232 C 
HETATM   25 CL1  UNL     1      19.633  45.987  42.511  1.00  0.00    -0.096 Cl
BRANCH  24  26
HETATM   26  C12 UNL     1      17.561  44.393  42.502  1.00  0.00     0.105 C 
HETATM   27  N3  UNL     1      17.478  44.779  41.312  1.00  0.00    -0.336 N 
HETATM   28  C13 UNL     1      16.434  44.856  40.409  1.00  0.00     0.252 C 
ATOM     29  H3  UNL     1      18.366  45.104  40.930  1.00  0.00     0.168 HD
HETATM   30  O3  UNL     1      16.742  44.631  39.183  1.00  0.00    -0.271 OA
BRANCH  28  31
HETATM   31  C14 UNL     1      15.023  45.163  40.678  1.00  0.00     0.275 C 
BRANCH  31  32
HETATM   32  N4  UNL     1      14.474  44.317  41.745  1.00  0.00    -0.066 N 
ATOM     33  H43 UNL     1      14.920  43.400  41.757  1.00  0.00     0.275 HD
ATOM     34  H42 UNL     1      14.763  44.647  42.666  1.00  0.00     0.275 HD
ATOM     35  H41 UNL     1      13.460  44.237  41.681  1.00  0.00     0.275 HD
ENDBRANCH  31  32
BRANCH  31  36
HETATM   36  C15 UNL     1      14.775  46.588  41.122  1.00  0.00     0.044 C 
BRANCH  36  37
HETATM   37  C16 UNL     1      15.506  47.606  40.297  1.00  0.00     0.022 C 
BRANCH  37  38
HETATM   38  C17 UNL     1      14.527  48.562  39.626  1.00  0.00     0.122 C 
BRANCH  38  39
HETATM   39  N5  UNL     1      13.362  47.883  39.108  1.00  0.00    -0.365 N 
HETATM   40  C18 UNL     1      12.462  48.419  38.161  1.00  0.00     0.181 C 
HETATM   41  N6  UNL     1      12.709  48.485  36.915  1.00  0.00    -0.374 N 
HETATM   42  N7  UNL     1      11.199  48.915  38.641  1.00  0.00    -0.064 NA
ATOM     43  H62 UNL     1      13.604  48.134  36.574  1.00  0.00     0.158 HD
ATOM     44  H61 UNL     1      12.059  48.872  36.230  1.00  0.00     0.158 HD
ATOM     45  H5  UNL     1      13.175  46.942  39.454  1.00  0.00     0.162 HD
ENDBRANCH  38  39
ENDBRANCH  37  38
ENDBRANCH  36  37
ENDBRANCH  31  36
ENDBRANCH  28  31
ENDBRANCH  24  26
ENDBRANCH   1  24
TORSDOF 13
ENDMDL
MODEL 2
REMARK VINA RESULT: -9.981044324      0.046      1.405
REMARK  13 active torsions:
REMARK  status: ('A' for Active; 'I' for Inactive)
REMARK    1  A    between atoms: C7_7  and  C8_8 
REMARK    2  A    between atoms: C8_8  and  C9_9 
REMARK    3  A    between atoms: C9_9  and  N1_10 
REMARK    4  A    between atoms: N1_10  and  S1_12 
REMARK    5  A    between atoms: S1_12  and  N2_15 
REMARK    6  A    between atoms: N2_15  and  C11_17 
REMARK    7  A    between atoms: C11_17  and  C12_19 
REMARK       I    between atoms: N3_20  and  C13_22 
REMARK    8  A    between atoms: C13_22  and  C14_24 
REMARK    9  A    between atoms: C14_24  and  N4_25 
REMARK   10  A    between atoms: C14_24  and  C15_29 
REMARK   11  A    between atoms: C15_29  and  C16_30 
REMARK   12  A    between atoms: C16_30  and  C17_31 
REMARK   13  A    between atoms: C17_31  and  N5_32 
REMARK       I    between atoms: N5_32  and  C18_34 
ROOT
HETATM    1  N2  UNL     1      18.803  44.411  44.514  1.00  0.00    -0.276 N 
HETATM    2  C10 UNL     1      17.828  43.607  45.120  1.00  0.00     0.166 C 
ENDROOT
BRANCH   1   3
HETATM    3  S1  UNL     1      20.046  44.940  45.474  1.00  0.00     0.318 S 
HETATM    4  O1  UNL     1      21.345  44.307  44.965  1.00  0.00    -0.183 OA
HETATM    5  O2  UNL     1      19.822  44.437  46.898  1.00  0.00    -0.183 OA
BRANCH   3   6
HETATM    6  N1  UNL     1      20.273  46.673  45.534  1.00  0.00    -0.302 N 
ATOM      7  H1  UNL     1      19.623  47.366  45.164  1.00  0.00     0.173 HD
BRANCH   6   8
HETATM    8  C9  UNL     1      21.505  46.965  46.178  1.00  0.00     0.148 C 
BRANCH   8   9
HETATM    9  C8  UNL     1      22.586  47.659  45.407  1.00  0.00     0.004 C 
HETATM   10  C19 UNL     1      23.867  46.928  45.260  1.00  0.00     0.016 C 
HETATM   11  C20 UNL     1      23.963  46.014  44.062  1.00  0.00     0.001 C 
HETATM   12  C21 UNL     1      24.709  46.677  42.915  1.00  0.00     0.000 C 
HETATM   13  C22 UNL     1      23.679  47.509  42.180  1.00  0.00     0.000 C 
HETATM   14  C23 UNL     1      23.187  48.575  43.153  1.00  0.00     0.001 C 
HETATM   15  C24 UNL     1      22.098  48.071  44.037  1.00  0.00     0.016 C 
BRANCH   9  16
HETATM   16  C7  UNL     1      22.864  48.882  46.254  1.00  0.00    -0.047 A 
HETATM   17  C6  UNL     1      23.120  48.748  47.601  1.00  0.00     0.014 A 
HETATM   18  C4  UNL     1      23.410  49.826  48.402  1.00  0.00    -0.061 A 
HETATM   19  C3  UNL     1      23.438  51.075  47.819  1.00  0.00     0.013 A 
HETATM   20  C5  UNL     1      23.700  49.618  49.863  1.00  0.00     0.048 C 
HETATM   21  C2  UNL     1      23.188  51.253  46.479  1.00  0.00    -0.061 A 
HETATM   22  C1  UNL     1      23.219  52.600  45.861  1.00  0.00     0.048 C 
HETATM   23  C25 UNL     1      22.898  50.123  45.694  1.00  0.00     0.014 A 
ENDBRANCH   9  16
ENDBRANCH   8   9
ENDBRANCH   6   8
ENDBRANCH   3   6
ENDBRANCH   1   3
BRANCH   1  24
HETATM   24  C11 UNL     1      18.908  44.400  43.140  1.00  0.00     0.232 C 
HETATM   25 CL1  UNL     1      19.657  45.875  42.459  1.00  0.00    -0.096 Cl
BRANCH  24  26
HETATM   26  C12 UNL     1      17.543  44.338  42.490  1.00  0.00     0.105 C 
HETATM   27  N3  UNL     1      17.460  44.754  41.310  1.00  0.00    -0.336 N 
HETATM   28  C13 UNL     1      16.416  44.854  40.409  1.00  0.00     0.252 C 
ATOM     29  H3  UNL     1      18.348  45.088  40.936  1.00  0.00     0.168 HD
HETATM   30  O3  UNL     1      16.725  44.660  39.178  1.00  0.00    -0.271 OA
BRANCH  28  31
HETATM   31  C14 UNL     1      15.005  45.155  40.686  1.00  0.00     0.275 C 
BRANCH  31  32
HETATM   32  N4  UNL     1      14.468  44.312  41.759  1.00  0.00    -0.066 N 
ATOM     33  H43 UNL     1      14.816  43.356  41.690  1.00  0.00     0.275 HD
ATOM     34  H42 UNL     1      14.867  44.562  42.664  1.00  0.00     0.275 HD
ATOM     35  H41 UNL     1      13.448  44.335  41.785  1.00  0.00     0.275 HD
ENDBRANCH  31  32
BRANCH  31  36
HETATM   36  C15 UNL     1      14.753  46.581  41.125  1.00  0.00     0.044 C 
BRANCH  36  37
HETATM   37  C16 UNL     1      15.497  47.598  40.311  1.00  0.00     0.022 C 
BRANCH  37  38
HETATM   38  C17 UNL     1      14.530  48.553  39.623  1.00  0.00     0.122 C 
BRANCH  38  39
HETATM   39  N5  UNL     1      13.365  47.876  39.103  1.00  0.00    -0.365 N 
HETATM   40  C18 UNL     1      12.469  48.412  38.151  1.00  0.00     0.181 C 
HETATM   41  N6  UNL     1      12.721  48.473  36.905  1.00  0.00    -0.374 N 
HETATM   42  N7  UNL     1      11.206  48.913  38.625  1.00  0.00    -0.064 NA
ATOM     43  H62 UNL     1      13.617  48.119  36.569  1.00  0.00     0.158 HD
ATOM     44  H61 UNL     1      12.075  48.860  36.218  1.00  0.00     0.158 HD
ATOM     45  H5  UNL     1      13.173  46.936  39.451  1.00  0.00     0.162 HD
ENDBRANCH  38  39
ENDBRANCH  37  38
ENDBRANCH  36  37
ENDBRANCH  31  36
ENDBRANCH  28  31
ENDBRANCH  24  26
ENDBRANCH   1  24
TORSDOF 13
ENDMDL
MODEL 3
REMARK VINA RESULT: -9.567976909      1.084      1.358
REMARK  13 active torsions:
REMARK  status: ('A' for Active; 'I' for Inactive)
REMARK    1  A    between atoms: C7_7  and  C8_8 
REMARK    2  A    between atoms: C8_8  and  C9_9 
REMARK    3  A    between atoms: C9_9  and  N1_10 
REMARK    4  A    between atoms: N1_10  and  S1_12 
REMARK    5  A    between atoms: S1_12  and  N2_15 
REMARK    6  A    between atoms: N2_15  and  C11_17 
REMARK    7  A    between atoms: C11_17  and  C12_19 
REMARK       I    between atoms: N3_20  and  C13_22 
REMARK    8  A    between atoms: C13_22  and  C14_24 
REMARK    9  A    between atoms: C14_24  and  N4_25 
REMARK   10  A    between atoms: C14_24  and  C15_29 
REMARK   11  A    between atoms: C15_29  and  C16_30 
REMARK   12  A    between atoms: C16_30  and  C17_31 
REMARK   13  A    between atoms: C17_31  and  N5_32 
REMARK       I    between atoms: N5_32  and  C18_34 
ROOT
HETATM    1  N2  UNL     1      19.104  44.710  44.508  1.00  0.00    -0.276 N 
HETATM    2  C10 UNL     1      18.204  43.663  44.748  1.00  0.00     0.166 C 
ENDROOT
BRANCH   1   3
HETATM    3  S1  UNL     1      20.226  45.024  45.686  1.00  0.00     0.318 S 
HETATM    4  O1  UNL     1      21.541  44.348  45.285  1.00  0.00    -0.183 OA
HETATM    5  O2  UNL     1      19.766  44.383  46.993  1.00  0.00    -0.183 OA
BRANCH   3   6
HETATM    6  N1  UNL     1      20.554  46.714  45.990  1.00  0.00    -0.302 N 
ATOM      7  H1  UNL     1      19.880  47.473  45.888  1.00  0.00     0.173 HD
BRANCH   6   8
HETATM    8  C9  UNL     1      21.904  46.866  46.403  1.00  0.00     0.148 C 
BRANCH   8   9
HETATM    9  C8  UNL     1      22.846  47.657  45.547  1.00  0.00     0.004 C 
HETATM   10  C19 UNL     1      24.172  47.049  45.286  1.00  0.00     0.016 C 
HETATM   11  C20 UNL     1      24.250  46.146  44.078  1.00  0.00     0.001 C 
HETATM   12  C21 UNL     1      24.829  46.873  42.875  1.00  0.00     0.000 C 
HETATM   13  C22 UNL     1      23.667  47.603  42.237  1.00  0.00     0.000 C 
HETATM   14  C23 UNL     1      23.163  48.620  43.254  1.00  0.00     0.001 C 
HETATM   15  C24 UNL     1      22.205  48.018  44.225  1.00  0.00     0.016 C 
BRANCH   9  16
HETATM   16  C7  UNL     1      23.080  48.902  46.373  1.00  0.00    -0.047 A 
HETATM   17  C6  UNL     1      23.088  50.142  45.771  1.00  0.00     0.014 A 
HETATM   18  C4  UNL     1      23.263  51.302  46.485  1.00  0.00    -0.061 A 
HETATM   19  C3  UNL     1      23.438  51.201  47.849  1.00  0.00     0.013 A 
HETATM   20  C5  UNL     1      23.243  52.629  45.777  1.00  0.00     0.048 C 
HETATM   21  C2  UNL     1      23.438  49.985  48.490  1.00  0.00    -0.061 A 
HETATM   22  C1  UNL     1      23.628  49.885  49.956  1.00  0.00     0.048 C 
HETATM   23  C25 UNL     1      23.253  48.821  47.722  1.00  0.00     0.014 A 
ENDBRANCH   9  16
ENDBRANCH   8   9
ENDBRANCH   6   8
ENDBRANCH   3   6
ENDBRANCH   1   3
BRANCH   1  24
HETATM   24  C11 UNL     1      19.276  45.150  43.213  1.00  0.00     0.232 C 
HETATM   25 CL1  UNL     1      19.191  46.928  43.035  1.00  0.00    -0.096 Cl
BRANCH  24  26
HETATM   26  C12 UNL     1      18.178  44.629  42.311  1.00  0.00     0.105 C 
HETATM   27  N3  UNL     1      17.985  45.252  41.239  1.00  0.00    -0.336 N 
HETATM   28  C13 UNL     1      17.102  45.085  40.189  1.00  0.00     0.252 C 
ATOM     29  H3  UNL     1      18.611  46.048  41.117  1.00  0.00     0.168 HD
HETATM   30  O3  UNL     1      17.556  45.389  39.027  1.00  0.00    -0.271 OA
BRANCH  28  31
HETATM   31  C14 UNL     1      15.714  44.605  40.239  1.00  0.00     0.275 C 
BRANCH  31  32
HETATM   32  N4  UNL     1      15.629  43.157  40.019  1.00  0.00    -0.066 N 
ATOM     33  H43 UNL     1      16.496  42.690  40.284  1.00  0.00     0.275 HD
ATOM     34  H42 UNL     1      14.998  42.716  40.688  1.00  0.00     0.275 HD
ATOM     35  H41 UNL     1      15.366  42.935  39.059  1.00  0.00     0.275 HD
ENDBRANCH  31  32
BRANCH  31  36
HETATM   36  C15 UNL     1      15.022  44.856  41.561  1.00  0.00     0.044 C 
BRANCH  36  37
HETATM   37  C16 UNL     1      14.438  46.233  41.678  1.00  0.00     0.022 C 
BRANCH  37  38
HETATM   38  C17 UNL     1      13.327  46.439  40.655  1.00  0.00     0.122 C 
BRANCH  38  39
HETATM   39  N5  UNL     1      13.453  47.693  39.951  1.00  0.00    -0.365 N 
HETATM   40  C18 UNL     1      14.458  48.659  40.182  1.00  0.00     0.181 C 
HETATM   41  N6  UNL     1      15.651  48.547  39.754  1.00  0.00    -0.374 N 
HETATM   42  N7  UNL     1      14.104  49.827  40.943  1.00  0.00    -0.064 NA
ATOM     43  H62 UNL     1      15.902  47.719  39.214  1.00  0.00     0.158 HD
ATOM     44  H61 UNL     1      16.377  49.244  39.920  1.00  0.00     0.158 HD
ATOM     45  H5  UNL     1      12.761  47.899  39.230  1.00  0.00     0.162 HD
ENDBRANCH  38  39
ENDBRANCH  37  38
ENDBRANCH  36  37
ENDBRANCH  31  36
ENDBRANCH  28  31
ENDBRANCH  24  26
ENDBRANCH   1  24
TORSDOF 13
ENDMDL
MODEL 4
REMARK VINA RESULT: -9.325737098      1.021      3.381
REMARK  13 active torsions:
REMARK  status: ('A' for Active; 'I' for Inactive)
REMARK    1  A    between atoms: C7_7  and  C8_8 
REMARK    2  A    between atoms: C8_8  and  C9_9 
REMARK    3  A    between atoms: C9_9  and  N1_10 
REMARK    4  A    between atoms: N1_10  and  S1_12 
REMARK    5  A    between atoms: S1_12  and  N2_15 
REMARK    6  A    between atoms: N2_15  and  C11_17 
REMARK    7  A    between atoms: C11_17  and  C12_19 
REMARK       I    between atoms: N3_20  and  C13_22 
REMARK    8  A    between atoms: C13_22  and  C14_24 
REMARK    9  A    between atoms: C14_24  and  N4_25 
REMARK   10  A    between atoms: C14_24  and  C15_29 
REMARK   11  A    between atoms: C15_29  and  C16_30 
REMARK   12  A    between atoms: C16_30  and  C17_31 
REMARK   13  A    between atoms: C17_31  and  N5_32 
REMARK       I    between atoms: N5_32  and  C18_34 
ROOT
HETATM    1  N2  UNL     1      19.101  44.680  44.587  1.00  0.00    -0.276 N 
HETATM    2  C10 UNL     1      18.075  43.892  45.125  1.00  0.00     0.166 C 
ENDROOT
BRANCH   1   3
HETATM    3  S1  UNL     1      20.481  44.842  45.491  1.00  0.00     0.318 S 
HETATM    4  O1  UNL     1      21.673  44.427  44.622  1.00  0.00    -0.183 OA
HETATM    5  O2  UNL     1      20.418  43.872  46.669  1.00  0.00    -0.183 OA
BRANCH   3   6
HETATM    6  N1  UNL     1      20.795  46.445  46.116  1.00  0.00    -0.302 N 
ATOM      7  H1  UNL     1      20.905  46.682  47.102  1.00  0.00     0.173 HD
BRANCH   6   8
HETATM    8  C9  UNL     1      20.873  47.364  45.037  1.00  0.00     0.148 C 
BRANCH   8   9
HETATM    9  C8  UNL     1      22.054  48.282  44.942  1.00  0.00     0.004 C 
HETATM   10  C19 UNL     1      21.863  49.527  44.161  1.00  0.00     0.016 C 
HETATM   11  C20 UNL     1      21.340  50.711  44.937  1.00  0.00     0.001 C 
HETATM   12  C21 UNL     1      22.463  51.651  45.344  1.00  0.00     0.000 C 
HETATM   13  C22 UNL     1      23.033  51.082  46.625  1.00  0.00     0.000 C 
HETATM   14  C23 UNL     1      23.611  49.712  46.288  1.00  0.00     0.001 C 
HETATM   15  C24 UNL     1      22.575  48.640  46.316  1.00  0.00     0.016 C 
BRANCH   9  16
HETATM   16  C7  UNL     1      23.069  47.439  44.201  1.00  0.00    -0.047 A 
HETATM   17  C6  UNL     1      22.776  46.941  42.950  1.00  0.00     0.014 A 
HETATM   18  C4  UNL     1      23.678  46.200  42.227  1.00  0.00    -0.061 A 
HETATM   19  C3  UNL     1      24.912  45.955  42.790  1.00  0.00     0.013 A 
HETATM   20  C5  UNL     1      23.309  45.698  40.858  1.00  0.00     0.048 C 
HETATM   21  C2  UNL     1      25.246  46.433  44.035  1.00  0.00    -0.061 A 
HETATM   22  C1  UNL     1      26.575  46.163  44.633  1.00  0.00     0.048 C 
HETATM   23  C25 UNL     1      24.294  47.189  44.742  1.00  0.00     0.014 A 
ENDBRANCH   9  16
ENDBRANCH   8   9
ENDBRANCH   6   8
ENDBRANCH   3   6
ENDBRANCH   1   3
BRANCH   1  24
HETATM   24  C11 UNL     1      19.091  44.944  43.234  1.00  0.00     0.232 C 
HETATM   25 CL1  UNL     1      19.459  46.647  42.826  1.00  0.00    -0.096 Cl
BRANCH  24  26
HETATM   26  C12 UNL     1      17.719  44.703  42.643  1.00  0.00     0.105 C 
HETATM   27  N3  UNL     1      17.621  44.779  41.395  1.00  0.00    -0.336 N 
HETATM   28  C13 UNL     1      16.567  44.627  40.514  1.00  0.00     0.252 C 
ATOM     29  H3  UNL     1      18.504  45.000  40.934  1.00  0.00     0.168 HD
HETATM   30  O3  UNL     1      16.863  44.103  39.379  1.00  0.00    -0.271 OA
BRANCH  28  31
HETATM   31  C14 UNL     1      15.158  44.990  40.714  1.00  0.00     0.275 C 
BRANCH  31  32
HETATM   32  N4  UNL     1      14.525  44.169  41.753  1.00  0.00    -0.066 N 
ATOM     33  H43 UNL     1      15.222  43.677  42.313  1.00  0.00     0.275 HD
ATOM     34  H42 UNL     1      14.112  44.747  42.484  1.00  0.00     0.275 HD
ATOM     35  H41 UNL     1      13.841  43.522  41.360  1.00  0.00     0.275 HD
ENDBRANCH  31  32
BRANCH  31  36
HETATM   36  C15 UNL     1      14.945  46.425  41.146  1.00  0.00     0.044 C 
BRANCH  36  37
HETATM   37  C16 UNL     1      15.575  47.426  40.223  1.00  0.00     0.022 C 
BRANCH  37  38
HETATM   38  C17 UNL     1      14.542  48.431  39.729  1.00  0.00     0.122 C 
BRANCH  38  39
HETATM   39  N5  UNL     1      13.370  47.789  39.180  1.00  0.00    -0.365 N 
HETATM   40  C18 UNL     1      12.497  48.365  38.231  1.00  0.00     0.181 C 
HETATM   41  N6  UNL     1      12.764  48.449  36.990  1.00  0.00    -0.374 N 
HETATM   42  N7  UNL     1      11.238  48.880  38.702  1.00  0.00    -0.064 NA
ATOM     43  H62 UNL     1      13.657  48.084  36.656  1.00  0.00     0.158 HD
ATOM     44  H61 UNL     1      12.134  48.864  36.304  1.00  0.00     0.158 HD
ATOM     45  H5  UNL     1      13.156  46.846  39.504  1.00  0.00     0.162 HD
ENDBRANCH  38  39
ENDBRANCH  37  38
ENDBRANCH  36  37
ENDBRANCH  31  36
ENDBRANCH  28  31
ENDBRANCH  24  26
ENDBRANCH   1  24
TORSDOF 13
ENDMDL
MODEL 5
REMARK VINA RESULT: -9.310313379      1.012      3.566
REMARK  13 active torsions:
REMARK  status: ('A' for Active; 'I' for Inactive)
REMARK    1  A    between atoms: C7_7  and  C8_8 
REMARK    2  A    between atoms: C8_8  and  C9_9 
REMARK    3  A    between atoms: C9_9  and  N1_10 
REMARK    4  A    between atoms: N1_10  and  S1_12 
REMARK    5  A    between atoms: S1_12  and  N2_15 
REMARK    6  A    between atoms: N2_15  and  C11_17 
REMARK    7  A    between atoms: C11_17  and  C12_19 
REMARK       I    between atoms: N3_20  and  C13_22 
REMARK    8  A    between atoms: C13_22  and  C14_24 
REMARK    9  A    between atoms: C14_24  and  N4_25 
REMARK   10  A    between atoms: C14_24  and  C15_29 
REMARK   11  A    between atoms: C15_29  and  C16_30 
REMARK   12  A    between atoms: C16_30  and  C17_31 
REMARK   13  A    between atoms: C17_31  and  N5_32 
REMARK       I    between atoms: N5_32  and  C18_34 
ROOT
HETATM    1  N2  UNL     1      19.144  44.657  44.570  1.00  0.00    -0.276 N 
HETATM    2  C10 UNL     1      18.166  43.800  45.092  1.00  0.00     0.166 C 
ENDROOT
BRANCH   1   3
HETATM    3  S1  UNL     1      20.509  44.887  45.482  1.00  0.00     0.318 S 
HETATM    4  O1  UNL     1      21.723  44.508  44.628  1.00  0.00    -0.183 OA
HETATM    5  O2  UNL     1      20.476  43.932  46.673  1.00  0.00    -0.183 OA
BRANCH   3   6
HETATM    6  N1  UNL     1      20.754  46.509  46.086  1.00  0.00    -0.302 N 
ATOM      7  H1  UNL     1      20.808  46.770  47.070  1.00  0.00     0.173 HD
BRANCH   6   8
HETATM    8  C9  UNL     1      20.866  47.408  44.992  1.00  0.00     0.148 C 
BRANCH   8   9
HETATM    9  C8  UNL     1      22.051  48.322  44.915  1.00  0.00     0.004 C 
HETATM   10  C19 UNL     1      21.857  49.596  44.184  1.00  0.00     0.016 C 
HETATM   11  C20 UNL     1      21.350  50.753  45.011  1.00  0.00     0.001 C 
HETATM   12  C21 UNL     1      22.484  51.671  45.437  1.00  0.00     0.000 C 
HETATM   13  C22 UNL     1      23.069  51.051  46.688  1.00  0.00     0.000 C 
HETATM   14  C23 UNL     1      23.634  49.692  46.292  1.00  0.00     0.001 C 
HETATM   15  C24 UNL     1      22.592  48.626  46.294  1.00  0.00     0.016 C 
BRANCH   9  16
HETATM   16  C7  UNL     1      23.051  47.503  44.129  1.00  0.00    -0.047 A 
HETATM   17  C6  UNL     1      24.288  47.219  44.666  1.00  0.00     0.014 A 
HETATM   18  C4  UNL     1      25.216  46.453  44.003  1.00  0.00    -0.061 A 
HETATM   19  C3  UNL     1      24.880  45.962  42.760  1.00  0.00     0.013 A 
HETATM   20  C5  UNL     1      26.543  46.159  44.647  1.00  0.00     0.048 C 
HETATM   21  C2  UNL     1      23.657  46.221  42.187  1.00  0.00    -0.061 A 
HETATM   22  C1  UNL     1      23.304  45.691  40.849  1.00  0.00     0.048 C 
HETATM   23  C25 UNL     1      22.735  47.009  42.900  1.00  0.00     0.014 A 
ENDBRANCH   9  16
ENDBRANCH   8   9
ENDBRANCH   6   8
ENDBRANCH   3   6
ENDBRANCH   1   3
BRANCH   1  24
HETATM   24  C11 UNL     1      19.121  44.942  43.222  1.00  0.00     0.232 C 
HETATM   25 CL1  UNL     1      19.501  46.647  42.836  1.00  0.00    -0.096 Cl
BRANCH  24  26
HETATM   26  C12 UNL     1      17.741  44.724  42.642  1.00  0.00     0.105 C 
HETATM   27  N3  UNL     1      17.645  44.737  41.392  1.00  0.00    -0.336 N 
HETATM   28  C13 UNL     1      16.585  44.580  40.519  1.00  0.00     0.252 C 
ATOM     29  H3  UNL     1      18.535  44.899  40.921  1.00  0.00     0.168 HD
HETATM   30  O3  UNL     1      16.859  43.985  39.414  1.00  0.00    -0.271 OA
BRANCH  28  31
HETATM   31  C14 UNL     1      15.191  45.007  40.699  1.00  0.00     0.275 C 
BRANCH  31  32
HETATM   32  N4  UNL     1      14.502  44.207  41.718  1.00  0.00    -0.066 N 
ATOM     33  H43 UNL     1      14.508  43.216  41.478  1.00  0.00     0.275 HD
ATOM     34  H42 UNL     1      15.039  44.166  42.584  1.00  0.00     0.275 HD
ATOM     35  H41 UNL     1      13.553  44.543  41.885  1.00  0.00     0.275 HD
ENDBRANCH  31  32
BRANCH  31  36
HETATM   36  C15 UNL     1      15.038  46.446  41.140  1.00  0.00     0.044 C 
BRANCH  36  37
HETATM   37  C16 UNL     1      15.596  47.435  40.159  1.00  0.00     0.022 C 
BRANCH  37  38
HETATM   38  C17 UNL     1      14.530  48.437  39.734  1.00  0.00     0.122 C 
BRANCH  38  39
HETATM   39  N5  UNL     1      13.356  47.793  39.191  1.00  0.00    -0.365 N 
HETATM   40  C18 UNL     1      12.487  48.361  38.234  1.00  0.00     0.181 C 
HETATM   41  N6  UNL     1      12.757  48.429  36.992  1.00  0.00    -0.374 N 
HETATM   42  N7  UNL     1      11.229  48.886  38.697  1.00  0.00    -0.064 NA
ATOM     43  H62 UNL     1      13.648  48.058  36.664  1.00  0.00     0.158 HD
ATOM     44  H61 UNL     1      12.129  48.839  36.300  1.00  0.00     0.158 HD
ATOM     45  H5  UNL     1      13.138  46.855  39.526  1.00  0.00     0.162 HD
ENDBRANCH  38  39
ENDBRANCH  37  38
ENDBRANCH  36  37
ENDBRANCH  31  36
ENDBRANCH  28  31
ENDBRANCH  24  26
ENDBRANCH   1  24
TORSDOF 13
ENDMDL
