MODEL 1
REMARK VINA RESULT: -8.317194632      0.000      0.000
REMARK  15 active torsions:
REMARK  status: ('A' for Active; 'I' for Inactive)
REMARK       I    between atoms: C2_2  and  N1_4 
REMARK    1  A    between atoms: N1_4  and  C3_6 
REMARK    2  A    between atoms: C3_6  and  C4_7 
REMARK    3  A    between atoms: C5_8  and  C6_9 
REMARK    4  A    between atoms: C6_9  and  C7_10 
REMARK    5  A    between atoms: C6_9  and  C15_28 
REMARK    6  A    between atoms: C7_10  and  O2_11 
REMARK    7  A    between atoms: C7_10  and  N2_13 
REMARK    8  A    between atoms: N2_13  and  C8_15 
REMARK    9  A    between atoms: C8_15  and  C10_17 
REMARK   10  A    between atoms: C10_17  and  C11_18 
REMARK   11  A    between atoms: C11_18  and  C13_20 
REMARK   12  A    between atoms: C13_20  and  N3_21 
REMARK   13  A    between atoms: C13_20  and  C14_25 
REMARK   14  A    between atoms: N4_37  and  C23_38 
REMARK   15  A    between atoms: C23_38  and  C24_39 
ROOT
HETATM    1  C6  UNL     1      19.652  46.163  44.361  1.00  0.00    -0.019 C 
ENDROOT
BRANCH   1   2
HETATM    2  C5  UNL     1      20.367  47.362  43.892  1.00  0.00     0.056 C 
HETATM    3  C4  UNL     1      21.722  47.637  44.491  1.00  0.00     0.248 C 
HETATM    4  N4  UNL     1      21.660  48.880  45.224  1.00  0.00     0.095 N 
HETATM    5  C22 UNL     1      20.285  49.235  45.305  1.00  0.00     0.273 C 
HETATM    6  C21 UNL     1      19.689  48.683  44.049  1.00  0.00     0.041 C 
BRANCH   3   7
HETATM    7  C3  UNL     1      22.750  47.901  43.378  1.00  0.00     0.159 C 
BRANCH   7   8
HETATM    8  N1  UNL     1      22.622  47.028  42.260  1.00  0.00    -0.359 N 
HETATM    9  C2  UNL     1      23.688  46.233  41.815  1.00  0.00     0.213 C 
HETATM   10  C1  UNL     1      23.488  45.337  40.637  1.00  0.00     0.117 C 
HETATM   11  O1  UNL     1      24.810  46.236  42.362  1.00  0.00    -0.274 OA
ATOM     12  H1  UNL     1      21.729  46.980  41.769  1.00  0.00     0.162 HD
ENDBRANCH   7   8
ENDBRANCH   3   7
BRANCH   4  13
HETATM   13  C23 UNL     1      22.388  48.881  46.451  1.00  0.00     0.277 C 
BRANCH  13  14
HETATM   14  C24 UNL     1      23.379  50.026  46.439  1.00  0.00     0.014 A 
HETATM   15  C25 UNL     1      22.939  51.410  46.115  1.00  0.00     0.007 A 
HETATM   16  C26 UNL     1      23.362  51.072  47.505  1.00  0.00     0.007 A 
ENDBRANCH  13  14
ENDBRANCH   4  13
ENDBRANCH   1   2
BRANCH   1  17
HETATM   17  C7  UNL     1      18.540  45.608  43.602  1.00  0.00     0.139 C 
BRANCH  17  18
HETATM   18  O2  UNL     1      17.505  45.118  44.225  1.00  0.00    -0.346 OA
ATOM     19  H2  UNL     1      16.634  45.443  44.028  1.00  0.00     0.219 HD
ENDBRANCH  17  18
BRANCH  17  20
HETATM   20  N2  UNL     1      18.390  45.511  42.200  1.00  0.00    -0.367 N 
ATOM     21  H2  UNL     1      19.207  45.663  41.609  1.00  0.00     0.162 HD
BRANCH  20  22
HETATM   22  C8  UNL     1      17.086  45.198  41.552  1.00  0.00     0.080 C 
HETATM   23  C9  UNL     1      17.416  44.288  40.383  1.00  0.00     0.032 C 
BRANCH  22  24
HETATM   24  C10 UNL     1      16.551  46.470  41.031  1.00  0.00     0.031 C 
BRANCH  24  25
HETATM   25  C11 UNL     1      15.125  46.791  41.156  1.00  0.00     0.024 C 
HETATM   26  C12 UNL     1      14.149  45.706  41.352  1.00  0.00     0.012 C 
BRANCH  25  27
HETATM   27  C13 UNL     1      14.724  47.576  39.891  1.00  0.00     0.287 C 
BRANCH  27  28
HETATM   28  N3  UNL     1      13.318  47.499  39.657  1.00  0.00    -0.065 N 
ATOM     29  H33 UNL     1      12.812  47.229  40.500  1.00  0.00     0.275 HD
ATOM     30  H32 UNL     1      12.909  48.423  39.518  1.00  0.00     0.275 HD
ATOM     31  H31 UNL     1      13.106  46.875  38.878  1.00  0.00     0.275 HD
ENDBRANCH  27  28
BRANCH  27  32
HETATM   32  C14 UNL     1      15.121  48.983  40.069  1.00  0.00     0.204 C 
HETATM   33  O3  UNL     1      14.392  49.844  40.659  1.00  0.00    -0.646 OA
HETATM   34  O4  UNL     1      16.346  49.481  39.589  1.00  0.00    -0.646 OA
ENDBRANCH  27  32
ENDBRANCH  25  27
ENDBRANCH  24  25
ENDBRANCH  22  24
ENDBRANCH  20  22
ENDBRANCH  17  20
ENDBRANCH   1  17
BRANCH   1  35
HETATM   35  C15 UNL     1      20.532  45.137  45.052  1.00  0.00     0.024 C 
HETATM   36  C16 UNL     1      19.817  43.872  45.401  1.00  0.00     0.013 C 
HETATM   37  C17 UNL     1      20.668  43.162  46.468  1.00  0.00     0.029 C 
HETATM   38  C18 UNL     1      22.043  42.962  45.988  1.00  0.00    -0.012 C 
HETATM   39  C19 UNL     1      22.520  43.693  45.006  1.00  0.00    -0.015 C 
HETATM   40 BR1  UNL     1      24.325  43.415  44.388  1.00  0.00    -0.056 Br
HETATM   41  C20 UNL     1      21.769  44.761  44.292  1.00  0.00     0.055 C 
ENDBRANCH   1  35
TORSDOF 15
ENDMDL
MODEL 2
REMARK VINA RESULT: -7.884412400      0.790      1.049
REMARK  15 active torsions:
REMARK  status: ('A' for Active; 'I' for Inactive)
REMARK       I    between atoms: C2_2  and  N1_4 
REMARK    1  A    between atoms: N1_4  and  C3_6 
REMARK    2  A    between atoms: C3_6  and  C4_7 
REMARK    3  A    between atoms: C5_8  and  C6_9 
REMARK    4  A    between atoms: C6_9  and  C7_10 
REMARK    5  A    between atoms: C6_9  and  C15_28 
REMARK    6  A    between atoms: C7_10  and  O2_11 
REMARK    7  A    between atoms: C7_10  and  N2_13 
REMARK    8  A    between atoms: N2_13  and  C8_15 
REMARK    9  A    between atoms: C8_15  and  C10_17 
REMARK   10  A    between atoms: C10_17  and  C11_18 
REMARK   11  A    between atoms: C11_18  and  C13_20 
REMARK   12  A    between atoms: C13_20  and  N3_21 
REMARK   13  A    between atoms: C13_20  and  C14_25 
REMARK   14  A    between atoms: N4_37  and  C23_38 
REMARK   15  A    between atoms: C23_38  and  C24_39 
ROOT
HETATM    1  C6  UNL     1      19.659  46.151  44.383  1.00  0.00    -0.019 C 
ENDROOT
BRANCH   1   2
HETATM    2  C5  UNL     1      20.372  47.341  43.891  1.00  0.00     0.056 C 
HETATM    3  C4  UNL     1      21.712  47.649  44.510  1.00  0.00     0.248 C 
HETATM    4  N4  UNL     1      21.622  48.913  45.202  1.00  0.00     0.095 N 
HETATM    5  C22 UNL     1      20.242  49.257  45.243  1.00  0.00     0.273 C 
HETATM    6  C21 UNL     1      19.678  48.660  43.993  1.00  0.00     0.041 C 
BRANCH   3   7
HETATM    7  C3  UNL     1      22.760  47.889  43.411  1.00  0.00     0.159 C 
BRANCH   7   8
HETATM    8  N1  UNL     1      22.616  47.031  42.282  1.00  0.00    -0.359 N 
HETATM    9  C2  UNL     1      23.674  46.240  41.813  1.00  0.00     0.213 C 
HETATM   10  C1  UNL     1      23.457  45.360  40.626  1.00  0.00     0.117 C 
HETATM   11  O1  UNL     1      24.803  46.234  42.345  1.00  0.00    -0.274 OA
ATOM     12  H1  UNL     1      21.716  46.991  41.802  1.00  0.00     0.162 HD
ENDBRANCH   7   8
ENDBRANCH   3   7
BRANCH   4  13
HETATM   13  C23 UNL     1      22.325  48.959  46.443  1.00  0.00     0.277 C 
BRANCH  13  14
HETATM   14  C24 UNL     1      23.346  50.076  46.393  1.00  0.00     0.014 A 
HETATM   15  C25 UNL     1      22.943  51.461  46.032  1.00  0.00     0.007 A 
HETATM   16  C26 UNL     1      23.364  51.152  47.429  1.00  0.00     0.007 A 
ENDBRANCH  13  14
ENDBRANCH   4  13
ENDBRANCH   1   2
BRANCH   1  17
HETATM   17  C7  UNL     1      18.525  45.602  43.653  1.00  0.00     0.139 C 
BRANCH  17  18
HETATM   18  O2  UNL     1      17.529  45.064  44.301  1.00  0.00    -0.346 OA
ATOM     19  H2  UNL     1      16.664  45.041  43.910  1.00  0.00     0.219 HD
ENDBRANCH  17  18
BRANCH  17  20
HETATM   20  N2  UNL     1      18.311  45.558  42.257  1.00  0.00    -0.367 N 
ATOM     21  H2  UNL     1      19.054  45.883  41.638  1.00  0.00     0.162 HD
BRANCH  20  22
HETATM   22  C8  UNL     1      17.046  45.056  41.652  1.00  0.00     0.080 C 
HETATM   23  C9  UNL     1      17.406  44.622  40.243  1.00  0.00     0.032 C 
BRANCH  22  24
HETATM   24  C10 UNL     1      16.124  46.205  41.577  1.00  0.00     0.031 C 
BRANCH  24  25
HETATM   25  C11 UNL     1      15.823  46.842  40.290  1.00  0.00     0.024 C 
HETATM   26  C12 UNL     1      16.206  48.246  40.066  1.00  0.00     0.012 C 
BRANCH  25  27
HETATM   27  C13 UNL     1      14.303  46.716  40.066  1.00  0.00     0.287 C 
BRANCH  27  28
HETATM   28  N3  UNL     1      13.656  46.150  41.207  1.00  0.00    -0.065 N 
ATOM     29  H33 UNL     1      13.513  45.147  41.098  1.00  0.00     0.275 HD
ATOM     30  H32 UNL     1      14.274  46.133  42.018  1.00  0.00     0.275 HD
ATOM     31  H31 UNL     1      12.780  46.633  41.413  1.00  0.00     0.275 HD
ENDBRANCH  27  28
BRANCH  27  32
HETATM   32  C14 UNL     1      13.757  48.057  39.800  1.00  0.00     0.204 C 
HETATM   33  O3  UNL     1      13.344  48.426  38.653  1.00  0.00    -0.646 OA
HETATM   34  O4  UNL     1      13.657  49.037  40.804  1.00  0.00    -0.646 OA
ENDBRANCH  27  32
ENDBRANCH  25  27
ENDBRANCH  24  25
ENDBRANCH  22  24
ENDBRANCH  20  22
ENDBRANCH  17  20
ENDBRANCH   1  17
BRANCH   1  35
HETATM   35  C15 UNL     1      20.547  45.120  45.057  1.00  0.00     0.024 C 
HETATM   36  C16 UNL     1      19.839  43.849  45.396  1.00  0.00     0.013 C 
HETATM   37  C17 UNL     1      20.698  43.131  46.451  1.00  0.00     0.029 C 
HETATM   38  C18 UNL     1      22.071  42.941  45.960  1.00  0.00    -0.012 C 
HETATM   39  C19 UNL     1      22.539  43.684  44.983  1.00  0.00    -0.015 C 
HETATM   40 BR1  UNL     1      24.341  43.420  44.351  1.00  0.00    -0.056 Br
HETATM   41  C20 UNL     1      21.780  44.757  44.285  1.00  0.00     0.055 C 
ENDBRANCH   1  35
TORSDOF 15
ENDMDL
MODEL 3
REMARK VINA RESULT: -7.661797343      2.875      4.941
REMARK  15 active torsions:
REMARK  status: ('A' for Active; 'I' for Inactive)
REMARK       I    between atoms: C2_2  and  N1_4 
REMARK    1  A    between atoms: N1_4  and  C3_6 
REMARK    2  A    between atoms: C3_6  and  C4_7 
REMARK    3  A    between atoms: C5_8  and  C6_9 
REMARK    4  A    between atoms: C6_9  and  C7_10 
REMARK    5  A    between atoms: C6_9  and  C15_28 
REMARK    6  A    between atoms: C7_10  and  O2_11 
REMARK    7  A    between atoms: C7_10  and  N2_13 
REMARK    8  A    between atoms: N2_13  and  C8_15 
REMARK    9  A    between atoms: C8_15  and  C10_17 
REMARK   10  A    between atoms: C10_17  and  C11_18 
REMARK   11  A    between atoms: C11_18  and  C13_20 
REMARK   12  A    between atoms: C13_20  and  N3_21 
REMARK   13  A    between atoms: C13_20  and  C14_25 
REMARK   14  A    between atoms: N4_37  and  C23_38 
REMARK   15  A    between atoms: C23_38  and  C24_39 
ROOT
HETATM    1  C6  UNL     1      21.259  47.380  43.745  1.00  0.00    -0.019 C 
ENDROOT
BRANCH   1   2
HETATM    2  C5  UNL     1      22.213  46.494  43.058  1.00  0.00     0.056 C 
HETATM    3  C4  UNL     1      23.251  45.806  43.907  1.00  0.00     0.248 C 
HETATM    4  N4  UNL     1      24.558  46.277  43.512  1.00  0.00     0.095 N 
HETATM    5  C22 UNL     1      24.346  47.389  42.650  1.00  0.00     0.273 C 
HETATM    6  C21 UNL     1      23.050  47.083  41.969  1.00  0.00     0.041 C 
BRANCH   3   7
HETATM    7  C3  UNL     1      23.277  44.300  43.595  1.00  0.00     0.159 C 
BRANCH   7   8
HETATM    8  N1  UNL     1      23.315  43.474  44.755  1.00  0.00    -0.359 N 
HETATM    9  C2  UNL     1      22.145  43.083  45.423  1.00  0.00     0.213 C 
HETATM   10  C1  UNL     1      22.252  42.214  46.633  1.00  0.00     0.117 C 
HETATM   11  O1  UNL     1      21.005  43.429  45.051  1.00  0.00    -0.274 OA
ATOM     12  H1  UNL     1      24.218  43.158  45.109  1.00  0.00     0.162 HD
ENDBRANCH   7   8
ENDBRANCH   3   7
BRANCH   4  13
HETATM   13  C23 UNL     1      25.466  46.478  44.594  1.00  0.00     0.277 C 
BRANCH  13  14
HETATM   14  C24 UNL     1      26.848  46.024  44.172  1.00  0.00     0.014 A 
HETATM   15  C25 UNL     1      28.051  46.417  44.954  1.00  0.00     0.007 A 
HETATM   16  C26 UNL     1      27.596  44.997  44.958  1.00  0.00     0.007 A 
ENDBRANCH  13  14
ENDBRANCH   4  13
ENDBRANCH   1   2
BRANCH   1  17
HETATM   17  C7  UNL     1      20.052  46.848  44.362  1.00  0.00     0.139 C 
BRANCH  17  18
HETATM   18  O2  UNL     1      19.343  47.596  45.161  1.00  0.00    -0.346 OA
ATOM     19  H2  UNL     1      18.682  47.203  45.719  1.00  0.00     0.219 HD
ENDBRANCH  17  18
BRANCH  17  20
HETATM   20  N2  UNL     1      19.482  45.563  44.222  1.00  0.00    -0.367 N 
ATOM     21  H2  UNL     1      20.017  44.754  44.538  1.00  0.00     0.162 HD
BRANCH  20  22
HETATM   22  C8  UNL     1      18.132  45.342  43.631  1.00  0.00     0.080 C 
HETATM   23  C9  UNL     1      17.567  44.125  44.340  1.00  0.00     0.032 C 
BRANCH  22  24
HETATM   24  C10 UNL     1      18.338  45.013  42.208  1.00  0.00     0.031 C 
BRANCH  24  25
HETATM   25  C11 UNL     1      17.331  45.370  41.203  1.00  0.00     0.024 C 
HETATM   26  C12 UNL     1      16.447  46.526  41.435  1.00  0.00     0.012 C 
BRANCH  25  27
HETATM   27  C13 UNL     1      16.447  44.126  40.984  1.00  0.00     0.287 C 
BRANCH  27  28
HETATM   28  N3  UNL     1      15.234  44.213  41.734  1.00  0.00    -0.065 N 
ATOM     29  H33 UNL     1      14.500  43.632  41.328  1.00  0.00     0.275 HD
ATOM     30  H32 UNL     1      15.318  43.750  42.638  1.00  0.00     0.275 HD
ATOM     31  H31 UNL     1      14.931  45.182  41.835  1.00  0.00     0.275 HD
ENDBRANCH  27  28
BRANCH  27  32
HETATM   32  C14 UNL     1      16.138  44.018  39.549  1.00  0.00     0.204 C 
HETATM   33  O3  UNL     1      16.140  45.016  38.759  1.00  0.00    -0.646 OA
HETATM   34  O4  UNL     1      15.808  42.791  38.945  1.00  0.00    -0.646 OA
ENDBRANCH  27  32
ENDBRANCH  25  27
ENDBRANCH  24  25
ENDBRANCH  22  24
ENDBRANCH  20  22
ENDBRANCH  17  20
ENDBRANCH   1  17
BRANCH   1  35
HETATM   35  C15 UNL     1      21.900  48.539  44.487  1.00  0.00     0.024 C 
HETATM   36  C16 UNL     1      21.117  49.810  44.405  1.00  0.00     0.013 C 
HETATM   37  C17 UNL     1      22.082  50.949  44.776  1.00  0.00     0.029 C 
HETATM   38  C18 UNL     1      22.696  50.704  46.089  1.00  0.00    -0.012 C 
HETATM   39  C19 UNL     1      22.730  49.492  46.594  1.00  0.00    -0.015 C 
HETATM   40 BR1  UNL     1      23.536  49.190  48.319  1.00  0.00    -0.056 Br
HETATM   41  C20 UNL     1      22.182  48.276  45.935  1.00  0.00     0.055 C 
ENDBRANCH   1  35
TORSDOF 15
ENDMDL
MODEL 4
REMARK VINA RESULT: -7.614749704      2.715      4.810
REMARK  15 active torsions:
REMARK  status: ('A' for Active; 'I' for Inactive)
REMARK       I    between atoms: C2_2  and  N1_4 
REMARK    1  A    between atoms: N1_4  and  C3_6 
REMARK    2  A    between atoms: C3_6  and  C4_7 
REMARK    3  A    between atoms: C5_8  and  C6_9 
REMARK    4  A    between atoms: C6_9  and  C7_10 
REMARK    5  A    between atoms: C6_9  and  C15_28 
REMARK    6  A    between atoms: C7_10  and  O2_11 
REMARK    7  A    between atoms: C7_10  and  N2_13 
REMARK    8  A    between atoms: N2_13  and  C8_15 
REMARK    9  A    between atoms: C8_15  and  C10_17 
REMARK   10  A    between atoms: C10_17  and  C11_18 
REMARK   11  A    between atoms: C11_18  and  C13_20 
REMARK   12  A    between atoms: C13_20  and  N3_21 
REMARK   13  A    between atoms: C13_20  and  C14_25 
REMARK   14  A    between atoms: N4_37  and  C23_38 
REMARK   15  A    between atoms: C23_38  and  C24_39 
ROOT
HETATM    1  C6  UNL     1      21.236  47.481  43.859  1.00  0.00    -0.019 C 
ENDROOT
BRANCH   1   2
HETATM    2  C5  UNL     1      22.160  46.595  43.132  1.00  0.00     0.056 C 
HETATM    3  C4  UNL     1      23.195  45.859  43.944  1.00  0.00     0.248 C 
HETATM    4  N4  UNL     1      24.506  46.313  43.542  1.00  0.00     0.095 N 
HETATM    5  C22 UNL     1      24.306  47.454  42.716  1.00  0.00     0.273 C 
HETATM    6  C21 UNL     1      22.993  47.196  42.047  1.00  0.00     0.041 C 
BRANCH   3   7
HETATM    7  C3  UNL     1      23.182  44.363  43.588  1.00  0.00     0.159 C 
BRANCH   7   8
HETATM    8  N1  UNL     1      23.281  43.503  44.720  1.00  0.00    -0.359 N 
HETATM    9  C2  UNL     1      22.147  43.075  45.425  1.00  0.00     0.213 C 
HETATM   10  C1  UNL     1      22.318  42.171  46.602  1.00  0.00     0.117 C 
HETATM   11  O1  UNL     1      20.987  43.415  45.114  1.00  0.00    -0.274 OA
ATOM     12  H1  UNL     1      24.203  43.190  45.025  1.00  0.00     0.162 HD
ENDBRANCH   7   8
ENDBRANCH   3   7
BRANCH   4  13
HETATM   13  C23 UNL     1      25.435  46.462  44.615  1.00  0.00     0.277 C 
BRANCH  13  14
HETATM   14  C24 UNL     1      26.794  45.970  44.166  1.00  0.00     0.014 A 
HETATM   15  C25 UNL     1      28.025  46.348  44.910  1.00  0.00     0.007 A 
HETATM   16  C26 UNL     1      27.539  44.938  44.948  1.00  0.00     0.007 A 
ENDBRANCH  13  14
ENDBRANCH   4  13
ENDBRANCH   1   2
BRANCH   1  17
HETATM   17  C7  UNL     1      20.036  46.955  44.494  1.00  0.00     0.139 C 
BRANCH  17  18
HETATM   18  O2  UNL     1      19.326  47.717  45.280  1.00  0.00    -0.346 OA
ATOM     19  H2  UNL     1      19.479  47.706  46.217  1.00  0.00     0.219 HD
ENDBRANCH  17  18
BRANCH  17  20
HETATM   20  N2  UNL     1      19.474  45.663  44.386  1.00  0.00    -0.367 N 
ATOM     21  H2  UNL     1      20.023  44.864  44.702  1.00  0.00     0.162 HD
BRANCH  20  22
HETATM   22  C8  UNL     1      18.114  45.422  43.829  1.00  0.00     0.080 C 
HETATM   23  C9  UNL     1      17.759  43.997  44.212  1.00  0.00     0.032 C 
BRANCH  22  24
HETATM   24  C10 UNL     1      18.232  45.508  42.361  1.00  0.00     0.031 C 
BRANCH  24  25
HETATM   25  C11 UNL     1      17.152  45.027  41.493  1.00  0.00     0.024 C 
HETATM   26  C12 UNL     1      17.451  44.637  40.105  1.00  0.00     0.012 C 
BRANCH  25  27
HETATM   27  C13 UNL     1      16.073  46.128  41.461  1.00  0.00     0.287 C 
BRANCH  27  28
HETATM   28  N3  UNL     1      16.368  47.114  40.470  1.00  0.00    -0.065 N 
ATOM     29  H33 UNL     1      17.257  47.578  40.656  1.00  0.00     0.275 HD
ATOM     30  H32 UNL     1      16.599  46.687  39.573  1.00  0.00     0.275 HD
ATOM     31  H31 UNL     1      15.606  47.787  40.378  1.00  0.00     0.275 HD
ENDBRANCH  27  28
BRANCH  27  32
HETATM   32  C14 UNL     1      14.774  45.502  41.166  1.00  0.00     0.204 C 
HETATM   33  O3  UNL     1      14.517  44.280  41.417  1.00  0.00    -0.646 OA
HETATM   34  O4  UNL     1      13.716  46.216  40.575  1.00  0.00    -0.646 OA
ENDBRANCH  27  32
ENDBRANCH  25  27
ENDBRANCH  24  25
ENDBRANCH  22  24
ENDBRANCH  20  22
ENDBRANCH  17  20
ENDBRANCH   1  17
BRANCH   1  35
HETATM   35  C15 UNL     1      21.913  48.615  44.608  1.00  0.00     0.024 C 
HETATM   36  C16 UNL     1      21.174  49.911  44.530  1.00  0.00     0.013 C 
HETATM   37  C17 UNL     1      22.175  51.016  44.909  1.00  0.00     0.029 C 
HETATM   38  C18 UNL     1      22.775  50.745  46.224  1.00  0.00    -0.012 C 
HETATM   39  C19 UNL     1      22.767  49.530  46.723  1.00  0.00    -0.015 C 
HETATM   40 BR1  UNL     1      23.557  49.193  48.449  1.00  0.00    -0.056 Br
HETATM   41  C20 UNL     1      22.181  48.336  46.057  1.00  0.00     0.055 C 
ENDBRANCH   1  35
TORSDOF 15
ENDMDL
MODEL 5
REMARK VINA RESULT: -7.579542485      2.635      4.633
REMARK  15 active torsions:
REMARK  status: ('A' for Active; 'I' for Inactive)
REMARK       I    between atoms: C2_2  and  N1_4 
REMARK    1  A    between atoms: N1_4  and  C3_6 
REMARK    2  A    between atoms: C3_6  and  C4_7 
REMARK    3  A    between atoms: C5_8  and  C6_9 
REMARK    4  A    between atoms: C6_9  and  C7_10 
REMARK    5  A    between atoms: C6_9  and  C15_28 
REMARK    6  A    between atoms: C7_10  and  O2_11 
REMARK    7  A    between atoms: C7_10  and  N2_13 
REMARK    8  A    between atoms: N2_13  and  C8_15 
REMARK    9  A    between atoms: C8_15  and  C10_17 
REMARK   10  A    between atoms: C10_17  and  C11_18 
REMARK   11  A    between atoms: C11_18  and  C13_20 
REMARK   12  A    between atoms: C13_20  and  N3_21 
REMARK   13  A    between atoms: C13_20  and  C14_25 
REMARK   14  A    between atoms: N4_37  and  C23_38 
REMARK   15  A    between atoms: C23_38  and  C24_39 
ROOT
HETATM    1  C6  UNL     1      21.161  47.033  43.552  1.00  0.00    -0.019 C 
ENDROOT
BRANCH   1   2
HETATM    2  C5  UNL     1      22.093  45.937  43.240  1.00  0.00     0.056 C 
HETATM    3  C4  UNL     1      23.242  45.715  44.189  1.00  0.00     0.248 C 
HETATM    4  N4  UNL     1      24.478  45.963  43.484  1.00  0.00     0.095 N 
HETATM    5  C22 UNL     1      24.126  46.561  42.243  1.00  0.00     0.273 C 
HETATM    6  C21 UNL     1      22.790  45.971  41.918  1.00  0.00     0.041 C 
BRANCH   3   7
HETATM    7  C3  UNL     1      23.321  44.232  44.588  1.00  0.00     0.159 C 
BRANCH   7   8
HETATM    8  N1  UNL     1      22.090  43.702  45.072  1.00  0.00    -0.359 N 
HETATM    9  C2  UNL     1      22.021  42.949  46.253  1.00  0.00     0.213 C 
HETATM   10  C1  UNL     1      20.699  42.423  46.707  1.00  0.00     0.117 C 
HETATM   11  O1  UNL     1      23.023  42.693  46.953  1.00  0.00    -0.274 OA
ATOM     12  H1  UNL     1      21.234  43.875  44.544  1.00  0.00     0.162 HD
ENDBRANCH   7   8
ENDBRANCH   3   7
BRANCH   4  13
HETATM   13  C23 UNL     1      25.473  46.638  44.254  1.00  0.00     0.277 C 
BRANCH  13  14
HETATM   14  C24 UNL     1      26.817  45.987  44.008  1.00  0.00     0.014 A 
HETATM   15  C25 UNL     1      27.987  46.307  44.868  1.00  0.00     0.007 A 
HETATM   16  C26 UNL     1      27.358  44.956  44.943  1.00  0.00     0.007 A 
ENDBRANCH  13  14
ENDBRANCH   4  13
ENDBRANCH   1   2
BRANCH   1  17
HETATM   17  C7  UNL     1      19.776  46.760  43.913  1.00  0.00     0.139 C 
BRANCH  17  18
HETATM   18  O2  UNL     1      19.358  46.999  45.125  1.00  0.00    -0.346 OA
ATOM     19  H2  UNL     1      19.478  46.348  45.806  1.00  0.00     0.219 HD
ENDBRANCH  17  18
BRANCH  17  20
HETATM   20  N2  UNL     1      18.739  46.246  43.104  1.00  0.00    -0.367 N 
ATOM     21  H2  UNL     1      18.504  46.735  42.240  1.00  0.00     0.162 HD
BRANCH  20  22
HETATM   22  C8  UNL     1      17.973  45.019  43.461  1.00  0.00     0.080 C 
HETATM   23  C9  UNL     1      19.014  43.977  43.828  1.00  0.00     0.032 C 
BRANCH  22  24
HETATM   24  C10 UNL     1      17.270  44.583  42.240  1.00  0.00     0.031 C 
BRANCH  24  25
HETATM   25  C11 UNL     1      16.008  45.213  41.836  1.00  0.00     0.024 C 
HETATM   26  C12 UNL     1      14.939  44.390  41.248  1.00  0.00     0.012 C 
BRANCH  25  27
HETATM   27  C13 UNL     1      16.360  46.332  40.835  1.00  0.00     0.287 C 
BRANCH  27  28
HETATM   28  N3  UNL     1      17.042  45.811  39.694  1.00  0.00    -0.065 N 
ATOM     29  H33 UNL     1      17.735  46.469  39.338  1.00  0.00     0.275 HD
ATOM     30  H32 UNL     1      17.668  45.047  39.948  1.00  0.00     0.275 HD
ATOM     31  H31 UNL     1      16.385  45.530  38.966  1.00  0.00     0.275 HD
ENDBRANCH  27  28
BRANCH  27  32
HETATM   32  C14 UNL     1      15.113  46.989  40.411  1.00  0.00     0.204 C 
HETATM   33  O3  UNL     1      14.632  46.881  39.237  1.00  0.00    -0.646 OA
HETATM   34  O4  UNL     1      14.359  47.796  41.283  1.00  0.00    -0.646 OA
ENDBRANCH  27  32
ENDBRANCH  25  27
ENDBRANCH  24  25
ENDBRANCH  22  24
ENDBRANCH  20  22
ENDBRANCH  17  20
ENDBRANCH   1  17
BRANCH   1  35
HETATM   35  C15 UNL     1      21.792  48.207  44.279  1.00  0.00     0.024 C 
HETATM   36  C16 UNL     1      20.980  49.459  44.215  1.00  0.00     0.013 C 
HETATM   37  C17 UNL     1      21.927  50.620  44.563  1.00  0.00     0.029 C 
HETATM   38  C18 UNL     1      22.576  50.390  45.862  1.00  0.00    -0.012 C 
HETATM   39  C19 UNL     1      22.649  49.179  46.367  1.00  0.00    -0.015 C 
HETATM   40 BR1  UNL     1      23.501  48.897  48.073  1.00  0.00    -0.056 Br
HETATM   41  C20 UNL     1      22.113  47.951  45.721  1.00  0.00     0.055 C 
ENDBRANCH   1  35
TORSDOF 15
ENDMDL
