MODEL 1
REMARK VINA RESULT: -8.388490603      0.000      0.000
REMARK  13 active torsions:
REMARK  status: ('A' for Active; 'I' for Inactive)
REMARK    1  A    between atoms: C2_2  and  C3_3 
REMARK    2  A    between atoms: C2_2  and  C17_28 
REMARK    3  A    between atoms: C3_3  and  C4_4 
REMARK    4  A    between atoms: C4_4  and  C5_5 
REMARK    5  A    between atoms: C5_5  and  C6_6 
REMARK    6  A    between atoms: C5_5  and  N2_13 
REMARK    7  A    between atoms: C6_6  and  N1_7 
REMARK    8  A    between atoms: N2_13  and  C12_16 
REMARK    9  A    between atoms: C12_16  and  C13_17 
REMARK   10  A    between atoms: C13_17  and  N3_18 
REMARK       I    between atoms: N3_18  and  C14_20 
REMARK       I    between atoms: C14_20  and  N4_22 
REMARK   11  A    between atoms: N4_22  and  C15_24 
REMARK   12  A    between atoms: C15_24  and  C16_25 
REMARK   13  A    between atoms: C16_25  and  O2_26 
ROOT
HETATM    1  C5  UNL     1      23.268  51.906  46.663  1.00  0.00     0.214 C 
ENDROOT
BRANCH   1   2
HETATM    2  C4  UNL     1      22.749  50.624  46.111  1.00  0.00     0.035 C 
BRANCH   2   3
HETATM    3  C3  UNL     1      22.582  50.596  44.647  1.00  0.00     0.007 C 
BRANCH   3   4
HETATM    4  C2  UNL     1      23.131  49.296  44.013  1.00  0.00    -0.014 C 
HETATM    5  C1  UNL     1      24.237  49.560  43.082  1.00  0.00     0.010 C 
BRANCH   4   6
HETATM    6  C17 UNL     1      21.959  48.526  43.549  1.00  0.00    -0.002 C 
HETATM    7  C18 UNL     1      20.724  49.045  44.246  1.00  0.00     0.006 C 
HETATM    8  C19 UNL     1      19.796  47.878  44.505  1.00  0.00     0.006 C 
HETATM    9  C20 UNL     1      20.469  46.774  43.753  1.00  0.00     0.002 C 
HETATM   10  C21 UNL     1      20.136  45.402  44.150  1.00  0.00     0.049 C 
HETATM   11  C28 UNL     1      21.944  47.069  43.803  1.00  0.00    -0.036 C 
HETATM   12  C22 UNL     1      18.645  45.197  44.353  1.00  0.00     0.112 C 
HETATM   13  C25 UNL     1      20.808  44.868  45.358  1.00  0.00     0.188 C 
HETATM   14  C23 UNL     1      18.425  43.749  44.575  1.00  0.00     0.224 C 
HETATM   15  O3  UNL     1      17.229  43.333  44.376  1.00  0.00    -0.273 OA
HETATM   16  N5  UNL     1      19.437  42.853  44.979  1.00  0.00    -0.295 N 
HETATM   17  C24 UNL     1      20.723  43.363  45.297  1.00  0.00     0.264 C 
ATOM     18  H5  UNL     1      19.248  41.852  45.042  1.00  0.00     0.171 HD
HETATM   19  O4  UNL     1      21.688  42.626  45.506  1.00  0.00    -0.269 OA
HETATM   20  F1  UNL     1      20.051  45.204  46.491  1.00  0.00    -0.232 F 
HETATM   21  C26 UNL     1      22.196  45.327  45.605  1.00  0.00     0.055 C 
HETATM   22  C27 UNL     1      22.606  46.634  45.064  1.00  0.00     0.014 C 
HETATM   23  C29 UNL     1      22.527  46.354  42.579  1.00  0.00     0.016 C 
ENDBRANCH   4   6
ENDBRANCH   3   4
ENDBRANCH   2   3
ENDBRANCH   1   2
BRANCH   1  24
HETATM   24  C6  UNL     1      24.102  52.764  45.787  1.00  0.00     0.305 C 
BRANCH  24  25
HETATM   25  N1  UNL     1      24.408  54.066  46.253  1.00  0.00     0.090 N 
HETATM   26  C7  UNL     1      24.020  55.030  45.214  1.00  0.00     0.272 C 
HETATM   27  C8  UNL     1      24.534  56.414  45.485  1.00  0.00     0.030 C 
HETATM   28  C9  UNL     1      26.048  56.464  45.281  1.00  0.00     0.003 C 
HETATM   29  C10 UNL     1      26.514  55.014  45.372  1.00  0.00     0.030 C 
HETATM   30  C11 UNL     1      25.834  54.278  46.476  1.00  0.00     0.272 C 
ENDBRANCH  24  25
ENDBRANCH   1  24
BRANCH   1  31
HETATM   31  N2  UNL     1      23.942  51.758  47.958  1.00  0.00    -0.068 N 
ATOM     32  H22 UNL     1      24.902  51.435  47.838  1.00  0.00     0.277 HD
ATOM     33  H21 UNL     1      24.128  52.667  48.382  1.00  0.00     0.277 HD
BRANCH  31  34
HETATM   34  C12 UNL     1      23.214  50.903  48.861  1.00  0.00     0.252 C 
BRANCH  34  35
HETATM   35  C13 UNL     1      23.948  50.790  50.157  1.00  0.00     0.152 C 
BRANCH  35  36
HETATM   36  N3  UNL     1      23.221  50.128  51.177  1.00  0.00    -0.342 N 
HETATM   37  C14 UNL     1      22.406  48.957  51.068  1.00  0.00     0.316 C 
HETATM   38  O1  UNL     1      22.332  48.438  49.928  1.00  0.00    -0.247 OA
HETATM   39  N4  UNL     1      21.733  48.425  52.167  1.00  0.00    -0.341 N 
ATOM     40  H4  UNL     1      21.853  48.907  53.058  1.00  0.00     0.164 HD
ATOM     41  H3  UNL     1      23.286  50.539  52.108  1.00  0.00     0.164 HD
BRANCH  39  42
HETATM   42  C15 UNL     1      20.888  47.265  52.168  1.00  0.00     0.150 C 
BRANCH  42  43
HETATM   43  C16 UNL     1      19.425  47.586  52.259  1.00  0.00     0.183 C 
BRANCH  43  44
HETATM   44  O2  UNL     1      18.829  47.059  51.090  1.00  0.00    -0.399 OA
ATOM     45  H2  UNL     1      18.350  47.774  50.688  1.00  0.00     0.209 HD
ENDBRANCH  43  44
ENDBRANCH  42  43
ENDBRANCH  39  42
ENDBRANCH  35  36
ENDBRANCH  34  35
ENDBRANCH  31  34
ENDBRANCH   1  31
TORSDOF 13
ENDMDL
MODEL 2
REMARK VINA RESULT: -8.078581931      3.056      8.914
REMARK  13 active torsions:
REMARK  status: ('A' for Active; 'I' for Inactive)
REMARK    1  A    between atoms: C2_2  and  C3_3 
REMARK    2  A    between atoms: C2_2  and  C17_28 
REMARK    3  A    between atoms: C3_3  and  C4_4 
REMARK    4  A    between atoms: C4_4  and  C5_5 
REMARK    5  A    between atoms: C5_5  and  C6_6 
REMARK    6  A    between atoms: C5_5  and  N2_13 
REMARK    7  A    between atoms: C6_6  and  N1_7 
REMARK    8  A    between atoms: N2_13  and  C12_16 
REMARK    9  A    between atoms: C12_16  and  C13_17 
REMARK   10  A    between atoms: C13_17  and  N3_18 
REMARK       I    between atoms: N3_18  and  C14_20 
REMARK       I    between atoms: C14_20  and  N4_22 
REMARK   11  A    between atoms: N4_22  and  C15_24 
REMARK   12  A    between atoms: C15_24  and  C16_25 
REMARK   13  A    between atoms: C16_25  and  O2_26 
ROOT
HETATM    1  C5  UNL     1      18.532  45.526  42.185  1.00  0.00     0.214 C 
ENDROOT
BRANCH   1   2
HETATM    2  C4  UNL     1      19.679  46.283  42.756  1.00  0.00     0.035 C 
BRANCH   2   3
HETATM    3  C3  UNL     1      20.943  45.529  42.849  1.00  0.00     0.007 C 
BRANCH   3   4
HETATM    4  C2  UNL     1      22.186  46.437  42.700  1.00  0.00    -0.014 C 
HETATM    5  C1  UNL     1      23.094  45.961  41.646  1.00  0.00     0.010 C 
BRANCH   4   6
HETATM    6  C17 UNL     1      22.710  46.661  44.063  1.00  0.00    -0.002 C 
HETATM    7  C18 UNL     1      21.595  46.442  45.057  1.00  0.00     0.006 C 
HETATM    8  C19 UNL     1      21.774  47.422  46.197  1.00  0.00     0.006 C 
HETATM    9  C20 UNL     1      23.110  48.019  45.886  1.00  0.00     0.002 C 
HETATM   10  C21 UNL     1      23.408  49.325  46.483  1.00  0.00     0.049 C 
HETATM   11  C28 UNL     1      23.240  48.004  44.387  1.00  0.00    -0.036 C 
HETATM   12  C22 UNL     1      23.019  49.401  47.950  1.00  0.00     0.112 C 
HETATM   13  C25 UNL     1      22.823  50.517  45.824  1.00  0.00     0.188 C 
HETATM   14  C23 UNL     1      23.525  50.691  48.474  1.00  0.00     0.224 C 
HETATM   15  O3  UNL     1      23.642  50.763  49.749  1.00  0.00    -0.273 OA
HETATM   16  N5  UNL     1      23.868  51.791  47.660  1.00  0.00    -0.295 N 
HETATM   17  C24 UNL     1      23.624  51.717  46.264  1.00  0.00     0.264 C 
ATOM     18  H5  UNL     1      24.285  52.627  48.068  1.00  0.00     0.171 HD
HETATM   19  O4  UNL     1      24.037  52.572  45.479  1.00  0.00    -0.269 OA
HETATM   20  F1  UNL     1      21.544  50.751  46.353  1.00  0.00    -0.232 F 
HETATM   21  C26 UNL     1      22.686  50.460  44.350  1.00  0.00     0.055 C 
HETATM   22  C27 UNL     1      22.558  49.141  43.709  1.00  0.00     0.014 C 
HETATM   23  C29 UNL     1      24.750  48.009  44.126  1.00  0.00     0.016 C 
ENDBRANCH   4   6
ENDBRANCH   3   4
ENDBRANCH   2   3
ENDBRANCH   1   2
BRANCH   1  24
HETATM   24  C6  UNL     1      17.189  46.154  42.210  1.00  0.00     0.305 C 
BRANCH  24  25
HETATM   25  N1  UNL     1      16.411  46.075  41.029  1.00  0.00     0.090 N 
HETATM   26  C7  UNL     1      16.047  47.440  40.626  1.00  0.00     0.272 C 
HETATM   27  C8  UNL     1      15.010  47.466  39.542  1.00  0.00     0.030 C 
HETATM   28  C9  UNL     1      13.654  47.029  40.096  1.00  0.00     0.003 C 
HETATM   29  C10 UNL     1      13.972  46.267  41.380  1.00  0.00     0.030 C 
HETATM   30  C11 UNL     1      15.151  45.367  41.217  1.00  0.00     0.272 C 
ENDBRANCH  24  25
ENDBRANCH   1  24
BRANCH   1  31
HETATM   31  N2  UNL     1      18.420  44.155  42.696  1.00  0.00    -0.068 N 
ATOM     32  H22 UNL     1      18.168  43.504  41.953  1.00  0.00     0.277 HD
ATOM     33  H21 UNL     1      19.336  43.776  42.940  1.00  0.00     0.277 HD
BRANCH  31  34
HETATM   34  C12 UNL     1      17.506  44.056  43.806  1.00  0.00     0.252 C 
BRANCH  34  35
HETATM   35  C13 UNL     1      18.260  43.761  45.061  1.00  0.00     0.152 C 
BRANCH  35  36
HETATM   36  N3  UNL     1      19.583  43.304  44.847  1.00  0.00    -0.342 N 
HETATM   37  C14 UNL     1      20.693  43.346  45.750  1.00  0.00     0.316 C 
HETATM   38  O1  UNL     1      20.468  43.838  46.881  1.00  0.00    -0.247 OA
HETATM   39  N4  UNL     1      21.951  42.867  45.390  1.00  0.00    -0.341 N 
ATOM     40  H4  UNL     1      22.045  42.478  44.451  1.00  0.00     0.164 HD
ATOM     41  H3  UNL     1      19.770  42.892  43.933  1.00  0.00     0.164 HD
BRANCH  39  42
HETATM   42  C15 UNL     1      23.129  42.867  46.210  1.00  0.00     0.150 C 
BRANCH  42  43
HETATM   43  C16 UNL     1      24.278  43.627  45.614  1.00  0.00     0.183 C 
BRANCH  43  44
HETATM   44  O2  UNL     1      24.069  43.631  44.215  1.00  0.00    -0.399 OA
ATOM     45  H2  UNL     1      24.552  42.888  43.871  1.00  0.00     0.209 HD
ENDBRANCH  43  44
ENDBRANCH  42  43
ENDBRANCH  39  42
ENDBRANCH  35  36
ENDBRANCH  34  35
ENDBRANCH  31  34
ENDBRANCH   1  31
TORSDOF 13
ENDMDL
MODEL 3
REMARK VINA RESULT: -7.990885522      2.657      5.761
REMARK  13 active torsions:
REMARK  status: ('A' for Active; 'I' for Inactive)
REMARK    1  A    between atoms: C2_2  and  C3_3 
REMARK    2  A    between atoms: C2_2  and  C17_28 
REMARK    3  A    between atoms: C3_3  and  C4_4 
REMARK    4  A    between atoms: C4_4  and  C5_5 
REMARK    5  A    between atoms: C5_5  and  C6_6 
REMARK    6  A    between atoms: C5_5  and  N2_13 
REMARK    7  A    between atoms: C6_6  and  N1_7 
REMARK    8  A    between atoms: N2_13  and  C12_16 
REMARK    9  A    between atoms: C12_16  and  C13_17 
REMARK   10  A    between atoms: C13_17  and  N3_18 
REMARK       I    between atoms: N3_18  and  C14_20 
REMARK       I    between atoms: C14_20  and  N4_22 
REMARK   11  A    between atoms: N4_22  and  C15_24 
REMARK   12  A    between atoms: C15_24  and  C16_25 
REMARK   13  A    between atoms: C16_25  and  O2_26 
ROOT
HETATM    1  C5  UNL     1      23.354  49.079  46.808  1.00  0.00     0.214 C 
ENDROOT
BRANCH   1   2
HETATM    2  C4  UNL     1      24.441  48.155  46.385  1.00  0.00     0.035 C 
BRANCH   2   3
HETATM    3  C3  UNL     1      24.633  48.042  44.928  1.00  0.00     0.007 C 
BRANCH   3   4
HETATM    4  C2  UNL     1      24.894  46.586  44.476  1.00  0.00    -0.014 C 
HETATM    5  C1  UNL     1      26.301  46.363  44.113  1.00  0.00     0.010 C 
BRANCH   4   6
HETATM    6  C17 UNL     1      23.832  46.249  43.505  1.00  0.00    -0.002 C 
HETATM    7  C18 UNL     1      23.187  47.527  43.023  1.00  0.00     0.006 C 
HETATM    8  C19 UNL     1      21.713  47.263  42.803  1.00  0.00     0.006 C 
HETATM    9  C20 UNL     1      21.633  45.780  42.981  1.00  0.00     0.002 C 
HETATM   10  C21 UNL     1      20.318  45.221  43.311  1.00  0.00     0.049 C 
HETATM   11  C28 UNL     1      22.703  45.417  43.975  1.00  0.00    -0.036 C 
HETATM   12  C22 UNL     1      19.203  45.807  42.462  1.00  0.00     0.112 C 
HETATM   13  C25 UNL     1      19.878  45.323  44.723  1.00  0.00     0.188 C 
HETATM   14  C23 UNL     1      17.970  45.043  42.766  1.00  0.00     0.224 C 
HETATM   15  O3  UNL     1      17.040  45.120  41.888  1.00  0.00    -0.273 OA
HETATM   16  N5  UNL     1      17.791  44.271  43.933  1.00  0.00    -0.295 N 
HETATM   17  C24 UNL     1      18.795  44.294  44.936  1.00  0.00     0.264 C 
ATOM     18  H5  UNL     1      16.952  43.704  44.055  1.00  0.00     0.171 HD
HETATM   19  O4  UNL     1      18.776  43.530  45.902  1.00  0.00    -0.269 OA
HETATM   20  F1  UNL     1      19.221  46.550  44.911  1.00  0.00    -0.232 F 
HETATM   21  C26 UNL     1      20.934  45.228  45.757  1.00  0.00     0.055 C 
HETATM   22  C27 UNL     1      22.306  45.623  45.395  1.00  0.00     0.014 C 
HETATM   23  C29 UNL     1      23.026  43.947  43.682  1.00  0.00     0.016 C 
ENDBRANCH   4   6
ENDBRANCH   3   4
ENDBRANCH   2   3
ENDBRANCH   1   2
BRANCH   1  24
HETATM   24  C6  UNL     1      22.681  48.828  48.106  1.00  0.00     0.305 C 
BRANCH  24  25
HETATM   25  N1  UNL     1      23.449  49.005  49.283  1.00  0.00     0.090 N 
HETATM   26  C7  UNL     1      22.552  48.890  50.440  1.00  0.00     0.272 C 
HETATM   27  C8  UNL     1      23.202  49.317  51.723  1.00  0.00     0.030 C 
HETATM   28  C9  UNL     1      23.393  50.834  51.739  1.00  0.00     0.003 C 
HETATM   29  C10 UNL     1      23.316  51.264  50.277  1.00  0.00     0.030 C 
HETATM   30  C11 UNL     1      24.055  50.327  49.381  1.00  0.00     0.272 C 
ENDBRANCH  24  25
ENDBRANCH   1  24
BRANCH   1  31
HETATM   31  N2  UNL     1      22.330  49.292  45.779  1.00  0.00    -0.068 N 
ATOM     32  H22 UNL     1      22.308  48.518  45.116  1.00  0.00     0.277 HD
ATOM     33  H21 UNL     1      21.391  49.199  46.169  1.00  0.00     0.277 HD
BRANCH  31  34
HETATM   34  C12 UNL     1      22.488  50.554  45.101  1.00  0.00     0.252 C 
BRANCH  34  35
HETATM   35  C13 UNL     1      23.123  51.548  46.017  1.00  0.00     0.152 C 
BRANCH  35  36
HETATM   36  N3  UNL     1      22.874  52.898  45.668  1.00  0.00    -0.342 N 
HETATM   37  C14 UNL     1      23.770  54.011  45.738  1.00  0.00     0.316 C 
HETATM   38  O1  UNL     1      24.928  53.765  46.149  1.00  0.00    -0.247 OA
HETATM   39  N4  UNL     1      23.374  55.297  45.370  1.00  0.00    -0.341 N 
ATOM     40  H4  UNL     1      22.414  55.407  45.042  1.00  0.00     0.164 HD
ATOM     41  H3  UNL     1      21.936  53.103  45.322  1.00  0.00     0.164 HD
BRANCH  39  42
HETATM   42  C15 UNL     1      24.185  56.480  45.409  1.00  0.00     0.150 C 
BRANCH  42  43
HETATM   43  C16 UNL     1      25.323  56.463  44.431  1.00  0.00     0.183 C 
BRANCH  43  44
HETATM   44  O2  UNL     1      26.490  56.201  45.185  1.00  0.00    -0.399 OA
ATOM     45  H2  UNL     1      26.528  56.868  45.860  1.00  0.00     0.209 HD
ENDBRANCH  43  44
ENDBRANCH  42  43
ENDBRANCH  39  42
ENDBRANCH  35  36
ENDBRANCH  34  35
ENDBRANCH  31  34
ENDBRANCH   1  31
TORSDOF 13
ENDMDL
MODEL 4
REMARK VINA RESULT: -7.983230531      3.606      9.756
REMARK  13 active torsions:
REMARK  status: ('A' for Active; 'I' for Inactive)
REMARK    1  A    between atoms: C2_2  and  C3_3 
REMARK    2  A    between atoms: C2_2  and  C17_28 
REMARK    3  A    between atoms: C3_3  and  C4_4 
REMARK    4  A    between atoms: C4_4  and  C5_5 
REMARK    5  A    between atoms: C5_5  and  C6_6 
REMARK    6  A    between atoms: C5_5  and  N2_13 
REMARK    7  A    between atoms: C6_6  and  N1_7 
REMARK    8  A    between atoms: N2_13  and  C12_16 
REMARK    9  A    between atoms: C12_16  and  C13_17 
REMARK   10  A    between atoms: C13_17  and  N3_18 
REMARK       I    between atoms: N3_18  and  C14_20 
REMARK       I    between atoms: C14_20  and  N4_22 
REMARK   11  A    between atoms: N4_22  and  C15_24 
REMARK   12  A    between atoms: C15_24  and  C16_25 
REMARK   13  A    between atoms: C16_25  and  O2_26 
ROOT
HETATM    1  C5  UNL     1      18.864  45.068  43.962  1.00  0.00     0.214 C 
ENDROOT
BRANCH   1   2
HETATM    2  C4  UNL     1      19.594  45.824  42.907  1.00  0.00     0.035 C 
BRANCH   2   3
HETATM    3  C3  UNL     1      20.240  47.068  43.363  1.00  0.00     0.007 C 
BRANCH   3   4
HETATM    4  C2  UNL     1      21.762  47.081  43.089  1.00  0.00    -0.014 C 
HETATM    5  C1  UNL     1      22.170  45.996  42.186  1.00  0.00     0.010 C 
BRANCH   4   6
HETATM    6  C17 UNL     1      22.426  47.221  44.402  1.00  0.00    -0.002 C 
HETATM    7  C18 UNL     1      21.394  47.053  45.492  1.00  0.00     0.006 C 
HETATM    8  C19 UNL     1      21.753  47.979  46.634  1.00  0.00     0.006 C 
HETATM    9  C20 UNL     1      23.096  48.485  46.214  1.00  0.00     0.002 C 
HETATM   10  C21 UNL     1      23.548  49.744  46.813  1.00  0.00     0.049 C 
HETATM   11  C28 UNL     1      23.085  48.509  44.709  1.00  0.00    -0.036 C 
HETATM   12  C22 UNL     1      23.303  49.801  48.311  1.00  0.00     0.112 C 
HETATM   13  C25 UNL     1      22.998  50.997  46.243  1.00  0.00     0.188 C 
HETATM   14  C23 UNL     1      23.954  51.031  48.819  1.00  0.00     0.224 C 
HETATM   15  O3  UNL     1      24.194  51.053  50.078  1.00  0.00    -0.273 OA
HETATM   16  N5  UNL     1      24.304  52.129  48.004  1.00  0.00    -0.295 N 
HETATM   17  C24 UNL     1      23.927  52.120  46.636  1.00  0.00     0.264 C 
ATOM     18  H5  UNL     1      24.821  52.918  48.392  1.00  0.00     0.171 HD
HETATM   19  O4  UNL     1      24.331  52.967  45.837  1.00  0.00    -0.269 OA
HETATM   20  F1  UNL     1      21.795  51.309  46.897  1.00  0.00    -0.232 F 
HETATM   21  C26 UNL     1      22.721  51.000  44.788  1.00  0.00     0.055 C 
HETATM   22  C27 UNL     1      22.433  49.715  44.128  1.00  0.00     0.014 C 
HETATM   23  C29 UNL     1      24.561  48.410  44.306  1.00  0.00     0.016 C 
ENDBRANCH   4   6
ENDBRANCH   3   4
ENDBRANCH   2   3
ENDBRANCH   1   2
BRANCH   1  24
HETATM   24  C6  UNL     1      19.525  43.888  44.569  1.00  0.00     0.305 C 
BRANCH  24  25
HETATM   25  N1  UNL     1      20.688  44.120  45.344  1.00  0.00     0.090 N 
HETATM   26  C7  UNL     1      21.860  43.746  44.541  1.00  0.00     0.272 C 
HETATM   27  C8  UNL     1      23.125  43.702  45.346  1.00  0.00     0.030 C 
HETATM   28  C9  UNL     1      23.109  42.500  46.290  1.00  0.00     0.003 C 
HETATM   29  C10 UNL     1      21.640  42.106  46.415  1.00  0.00     0.030 C 
HETATM   30  C11 UNL     1      20.752  43.298  46.546  1.00  0.00     0.272 C 
ENDBRANCH  24  25
ENDBRANCH   1  24
BRANCH   1  31
HETATM   31  N2  UNL     1      17.497  44.697  43.578  1.00  0.00    -0.068 N 
ATOM     32  H22 UNL     1      17.046  44.148  44.310  1.00  0.00     0.277 HD
ATOM     33  H21 UNL     1      16.880  45.509  43.580  1.00  0.00     0.277 HD
BRANCH  31  34
HETATM   34  C12 UNL     1      17.450  44.012  42.311  1.00  0.00     0.252 C 
BRANCH  34  35
HETATM   35  C13 UNL     1      16.084  44.132  41.719  1.00  0.00     0.152 C 
BRANCH  35  36
HETATM   36  N3  UNL     1      15.475  45.395  41.920  1.00  0.00    -0.342 N 
HETATM   37  C14 UNL     1      15.047  46.340  40.935  1.00  0.00     0.316 C 
HETATM   38  O1  UNL     1      15.219  46.009  39.738  1.00  0.00    -0.247 OA
HETATM   39  N4  UNL     1      14.472  47.561  41.289  1.00  0.00    -0.341 N 
ATOM     40  H4  UNL     1      14.365  47.748  42.286  1.00  0.00     0.164 HD
ATOM     41  H3  UNL     1      15.323  45.666  42.892  1.00  0.00     0.164 HD
BRANCH  39  42
HETATM   42  C15 UNL     1      14.017  48.580  40.387  1.00  0.00     0.150 C 
BRANCH  42  43
HETATM   43  C16 UNL     1      12.742  48.231  39.677  1.00  0.00     0.183 C 
BRANCH  43  44
HETATM   44  O2  UNL     1      13.114  47.791  38.385  1.00  0.00    -0.399 OA
ATOM     45  H2  UNL     1      12.381  47.286  38.053  1.00  0.00     0.209 HD
ENDBRANCH  43  44
ENDBRANCH  42  43
ENDBRANCH  39  42
ENDBRANCH  35  36
ENDBRANCH  34  35
ENDBRANCH  31  34
ENDBRANCH   1  31
TORSDOF 13
ENDMDL
MODEL 5
REMARK VINA RESULT: -7.484744364      1.202      2.103
REMARK  13 active torsions:
REMARK  status: ('A' for Active; 'I' for Inactive)
REMARK    1  A    between atoms: C2_2  and  C3_3 
REMARK    2  A    between atoms: C2_2  and  C17_28 
REMARK    3  A    between atoms: C3_3  and  C4_4 
REMARK    4  A    between atoms: C4_4  and  C5_5 
REMARK    5  A    between atoms: C5_5  and  C6_6 
REMARK    6  A    between atoms: C5_5  and  N2_13 
REMARK    7  A    between atoms: C6_6  and  N1_7 
REMARK    8  A    between atoms: N2_13  and  C12_16 
REMARK    9  A    between atoms: C12_16  and  C13_17 
REMARK   10  A    between atoms: C13_17  and  N3_18 
REMARK       I    between atoms: N3_18  and  C14_20 
REMARK       I    between atoms: C14_20  and  N4_22 
REMARK   11  A    between atoms: N4_22  and  C15_24 
REMARK   12  A    between atoms: C15_24  and  C16_25 
REMARK   13  A    between atoms: C16_25  and  O2_26 
ROOT
HETATM    1  C5  UNL     1      23.428  52.061  46.805  1.00  0.00     0.214 C 
ENDROOT
BRANCH   1   2
HETATM    2  C4  UNL     1      22.402  51.504  45.880  1.00  0.00     0.035 C 
BRANCH   2   3
HETATM    3  C3  UNL     1      22.901  51.134  44.544  1.00  0.00     0.007 C 
BRANCH   3   4
HETATM    4  C2  UNL     1      22.052  50.023  43.882  1.00  0.00    -0.014 C 
HETATM    5  C1  UNL     1      20.624  50.150  44.207  1.00  0.00     0.010 C 
BRANCH   4   6
HETATM    6  C17 UNL     1      22.746  48.747  44.149  1.00  0.00    -0.002 C 
HETATM    7  C18 UNL     1      22.923  48.004  42.845  1.00  0.00     0.006 C 
HETATM    8  C19 UNL     1      22.782  46.522  43.118  1.00  0.00     0.006 C 
HETATM    9  C20 UNL     1      22.730  46.485  44.612  1.00  0.00     0.002 C 
HETATM   10  C21 UNL     1      22.129  45.297  45.226  1.00  0.00     0.049 C 
HETATM   11  C28 UNL     1      22.083  47.773  45.043  1.00  0.00    -0.036 C 
HETATM   12  C22 UNL     1      22.605  44.003  44.588  1.00  0.00     0.112 C 
HETATM   13  C25 UNL     1      20.648  45.235  45.264  1.00  0.00     0.188 C 
HETATM   14  C23 UNL     1      22.068  42.887  45.400  1.00  0.00     0.224 C 
HETATM   15  O3  UNL     1      22.667  41.762  45.262  1.00  0.00    -0.273 OA
HETATM   16  N5  UNL     1      20.973  43.011  46.281  1.00  0.00    -0.295 N 
HETATM   17  C24 UNL     1      20.263  44.239  46.330  1.00  0.00     0.264 C 
ATOM     18  H5  UNL     1      20.694  42.229  46.874  1.00  0.00     0.171 HD
HETATM   19  O4  UNL     1      19.401  44.466  47.180  1.00  0.00    -0.269 OA
HETATM   20  F1  UNL     1      20.183  44.653  44.074  1.00  0.00    -0.232 F 
HETATM   21  C26 UNL     1      19.933  46.521  45.433  1.00  0.00     0.055 C 
HETATM   22  C27 UNL     1      20.596  47.755  44.978  1.00  0.00     0.014 C 
HETATM   23  C29 UNL     1      22.586  48.003  46.473  1.00  0.00     0.016 C 
ENDBRANCH   4   6
ENDBRANCH   3   4
ENDBRANCH   2   3
ENDBRANCH   1   2
BRANCH   1  24
HETATM   24  C6  UNL     1      24.616  52.730  46.220  1.00  0.00     0.305 C 
BRANCH  24  25
HETATM   25  N1  UNL     1      24.789  54.108  46.497  1.00  0.00     0.090 N 
HETATM   26  C7  UNL     1      24.167  54.878  45.411  1.00  0.00     0.272 C 
HETATM   27  C8  UNL     1      24.514  56.337  45.462  1.00  0.00     0.030 C 
HETATM   28  C9  UNL     1      25.978  56.546  45.073  1.00  0.00     0.003 C 
HETATM   29  C10 UNL     1      26.643  55.187  45.269  1.00  0.00     0.030 C 
HETATM   30  C11 UNL     1      26.187  54.519  46.523  1.00  0.00     0.272 C 
ENDBRANCH  24  25
ENDBRANCH   1  24
BRANCH   1  31
HETATM   31  N2  UNL     1      23.879  51.108  47.825  1.00  0.00    -0.068 N 
ATOM     32  H22 UNL     1      23.938  50.164  47.446  1.00  0.00     0.277 HD
ATOM     33  H21 UNL     1      24.862  51.254  48.056  1.00  0.00     0.277 HD
BRANCH  31  34
HETATM   34  C12 UNL     1      23.057  51.142  49.009  1.00  0.00     0.252 C 
BRANCH  34  35
HETATM   35  C13 UNL     1      23.883  50.823  50.211  1.00  0.00     0.152 C 
BRANCH  35  36
HETATM   36  N3  UNL     1      23.178  50.137  51.231  1.00  0.00    -0.342 N 
HETATM   37  C14 UNL     1      22.374  48.959  51.116  1.00  0.00     0.316 C 
HETATM   38  O1  UNL     1      22.288  48.457  49.970  1.00  0.00    -0.247 OA
HETATM   39  N4  UNL     1      21.723  48.403  52.216  1.00  0.00    -0.341 N 
ATOM     40  H4  UNL     1      21.851  48.873  53.113  1.00  0.00     0.164 HD
ATOM     41  H3  UNL     1      23.253  50.534  52.168  1.00  0.00     0.164 HD
BRANCH  39  42
HETATM   42  C15 UNL     1      20.890  47.234  52.211  1.00  0.00     0.150 C 
BRANCH  42  43
HETATM   43  C16 UNL     1      19.422  47.541  52.242  1.00  0.00     0.183 C 
BRANCH  43  44
HETATM   44  O2  UNL     1      18.872  46.967  51.072  1.00  0.00    -0.399 OA
ATOM     45  H2  UNL     1      19.415  47.260  50.350  1.00  0.00     0.209 HD
ENDBRANCH  43  44
ENDBRANCH  42  43
ENDBRANCH  39  42
ENDBRANCH  35  36
ENDBRANCH  34  35
ENDBRANCH  31  34
ENDBRANCH   1  31
TORSDOF 13
ENDMDL
