MODEL 1
REMARK VINA RESULT: -6.991366424      0.000      0.000
REMARK  14 active torsions:
REMARK  status: ('A' for Active; 'I' for Inactive)
REMARK    1  A    between atoms: C2_2  and  C4_4 
REMARK    2  A    between atoms: C4_4  and  C5_5 
REMARK    3  A    between atoms: C5_5  and  N1_6 
REMARK    4  A    between atoms: C5_5  and  C21_33 
REMARK       I    between atoms: N1_6  and  C6_8 
REMARK    5  A    between atoms: C6_8  and  C7_10 
REMARK    6  A    between atoms: C7_10  and  N2_11 
REMARK    7  A    between atoms: C7_10  and  C10_16 
REMARK       I    between atoms: N2_11  and  C8_12 
REMARK    8  A    between atoms: C8_12  and  C9_14 
REMARK       I    between atoms: C10_16  and  N3_18 
REMARK    9  A    between atoms: N3_18  and  C11_20 
REMARK   10  A    between atoms: C11_20  and  C12_21 
REMARK   11  A    between atoms: C11_20  and  C16_25 
REMARK   12  A    between atoms: C12_21  and  C13_22 
REMARK       I    between atoms: C16_25  and  N4_27 
REMARK   13  A    between atoms: N4_27  and  C17_29 
REMARK       I    between atoms: C21_33  and  N5_35 
REMARK   14  A    between atoms: N5_35  and  C22_37 
ROOT
HETATM    1  C7  UNL     1      19.222  45.044  44.403  1.00  0.00     0.245 C 
ENDROOT
BRANCH   1   2
HETATM    2  C6  UNL     1      18.396  44.366  43.366  1.00  0.00     0.292 C 
HETATM    3  N1  UNL     1      17.375  45.092  42.674  1.00  0.00    -0.319 N 
ATOM      4  H1  UNL     1      17.332  46.082  42.919  1.00  0.00     0.169 HD
HETATM    5  O1  UNL     1      18.582  43.170  43.115  1.00  0.00    -0.264 OA
BRANCH   3   6
HETATM    6  C5  UNL     1      16.430  44.703  41.732  1.00  0.00     0.080 C 
BRANCH   6   7
HETATM    7  C4  UNL     1      16.941  44.432  40.324  1.00  0.00     0.067 C 
BRANCH   7   8
HETATM    8  C2  UNL     1      15.925  44.060  39.328  1.00  0.00    -0.017 C 
HETATM    9  C1  UNL     1      15.835  42.563  39.089  1.00  0.00     0.010 C 
HETATM   10  C3  UNL     1      15.941  44.747  37.996  1.00  0.00     0.010 C 
ENDBRANCH   7   8
ENDBRANCH   6   7
BRANCH   6  11
HETATM   11  C21 UNL     1      15.126  45.398  41.660  1.00  0.00     0.264 C 
HETATM   12  O5  UNL     1      14.076  44.733  41.722  1.00  0.00    -0.266 OA
HETATM   13  N5  UNL     1      15.114  46.789  41.520  1.00  0.00    -0.351 N 
ATOM     14  H5  UNL     1      16.047  47.199  41.482  1.00  0.00     0.163 HD
BRANCH  13  15
HETATM   15  C22 UNL     1      14.077  47.743  41.419  1.00  0.00     0.084 C 
HETATM   16  C23 UNL     1      14.610  49.045  40.830  1.00  0.00     0.025 C 
HETATM   17  C24 UNL     1      15.187  48.858  39.445  1.00  0.00     0.002 C 
HETATM   18  C25 UNL     1      14.232  48.047  38.576  1.00  0.00     0.000 C 
HETATM   19  C26 UNL     1      12.901  48.067  39.287  1.00  0.00     0.002 C 
HETATM   20  C27 UNL     1      12.982  47.216  40.515  1.00  0.00     0.025 C 
ENDBRANCH  13  15
ENDBRANCH   6  11
ENDBRANCH   3   6
ENDBRANCH   1   2
BRANCH   1  21
HETATM   21  N2  UNL     1      19.914  44.277  45.337  1.00  0.00    -0.358 NA
HETATM   22  C8  UNL     1      20.575  43.542  46.241  1.00  0.00     0.306 C 
HETATM   23  O2  UNL     1      20.487  43.474  47.492  1.00  0.00    -0.256 OA
BRANCH  22  24
HETATM   24  C9  UNL     1      21.682  42.583  45.716  1.00  0.00     0.233 C 
HETATM   25 CL1  UNL     1      22.996  42.536  46.866  1.00  0.00    -0.119 Cl
ENDBRANCH  22  24
ENDBRANCH   1  21
BRANCH   1  26
HETATM   26  C10 UNL     1      19.987  46.212  43.991  1.00  0.00     0.288 C 
HETATM   27  O3  UNL     1      20.279  46.349  42.750  1.00  0.00    -0.265 OA
HETATM   28  N3  UNL     1      20.421  47.218  44.866  1.00  0.00    -0.341 N 
ATOM     29  H3  UNL     1      20.198  47.157  45.860  1.00  0.00     0.163 HD
BRANCH  28  30
HETATM   30  C11 UNL     1      21.213  48.381  44.349  1.00  0.00     0.177 C 
BRANCH  30  31
HETATM   31  C12 UNL     1      21.480  49.194  45.593  1.00  0.00     0.038 C 
BRANCH  31  32
HETATM   32  C13 UNL     1      22.839  49.741  45.778  1.00  0.00    -0.020 C 
HETATM   33  C14 UNL     1      23.498  49.296  47.073  1.00  0.00     0.009 C 
HETATM   34  C15 UNL     1      23.057  51.188  45.549  1.00  0.00     0.009 C 
ENDBRANCH  31  32
ENDBRANCH  30  31
BRANCH  30  35
HETATM   35  C16 UNL     1      22.379  47.780  43.711  1.00  0.00     0.241 C 
HETATM   36  O4  UNL     1      22.964  48.371  42.772  1.00  0.00    -0.271 OA
HETATM   37  N4  UNL     1      22.887  46.533  44.125  1.00  0.00    -0.351 N 
ATOM     38  H4  UNL     1      22.411  46.054  44.890  1.00  0.00     0.163 HD
BRANCH  37  39
HETATM   39  C17 UNL     1      24.032  45.892  43.540  1.00  0.00     0.022 C 
HETATM   40  C18 UNL     1      23.791  45.729  42.054  1.00  0.00     0.037 C 
HETATM   41  C19 UNL     1      24.147  44.483  44.142  1.00  0.00     0.037 C 
HETATM   42  C20 UNL     1      25.326  46.636  43.749  1.00  0.00     0.037 C 
ENDBRANCH  37  39
ENDBRANCH  30  35
ENDBRANCH  28  30
ENDBRANCH   1  26
TORSDOF 14
ENDMDL
MODEL 2
REMARK VINA RESULT: -6.681560151      1.213      1.557
REMARK  14 active torsions:
REMARK  status: ('A' for Active; 'I' for Inactive)
REMARK    1  A    between atoms: C2_2  and  C4_4 
REMARK    2  A    between atoms: C4_4  and  C5_5 
REMARK    3  A    between atoms: C5_5  and  N1_6 
REMARK    4  A    between atoms: C5_5  and  C21_33 
REMARK       I    between atoms: N1_6  and  C6_8 
REMARK    5  A    between atoms: C6_8  and  C7_10 
REMARK    6  A    between atoms: C7_10  and  N2_11 
REMARK    7  A    between atoms: C7_10  and  C10_16 
REMARK       I    between atoms: N2_11  and  C8_12 
REMARK    8  A    between atoms: C8_12  and  C9_14 
REMARK       I    between atoms: C10_16  and  N3_18 
REMARK    9  A    between atoms: N3_18  and  C11_20 
REMARK   10  A    between atoms: C11_20  and  C12_21 
REMARK   11  A    between atoms: C11_20  and  C16_25 
REMARK   12  A    between atoms: C12_21  and  C13_22 
REMARK       I    between atoms: C16_25  and  N4_27 
REMARK   13  A    between atoms: N4_27  and  C17_29 
REMARK       I    between atoms: C21_33  and  N5_35 
REMARK   14  A    between atoms: N5_35  and  C22_37 
ROOT
HETATM    1  C7  UNL     1      19.509  45.760  44.714  1.00  0.00     0.245 C 
ENDROOT
BRANCH   1   2
HETATM    2  C6  UNL     1      19.000  45.517  43.336  1.00  0.00     0.292 C 
HETATM    3  N1  UNL     1      17.603  45.296  43.115  1.00  0.00    -0.319 N 
ATOM      4  H1  UNL     1      17.031  45.386  43.956  1.00  0.00     0.169 HD
HETATM    5  O1  UNL     1      19.788  45.488  42.384  1.00  0.00    -0.264 OA
BRANCH   3   6
HETATM    6  C5  UNL     1      16.878  44.983  41.972  1.00  0.00     0.080 C 
BRANCH   6   7
HETATM    7  C4  UNL     1      17.589  45.174  40.639  1.00  0.00     0.067 C 
BRANCH   7   8
HETATM    8  C2  UNL     1      17.014  44.459  39.490  1.00  0.00    -0.017 C 
HETATM    9  C1  UNL     1      16.045  45.300  38.679  1.00  0.00     0.010 C 
HETATM   10  C3  UNL     1      16.390  43.115  39.721  1.00  0.00     0.010 C 
ENDBRANCH   7   8
ENDBRANCH   6   7
BRANCH   6  11
HETATM   11  C21 UNL     1      15.469  45.414  41.847  1.00  0.00     0.264 C 
HETATM   12  O5  UNL     1      14.564  44.560  41.878  1.00  0.00    -0.266 OA
HETATM   13  N5  UNL     1      15.195  46.777  41.693  1.00  0.00    -0.351 N 
ATOM     14  H5  UNL     1      16.032  47.359  41.684  1.00  0.00     0.163 HD
BRANCH  13  15
HETATM   15  C22 UNL     1      13.998  47.513  41.547  1.00  0.00     0.084 C 
HETATM   16  C23 UNL     1      14.307  48.948  41.135  1.00  0.00     0.025 C 
HETATM   17  C24 UNL     1      15.046  49.024  39.818  1.00  0.00     0.002 C 
HETATM   18  C25 UNL     1      14.374  48.138  38.777  1.00  0.00     0.000 C 
HETATM   19  C26 UNL     1      13.003  47.820  39.322  1.00  0.00     0.002 C 
HETATM   20  C27 UNL     1      13.134  46.879  40.477  1.00  0.00     0.025 C 
ENDBRANCH  13  15
ENDBRANCH   6  11
ENDBRANCH   3   6
ENDBRANCH   1   2
BRANCH   1  21
HETATM   21  N2  UNL     1      19.962  44.686  45.477  1.00  0.00    -0.358 NA
HETATM   22  C8  UNL     1      20.391  43.656  46.216  1.00  0.00     0.306 C 
HETATM   23  O2  UNL     1      20.029  43.218  47.336  1.00  0.00    -0.256 OA
BRANCH  22  24
HETATM   24  C9  UNL     1      21.565  42.805  45.650  1.00  0.00     0.233 C 
HETATM   25 CL1  UNL     1      22.726  43.863  44.885  1.00  0.00    -0.119 Cl
ENDBRANCH  22  24
ENDBRANCH   1  21
BRANCH   1  26
HETATM   26  C10 UNL     1      20.316  46.952  44.928  1.00  0.00     0.288 C 
HETATM   27  O3  UNL     1      20.115  47.973  44.178  1.00  0.00    -0.265 OA
HETATM   28  N3  UNL     1      21.302  47.069  45.918  1.00  0.00    -0.341 N 
ATOM     29  H3  UNL     1      21.485  46.287  46.547  1.00  0.00     0.163 HD
BRANCH  28  30
HETATM   30  C11 UNL     1      22.090  48.337  46.056  1.00  0.00     0.177 C 
BRANCH  30  31
HETATM   31  C12 UNL     1      22.666  48.233  47.448  1.00  0.00     0.038 C 
BRANCH  31  32
HETATM   32  C13 UNL     1      23.482  49.361  47.940  1.00  0.00    -0.020 C 
HETATM   33  C14 UNL     1      23.814  49.265  49.420  1.00  0.00     0.009 C 
HETATM   34  C15 UNL     1      23.075  50.738  47.583  1.00  0.00     0.009 C 
ENDBRANCH  31  32
ENDBRANCH  30  31
BRANCH  30  35
HETATM   35  C16 UNL     1      23.051  48.297  44.959  1.00  0.00     0.241 C 
HETATM   36  O4  UNL     1      23.868  49.234  44.795  1.00  0.00    -0.271 OA
HETATM   37  N4  UNL     1      23.098  47.214  44.058  1.00  0.00    -0.351 N 
ATOM     38  H4  UNL     1      22.434  46.452  44.193  1.00  0.00     0.163 HD
BRANCH  37  39
HETATM   39  C17 UNL     1      24.021  47.115  42.962  1.00  0.00     0.022 C 
HETATM   40  C18 UNL     1      24.046  48.438  42.226  1.00  0.00     0.037 C 
HETATM   41  C19 UNL     1      23.487  46.057  41.984  1.00  0.00     0.037 C 
HETATM   42  C20 UNL     1      25.427  46.756  43.373  1.00  0.00     0.037 C 
ENDBRANCH  37  39
ENDBRANCH  30  35
ENDBRANCH  28  30
ENDBRANCH   1  26
TORSDOF 14
ENDMDL
MODEL 3
REMARK VINA RESULT: -6.612611571      2.887      5.705
REMARK  14 active torsions:
REMARK  status: ('A' for Active; 'I' for Inactive)
REMARK    1  A    between atoms: C2_2  and  C4_4 
REMARK    2  A    between atoms: C4_4  and  C5_5 
REMARK    3  A    between atoms: C5_5  and  N1_6 
REMARK    4  A    between atoms: C5_5  and  C21_33 
REMARK       I    between atoms: N1_6  and  C6_8 
REMARK    5  A    between atoms: C6_8  and  C7_10 
REMARK    6  A    between atoms: C7_10  and  N2_11 
REMARK    7  A    between atoms: C7_10  and  C10_16 
REMARK       I    between atoms: N2_11  and  C8_12 
REMARK    8  A    between atoms: C8_12  and  C9_14 
REMARK       I    between atoms: C10_16  and  N3_18 
REMARK    9  A    between atoms: N3_18  and  C11_20 
REMARK   10  A    between atoms: C11_20  and  C12_21 
REMARK   11  A    between atoms: C11_20  and  C16_25 
REMARK   12  A    between atoms: C12_21  and  C13_22 
REMARK       I    between atoms: C16_25  and  N4_27 
REMARK   13  A    between atoms: N4_27  and  C17_29 
REMARK       I    between atoms: C21_33  and  N5_35 
REMARK   14  A    between atoms: N5_35  and  C22_37 
ROOT
HETATM    1  C7  UNL     1      22.802  47.100  45.770  1.00  0.00     0.245 C 
ENDROOT
BRANCH   1   2
HETATM    2  C6  UNL     1      21.353  46.992  45.442  1.00  0.00     0.292 C 
HETATM    3  N1  UNL     1      20.875  45.899  44.651  1.00  0.00    -0.319 N 
ATOM      4  H1  UNL     1      21.594  45.215  44.413  1.00  0.00     0.169 HD
HETATM    5  O1  UNL     1      20.566  47.859  45.839  1.00  0.00    -0.264 OA
BRANCH   3   6
HETATM    6  C5  UNL     1      19.617  45.594  44.147  1.00  0.00     0.080 C 
BRANCH   6   7
HETATM    7  C4  UNL     1      18.914  44.385  44.748  1.00  0.00     0.067 C 
BRANCH   7   8
HETATM    8  C2  UNL     1      19.763  43.451  45.502  1.00  0.00    -0.017 C 
HETATM    9  C1  UNL     1      19.959  43.851  46.953  1.00  0.00     0.010 C 
HETATM   10  C3  UNL     1      21.097  43.076  44.933  1.00  0.00     0.010 C 
ENDBRANCH   7   8
ENDBRANCH   6   7
BRANCH   6  11
HETATM   11  C21 UNL     1      19.375  45.632  42.688  1.00  0.00     0.264 C 
HETATM   12  O5  UNL     1      20.339  45.766  41.913  1.00  0.00    -0.266 OA
HETATM   13  N5  UNL     1      18.061  45.520  42.222  1.00  0.00    -0.351 N 
ATOM     14  H5  UNL     1      17.375  45.417  42.970  1.00  0.00     0.163 HD
BRANCH  13  15
HETATM   15  C22 UNL     1      17.488  45.521  40.931  1.00  0.00     0.084 C 
HETATM   16  C23 UNL     1      16.458  44.404  40.809  1.00  0.00     0.025 C 
HETATM   17  C24 UNL     1      15.328  44.550  41.803  1.00  0.00     0.002 C 
HETATM   18  C25 UNL     1      14.799  45.979  41.803  1.00  0.00     0.000 C 
HETATM   19  C26 UNL     1      15.326  46.619  40.542  1.00  0.00     0.002 C 
HETATM   20  C27 UNL     1      16.798  46.845  40.678  1.00  0.00     0.025 C 
ENDBRANCH  13  15
ENDBRANCH   6  11
ENDBRANCH   3   6
ENDBRANCH   1   2
BRANCH   1  21
HETATM   21  N2  UNL     1      23.727  46.364  45.034  1.00  0.00    -0.358 NA
HETATM   22  C8  UNL     1      24.624  45.662  44.330  1.00  0.00     0.306 C 
HETATM   23  O2  UNL     1      25.879  45.693  44.303  1.00  0.00    -0.256 OA
BRANCH  22  24
HETATM   24  C9  UNL     1      24.080  44.601  43.330  1.00  0.00     0.233 C 
HETATM   25 CL1  UNL     1      23.495  45.408  41.896  1.00  0.00    -0.119 Cl
ENDBRANCH  22  24
ENDBRANCH   1  21
BRANCH   1  26
HETATM   26  C10 UNL     1      23.313  48.418  46.117  1.00  0.00     0.288 C 
HETATM   27  O3  UNL     1      24.290  48.896  45.438  1.00  0.00    -0.265 OA
HETATM   28  N3  UNL     1      22.798  49.216  47.148  1.00  0.00    -0.341 N 
ATOM     29  H3  UNL     1      22.011  48.881  47.704  1.00  0.00     0.163 HD
BRANCH  28  30
HETATM   30  C11 UNL     1      23.398  50.559  47.438  1.00  0.00     0.177 C 
BRANCH  30  31
HETATM   31  C12 UNL     1      22.351  51.520  46.927  1.00  0.00     0.038 C 
BRANCH  31  32
HETATM   32  C13 UNL     1      22.598  52.181  45.630  1.00  0.00    -0.020 C 
HETATM   33  C14 UNL     1      22.370  51.270  44.435  1.00  0.00     0.009 C 
HETATM   34  C15 UNL     1      23.843  52.965  45.461  1.00  0.00     0.009 C 
ENDBRANCH  31  32
ENDBRANCH  30  31
BRANCH  30  35
HETATM   35  C16 UNL     1      23.623  50.560  48.879  1.00  0.00     0.241 C 
HETATM   36  O4  UNL     1      24.364  51.425  49.405  1.00  0.00    -0.271 OA
HETATM   37  N4  UNL     1      23.019  49.606  49.722  1.00  0.00    -0.351 N 
ATOM     38  H4  UNL     1      22.416  48.904  49.293  1.00  0.00     0.163 HD
BRANCH  37  39
HETATM   39  C17 UNL     1      23.198  49.558  51.146  1.00  0.00     0.022 C 
HETATM   40  C18 UNL     1      24.537  48.917  51.447  1.00  0.00     0.037 C 
HETATM   41  C19 UNL     1      22.112  48.643  51.732  1.00  0.00     0.037 C 
HETATM   42  C20 UNL     1      23.138  50.905  51.820  1.00  0.00     0.037 C 
ENDBRANCH  37  39
ENDBRANCH  30  35
ENDBRANCH  28  30
ENDBRANCH   1  26
TORSDOF 14
ENDMDL
MODEL 4
REMARK VINA RESULT: -6.437655016      5.000      8.625
REMARK  14 active torsions:
REMARK  status: ('A' for Active; 'I' for Inactive)
REMARK    1  A    between atoms: C2_2  and  C4_4 
REMARK    2  A    between atoms: C4_4  and  C5_5 
REMARK    3  A    between atoms: C5_5  and  N1_6 
REMARK    4  A    between atoms: C5_5  and  C21_33 
REMARK       I    between atoms: N1_6  and  C6_8 
REMARK    5  A    between atoms: C6_8  and  C7_10 
REMARK    6  A    between atoms: C7_10  and  N2_11 
REMARK    7  A    between atoms: C7_10  and  C10_16 
REMARK       I    between atoms: N2_11  and  C8_12 
REMARK    8  A    between atoms: C8_12  and  C9_14 
REMARK       I    between atoms: C10_16  and  N3_18 
REMARK    9  A    between atoms: N3_18  and  C11_20 
REMARK   10  A    between atoms: C11_20  and  C12_21 
REMARK   11  A    between atoms: C11_20  and  C16_25 
REMARK   12  A    between atoms: C12_21  and  C13_22 
REMARK       I    between atoms: C16_25  and  N4_27 
REMARK   13  A    between atoms: N4_27  and  C17_29 
REMARK       I    between atoms: C21_33  and  N5_35 
REMARK   14  A    between atoms: N5_35  and  C22_37 
ROOT
HETATM    1  C7  UNL     1      22.895  51.401  46.581  1.00  0.00     0.245 C 
ENDROOT
BRANCH   1   2
HETATM    2  C6  UNL     1      22.296  50.447  45.607  1.00  0.00     0.292 C 
HETATM    3  N1  UNL     1      22.890  49.162  45.401  1.00  0.00    -0.319 N 
ATOM      4  H1  UNL     1      23.684  48.970  46.013  1.00  0.00     0.169 HD
HETATM    5  O1  UNL     1      21.293  50.775  44.962  1.00  0.00    -0.264 OA
BRANCH   3   6
HETATM    6  C5  UNL     1      22.590  48.126  44.525  1.00  0.00     0.080 C 
BRANCH   6   7
HETATM    7  C4  UNL     1      23.046  48.296  43.083  1.00  0.00     0.067 C 
BRANCH   7   8
HETATM    8  C2  UNL     1      23.901  47.227  42.544  1.00  0.00    -0.017 C 
HETATM    9  C1  UNL     1      23.117  46.069  41.953  1.00  0.00     0.010 C 
HETATM   10  C3  UNL     1      24.983  46.666  43.415  1.00  0.00     0.010 C 
ENDBRANCH   7   8
ENDBRANCH   6   7
BRANCH   6  11
HETATM   11  C21 UNL     1      21.249  47.502  44.549  1.00  0.00     0.264 C 
HETATM   12  O5  UNL     1      20.280  48.118  44.068  1.00  0.00    -0.266 OA
HETATM   13  N5  UNL     1      21.108  46.233  45.119  1.00  0.00    -0.351 N 
ATOM     14  H5  UNL     1      21.985  45.851  45.473  1.00  0.00     0.163 HD
BRANCH  13  15
HETATM   15  C22 UNL     1      20.004  45.372  45.305  1.00  0.00     0.084 C 
HETATM   16  C23 UNL     1      20.044  44.233  44.293  1.00  0.00     0.025 C 
HETATM   17  C24 UNL     1      21.296  43.393  44.417  1.00  0.00     0.002 C 
HETATM   18  C25 UNL     1      21.552  43.030  45.875  1.00  0.00     0.000 C 
HETATM   19  C26 UNL     1      20.260  43.304  46.606  1.00  0.00     0.002 C 
HETATM   20  C27 UNL     1      20.046  44.781  46.700  1.00  0.00     0.025 C 
ENDBRANCH  13  15
ENDBRANCH   6  11
ENDBRANCH   3   6
ENDBRANCH   1   2
BRANCH   1  21
HETATM   21  N2  UNL     1      23.094  50.998  47.899  1.00  0.00    -0.358 NA
HETATM   22  C8  UNL     1      23.288  50.620  49.169  1.00  0.00     0.306 C 
HETATM   23  O2  UNL     1      23.720  51.240  50.172  1.00  0.00    -0.256 OA
BRANCH  22  24
HETATM   24  C9  UNL     1      22.947  49.147  49.540  1.00  0.00     0.233 C 
HETATM   25 CL1  UNL     1      22.787  49.012  51.274  1.00  0.00    -0.119 Cl
ENDBRANCH  22  24
ENDBRANCH   1  21
BRANCH   1  26
HETATM   26  C10 UNL     1      23.979  52.248  46.107  1.00  0.00     0.288 C 
HETATM   27  O3  UNL     1      24.537  51.964  44.988  1.00  0.00    -0.265 OA
HETATM   28  N3  UNL     1      24.454  53.377  46.791  1.00  0.00    -0.341 N 
ATOM     29  H3  UNL     1      24.029  53.648  47.677  1.00  0.00     0.163 HD
BRANCH  28  30
HETATM   30  C11 UNL     1      25.584  54.184  46.226  1.00  0.00     0.177 C 
BRANCH  30  31
HETATM   31  C12 UNL     1      25.046  55.595  46.257  1.00  0.00     0.038 C 
BRANCH  31  32
HETATM   32  C13 UNL     1      25.609  56.567  45.299  1.00  0.00    -0.020 C 
HETATM   33  C14 UNL     1      24.647  56.942  44.184  1.00  0.00     0.009 C 
HETATM   34  C15 UNL     1      26.967  56.325  44.760  1.00  0.00     0.009 C 
ENDBRANCH  31  32
ENDBRANCH  30  31
BRANCH  30  35
HETATM   35  C16 UNL     1      26.713  53.908  47.107  1.00  0.00     0.241 C 
HETATM   36  O4  UNL     1      26.526  53.409  48.242  1.00  0.00    -0.271 OA
HETATM   37  N4  UNL     1      28.039  54.182  46.715  1.00  0.00    -0.351 N 
ATOM     38  H4  UNL     1      28.190  54.587  45.792  1.00  0.00     0.163 HD
BRANCH  37  39
HETATM   39  C17 UNL     1      29.191  53.928  47.535  1.00  0.00     0.022 C 
HETATM   40  C18 UNL     1      28.804  54.108  48.988  1.00  0.00     0.037 C 
HETATM   41  C19 UNL     1      30.250  54.993  47.209  1.00  0.00     0.037 C 
HETATM   42  C20 UNL     1      29.786  52.555  47.352  1.00  0.00     0.037 C 
ENDBRANCH  37  39
ENDBRANCH  30  35
ENDBRANCH  28  30
ENDBRANCH   1  26
TORSDOF 14
ENDMDL
MODEL 5
REMARK VINA RESULT: -6.411929784      3.037      5.512
REMARK  14 active torsions:
REMARK  status: ('A' for Active; 'I' for Inactive)
REMARK    1  A    between atoms: C2_2  and  C4_4 
REMARK    2  A    between atoms: C4_4  and  C5_5 
REMARK    3  A    between atoms: C5_5  and  N1_6 
REMARK    4  A    between atoms: C5_5  and  C21_33 
REMARK       I    between atoms: N1_6  and  C6_8 
REMARK    5  A    between atoms: C6_8  and  C7_10 
REMARK    6  A    between atoms: C7_10  and  N2_11 
REMARK    7  A    between atoms: C7_10  and  C10_16 
REMARK       I    between atoms: N2_11  and  C8_12 
REMARK    8  A    between atoms: C8_12  and  C9_14 
REMARK       I    between atoms: C10_16  and  N3_18 
REMARK    9  A    between atoms: N3_18  and  C11_20 
REMARK   10  A    between atoms: C11_20  and  C12_21 
REMARK   11  A    between atoms: C11_20  and  C16_25 
REMARK   12  A    between atoms: C12_21  and  C13_22 
REMARK       I    between atoms: C16_25  and  N4_27 
REMARK   13  A    between atoms: N4_27  and  C17_29 
REMARK       I    between atoms: C21_33  and  N5_35 
REMARK   14  A    between atoms: N5_35  and  C22_37 
ROOT
HETATM    1  C7  UNL     1      20.895  50.243  44.698  1.00  0.00     0.245 C 
ENDROOT
BRANCH   1   2
HETATM    2  C6  UNL     1      19.882  49.154  44.788  1.00  0.00     0.292 C 
HETATM    3  N1  UNL     1      20.145  47.878  44.196  1.00  0.00    -0.319 N 
ATOM      4  H1  UNL     1      21.077  47.795  43.789  1.00  0.00     0.169 HD
HETATM    5  O1  UNL     1      18.806  49.361  45.361  1.00  0.00    -0.264 OA
BRANCH   3   6
HETATM    6  C5  UNL     1      19.369  46.732  44.070  1.00  0.00     0.080 C 
BRANCH   6   7
HETATM    7  C4  UNL     1      19.519  45.682  45.163  1.00  0.00     0.067 C 
BRANCH   7   8
HETATM    8  C2  UNL     1      19.334  44.284  44.746  1.00  0.00    -0.017 C 
HETATM    9  C1  UNL     1      17.876  43.886  44.603  1.00  0.00     0.010 C 
HETATM   10  C3  UNL     1      20.042  43.208  45.512  1.00  0.00     0.010 C 
ENDBRANCH   7   8
ENDBRANCH   6   7
BRANCH   6  11
HETATM   11  C21 UNL     1      19.243  46.064  42.756  1.00  0.00     0.264 C 
HETATM   12  O5  UNL     1      20.234  45.497  42.262  1.00  0.00    -0.266 OA
HETATM   13  N5  UNL     1      18.007  46.096  42.104  1.00  0.00    -0.351 N 
ATOM     14  H5  UNL     1      17.287  46.596  42.625  1.00  0.00     0.163 HD
BRANCH  13  15
HETATM   15  C22 UNL     1      17.549  45.578  40.872  1.00  0.00     0.084 C 
HETATM   16  C23 UNL     1      16.649  44.369  41.107  1.00  0.00     0.025 C 
HETATM   17  C24 UNL     1      15.430  44.710  41.934  1.00  0.00     0.002 C 
HETATM   18  C25 UNL     1      14.762  45.973  41.405  1.00  0.00     0.000 C 
HETATM   19  C26 UNL     1      15.328  46.197  40.023  1.00  0.00     0.002 C 
HETATM   20  C27 UNL     1      16.753  46.636  40.136  1.00  0.00     0.025 C 
ENDBRANCH  13  15
ENDBRANCH   6  11
ENDBRANCH   3   6
ENDBRANCH   1   2
BRANCH   1  21
HETATM   21  N2  UNL     1      20.536  51.544  45.040  1.00  0.00    -0.358 NA
HETATM   22  C8  UNL     1      20.183  52.795  45.363  1.00  0.00     0.306 C 
HETATM   23  O2  UNL     1      19.308  53.566  44.898  1.00  0.00    -0.256 OA
BRANCH  22  24
HETATM   24  C9  UNL     1      20.971  53.489  46.512  1.00  0.00     0.233 C 
HETATM   25 CL1  UNL     1      19.852  53.995  47.754  1.00  0.00    -0.119 Cl
ENDBRANCH  22  24
ENDBRANCH   1  21
BRANCH   1  26
HETATM   26  C10 UNL     1      22.253  49.929  45.120  1.00  0.00     0.288 C 
HETATM   27  O3  UNL     1      23.210  50.684  44.721  1.00  0.00    -0.265 OA
HETATM   28  N3  UNL     1      22.590  48.853  45.953  1.00  0.00    -0.341 N 
ATOM     29  H3  UNL     1      21.859  48.235  46.305  1.00  0.00     0.163 HD
BRANCH  28  30
HETATM   30  C11 UNL     1      24.021  48.604  46.326  1.00  0.00     0.177 C 
BRANCH  30  31
HETATM   31  C12 UNL     1      23.949  48.356  47.814  1.00  0.00     0.038 C 
BRANCH  31  32
HETATM   32  C13 UNL     1      23.241  49.352  48.644  1.00  0.00    -0.020 C 
HETATM   33  C14 UNL     1      23.667  50.783  48.363  1.00  0.00     0.009 C 
HETATM   34  C15 UNL     1      23.135  49.112  50.101  1.00  0.00     0.009 C 
ENDBRANCH  31  32
ENDBRANCH  30  31
BRANCH  30  35
HETATM   35  C16 UNL     1      24.426  47.469  45.504  1.00  0.00     0.241 C 
HETATM   36  O4  UNL     1      25.587  47.409  45.032  1.00  0.00    -0.271 OA
HETATM   37  N4  UNL     1      23.541  46.411  45.219  1.00  0.00    -0.351 N 
ATOM     38  H4  UNL     1      22.598  46.461  45.604  1.00  0.00     0.163 HD
BRANCH  37  39
HETATM   39  C17 UNL     1      23.881  45.266  44.421  1.00  0.00     0.022 C 
HETATM   40  C18 UNL     1      23.534  45.560  42.976  1.00  0.00     0.037 C 
HETATM   41  C19 UNL     1      22.999  44.092  44.873  1.00  0.00     0.037 C 
HETATM   42  C20 UNL     1      25.332  44.867  44.505  1.00  0.00     0.037 C 
ENDBRANCH  37  39
ENDBRANCH  30  35
ENDBRANCH  28  30
ENDBRANCH   1  26
TORSDOF 14
ENDMDL
