MODEL 1
REMARK VINA RESULT: -7.499097719      0.000      0.000
REMARK  4 active torsions:
REMARK  status: ('A' for Active; 'I' for Inactive)
REMARK    1  A    between atoms: N1_1  and  C1_4 
REMARK    2  A    between atoms: C2_9  and  C3_10 
REMARK    3  A    between atoms: N4_11  and  O1_13 
REMARK    4  A    between atoms: O1_13  and  C4_14 
ROOT
HETATM    1  C3  UNL     1      32.292   2.176  15.905  1.00  0.00     0.164 C 
HETATM    2  N4  UNL     1      31.515   2.131  16.901  1.00  0.00    -0.271 N 
ATOM      3  H4  UNL     1      30.743   2.798  16.928  1.00  0.00     0.193 HD
ENDROOT
BRANCH   1   4
HETATM    4  C2  UNL     1      32.082   3.147  14.842  1.00  0.00     0.153 A 
HETATM    5  N3  UNL     1      30.924   3.431  14.191  1.00  0.00    -0.270 N 
HETATM    6  N2  UNL     1      31.142   4.364  13.300  1.00  0.00    -0.131 N 
ATOM      7  H3  UNL     1      30.025   2.986  14.370  1.00  0.00     0.189 HD
HETATM    8  C1  UNL     1      32.432   4.685  13.371  1.00  0.00     0.692 A 
ATOM      9  H2  UNL     1      30.451   4.770  12.669  1.00  0.00     0.205 HD
HETATM   10  N7  UNL     1      33.026   3.941  14.320  1.00  0.00    -0.173 N 
ATOM     11  H7  UNL     1      34.008   3.974  14.592  1.00  0.00     0.186 HD
BRANCH   8  12
HETATM   12  N1  UNL     1      33.019   5.567  12.647  1.00  0.00    -0.233 N 
ATOM     13  H12 UNL     1      32.775   5.794  11.683  1.00  0.00     0.174 HD
ATOM     14  H11 UNL     1      33.800   6.151  12.944  1.00  0.00     0.174 HD
ENDBRANCH   8  12
ENDBRANCH   1   4
BRANCH   2  15
HETATM   15  O1  UNL     1      31.631   1.255  17.948  1.00  0.00    -0.245 OA
BRANCH  15  16
HETATM   16  C4  UNL     1      31.077   1.632  19.194  1.00  0.00     0.348 C 
HETATM   17  N5  UNL     1      31.481   2.948  19.597  1.00  0.00    -0.306 N 
HETATM   18  C5  UNL     1      30.345   3.552  20.191  1.00  0.00     0.325 C 
ATOM     19  H5  UNL     1      32.404   3.366  19.480  1.00  0.00     0.167 HD
HETATM   20  O2  UNL     1      30.308   4.575  20.942  1.00  0.00    -0.247 OA
HETATM   21  N6  UNL     1      29.167   2.816  19.817  1.00  0.00    -0.275 N 
HETATM   22  C6  UNL     1      29.613   1.757  18.986  1.00  0.00     0.277 C 
ATOM     23  H6  UNL     1      28.206   3.015  20.093  1.00  0.00     0.173 HD
HETATM   24  O3  UNL     1      28.950   1.032  18.206  1.00  0.00    -0.268 OA
ENDBRANCH  15  16
ENDBRANCH   2  15
TORSDOF 4
ENDMDL
MODEL 2
REMARK VINA RESULT: -7.355862472      0.691      1.288
REMARK  4 active torsions:
REMARK  status: ('A' for Active; 'I' for Inactive)
REMARK    1  A    between atoms: N1_1  and  C1_4 
REMARK    2  A    between atoms: C2_9  and  C3_10 
REMARK    3  A    between atoms: N4_11  and  O1_13 
REMARK    4  A    between atoms: O1_13  and  C4_14 
ROOT
HETATM    1  C3  UNL     1      32.320   2.264  15.927  1.00  0.00     0.164 C 
HETATM    2  N4  UNL     1      31.485   1.985  16.833  1.00  0.00    -0.271 N 
ATOM      3  H4  UNL     1      30.532   2.331  16.721  1.00  0.00     0.193 HD
ENDROOT
BRANCH   1   4
HETATM    4  C2  UNL     1      31.925   3.053  14.770  1.00  0.00     0.153 A 
HETATM    5  N3  UNL     1      32.663   3.976  14.101  1.00  0.00    -0.270 N 
HETATM    6  N2  UNL     1      31.956   4.469  13.116  1.00  0.00    -0.131 N 
ATOM      7  H3  UNL     1      33.620   4.243  14.330  1.00  0.00     0.189 HD
HETATM    8  C1  UNL     1      30.767   3.871  13.144  1.00  0.00     0.692 A 
ATOM      9  H2  UNL     1      32.261   5.180  12.450  1.00  0.00     0.205 HD
HETATM   10  N7  UNL     1      30.733   2.993  14.162  1.00  0.00    -0.173 N 
ATOM     11  H7  UNL     1      29.949   2.394  14.421  1.00  0.00     0.186 HD
BRANCH   8  12
HETATM   12  N1  UNL     1      29.803   4.097  12.328  1.00  0.00    -0.233 N 
ATOM     13  H12 UNL     1      29.850   3.985  11.316  1.00  0.00     0.174 HD
ATOM     14  H11 UNL     1      28.870   4.416  12.590  1.00  0.00     0.174 HD
ENDBRANCH   8  12
ENDBRANCH   1   4
BRANCH   2  15
HETATM   15  O1  UNL     1      31.763   1.250  17.957  1.00  0.00    -0.245 OA
BRANCH  15  16
HETATM   16  C4  UNL     1      31.192   1.669  19.181  1.00  0.00     0.348 C 
HETATM   17  N5  UNL     1      31.589   2.998  19.545  1.00  0.00    -0.306 N 
HETATM   18  C5  UNL     1      30.444   3.620  20.103  1.00  0.00     0.325 C 
ATOM     19  H5  UNL     1      32.513   3.414  19.426  1.00  0.00     0.167 HD
HETATM   20  O2  UNL     1      30.396   4.668  20.817  1.00  0.00    -0.247 OA
HETATM   21  N6  UNL     1      29.273   2.871  19.738  1.00  0.00    -0.275 N 
HETATM   22  C6  UNL     1      29.730   1.785  18.949  1.00  0.00     0.277 C 
ATOM     23  H6  UNL     1      28.307   3.078  19.994  1.00  0.00     0.173 HD
HETATM   24  O3  UNL     1      29.079   1.033  18.186  1.00  0.00    -0.268 OA
ENDBRANCH  15  16
ENDBRANCH   2  15
TORSDOF 4
ENDMDL
MODEL 3
REMARK VINA RESULT: -7.127556914      5.765      7.875
REMARK  4 active torsions:
REMARK  status: ('A' for Active; 'I' for Inactive)
REMARK    1  A    between atoms: N1_1  and  C1_4 
REMARK    2  A    between atoms: C2_9  and  C3_10 
REMARK    3  A    between atoms: N4_11  and  O1_13 
REMARK    4  A    between atoms: O1_13  and  C4_14 
ROOT
HETATM    1  C3  UNL     1      33.085   8.081  14.562  1.00  0.00     0.164 C 
HETATM    2  N4  UNL     1      32.189   8.972  14.526  1.00  0.00    -0.271 N 
ATOM      3  H4  UNL     1      31.276   8.709  14.155  1.00  0.00     0.193 HD
ENDROOT
BRANCH   1   4
HETATM    4  C2  UNL     1      32.810   6.732  14.089  1.00  0.00     0.153 A 
HETATM    5  N3  UNL     1      33.162   6.180  12.899  1.00  0.00    -0.270 N 
HETATM    6  N2  UNL     1      32.733   4.945  12.847  1.00  0.00    -0.131 N 
ATOM      7  H3  UNL     1      33.681   6.655  12.161  1.00  0.00     0.189 HD
HETATM    8  C1  UNL     1      32.106   4.696  13.994  1.00  0.00     0.692 A 
ATOM      9  H2  UNL     1      32.856   4.295  12.071  1.00  0.00     0.205 HD
HETATM   10  N7  UNL     1      32.146   5.792  14.772  1.00  0.00    -0.173 N 
ATOM     11  H7  UNL     1      31.747   5.888  15.706  1.00  0.00     0.186 HD
BRANCH   8  12
HETATM   12  N1  UNL     1      31.550   3.583  14.310  1.00  0.00    -0.233 N 
ATOM     13  H12 UNL     1      31.945   2.658  14.138  1.00  0.00     0.174 HD
ATOM     14  H11 UNL     1      30.646   3.485  14.773  1.00  0.00     0.174 HD
ENDBRANCH   8  12
ENDBRANCH   1   4
BRANCH   2  15
HETATM   15  O1  UNL     1      32.353  10.266  14.947  1.00  0.00    -0.245 OA
BRANCH  15  16
HETATM   16  C4  UNL     1      31.434  11.236  14.483  1.00  0.00     0.348 C 
HETATM   17  N5  UNL     1      31.119  11.072  13.094  1.00  0.00    -0.306 N 
HETATM   18  C5  UNL     1      29.734  11.344  12.961  1.00  0.00     0.325 C 
ATOM     19  H5  UNL     1      31.764  10.811  12.347  1.00  0.00     0.167 HD
HETATM   20  O2  UNL     1      29.089  11.607  11.901  1.00  0.00    -0.247 OA
HETATM   21  N6  UNL     1      29.114  11.281  14.257  1.00  0.00    -0.275 N 
HETATM   22  C6  UNL     1      30.148  10.966  15.174  1.00  0.00     0.277 C 
ATOM     23  H6  UNL     1      28.128  11.432  14.473  1.00  0.00     0.173 HD
HETATM   24  O3  UNL     1      30.060  10.540  16.350  1.00  0.00    -0.268 OA
ENDBRANCH  15  16
ENDBRANCH   2  15
TORSDOF 4
ENDMDL
MODEL 4
REMARK VINA RESULT: -7.055798978      1.209      1.588
REMARK  4 active torsions:
REMARK  status: ('A' for Active; 'I' for Inactive)
REMARK    1  A    between atoms: N1_1  and  C1_4 
REMARK    2  A    between atoms: C2_9  and  C3_10 
REMARK    3  A    between atoms: N4_11  and  O1_13 
REMARK    4  A    between atoms: O1_13  and  C4_14 
ROOT
HETATM    1  C3  UNL     1      32.422   1.531  17.281  1.00  0.00     0.164 C 
HETATM    2  N4  UNL     1      31.752   1.939  18.273  1.00  0.00    -0.271 N 
ATOM      3  H4  UNL     1      31.286   2.842  18.188  1.00  0.00     0.193 HD
ENDROOT
BRANCH   1   4
HETATM    4  C2  UNL     1      32.517   2.331  16.070  1.00  0.00     0.153 A 
HETATM    5  N3  UNL     1      33.297   2.103  14.982  1.00  0.00    -0.270 N 
HETATM    6  N2  UNL     1      33.101   3.049  14.098  1.00  0.00    -0.131 N 
ATOM      7  H3  UNL     1      33.936   1.317  14.870  1.00  0.00     0.189 HD
HETATM    8  C1  UNL     1      32.199   3.885  14.608  1.00  0.00     0.692 A 
ATOM      9  H2  UNL     1      33.554   3.129  13.188  1.00  0.00     0.205 HD
HETATM   10  N7  UNL     1      31.829   3.454  15.827  1.00  0.00    -0.173 N 
ATOM     11  H7  UNL     1      31.153   3.898  16.448  1.00  0.00     0.186 HD
BRANCH   8  12
HETATM   12  N1  UNL     1      31.753   4.939  14.028  1.00  0.00    -0.233 N 
ATOM     13  H12 UNL     1      32.326   5.646  13.568  1.00  0.00     0.174 HD
ATOM     14  H11 UNL     1      30.769   5.201  13.953  1.00  0.00     0.174 HD
ENDBRANCH   8  12
ENDBRANCH   1   4
BRANCH   2  15
HETATM   15  O1  UNL     1      31.605   1.257  19.453  1.00  0.00    -0.245 OA
BRANCH  15  16
HETATM   16  C4  UNL     1      30.584   1.677  20.338  1.00  0.00     0.348 C 
HETATM   17  N5  UNL     1      30.839   2.975  20.893  1.00  0.00    -0.306 N 
HETATM   18  C5  UNL     1      29.590   3.643  20.941  1.00  0.00     0.325 C 
ATOM     19  H5  UNL     1      31.741   3.344  21.194  1.00  0.00     0.167 HD
HETATM   20  O2  UNL     1      29.283   4.675  21.612  1.00  0.00    -0.247 OA
HETATM   21  N6  UNL     1      28.657   2.964  20.082  1.00  0.00    -0.275 N 
HETATM   22  C6  UNL     1      29.364   1.875  19.515  1.00  0.00     0.277 C 
ATOM     23  H6  UNL     1      27.682   3.216  19.915  1.00  0.00     0.173 HD
HETATM   24  O3  UNL     1      29.071   1.176  18.516  1.00  0.00    -0.268 OA
ENDBRANCH  15  16
ENDBRANCH   2  15
TORSDOF 4
ENDMDL
MODEL 5
REMARK VINA RESULT: -6.900788744      1.341      1.722
REMARK  4 active torsions:
REMARK  status: ('A' for Active; 'I' for Inactive)
REMARK    1  A    between atoms: N1_1  and  C1_4 
REMARK    2  A    between atoms: C2_9  and  C3_10 
REMARK    3  A    between atoms: N4_11  and  O1_13 
REMARK    4  A    between atoms: O1_13  and  C4_14 
ROOT
HETATM    1  C3  UNL     1      31.859   3.397  14.667  1.00  0.00     0.164 C 
HETATM    2  N4  UNL     1      31.951   3.232  15.917  1.00  0.00    -0.271 N 
ATOM      3  H4  UNL     1      32.326   4.004  16.468  1.00  0.00     0.193 HD
ENDROOT
BRANCH   1   4
HETATM    4  C2  UNL     1      32.276   4.647  14.050  1.00  0.00     0.153 A 
HETATM    5  N3  UNL     1      32.707   4.843  12.777  1.00  0.00    -0.270 N 
HETATM    6  N2  UNL     1      32.989   6.109  12.601  1.00  0.00    -0.131 N 
ATOM      7  H3  UNL     1      32.797   4.116  12.067  1.00  0.00     0.189 HD
HETATM    8  C1  UNL     1      32.743   6.731  13.752  1.00  0.00     0.692 A 
ATOM      9  H2  UNL     1      33.333   6.538  11.743  1.00  0.00     0.205 HD
HETATM   10  N7  UNL     1      32.301   5.840  14.656  1.00  0.00    -0.173 N 
ATOM     11  H7  UNL     1      32.035   6.036  15.622  1.00  0.00     0.186 HD
BRANCH   8  12
HETATM   12  N1  UNL     1      32.902   7.987  13.965  1.00  0.00    -0.233 N 
ATOM     13  H12 UNL     1      32.887   8.434  14.882  1.00  0.00     0.174 HD
ATOM     14  H11 UNL     1      33.064   8.693  13.247  1.00  0.00     0.174 HD
ENDBRANCH   8  12
ENDBRANCH   1   4
BRANCH   2  15
HETATM   15  O1  UNL     1      31.585   2.094  16.587  1.00  0.00    -0.245 OA
BRANCH  15  16
HETATM   16  C4  UNL     1      31.517   2.148  17.998  1.00  0.00     0.348 C 
HETATM   17  N5  UNL     1      31.643   3.485  18.502  1.00  0.00    -0.306 N 
HETATM   18  C5  UNL     1      30.735   3.593  19.585  1.00  0.00     0.325 C 
ATOM     19  H5  UNL     1      32.264   4.214  18.150  1.00  0.00     0.167 HD
HETATM   20  O2  UNL     1      30.714   4.473  20.500  1.00  0.00    -0.247 OA
HETATM   21  N6  UNL     1      29.785   2.516  19.516  1.00  0.00    -0.275 N 
HETATM   22  C6  UNL     1      30.134   1.757  18.371  1.00  0.00     0.277 C 
ATOM     23  H6  UNL     1      29.014   2.336  20.159  1.00  0.00     0.173 HD
HETATM   24  O3  UNL     1      29.454   0.906  17.749  1.00  0.00    -0.268 OA
ENDBRANCH  15  16
ENDBRANCH   2  15
TORSDOF 4
ENDMDL
