MODEL 1
REMARK VINA RESULT: -6.554213466      0.000      0.000
REMARK  3 active torsions:
REMARK  status: ('A' for Active; 'I' for Inactive)
REMARK    1  A    between atoms: N1_1  and  C1_4 
REMARK    2  A    between atoms: C3_8  and  C4_9 
REMARK    3  A    between atoms: C4_9  and  C5_10 
ROOT
HETATM    1  C1  UNL     1      85.481  83.107 119.376  1.00  0.00     0.678 A 
HETATM    2  N2  UNL     1      86.393  83.714 118.626  1.00  0.00    -0.201 N 
ATOM      3  H2  UNL     1      86.827  84.578 118.950  1.00  0.00     0.183 HD
HETATM    4  C2  UNL     1      86.747  83.179 117.423  1.00  0.00     0.118 A 
HETATM    5  C3  UNL     1      86.166  82.014 116.978  1.00  0.00     0.029 A 
HETATM    6  C8  UNL     1      85.224  81.400 117.769  1.00  0.00     0.267 A 
HETATM    7  O2  UNL     1      84.639  80.341 117.457  1.00  0.00    -0.267 OA
HETATM    8  N6  UNL     1      84.917  81.971 118.940  1.00  0.00    -0.156 N 
ATOM      9  H6  UNL     1      84.219  81.520 119.531  1.00  0.00     0.187 HD
ENDROOT
BRANCH   5  10
HETATM   10  C4  UNL     1      86.563  81.463 115.688  1.00  0.00     0.080 C 
BRANCH  10  11
HETATM   11  C5  UNL     1      87.486  82.362 114.896  1.00  0.00     0.181 A 
HETATM   12  N3  UNL     1      86.755  83.223 114.013  1.00  0.00    -0.351 N 
HETATM   13  C6  UNL     1      87.013  82.995 112.779  1.00  0.00     0.191 A 
ATOM     14  H3  UNL     1      86.101  83.939 114.332  1.00  0.00     0.163 HD
HETATM   15  N4  UNL     1      86.452  83.679 111.640  1.00  0.00    -0.063 NA
HETATM   16  N5  UNL     1      87.957  81.942 112.685  1.00  0.00    -0.299 N 
HETATM   17  C7  UNL     1      88.276  81.521 113.999  1.00  0.00     0.247 A 
ATOM     18  H5  UNL     1      88.340  81.555 111.822  1.00  0.00     0.171 HD
HETATM   19  O1  UNL     1      89.095  80.594 114.235  1.00  0.00    -0.271 OA
ENDBRANCH  10  11
ENDBRANCH   5  10
BRANCH   1  20
HETATM   20  N1  UNL     1      85.128  83.587 120.510  1.00  0.00    -0.234 N 
ATOM     21  H12 UNL     1      85.843  83.933 121.150  1.00  0.00     0.174 HD
ATOM     22  H11 UNL     1      84.147  83.628 120.784  1.00  0.00     0.174 HD
ENDBRANCH   1  20
TORSDOF 3
ENDMDL
MODEL 2
REMARK VINA RESULT: -6.021772545      1.473      2.053
REMARK  3 active torsions:
REMARK  status: ('A' for Active; 'I' for Inactive)
REMARK    1  A    between atoms: N1_1  and  C1_4 
REMARK    2  A    between atoms: C3_8  and  C4_9 
REMARK    3  A    between atoms: C4_9  and  C5_10 
ROOT
HETATM    1  C1  UNL     1      83.794  81.573 117.939  1.00  0.00     0.678 A 
HETATM    2  N2  UNL     1      83.756  80.750 116.899  1.00  0.00    -0.201 N 
ATOM      3  H2  UNL     1      82.890  80.265 116.661  1.00  0.00     0.183 HD
HETATM    4  C2  UNL     1      84.877  80.553 116.148  1.00  0.00     0.118 A 
HETATM    5  C3  UNL     1      86.050  81.201 116.460  1.00  0.00     0.029 A 
HETATM    6  C8  UNL     1      86.070  82.050 117.541  1.00  0.00     0.267 A 
HETATM    7  O2  UNL     1      87.080  82.686 117.907  1.00  0.00    -0.267 OA
HETATM    8  N6  UNL     1      84.938  82.204 118.240  1.00  0.00    -0.156 N 
ATOM      9  H6  UNL     1      84.946  82.833 119.043  1.00  0.00     0.187 HD
ENDROOT
BRANCH   5  10
HETATM   10  C4  UNL     1      87.234  80.974 115.641  1.00  0.00     0.080 C 
BRANCH  10  11
HETATM   11  C5  UNL     1      87.692  82.194 114.874  1.00  0.00     0.181 A 
HETATM   12  N3  UNL     1      86.596  82.852 114.224  1.00  0.00    -0.351 N 
HETATM   13  C6  UNL     1      86.700  82.838 112.948  1.00  0.00     0.191 A 
ATOM     14  H3  UNL     1      85.818  83.284 114.724  1.00  0.00     0.163 HD
HETATM   15  N4  UNL     1      85.775  83.408 112.000  1.00  0.00    -0.063 NA
HETATM   16  N5  UNL     1      87.891  82.161 112.583  1.00  0.00    -0.299 N 
HETATM   17  C7  UNL     1      88.539  81.743 113.771  1.00  0.00     0.247 A 
ATOM     18  H5  UNL     1      88.223  82.003 111.631  1.00  0.00     0.171 HD
HETATM   19  O1  UNL     1      89.629  81.114 113.764  1.00  0.00    -0.271 OA
ENDBRANCH  10  11
ENDBRANCH   5  10
BRANCH   1  20
HETATM   20  N1  UNL     1      82.756  81.776 118.662  1.00  0.00    -0.234 N 
ATOM     21  H12 UNL     1      82.732  81.410 119.613  1.00  0.00     0.174 HD
ATOM     22  H11 UNL     1      81.955  82.296 118.303  1.00  0.00     0.174 HD
ENDBRANCH   1  20
TORSDOF 3
ENDMDL
MODEL 3
REMARK VINA RESULT: -5.881042921      1.003      5.730
REMARK  3 active torsions:
REMARK  status: ('A' for Active; 'I' for Inactive)
REMARK    1  A    between atoms: N1_1  and  C1_4 
REMARK    2  A    between atoms: C3_8  and  C4_9 
REMARK    3  A    between atoms: C4_9  and  C5_10 
ROOT
HETATM    1  C1  UNL     1      87.541  83.961 112.351  1.00  0.00     0.678 A 
HETATM    2  N2  UNL     1      86.827  84.481 113.341  1.00  0.00    -0.201 N 
ATOM      3  H2  UNL     1      86.365  85.382 113.220  1.00  0.00     0.183 HD
HETATM    4  C2  UNL     1      86.712  83.807 114.521  1.00  0.00     0.118 A 
HETATM    5  C3  UNL     1      87.332  82.591 114.696  1.00  0.00     0.029 A 
HETATM    6  C8  UNL     1      88.068  82.069 113.658  1.00  0.00     0.267 A 
HETATM    7  O2  UNL     1      88.667  80.974 113.713  1.00  0.00    -0.267 OA
HETATM    8  N6  UNL     1      88.143  82.775 112.523  1.00  0.00    -0.156 N 
ATOM      9  H6  UNL     1      88.687  82.393 111.750  1.00  0.00     0.187 HD
ENDROOT
BRANCH   5  10
HETATM   10  C4  UNL     1      87.194  81.892 115.967  1.00  0.00     0.080 C 
BRANCH  10  11
HETATM   11  C5  UNL     1      85.989  82.321 116.774  1.00  0.00     0.181 A 
HETATM   12  N3  UNL     1      86.361  83.176 117.864  1.00  0.00    -0.351 N 
HETATM   13  C6  UNL     1      86.103  82.658 119.006  1.00  0.00     0.191 A 
ATOM     14  H3  UNL     1      86.784  84.097 117.742  1.00  0.00     0.163 HD
HETATM   15  N4  UNL     1      86.350  83.249 120.297  1.00  0.00    -0.063 NA
HETATM   16  N5  UNL     1      85.521  81.378 118.819  1.00  0.00    -0.299 N 
HETATM   17  C7  UNL     1      85.436  81.136 117.426  1.00  0.00     0.247 A 
ATOM     18  H5  UNL     1      85.219  80.743 119.558  1.00  0.00     0.171 HD
HETATM   19  O1  UNL     1      84.957  80.073 116.950  1.00  0.00    -0.271 OA
ENDBRANCH  10  11
ENDBRANCH   5  10
BRANCH   1  20
HETATM   20  N1  UNL     1      87.666  84.571 111.232  1.00  0.00    -0.234 N 
ATOM     21  H12 UNL     1      88.249  84.162 110.503  1.00  0.00     0.174 HD
ATOM     22  H11 UNL     1      87.194  85.459 111.058  1.00  0.00     0.174 HD
ENDBRANCH   1  20
TORSDOF 3
ENDMDL
MODEL 4
REMARK VINA RESULT: -5.648415290      2.376      5.458
REMARK  3 active torsions:
REMARK  status: ('A' for Active; 'I' for Inactive)
REMARK    1  A    between atoms: N1_1  and  C1_4 
REMARK    2  A    between atoms: C3_8  and  C4_9 
REMARK    3  A    between atoms: C4_9  and  C5_10 
ROOT
HETATM    1  C1  UNL     1      87.458  82.219 114.692  1.00  0.00     0.678 A 
HETATM    2  N2  UNL     1      87.790  81.261 115.549  1.00  0.00    -0.201 N 
ATOM      3  H2  UNL     1      88.157  80.374 115.206  1.00  0.00     0.183 HD
HETATM    4  C2  UNL     1      87.639  81.467 116.888  1.00  0.00     0.118 A 
HETATM    5  C3  UNL     1      87.144  82.661 117.361  1.00  0.00     0.029 A 
HETATM    6  C8  UNL     1      86.805  83.641 116.457  1.00  0.00     0.267 A 
HETATM    7  O2  UNL     1      86.350  84.757 116.782  1.00  0.00    -0.267 OA
HETATM    8  N6  UNL     1      86.976  83.381 115.155  1.00  0.00    -0.156 N 
ATOM      9  H6  UNL     1      86.727  84.105 114.480  1.00  0.00     0.187 HD
ENDROOT
BRANCH   5  10
HETATM   10  C4  UNL     1      86.993  82.856 118.797  1.00  0.00     0.080 C 
BRANCH  10  11
HETATM   11  C5  UNL     1      85.792  82.151 119.387  1.00  0.00     0.181 A 
HETATM   12  N3  UNL     1      85.376  81.045 118.575  1.00  0.00    -0.351 N 
HETATM   13  C6  UNL     1      84.202  81.206 118.089  1.00  0.00     0.191 A 
ATOM     14  H3  UNL     1      85.952  80.221 118.402  1.00  0.00     0.163 HD
HETATM   15  N4  UNL     1      83.488  80.289 117.235  1.00  0.00    -0.063 NA
HETATM   16  N5  UNL     1      83.683  82.453 118.521  1.00  0.00    -0.299 N 
HETATM   17  C7  UNL     1      84.659  83.073 119.340  1.00  0.00     0.247 A 
ATOM     18  H5  UNL     1      82.768  82.836 118.283  1.00  0.00     0.171 HD
HETATM   19  O1  UNL     1      84.481  84.199 119.873  1.00  0.00    -0.271 OA
ENDBRANCH  10  11
ENDBRANCH   5  10
BRANCH   1  20
HETATM   20  N1  UNL     1      87.588  82.053 113.428  1.00  0.00    -0.234 N 
ATOM     21  H12 UNL     1      86.817  82.304 112.810  1.00  0.00     0.174 HD
ATOM     22  H11 UNL     1      88.447  81.673 113.031  1.00  0.00     0.174 HD
ENDBRANCH   1  20
TORSDOF 3
ENDMDL
MODEL 5
REMARK VINA RESULT: -5.579551589      6.085      7.721
REMARK  3 active torsions:
REMARK  status: ('A' for Active; 'I' for Inactive)
REMARK    1  A    between atoms: N1_1  and  C1_4 
REMARK    2  A    between atoms: C3_8  and  C4_9 
REMARK    3  A    between atoms: C4_9  and  C5_10 
ROOT
HETATM    1  C1  UNL     1      87.073  84.692 113.022  1.00  0.00     0.678 A 
HETATM    2  N2  UNL     1      87.775  85.267 112.055  1.00  0.00    -0.201 N 
ATOM      3  H2  UNL     1      88.011  84.742 111.213  1.00  0.00     0.183 HD
HETATM    4  C2  UNL     1      88.182  86.562 112.189  1.00  0.00     0.118 A 
HETATM    5  C3  UNL     1      87.870  87.279 113.321  1.00  0.00     0.029 A 
HETATM    6  C8  UNL     1      87.142  86.665 114.313  1.00  0.00     0.267 A 
HETATM    7  O2  UNL     1      86.807  87.227 115.377  1.00  0.00    -0.267 OA
HETATM    8  N6  UNL     1      86.770  85.393 114.124  1.00  0.00    -0.156 N 
ATOM      9  H6  UNL     1      86.229  84.933 114.857  1.00  0.00     0.187 HD
ENDROOT
BRANCH   5  10
HETATM   10  C4  UNL     1      88.317  88.661 113.440  1.00  0.00     0.080 C 
BRANCH  10  11
HETATM   11  C5  UNL     1      87.189  89.660 113.565  1.00  0.00     0.181 A 
HETATM   12  N3  UNL     1      86.277  89.570 112.462  1.00  0.00    -0.351 N 
HETATM   13  C6  UNL     1      86.250  90.638 111.757  1.00  0.00     0.191 A 
ATOM     14  H3  UNL     1      85.712  88.744 112.260  1.00  0.00     0.163 HD
HETATM   15  N4  UNL     1      85.447  90.879 110.584  1.00  0.00    -0.063 NA
HETATM   16  N5  UNL     1      87.151  91.586 112.307  1.00  0.00    -0.299 N 
HETATM   17  C7  UNL     1      87.757  91.001 113.447  1.00  0.00     0.247 A 
ATOM     18  H5  UNL     1      87.330  92.522 111.947  1.00  0.00     0.171 HD
HETATM   19  O1  UNL     1      88.608  91.608 114.149  1.00  0.00    -0.271 OA
ENDBRANCH  10  11
ENDBRANCH   5  10
BRANCH   1  20
HETATM   20  N1  UNL     1      86.678  83.477 112.924  1.00  0.00    -0.234 N 
ATOM     21  H12 UNL     1      85.848  83.179 113.434  1.00  0.00     0.174 HD
ATOM     22  H11 UNL     1      87.180  82.804 112.345  1.00  0.00     0.174 HD
ENDBRANCH   1  20
TORSDOF 3
ENDMDL
