MODEL 1
REMARK VINA RESULT: -5.230796896      0.000      0.000
REMARK  3 active torsions:
REMARK  status: ('A' for Active; 'I' for Inactive)
REMARK    1  A    between atoms: N1_2  and  C2_5 
REMARK    2  A    between atoms: C2_5  and  C3_6 
REMARK    3  A    between atoms: C5_8  and  C6_9 
ROOT
HETATM    1  C3  UNL     1      12.395   4.440   3.983  1.00  0.00     0.023 A 
HETATM    2  C4  UNL     1      13.460   5.217   3.352  1.00  0.00     0.020 A 
HETATM    3  C5  UNL     1      13.350   3.804   2.962  1.00  0.00     0.061 A 
ENDROOT
BRANCH   3   4
HETATM    4  C6  UNL     1      14.167   2.737   3.534  1.00  0.00     0.101 A 
HETATM    5  N2  UNL     1      13.738   1.475   3.712  1.00  0.00    -0.340 N 
HETATM    6  C7  UNL     1      14.682   0.711   4.250  1.00  0.00     0.198 A 
ATOM      7  H2  UNL     1      12.805   1.145   3.465  1.00  0.00     0.168 HD
HETATM    8  N3  UNL     1      15.746   1.525   4.417  1.00  0.00    -0.295 N 
HETATM    9  N4  UNL     1      15.431   2.736   3.987  1.00  0.00    -0.288 N 
ATOM     10  H3  UNL     1      16.646   1.251   4.811  1.00  0.00     0.187 HD
ATOM     11  H4  UNL     1      16.053   3.544   3.997  1.00  0.00     0.188 HD
ENDBRANCH   3   4
BRANCH   1  12
HETATM   12  C2  UNL     1      10.970   4.494   3.572  1.00  0.00     0.237 C 
BRANCH  12  13
HETATM   13  N1  UNL     1      10.080   3.810   4.492  1.00  0.00    -0.079 N 
HETATM   14  C1  UNL     1       9.461   4.866   5.310  1.00  0.00     0.267 C 
ATOM     15  H12 UNL     1      10.541   3.085   5.042  1.00  0.00     0.276 HD
ATOM     16  H11 UNL     1       9.404   3.202   4.030  1.00  0.00     0.276 HD
ENDBRANCH  12  13
ENDBRANCH   1  12
TORSDOF 3
ENDMDL
MODEL 2
REMARK VINA RESULT: -5.219260824      1.732      3.151
REMARK  3 active torsions:
REMARK  status: ('A' for Active; 'I' for Inactive)
REMARK    1  A    between atoms: N1_2  and  C2_5 
REMARK    2  A    between atoms: C2_5  and  C3_6 
REMARK    3  A    between atoms: C5_8  and  C6_9 
ROOT
HETATM    1  C3  UNL     1      13.252   4.583   2.828  1.00  0.00     0.023 A 
HETATM    2  C4  UNL     1      12.296   4.482   3.929  1.00  0.00     0.020 A 
HETATM    3  C5  UNL     1      13.702   4.187   4.241  1.00  0.00     0.061 A 
ENDROOT
BRANCH   3   4
HETATM    4  C6  UNL     1      14.253   2.836   4.305  1.00  0.00     0.101 A 
HETATM    5  N2  UNL     1      13.505   1.720   4.369  1.00  0.00    -0.340 N 
HETATM    6  C7  UNL     1      14.260   0.628   4.418  1.00  0.00     0.198 A 
ATOM      7  H2  UNL     1      12.485   1.713   4.379  1.00  0.00     0.168 HD
HETATM    8  N3  UNL     1      15.534   1.076   4.383  1.00  0.00    -0.295 N 
HETATM    9  N4  UNL     1      15.523   2.397   4.316  1.00  0.00    -0.288 N 
ATOM     10  H3  UNL     1      16.369   0.490   4.405  1.00  0.00     0.187 HD
ATOM     11  H4  UNL     1      16.351   2.991   4.277  1.00  0.00     0.188 HD
ENDBRANCH   3   4
BRANCH   1  12
HETATM   12  C2  UNL     1      13.805   5.863   2.320  1.00  0.00     0.237 C 
BRANCH  12  13
HETATM   13  N1  UNL     1      14.550   5.718   1.084  1.00  0.00    -0.079 N 
HETATM   14  C1  UNL     1      15.728   4.903   1.419  1.00  0.00     0.267 C 
ATOM     15  H12 UNL     1      14.781   6.607   0.640  1.00  0.00     0.276 HD
ATOM     16  H11 UNL     1      13.996   5.339   0.316  1.00  0.00     0.276 HD
ENDBRANCH  12  13
ENDBRANCH   1  12
TORSDOF 3
ENDMDL
MODEL 3
REMARK VINA RESULT: -5.146338296      1.784      3.363
REMARK  3 active torsions:
REMARK  status: ('A' for Active; 'I' for Inactive)
REMARK    1  A    between atoms: N1_2  and  C2_5 
REMARK    2  A    between atoms: C2_5  and  C3_6 
REMARK    3  A    between atoms: C5_8  and  C6_9 
ROOT
HETATM    1  C3  UNL     1      13.119   4.784   2.795  1.00  0.00     0.023 A 
HETATM    2  C4  UNL     1      12.091   4.856   3.831  1.00  0.00     0.020 A 
HETATM    3  C5  UNL     1      13.413   4.363   4.241  1.00  0.00     0.061 A 
ENDROOT
BRANCH   3   4
HETATM    4  C6  UNL     1      13.749   2.947   4.364  1.00  0.00     0.101 A 
HETATM    5  N2  UNL     1      14.984   2.447   4.173  1.00  0.00    -0.340 N 
HETATM    6  C7  UNL     1      15.010   1.131   4.347  1.00  0.00     0.198 A 
ATOM      7  H2  UNL     1      15.798   3.009   3.927  1.00  0.00     0.168 HD
HETATM    8  N3  UNL     1      13.742   0.789   4.659  1.00  0.00    -0.295 N 
HETATM    9  N4  UNL     1      12.993   1.879   4.667  1.00  0.00    -0.288 N 
ATOM     10  H3  UNL     1      13.414  -0.157   4.856  1.00  0.00     0.187 HD
ATOM     11  H4  UNL     1      11.994   1.906   4.873  1.00  0.00     0.188 HD
ENDBRANCH   3   4
BRANCH   1  12
HETATM   12  C2  UNL     1      13.890   5.955   2.305  1.00  0.00     0.237 C 
BRANCH  12  13
HETATM   13  N1  UNL     1      14.637   5.683   1.091  1.00  0.00    -0.079 N 
HETATM   14  C1  UNL     1      15.781   4.853   1.502  1.00  0.00     0.267 C 
ATOM     15  H12 UNL     1      14.906   6.525   0.581  1.00  0.00     0.276 HD
ATOM     16  H11 UNL     1      14.074   5.266   0.350  1.00  0.00     0.276 HD
ENDBRANCH  12  13
ENDBRANCH   1  12
TORSDOF 3
ENDMDL
MODEL 4
REMARK VINA RESULT: -5.067663317      1.976      3.780
REMARK  3 active torsions:
REMARK  status: ('A' for Active; 'I' for Inactive)
REMARK    1  A    between atoms: N1_2  and  C2_5 
REMARK    2  A    between atoms: C2_5  and  C3_6 
REMARK    3  A    between atoms: C5_8  and  C6_9 
ROOT
HETATM    1  C3  UNL     1      13.519   4.828   2.330  1.00  0.00     0.023 A 
HETATM    2  C4  UNL     1      12.197   5.255   2.784  1.00  0.00     0.020 A 
HETATM    3  C5  UNL     1      13.088   4.669   3.795  1.00  0.00     0.061 A 
ENDROOT
BRANCH   3   4
HETATM    4  C6  UNL     1      13.026   3.273   4.220  1.00  0.00     0.101 A 
HETATM    5  N2  UNL     1      14.098   2.553   4.596  1.00  0.00    -0.340 N 
HETATM    6  C7  UNL     1      13.759   1.313   4.934  1.00  0.00     0.198 A 
ATOM      7  H2  UNL     1      15.052   2.913   4.620  1.00  0.00     0.168 HD
HETATM    8  N3  UNL     1      12.421   1.252   4.764  1.00  0.00    -0.295 N 
HETATM    9  N4  UNL     1      11.989   2.427   4.336  1.00  0.00    -0.288 N 
ATOM     10  H3  UNL     1      11.839   0.433   4.936  1.00  0.00     0.187 HD
ATOM     11  H4  UNL     1      11.017   2.656   4.128  1.00  0.00     0.188 HD
ENDBRANCH   3   4
BRANCH   1  12
HETATM   12  C2  UNL     1      14.658   5.752   2.100  1.00  0.00     0.237 C 
BRANCH  12  13
HETATM   13  N1  UNL     1      15.668   5.208   1.211  1.00  0.00    -0.079 N 
HETATM   14  C1  UNL     1      16.367   4.171   1.987  1.00  0.00     0.267 C 
ATOM     15  H12 UNL     1      16.291   5.915   0.820  1.00  0.00     0.276 HD
ATOM     16  H11 UNL     1      15.293   4.872   0.324  1.00  0.00     0.276 HD
ENDBRANCH  12  13
ENDBRANCH   1  12
TORSDOF 3
ENDMDL
MODEL 5
REMARK VINA RESULT: -5.018314608      2.086      2.760
REMARK  3 active torsions:
REMARK  status: ('A' for Active; 'I' for Inactive)
REMARK    1  A    between atoms: N1_2  and  C2_5 
REMARK    2  A    between atoms: C2_5  and  C3_6 
REMARK    3  A    between atoms: C5_8  and  C6_9 
ROOT
HETATM    1  C3  UNL     1      12.294   3.849   3.383  1.00  0.00     0.023 A 
HETATM    2  C4  UNL     1      13.141   3.177   4.366  1.00  0.00     0.020 A 
HETATM    3  C5  UNL     1      13.586   4.497   3.899  1.00  0.00     0.061 A 
ENDROOT
BRANCH   3   4
HETATM    4  C6  UNL     1      14.583   4.694   2.849  1.00  0.00     0.101 A 
HETATM    5  N2  UNL     1      15.616   3.862   2.627  1.00  0.00    -0.340 N 
HETATM    6  C7  UNL     1      16.367   4.277   1.613  1.00  0.00     0.198 A 
ATOM      7  H2  UNL     1      15.800   3.019   3.170  1.00  0.00     0.168 HD
HETATM    8  N3  UNL     1      15.782   5.414   1.180  1.00  0.00    -0.295 N 
HETATM    9  N4  UNL     1      14.716   5.658   1.924  1.00  0.00    -0.288 N 
ATOM     10  H3  UNL     1      16.110   5.991   0.406  1.00  0.00     0.187 HD
ATOM     11  H4  UNL     1      14.090   6.456   1.811  1.00  0.00     0.188 HD
ENDBRANCH   3   4
BRANCH   1  12
HETATM   12  C2  UNL     1      11.042   4.572   3.718  1.00  0.00     0.237 C 
BRANCH  12  13
HETATM   13  N1  UNL     1      10.122   3.787   4.520  1.00  0.00    -0.079 N 
HETATM   14  C1  UNL     1       9.383   4.756   5.345  1.00  0.00     0.267 C 
ATOM     15  H12 UNL     1      10.578   3.053   5.063  1.00  0.00     0.276 HD
ATOM     16  H11 UNL     1       9.519   3.176   3.969  1.00  0.00     0.276 HD
ENDBRANCH  12  13
ENDBRANCH   1  12
TORSDOF 3
ENDMDL
