MODEL 1
REMARK VINA RESULT: -7.166433616      0.000      0.000
REMARK  14 active torsions:
REMARK  status: ('A' for Active; 'I' for Inactive)
REMARK    1  A    between atoms: C2_2  and  C3_3 
REMARK    2  A    between atoms: C3_3  and  C4_4 
REMARK    3  A    between atoms: C3_3  and  C22_35 
REMARK    4  A    between atoms: C5_5  and  C6_6 
REMARK    5  A    between atoms: C6_6  and  O1_9 
REMARK    6  A    between atoms: O1_9  and  C9_10 
REMARK    7  A    between atoms: C10_11  and  O2_12 
REMARK    8  A    between atoms: O2_12  and  C11_13 
REMARK    9  A    between atoms: C13_15  and  O3_16 
REMARK   10  A    between atoms: C15_19  and  O4_20 
REMARK   11  A    between atoms: C16_22  and  O5_23 
REMARK   12  A    between atoms: C20_29  and  O6_30 
REMARK   13  A    between atoms: C21_32  and  O7_33 
REMARK   14  A    between atoms: C22_35  and  O8_36 
ROOT
HETATM    1  C9  UNL     1      38.991  52.319  11.505  1.00  0.00     0.187 C 
HETATM    2  C10 UNL     1      38.159  52.034  12.737  1.00  0.00     0.186 C 
HETATM    3  C17 UNL     1      38.647  53.063  13.679  1.00  0.00    -0.008 C 
HETATM    4  C18 UNL     1      38.869  52.890  14.958  1.00  0.00     0.101 C 
HETATM    5  C19 UNL     1      39.341  53.981  15.746  1.00  0.00     0.088 C 
HETATM    6  N1  UNL     1      39.718  54.857  16.403  1.00  0.00    -0.192 NA
HETATM    7  C20 UNL     1      38.829  54.297  12.893  1.00  0.00     0.181 C 
HETATM    8  C21 UNL     1      39.163  53.822  11.503  1.00  0.00     0.183 C 
ENDROOT
BRANCH   2   9
HETATM    9  O2  UNL     1      36.811  52.236  12.394  1.00  0.00    -0.371 OA
BRANCH   9  10
HETATM   10  C11 UNL     1      36.008  51.154  12.749  1.00  0.00     0.156 C 
HETATM   11  C12 UNL     1      34.705  51.635  13.324  1.00  0.00     0.066 C 
HETATM   12  C13 UNL     1      34.275  50.756  14.492  1.00  0.00     0.123 C 
HETATM   13  C14 UNL     1      35.372  50.957  15.544  1.00  0.00     0.066 C 
HETATM   14  C15 UNL     1      36.595  50.278  15.041  1.00  0.00     0.151 C 
HETATM   15  C16 UNL     1      36.720  50.142  13.577  1.00  0.00     0.176 C 
BRANCH  12  16
HETATM   16  O3  UNL     1      33.041  51.167  14.949  1.00  0.00    -0.395 OA
ATOM     17  H3  UNL     1      33.124  51.497  15.836  1.00  0.00     0.210 HD
ENDBRANCH  12  16
BRANCH  14  18
HETATM   18  O4  UNL     1      36.646  49.004  15.654  1.00  0.00    -0.393 OA
ATOM     19  H4  UNL     1      36.740  48.363  14.960  1.00  0.00     0.210 HD
ENDBRANCH  14  18
BRANCH  15  20
HETATM   20  O5  UNL     1      36.375  48.841  13.161  1.00  0.00    -0.390 OA
ATOM     21  H5  UNL     1      37.012  48.213  13.481  1.00  0.00     0.210 HD
ENDBRANCH  15  20
ENDBRANCH   9  10
ENDBRANCH   2   9
BRANCH   7  22
HETATM   22  O6  UNL     1      39.774  55.160  13.407  1.00  0.00    -0.388 OA
ATOM     23  H6  UNL     1      40.632  55.081  13.006  1.00  0.00     0.210 HD
ENDBRANCH   7  22
BRANCH   1  24
HETATM   24  O1  UNL     1      40.217  51.731  11.659  1.00  0.00    -0.366 OA
BRANCH  24  25
HETATM   25  C6  UNL     1      40.660  51.005  10.572  1.00  0.00     0.072 C 
HETATM   26  C7  UNL     1      42.151  51.087  10.367  1.00  0.00     0.050 C 
HETATM   27  C8  UNL     1      40.008  51.599   9.339  1.00  0.00     0.050 C 
BRANCH  25  28
HETATM   28  C5  UNL     1      40.283  49.575  10.639  1.00  0.00     0.006 C 
HETATM   29  C4  UNL     1      40.707  48.660   9.790  1.00  0.00    -0.021 C 
BRANCH  29  30
HETATM   30  C3  UNL     1      40.312  47.223   9.881  1.00  0.00     0.031 C 
BRANCH  30  31
HETATM   31  C2  UNL     1      41.383  46.430  10.635  1.00  0.00     0.006 C 
HETATM   32  C1  UNL     1      41.041  44.940  10.554  1.00  0.00     0.006 C 
ENDBRANCH  30  31
BRANCH  30  33
HETATM   33  C22 UNL     1      40.124  46.635   8.511  1.00  0.00     0.175 C 
BRANCH  33  34
HETATM   34  O8  UNL     1      38.882  46.137   8.243  1.00  0.00    -0.395 OA
HETATM   35  C23 UNL     1      38.862  44.853   7.728  1.00  0.00     0.201 C 
ENDBRANCH  33  34
ENDBRANCH  30  33
ENDBRANCH  29  30
ENDBRANCH  25  28
ENDBRANCH  24  25
ENDBRANCH   1  24
BRANCH   8  36
HETATM   36  O7  UNL     1      40.497  54.183  11.262  1.00  0.00    -0.390 OA
ATOM     37  H7  UNL     1      40.912  54.517  12.048  1.00  0.00     0.210 HD
ENDBRANCH   8  36
TORSDOF 14
ENDMDL
MODEL 2
REMARK VINA RESULT: -6.964026874      2.350      4.382
REMARK  14 active torsions:
REMARK  status: ('A' for Active; 'I' for Inactive)
REMARK    1  A    between atoms: C2_2  and  C3_3 
REMARK    2  A    between atoms: C3_3  and  C4_4 
REMARK    3  A    between atoms: C3_3  and  C22_35 
REMARK    4  A    between atoms: C5_5  and  C6_6 
REMARK    5  A    between atoms: C6_6  and  O1_9 
REMARK    6  A    between atoms: O1_9  and  C9_10 
REMARK    7  A    between atoms: C10_11  and  O2_12 
REMARK    8  A    between atoms: O2_12  and  C11_13 
REMARK    9  A    between atoms: C13_15  and  O3_16 
REMARK   10  A    between atoms: C15_19  and  O4_20 
REMARK   11  A    between atoms: C16_22  and  O5_23 
REMARK   12  A    between atoms: C20_29  and  O6_30 
REMARK   13  A    between atoms: C21_32  and  O7_33 
REMARK   14  A    between atoms: C22_35  and  O8_36 
ROOT
HETATM    1  C9  UNL     1      37.215  52.425  14.327  1.00  0.00     0.187 C 
HETATM    2  C10 UNL     1      36.557  52.753  15.650  1.00  0.00     0.186 C 
HETATM    3  C17 UNL     1      37.686  53.314  16.421  1.00  0.00    -0.008 C 
HETATM    4  C18 UNL     1      37.935  53.095  17.688  1.00  0.00     0.101 C 
HETATM    5  C19 UNL     1      39.068  53.708  18.300  1.00  0.00     0.088 C 
HETATM    6  N1  UNL     1      39.979  54.203  18.817  1.00  0.00    -0.192 NA
HETATM    7  C20 UNL     1      38.457  54.152  15.485  1.00  0.00     0.181 C 
HETATM    8  C21 UNL     1      38.247  53.515  14.135  1.00  0.00     0.183 C 
ENDROOT
BRANCH   2   9
HETATM    9  O2  UNL     1      35.564  53.716  15.402  1.00  0.00    -0.371 OA
BRANCH   9  10
HETATM   10  C11 UNL     1      34.579  53.248  14.535  1.00  0.00     0.156 C 
HETATM   11  C12 UNL     1      34.217  54.306  13.531  1.00  0.00     0.066 C 
HETATM   12  C13 UNL     1      32.716  54.304  13.263  1.00  0.00     0.123 C 
HETATM   13  C14 UNL     1      32.089  54.680  14.611  1.00  0.00     0.066 C 
HETATM   14  C15 UNL     1      32.273  53.520  15.522  1.00  0.00     0.151 C 
HETATM   15  C16 UNL     1      33.420  52.636  15.243  1.00  0.00     0.176 C 
BRANCH  12  16
HETATM   16  O3  UNL     1      32.422  55.225  12.282  1.00  0.00    -0.395 OA
ATOM     17  H3  UNL     1      33.151  55.826  12.180  1.00  0.00     0.210 HD
ENDBRANCH  12  16
BRANCH  14  18
HETATM   18  O4  UNL     1      31.068  52.778  15.500  1.00  0.00    -0.393 OA
ATOM     19  H4  UNL     1      31.004  52.324  16.331  1.00  0.00     0.210 HD
ENDBRANCH  14  18
BRANCH  15  20
HETATM   20  O5  UNL     1      33.002  51.467  14.575  1.00  0.00    -0.390 OA
ATOM     21  H5  UNL     1      32.136  51.591  14.204  1.00  0.00     0.210 HD
ENDBRANCH  15  20
ENDBRANCH   9  10
ENDBRANCH   2   9
BRANCH   7  22
HETATM   22  O6  UNL     1      39.790  54.286  15.812  1.00  0.00    -0.388 OA
ATOM     23  H6  UNL     1      40.321  54.683  15.131  1.00  0.00     0.210 HD
ENDBRANCH   7  22
BRANCH   1  24
HETATM   24  O1  UNL     1      37.856  51.221  14.443  1.00  0.00    -0.366 OA
BRANCH  24  25
HETATM   25  C6  UNL     1      37.363  50.214  13.638  1.00  0.00     0.072 C 
HETATM   26  C7  UNL     1      36.048  50.560  12.987  1.00  0.00     0.050 C 
HETATM   27  C8  UNL     1      37.119  49.009  14.524  1.00  0.00     0.050 C 
BRANCH  25  28
HETATM   28  C5  UNL     1      38.310  49.809  12.574  1.00  0.00     0.006 C 
HETATM   29  C4  UNL     1      38.611  50.559  11.531  1.00  0.00    -0.021 C 
BRANCH  29  30
HETATM   30  C3  UNL     1      39.571  50.127  10.472  1.00  0.00     0.031 C 
BRANCH  30  31
HETATM   31  C2  UNL     1      39.849  48.626  10.596  1.00  0.00     0.006 C 
HETATM   32  C1  UNL     1      41.342  48.380  10.360  1.00  0.00     0.006 C 
ENDBRANCH  30  31
BRANCH  30  33
HETATM   33  C22 UNL     1      40.862  50.887  10.581  1.00  0.00     0.175 C 
BRANCH  33  34
HETATM   34  O8  UNL     1      40.814  52.039  11.310  1.00  0.00    -0.395 OA
HETATM   35  C23 UNL     1      40.954  53.205  10.579  1.00  0.00     0.201 C 
ENDBRANCH  33  34
ENDBRANCH  30  33
ENDBRANCH  29  30
ENDBRANCH  25  28
ENDBRANCH  24  25
ENDBRANCH   1  24
BRANCH   8  36
HETATM   36  O7  UNL     1      39.484  52.983  13.741  1.00  0.00    -0.390 OA
ATOM     37  H7  UNL     1      40.124  53.669  13.595  1.00  0.00     0.210 HD
ENDBRANCH   8  36
TORSDOF 14
ENDMDL
MODEL 3
REMARK VINA RESULT: -6.950859210      1.767      2.549
REMARK  14 active torsions:
REMARK  status: ('A' for Active; 'I' for Inactive)
REMARK    1  A    between atoms: C2_2  and  C3_3 
REMARK    2  A    between atoms: C3_3  and  C4_4 
REMARK    3  A    between atoms: C3_3  and  C22_35 
REMARK    4  A    between atoms: C5_5  and  C6_6 
REMARK    5  A    between atoms: C6_6  and  O1_9 
REMARK    6  A    between atoms: O1_9  and  C9_10 
REMARK    7  A    between atoms: C10_11  and  O2_12 
REMARK    8  A    between atoms: O2_12  and  C11_13 
REMARK    9  A    between atoms: C13_15  and  O3_16 
REMARK   10  A    between atoms: C15_19  and  O4_20 
REMARK   11  A    between atoms: C16_22  and  O5_23 
REMARK   12  A    between atoms: C20_29  and  O6_30 
REMARK   13  A    between atoms: C21_32  and  O7_33 
REMARK   14  A    between atoms: C22_35  and  O8_36 
ROOT
HETATM    1  C9  UNL     1      38.321  52.276  12.658  1.00  0.00     0.187 C 
HETATM    2  C10 UNL     1      37.542  51.304  13.519  1.00  0.00     0.186 C 
HETATM    3  C17 UNL     1      38.061  51.609  14.869  1.00  0.00    -0.008 C 
HETATM    4  C18 UNL     1      38.336  50.732  15.802  1.00  0.00     0.101 C 
HETATM    5  C19 UNL     1      38.833  51.176  17.062  1.00  0.00     0.088 C 
HETATM    6  N1  UNL     1      39.231  51.518  18.095  1.00  0.00    -0.192 NA
HETATM    7  C20 UNL     1      38.203  53.074  14.941  1.00  0.00     0.181 C 
HETATM    8  C21 UNL     1      38.484  53.505  13.525  1.00  0.00     0.183 C 
ENDROOT
BRANCH   2   9
HETATM    9  O2  UNL     1      36.180  51.629  13.397  1.00  0.00    -0.371 OA
BRANCH   9  10
HETATM   10  C11 UNL     1      35.426  51.153  14.468  1.00  0.00     0.156 C 
HETATM   11  C12 UNL     1      34.384  50.183  13.985  1.00  0.00     0.066 C 
HETATM   12  C13 UNL     1      33.078  50.371  14.747  1.00  0.00     0.123 C 
HETATM   13  C14 UNL     1      32.625  51.790  14.379  1.00  0.00     0.066 C 
HETATM   14  C15 UNL     1      33.551  52.737  15.054  1.00  0.00     0.151 C 
HETATM   15  C16 UNL     1      34.908  52.238  15.347  1.00  0.00     0.176 C 
BRANCH  12  16
HETATM   16  O3  UNL     1      32.167  49.418  14.343  1.00  0.00    -0.395 OA
ATOM     17  H3  UNL     1      32.174  48.693  14.956  1.00  0.00     0.210 HD
ENDBRANCH  12  16
BRANCH  14  18
HETATM   18  O4  UNL     1      32.918  53.158  16.248  1.00  0.00    -0.393 OA
ATOM     19  H4  UNL     1      33.406  53.905  16.573  1.00  0.00     0.210 HD
ENDBRANCH  14  18
BRANCH  15  20
HETATM   20  O5  UNL     1      35.025  51.867  16.701  1.00  0.00    -0.390 OA
ATOM     21  H5  UNL     1      35.940  51.814  16.951  1.00  0.00     0.210 HD
ENDBRANCH  15  20
ENDBRANCH   9  10
ENDBRANCH   2   9
BRANCH   7  22
HETATM   22  O6  UNL     1      39.163  53.506  15.833  1.00  0.00    -0.388 OA
ATOM     23  H6  UNL     1      38.820  54.010  16.561  1.00  0.00     0.210 HD
ENDBRANCH   7  22
BRANCH   1  24
HETATM   24  O1  UNL     1      39.557  51.743  12.405  1.00  0.00    -0.366 OA
BRANCH  24  25
HETATM   25  C6  UNL     1      39.832  51.506  11.074  1.00  0.00     0.072 C 
HETATM   26  C7  UNL     1      41.269  51.774  10.705  1.00  0.00     0.050 C 
HETATM   27  C8  UNL     1      38.978  52.460  10.262  1.00  0.00     0.050 C 
BRANCH  25  28
HETATM   28  C5  UNL     1      39.498  50.127  10.650  1.00  0.00     0.006 C 
HETATM   29  C4  UNL     1      40.395  49.226  10.302  1.00  0.00    -0.021 C 
BRANCH  29  30
HETATM   30  C3  UNL     1      40.031  47.841   9.880  1.00  0.00     0.031 C 
BRANCH  30  31
HETATM   31  C2  UNL     1      41.042  46.837  10.442  1.00  0.00     0.006 C 
HETATM   32  C1  UNL     1      40.905  45.518   9.678  1.00  0.00     0.006 C 
ENDBRANCH  30  31
BRANCH  30  33
HETATM   33  C22 UNL     1      39.999  47.733   8.381  1.00  0.00     0.175 C 
BRANCH  33  34
HETATM   34  O8  UNL     1      40.758  48.641   7.703  1.00  0.00    -0.395 OA
HETATM   35  C23 UNL     1      41.900  48.130   7.112  1.00  0.00     0.201 C 
ENDBRANCH  33  34
ENDBRANCH  30  33
ENDBRANCH  29  30
ENDBRANCH  25  28
ENDBRANCH  24  25
ENDBRANCH   1  24
BRANCH   8  36
HETATM   36  O7  UNL     1      39.804  53.977  13.499  1.00  0.00    -0.390 OA
ATOM     37  H7  UNL     1      39.910  54.674  12.864  1.00  0.00     0.210 HD
ENDBRANCH   8  36
TORSDOF 14
ENDMDL
MODEL 4
REMARK VINA RESULT: -6.939098170      3.142      6.478
REMARK  14 active torsions:
REMARK  status: ('A' for Active; 'I' for Inactive)
REMARK    1  A    between atoms: C2_2  and  C3_3 
REMARK    2  A    between atoms: C3_3  and  C4_4 
REMARK    3  A    between atoms: C3_3  and  C22_35 
REMARK    4  A    between atoms: C5_5  and  C6_6 
REMARK    5  A    between atoms: C6_6  and  O1_9 
REMARK    6  A    between atoms: O1_9  and  C9_10 
REMARK    7  A    between atoms: C10_11  and  O2_12 
REMARK    8  A    between atoms: O2_12  and  C11_13 
REMARK    9  A    between atoms: C13_15  and  O3_16 
REMARK   10  A    between atoms: C15_19  and  O4_20 
REMARK   11  A    between atoms: C16_22  and  O5_23 
REMARK   12  A    between atoms: C20_29  and  O6_30 
REMARK   13  A    between atoms: C21_32  and  O7_33 
REMARK   14  A    between atoms: C22_35  and  O8_36 
ROOT
HETATM    1  C9  UNL     1      37.035  53.936  12.443  1.00  0.00     0.187 C 
HETATM    2  C10 UNL     1      37.747  54.763  11.394  1.00  0.00     0.186 C 
HETATM    3  C17 UNL     1      36.618  55.269  10.587  1.00  0.00    -0.008 C 
HETATM    4  C18 UNL     1      36.595  55.377   9.282  1.00  0.00     0.101 C 
HETATM    5  C19 UNL     1      35.429  55.885   8.637  1.00  0.00     0.088 C 
HETATM    6  N1  UNL     1      34.494  56.301   8.095  1.00  0.00    -0.192 NA
HETATM    7  C20 UNL     1      35.546  55.617  11.537  1.00  0.00     0.181 C 
HETATM    8  C21 UNL     1      35.741  54.677  12.699  1.00  0.00     0.183 C 
ENDROOT
BRANCH   2   9
HETATM    9  O2  UNL     1      38.419  55.802  12.061  1.00  0.00    -0.371 OA
BRANCH   9  10
HETATM   10  C11 UNL     1      39.802  55.630  12.049  1.00  0.00     0.156 C 
HETATM   11  C12 UNL     1      40.497  56.954  12.206  1.00  0.00     0.066 C 
HETATM   12  C13 UNL     1      41.735  57.021  11.320  1.00  0.00     0.123 C 
HETATM   13  C14 UNL     1      41.186  56.928   9.891  1.00  0.00     0.066 C 
HETATM   14  C15 UNL     1      40.702  55.536   9.694  1.00  0.00     0.151 C 
HETATM   15  C16 UNL     1      40.279  54.806  10.904  1.00  0.00     0.176 C 
BRANCH  12  16
HETATM   16  O3  UNL     1      42.397  58.209  11.542  1.00  0.00    -0.395 OA
ATOM     17  H3  UNL     1      42.826  58.488  10.742  1.00  0.00     0.210 HD
ENDBRANCH  12  16
BRANCH  14  18
HETATM   18  O4  UNL     1      41.733  54.828   9.032  1.00  0.00    -0.393 OA
ATOM     19  H4  UNL     1      42.554  55.096   9.426  1.00  0.00     0.210 HD
ENDBRANCH  14  18
BRANCH  15  20
HETATM   20  O5  UNL     1      41.285  53.915  11.330  1.00  0.00    -0.390 OA
ATOM     21  H5  UNL     1      41.700  53.505  10.581  1.00  0.00     0.210 HD
ENDBRANCH  15  20
ENDBRANCH   9  10
ENDBRANCH   2   9
BRANCH   7  22
HETATM   22  O6  UNL     1      34.275  55.553  11.004  1.00  0.00    -0.388 OA
ATOM     23  H6  UNL     1      33.646  56.125  11.427  1.00  0.00     0.210 HD
ENDBRANCH   7  22
BRANCH   1  24
HETATM   24  O1  UNL     1      36.746  52.708  11.909  1.00  0.00    -0.366 OA
BRANCH  24  25
HETATM   25  C6  UNL     1      37.250  51.631  12.608  1.00  0.00     0.072 C 
HETATM   26  C7  UNL     1      36.181  50.768  13.228  1.00  0.00     0.050 C 
HETATM   27  C8  UNL     1      38.089  52.184  13.743  1.00  0.00     0.050 C 
BRANCH  25  28
HETATM   28  C5  UNL     1      38.121  50.763  11.783  1.00  0.00     0.006 C 
HETATM   29  C4  UNL     1      39.089  51.213  11.009  1.00  0.00    -0.021 C 
BRANCH  29  30
HETATM   30  C3  UNL     1      39.954  50.315  10.187  1.00  0.00     0.031 C 
BRANCH  30  31
HETATM   31  C2  UNL     1      39.884  48.882  10.724  1.00  0.00     0.006 C 
HETATM   32  C1  UNL     1      41.182  48.156  10.360  1.00  0.00     0.006 C 
ENDBRANCH  30  31
BRANCH  30  33
HETATM   33  C22 UNL     1      41.380  50.788  10.203  1.00  0.00     0.175 C 
BRANCH  33  34
HETATM   34  O8  UNL     1      41.697  51.753   9.293  1.00  0.00    -0.395 OA
HETATM   35  C23 UNL     1      41.298  51.492   7.994  1.00  0.00     0.201 C 
ENDBRANCH  33  34
ENDBRANCH  30  33
ENDBRANCH  29  30
ENDBRANCH  25  28
ENDBRANCH  24  25
ENDBRANCH   1  24
BRANCH   8  36
HETATM   36  O7  UNL     1      34.644  53.804  12.703  1.00  0.00    -0.390 OA
ATOM     37  H7  UNL     1      34.508  53.424  13.563  1.00  0.00     0.210 HD
ENDBRANCH   8  36
TORSDOF 14
ENDMDL
MODEL 5
REMARK VINA RESULT: -6.894753778      2.847      5.315
REMARK  14 active torsions:
REMARK  status: ('A' for Active; 'I' for Inactive)
REMARK    1  A    between atoms: C2_2  and  C3_3 
REMARK    2  A    between atoms: C3_3  and  C4_4 
REMARK    3  A    between atoms: C3_3  and  C22_35 
REMARK    4  A    between atoms: C5_5  and  C6_6 
REMARK    5  A    between atoms: C6_6  and  O1_9 
REMARK    6  A    between atoms: O1_9  and  C9_10 
REMARK    7  A    between atoms: C10_11  and  O2_12 
REMARK    8  A    between atoms: O2_12  and  C11_13 
REMARK    9  A    between atoms: C13_15  and  O3_16 
REMARK   10  A    between atoms: C15_19  and  O4_20 
REMARK   11  A    between atoms: C16_22  and  O5_23 
REMARK   12  A    between atoms: C20_29  and  O6_30 
REMARK   13  A    between atoms: C21_32  and  O7_33 
REMARK   14  A    between atoms: C22_35  and  O8_36 
ROOT
HETATM    1  C9  UNL     1      36.173  52.441  13.394  1.00  0.00     0.187 C 
HETATM    2  C10 UNL     1      36.860  53.750  13.069  1.00  0.00     0.186 C 
HETATM    3  C17 UNL     1      35.994  54.293  12.002  1.00  0.00    -0.008 C 
HETATM    4  C18 UNL     1      36.402  54.912  10.923  1.00  0.00     0.101 C 
HETATM    5  C19 UNL     1      35.444  55.383   9.977  1.00  0.00     0.088 C 
HETATM    6  N1  UNL     1      34.682  55.779   9.200  1.00  0.00    -0.192 NA
HETATM    7  C20 UNL     1      34.605  53.995  12.399  1.00  0.00     0.181 C 
HETATM    8  C21 UNL     1      34.699  52.729  13.210  1.00  0.00     0.183 C 
ENDROOT
BRANCH   2   9
HETATM    9  O2  UNL     1      36.822  54.545  14.228  1.00  0.00    -0.371 OA
BRANCH   9  10
HETATM   10  C11 UNL     1      37.570  53.998  15.269  1.00  0.00     0.156 C 
HETATM   11  C12 UNL     1      36.961  54.353  16.596  1.00  0.00     0.066 C 
HETATM   12  C13 UNL     1      38.045  54.659  17.622  1.00  0.00     0.123 C 
HETATM   13  C14 UNL     1      38.753  55.901  17.068  1.00  0.00     0.066 C 
HETATM   14  C15 UNL     1      39.528  55.470  15.874  1.00  0.00     0.151 C 
HETATM   15  C16 UNL     1      39.028  54.283  15.155  1.00  0.00     0.176 C 
BRANCH  12  16
HETATM   16  O3  UNL     1      37.463  54.901  18.849  1.00  0.00    -0.395 OA
ATOM     17  H3  UNL     1      38.100  54.752  19.537  1.00  0.00     0.210 HD
ENDBRANCH  12  16
BRANCH  14  18
HETATM   18  O4  UNL     1      40.861  55.257  16.298  1.00  0.00    -0.393 OA
ATOM     19  H4  UNL     1      41.354  56.036  16.070  1.00  0.00     0.210 HD
ENDBRANCH  14  18
BRANCH  15  20
HETATM   20  O5  UNL     1      39.777  53.138  15.493  1.00  0.00    -0.390 OA
ATOM     21  H5  UNL     1      40.528  53.054  14.917  1.00  0.00     0.210 HD
ENDBRANCH  15  20
ENDBRANCH   9  10
ENDBRANCH   2   9
BRANCH   7  22
HETATM   22  O6  UNL     1      33.726  53.889  11.341  1.00  0.00    -0.388 OA
ATOM     23  H6  UNL     1      33.784  53.068  10.867  1.00  0.00     0.210 HD
ENDBRANCH   7  22
BRANCH   1  24
HETATM   24  O1  UNL     1      36.561  51.504  12.473  1.00  0.00    -0.366 OA
BRANCH  24  25
HETATM   25  C6  UNL     1      37.202  50.399  12.996  1.00  0.00     0.072 C 
HETATM   26  C7  UNL     1      36.276  49.236  13.248  1.00  0.00     0.050 C 
HETATM   27  C8  UNL     1      37.781  50.807  14.336  1.00  0.00     0.050 C 
BRANCH  25  28
HETATM   28  C5  UNL     1      38.318  49.922  12.146  1.00  0.00     0.006 C 
HETATM   29  C4  UNL     1      38.869  50.637  11.185  1.00  0.00    -0.021 C 
BRANCH  29  30
HETATM   30  C3  UNL     1      39.994  50.132  10.344  1.00  0.00     0.031 C 
BRANCH  30  31
HETATM   31  C2  UNL     1      40.314  48.680  10.709  1.00  0.00     0.006 C 
HETATM   32  C1  UNL     1      39.974  47.785   9.514  1.00  0.00     0.006 C 
ENDBRANCH  30  31
BRANCH  30  33
HETATM   33  C22 UNL     1      41.221  50.978  10.533  1.00  0.00     0.175 C 
BRANCH  33  34
HETATM   34  O8  UNL     1      41.839  51.394   9.390  1.00  0.00    -0.395 OA
HETATM   35  C23 UNL     1      41.059  51.350   8.249  1.00  0.00     0.201 C 
ENDBRANCH  33  34
ENDBRANCH  30  33
ENDBRANCH  29  30
ENDBRANCH  25  28
ENDBRANCH  24  25
ENDBRANCH   1  24
BRANCH   8  36
HETATM   36  O7  UNL     1      34.071  51.721  12.464  1.00  0.00    -0.390 OA
ATOM     37  H7  UNL     1      33.352  51.331  12.946  1.00  0.00     0.210 HD
ENDBRANCH   8  36
TORSDOF 14
ENDMDL
