MODEL 1
REMARK VINA RESULT: -7.644442726      0.000      0.000
REMARK  9 active torsions:
REMARK  status: ('A' for Active; 'I' for Inactive)
REMARK    1  A    between atoms: C2_2  and  C4_4 
REMARK    2  A    between atoms: C4_4  and  C5_5 
REMARK    3  A    between atoms: C5_5  and  N1_6 
REMARK    4  A    between atoms: C5_5  and  C18_27 
REMARK       I    between atoms: N1_6  and  C6_8 
REMARK    5  A    between atoms: C6_8  and  C7_10 
REMARK       I    between atoms: N2_13  and  C10_14 
REMARK    6  A    between atoms: C10_14  and  C11_16 
REMARK    7  A    between atoms: C11_16  and  C12_17 
REMARK    8  A    between atoms: C12_17  and  N3_18 
REMARK    9  A    between atoms: C12_17  and  C13_22 
ROOT
HETATM    1  N1  UNL     1     -10.093  14.791 -10.307  1.00  0.00    -0.333 N 
ATOM      2  H1  UNL     1      -9.247  14.250 -10.488  1.00  0.00     0.168 HD
HETATM    3  C6  UNL     1     -10.582  14.702  -9.007  1.00  0.00     0.226 C 
HETATM    4  O1  UNL     1     -11.613  15.288  -8.635  1.00  0.00    -0.273 OA
ENDROOT
BRANCH   3   5
HETATM    5  C7  UNL     1      -9.863  13.880  -7.992  1.00  0.00     0.081 C 
HETATM    6  C8  UNL     1      -8.739  14.669  -7.419  1.00  0.00     0.034 C 
HETATM    7  C9  UNL     1      -7.919  13.921  -6.419  1.00  0.00     0.126 C 
HETATM    8  N2  UNL     1      -8.126  12.506  -6.558  1.00  0.00    -0.352 N 
HETATM    9  C10 UNL     1      -8.194  11.679  -5.430  1.00  0.00     0.221 C 
HETATM   10  C16 UNL     1      -8.259  11.979  -7.906  1.00  0.00     0.126 C 
HETATM   11  O2  UNL     1      -8.375  10.453  -5.586  1.00  0.00    -0.273 OA
HETATM   12  C17 UNL     1      -9.412  12.589  -8.639  1.00  0.00     0.034 C 
BRANCH   9  13
HETATM   13  C11 UNL     1      -8.054  12.259  -4.080  1.00  0.00     0.136 C 
BRANCH  13  14
HETATM   14  C12 UNL     1      -6.682  11.936  -3.555  1.00  0.00     0.195 C 
BRANCH  14  15
HETATM   15  N3  UNL     1      -5.833  11.488  -4.632  1.00  0.00    -0.074 N 
ATOM     16  H33 UNL     1      -6.035  11.975  -5.505  1.00  0.00     0.274 HD
ATOM     17  H32 UNL     1      -4.868  11.793  -4.510  1.00  0.00     0.274 HD
ATOM     18  H31 UNL     1      -5.904  10.476  -4.735  1.00  0.00     0.274 HD
ENDBRANCH  14  15
BRANCH  14  19
HETATM   19  C13 UNL     1      -6.013  13.175  -2.962  1.00  0.00     0.008 C 
HETATM   20  C14 UNL     1      -7.044  14.263  -2.729  1.00  0.00     0.011 C 
HETATM   21  C15 UNL     1      -5.037  13.677  -4.012  1.00  0.00     0.011 C 
ENDBRANCH  14  19
ENDBRANCH  13  14
ENDBRANCH   9  13
ENDBRANCH   3   5
BRANCH   1  22
HETATM   22  C5  UNL     1     -10.597  15.528 -11.433  1.00  0.00    -0.001 C 
BRANCH  22  23
HETATM   23  C4  UNL     1     -11.350  14.728 -12.464  1.00  0.00     0.057 C 
BRANCH  23  24
HETATM   24  C2  UNL     1     -12.680  14.266 -11.914  1.00  0.00    -0.017 C 
HETATM   25  C1  UNL     1     -13.641  15.449 -11.783  1.00  0.00     0.010 C 
HETATM   26  C3  UNL     1     -13.263  13.197 -12.806  1.00  0.00     0.010 C 
ENDBRANCH  23  24
ENDBRANCH  22  23
BRANCH  22  27
HETATM   27  C18 UNL     1      -9.717  16.592 -11.959  1.00  0.00     0.003 C 
HETATM   28  C19 UNL     1      -8.439  16.828 -11.197  1.00  0.00     0.020 C 
HETATM   29  C20 UNL     1      -8.157  18.294 -11.560  1.00  0.00    -0.013 C 
HETATM   30  C21 UNL     1      -7.869  18.354 -13.019  1.00  0.00     0.009 C 
HETATM   31  C25 UNL     1      -9.533  18.884 -11.231  1.00  0.00     0.010 C 
HETATM   32  C22 UNL     1      -8.929  17.718 -13.849  1.00  0.00    -0.013 C 
HETATM   33  C23 UNL     1     -10.253  18.410 -13.493  1.00  0.00     0.010 C 
HETATM   34  C26 UNL     1      -9.275  16.307 -13.403  1.00  0.00     0.020 C 
HETATM   35  C24 UNL     1     -10.402  17.941 -12.059  1.00  0.00     0.000 C 
ENDBRANCH  22  27
ENDBRANCH   1  22
TORSDOF 9
ENDMDL
MODEL 2
REMARK VINA RESULT: -7.381400910      1.173      1.471
REMARK  9 active torsions:
REMARK  status: ('A' for Active; 'I' for Inactive)
REMARK    1  A    between atoms: C2_2  and  C4_4 
REMARK    2  A    between atoms: C4_4  and  C5_5 
REMARK    3  A    between atoms: C5_5  and  N1_6 
REMARK    4  A    between atoms: C5_5  and  C18_27 
REMARK       I    between atoms: N1_6  and  C6_8 
REMARK    5  A    between atoms: C6_8  and  C7_10 
REMARK       I    between atoms: N2_13  and  C10_14 
REMARK    6  A    between atoms: C10_14  and  C11_16 
REMARK    7  A    between atoms: C11_16  and  C12_17 
REMARK    8  A    between atoms: C12_17  and  N3_18 
REMARK    9  A    between atoms: C12_17  and  C13_22 
ROOT
HETATM    1  N1  UNL     1      -9.635  14.933 -10.224  1.00  0.00    -0.333 N 
ATOM      2  H1  UNL     1      -8.753  14.470 -10.444  1.00  0.00     0.168 HD
HETATM    3  C6  UNL     1     -10.039  14.830  -8.896  1.00  0.00     0.226 C 
HETATM    4  O1  UNL     1     -11.100  15.325  -8.476  1.00  0.00    -0.273 OA
ENDROOT
BRANCH   3   5
HETATM    5  C7  UNL     1      -9.189  14.106  -7.910  1.00  0.00     0.081 C 
HETATM    6  C8  UNL     1      -7.904  13.716  -8.553  1.00  0.00     0.034 C 
HETATM    7  C9  UNL     1      -6.990  12.940  -7.662  1.00  0.00     0.126 C 
HETATM    8  N2  UNL     1      -7.720  12.380  -6.560  1.00  0.00    -0.352 N 
HETATM    9  C10 UNL     1      -7.156  12.335  -5.278  1.00  0.00     0.221 C 
HETATM   10  C16 UNL     1      -9.051  11.867  -6.831  1.00  0.00     0.126 C 
HETATM   11  O2  UNL     1      -7.818  11.840  -4.341  1.00  0.00    -0.273 OA
HETATM   12  C17 UNL     1      -9.963  12.924  -7.372  1.00  0.00     0.034 C 
BRANCH   9  13
HETATM   13  C11 UNL     1      -5.799  12.868  -5.049  1.00  0.00     0.136 C 
BRANCH  13  14
HETATM   14  C12 UNL     1      -5.908  14.148  -4.268  1.00  0.00     0.195 C 
BRANCH  14  15
HETATM   15  N3  UNL     1      -5.818  13.873  -2.854  1.00  0.00    -0.074 N 
ATOM     16  H33 UNL     1      -6.728  13.649  -2.450  1.00  0.00     0.274 HD
ATOM     17  H32 UNL     1      -5.349  12.987  -2.666  1.00  0.00     0.274 HD
ATOM     18  H31 UNL     1      -5.368  14.652  -2.374  1.00  0.00     0.274 HD
ENDBRANCH  14  15
BRANCH  14  19
HETATM   19  C13 UNL     1      -4.756  15.095  -4.599  1.00  0.00     0.008 C 
HETATM   20  C14 UNL     1      -5.023  15.802  -5.914  1.00  0.00     0.011 C 
HETATM   21  C15 UNL     1      -3.525  14.224  -4.783  1.00  0.00     0.011 C 
ENDBRANCH  14  19
ENDBRANCH  13  14
ENDBRANCH   9  13
ENDBRANCH   3   5
BRANCH   1  22
HETATM   22  C5  UNL     1     -10.270  15.591 -11.333  1.00  0.00    -0.001 C 
BRANCH  22  23
HETATM   23  C4  UNL     1     -10.977  14.696 -12.317  1.00  0.00     0.057 C 
BRANCH  23  24
HETATM   24  C2  UNL     1     -12.369  14.362 -11.830  1.00  0.00    -0.017 C 
HETATM   25  C1  UNL     1     -13.232  15.624 -11.783  1.00  0.00     0.010 C 
HETATM   26  C3  UNL     1     -12.991  13.319 -12.726  1.00  0.00     0.010 C 
ENDBRANCH  23  24
ENDBRANCH  22  23
BRANCH  22  27
HETATM   27  C18 UNL     1      -9.539  16.736 -11.913  1.00  0.00     0.003 C 
HETATM   28  C19 UNL     1      -8.245  17.105 -11.237  1.00  0.00     0.020 C 
HETATM   29  C20 UNL     1      -8.138  18.590 -11.614  1.00  0.00    -0.013 C 
HETATM   30  C21 UNL     1      -7.954  18.673 -13.089  1.00  0.00     0.009 C 
HETATM   31  C25 UNL     1      -9.543  19.039 -11.194  1.00  0.00     0.010 C 
HETATM   32  C22 UNL     1      -8.996  17.928 -13.849  1.00  0.00    -0.013 C 
HETATM   33  C23 UNL     1     -10.357  18.484 -13.405  1.00  0.00     0.010 C 
HETATM   34  C26 UNL     1      -9.166  16.491 -13.384  1.00  0.00     0.020 C 
HETATM   35  C24 UNL     1     -10.364  18.009 -11.966  1.00  0.00     0.000 C 
ENDBRANCH  22  27
ENDBRANCH   1  22
TORSDOF 9
ENDMDL
MODEL 3
REMARK VINA RESULT: -7.272293474      7.690     10.535
REMARK  9 active torsions:
REMARK  status: ('A' for Active; 'I' for Inactive)
REMARK    1  A    between atoms: C2_2  and  C4_4 
REMARK    2  A    between atoms: C4_4  and  C5_5 
REMARK    3  A    between atoms: C5_5  and  N1_6 
REMARK    4  A    between atoms: C5_5  and  C18_27 
REMARK       I    between atoms: N1_6  and  C6_8 
REMARK    5  A    between atoms: C6_8  and  C7_10 
REMARK       I    between atoms: N2_13  and  C10_14 
REMARK    6  A    between atoms: C10_14  and  C11_16 
REMARK    7  A    between atoms: C11_16  and  C12_17 
REMARK    8  A    between atoms: C12_17  and  N3_18 
REMARK    9  A    between atoms: C12_17  and  C13_22 
ROOT
HETATM    1  N1  UNL     1     -15.193   8.702  -8.469  1.00  0.00    -0.333 N 
ATOM      2  H1  UNL     1     -15.023   9.701  -8.358  1.00  0.00     0.168 HD
HETATM    3  C6  UNL     1     -15.800   8.083  -7.380  1.00  0.00     0.226 C 
HETATM    4  O1  UNL     1     -16.057   6.867  -7.355  1.00  0.00    -0.273 OA
ENDROOT
BRANCH   3   5
HETATM    5  C7  UNL     1     -16.172   8.881  -6.178  1.00  0.00     0.081 C 
HETATM    6  C8  UNL     1     -15.732  10.291  -6.362  1.00  0.00     0.034 C 
HETATM    7  C9  UNL     1     -16.015  11.175  -5.192  1.00  0.00     0.126 C 
HETATM    8  N2  UNL     1     -16.243  10.387  -4.012  1.00  0.00    -0.352 N 
HETATM    9  C10 UNL     1     -17.225  10.756  -3.084  1.00  0.00     0.221 C 
HETATM   10  C16 UNL     1     -15.419   9.205  -3.828  1.00  0.00     0.126 C 
HETATM   11  O2  UNL     1     -17.397  10.049  -2.069  1.00  0.00    -0.273 OA
HETATM   12  C17 UNL     1     -15.571   8.230  -4.953  1.00  0.00     0.034 C 
BRANCH   9  13
HETATM   13  C11 UNL     1     -18.040  11.966  -3.314  1.00  0.00     0.136 C 
BRANCH  13  14
HETATM   14  C12 UNL     1     -19.335  11.561  -3.963  1.00  0.00     0.195 C 
BRANCH  14  15
HETATM   15  N3  UNL     1     -20.246  11.048  -2.968  1.00  0.00    -0.074 N 
ATOM     16  H33 UNL     1     -20.645  11.792  -2.396  1.00  0.00     0.274 HD
ATOM     17  H32 UNL     1     -21.110  10.700  -3.385  1.00  0.00     0.274 HD
ATOM     18  H31 UNL     1     -19.782  10.338  -2.402  1.00  0.00     0.274 HD
ENDBRANCH  14  15
BRANCH  14  19
HETATM   19  C13 UNL     1     -20.026  12.760  -4.608  1.00  0.00     0.008 C 
HETATM   20  C14 UNL     1     -21.293  12.316  -5.313  1.00  0.00     0.011 C 
HETATM   21  C15 UNL     1     -19.068  13.290  -5.662  1.00  0.00     0.011 C 
ENDBRANCH  14  19
ENDBRANCH  13  14
ENDBRANCH   9  13
ENDBRANCH   3   5
BRANCH   1  22
HETATM   22  C5  UNL     1     -14.770   8.149  -9.726  1.00  0.00    -0.001 C 
BRANCH  22  23
HETATM   23  C4  UNL     1     -13.310   8.305 -10.060  1.00  0.00     0.057 C 
BRANCH  23  24
HETATM   24  C2  UNL     1     -12.707   9.458  -9.291  1.00  0.00    -0.017 C 
HETATM   25  C1  UNL     1     -11.208   9.230  -9.081  1.00  0.00     0.010 C 
HETATM   26  C3  UNL     1     -12.955  10.753 -10.025  1.00  0.00     0.010 C 
ENDBRANCH  23  24
ENDBRANCH  22  23
BRANCH  22  27
HETATM   27  C18 UNL     1     -15.711   8.309 -10.855  1.00  0.00     0.003 C 
HETATM   28  C19 UNL     1     -16.831   7.305 -10.928  1.00  0.00     0.020 C 
HETATM   29  C20 UNL     1     -17.147   7.339 -12.431  1.00  0.00    -0.013 C 
HETATM   30  C21 UNL     1     -17.684   8.689 -12.753  1.00  0.00     0.009 C 
HETATM   31  C25 UNL     1     -15.724   7.153 -12.972  1.00  0.00     0.010 C 
HETATM   32  C22 UNL     1     -16.797   9.794 -12.296  1.00  0.00    -0.013 C 
HETATM   33  C23 UNL     1     -15.420   9.554 -12.932  1.00  0.00     0.010 C 
HETATM   34  C26 UNL     1     -16.403   9.681 -10.833  1.00  0.00     0.020 C 
HETATM   35  C24 UNL     1     -15.030   8.279 -12.210  1.00  0.00     0.000 C 
ENDBRANCH  22  27
ENDBRANCH   1  22
TORSDOF 9
ENDMDL
MODEL 4
REMARK VINA RESULT: -7.263433798      9.524     13.218
REMARK  9 active torsions:
REMARK  status: ('A' for Active; 'I' for Inactive)
REMARK    1  A    between atoms: C2_2  and  C4_4 
REMARK    2  A    between atoms: C4_4  and  C5_5 
REMARK    3  A    between atoms: C5_5  and  N1_6 
REMARK    4  A    between atoms: C5_5  and  C18_27 
REMARK       I    between atoms: N1_6  and  C6_8 
REMARK    5  A    between atoms: C6_8  and  C7_10 
REMARK       I    between atoms: N2_13  and  C10_14 
REMARK    6  A    between atoms: C10_14  and  C11_16 
REMARK    7  A    between atoms: C11_16  and  C12_17 
REMARK    8  A    between atoms: C12_17  and  N3_18 
REMARK    9  A    between atoms: C12_17  and  C13_22 
ROOT
HETATM    1  N1  UNL     1     -18.346   9.808  -9.866  1.00  0.00    -0.333 N 
ATOM      2  H1  UNL     1     -18.336  10.462 -10.649  1.00  0.00     0.168 HD
HETATM    3  C6  UNL     1     -19.508   9.827  -9.099  1.00  0.00     0.226 C 
HETATM    4  O1  UNL     1     -19.666   9.102  -8.101  1.00  0.00    -0.273 OA
ENDROOT
BRANCH   3   5
HETATM    5  C7  UNL     1     -20.628  10.741  -9.461  1.00  0.00     0.081 C 
HETATM    6  C8  UNL     1     -21.593  10.816  -8.330  1.00  0.00     0.034 C 
HETATM    7  C9  UNL     1     -22.785  11.674  -8.604  1.00  0.00     0.126 C 
HETATM    8  N2  UNL     1     -22.945  11.873 -10.017  1.00  0.00    -0.352 N 
HETATM    9  C10 UNL     1     -23.355  13.114 -10.523  1.00  0.00     0.221 C 
HETATM   10  C16 UNL     1     -22.668  10.744 -10.887  1.00  0.00     0.126 C 
HETATM   11  O2  UNL     1     -23.485  13.253 -11.757  1.00  0.00    -0.273 OA
HETATM   12  C17 UNL     1     -21.260  10.255 -10.746  1.00  0.00     0.034 C 
BRANCH   9  13
HETATM   13  C11 UNL     1     -23.626  14.234  -9.600  1.00  0.00     0.136 C 
BRANCH  13  14
HETATM   14  C12 UNL     1     -22.879  15.448 -10.081  1.00  0.00     0.195 C 
BRANCH  14  15
HETATM   15  N3  UNL     1     -23.749  16.599 -10.069  1.00  0.00    -0.074 N 
ATOM     16  H33 UNL     1     -24.480  16.533 -10.778  1.00  0.00     0.274 HD
ATOM     17  H32 UNL     1     -24.345  16.620  -9.241  1.00  0.00     0.274 HD
ATOM     18  H31 UNL     1     -23.199  17.453 -10.166  1.00  0.00     0.274 HD
ENDBRANCH  14  15
BRANCH  14  19
HETATM   19  C13 UNL     1     -21.710  15.777  -9.155  1.00  0.00     0.008 C 
HETATM   20  C14 UNL     1     -20.467  15.028  -9.595  1.00  0.00     0.011 C 
HETATM   21  C15 UNL     1     -22.098  15.265  -7.778  1.00  0.00     0.011 C 
ENDBRANCH  14  19
ENDBRANCH  13  14
ENDBRANCH   9  13
ENDBRANCH   3   5
BRANCH   1  22
HETATM   22  C5  UNL     1     -17.161   9.009  -9.724  1.00  0.00    -0.001 C 
BRANCH  22  23
HETATM   23  C4  UNL     1     -16.160   9.484  -8.704  1.00  0.00     0.057 C 
BRANCH  23  24
HETATM   24  C2  UNL     1     -16.203   8.614  -7.468  1.00  0.00    -0.017 C 
HETATM   25  C1  UNL     1     -14.853   7.926  -7.256  1.00  0.00     0.010 C 
HETATM   26  C3  UNL     1     -16.577   9.447  -6.266  1.00  0.00     0.010 C 
ENDBRANCH  23  24
ENDBRANCH  22  23
BRANCH  22  27
HETATM   27  C18 UNL     1     -16.596   8.459 -10.974  1.00  0.00     0.003 C 
HETATM   28  C19 UNL     1     -15.118   8.168 -10.959  1.00  0.00     0.020 C 
HETATM   29  C20 UNL     1     -14.791   8.272 -12.456  1.00  0.00    -0.013 C 
HETATM   30  C21 UNL     1     -15.495   7.162 -13.154  1.00  0.00     0.009 C 
HETATM   31  C25 UNL     1     -15.448   9.628 -12.745  1.00  0.00     0.010 C 
HETATM   32  C22 UNL     1     -16.953   7.117 -12.854  1.00  0.00    -0.013 C 
HETATM   33  C23 UNL     1     -17.530   8.491 -13.227  1.00  0.00     0.010 C 
HETATM   34  C26 UNL     1     -17.261   7.129 -11.366  1.00  0.00     0.020 C 
HETATM   35  C24 UNL     1     -16.838   9.344 -12.182  1.00  0.00     0.000 C 
ENDBRANCH  22  27
ENDBRANCH   1  22
TORSDOF 9
ENDMDL
MODEL 5
REMARK VINA RESULT: -7.236564781      8.159     12.573
REMARK  9 active torsions:
REMARK  status: ('A' for Active; 'I' for Inactive)
REMARK    1  A    between atoms: C2_2  and  C4_4 
REMARK    2  A    between atoms: C4_4  and  C5_5 
REMARK    3  A    between atoms: C5_5  and  N1_6 
REMARK    4  A    between atoms: C5_5  and  C18_27 
REMARK       I    between atoms: N1_6  and  C6_8 
REMARK    5  A    between atoms: C6_8  and  C7_10 
REMARK       I    between atoms: N2_13  and  C10_14 
REMARK    6  A    between atoms: C10_14  and  C11_16 
REMARK    7  A    between atoms: C11_16  and  C12_17 
REMARK    8  A    between atoms: C12_17  and  N3_18 
REMARK    9  A    between atoms: C12_17  and  C13_22 
ROOT
HETATM    1  N1  UNL     1     -16.696   8.995 -10.774  1.00  0.00    -0.333 N 
ATOM      2  H1  UNL     1     -17.218   8.447 -10.091  1.00  0.00     0.168 HD
HETATM    3  C6  UNL     1     -17.417  10.016 -11.387  1.00  0.00     0.226 C 
HETATM    4  O1  UNL     1     -16.927  10.759 -12.254  1.00  0.00    -0.273 OA
ENDROOT
BRANCH   3   5
HETATM    5  C7  UNL     1     -18.839  10.256 -11.010  1.00  0.00     0.081 C 
HETATM    6  C8  UNL     1     -18.924  10.552  -9.554  1.00  0.00     0.034 C 
HETATM    7  C9  UNL     1     -20.317  10.765  -9.058  1.00  0.00     0.126 C 
HETATM    8  N2  UNL     1     -21.269  10.216  -9.983  1.00  0.00    -0.352 N 
HETATM    9  C10 UNL     1     -22.475  10.878 -10.244  1.00  0.00     0.221 C 
HETATM   10  C16 UNL     1     -20.928   8.959 -10.625  1.00  0.00     0.126 C 
HETATM   11  O2  UNL     1     -23.281  10.373 -11.054  1.00  0.00    -0.273 OA
HETATM   12  C17 UNL     1     -19.663   9.056 -11.419  1.00  0.00     0.034 C 
BRANCH   9  13
HETATM   13  C11 UNL     1     -22.779  12.154  -9.568  1.00  0.00     0.136 C 
BRANCH  13  14
HETATM   14  C12 UNL     1     -22.311  13.287 -10.440  1.00  0.00     0.195 C 
BRANCH  14  15
HETATM   15  N3  UNL     1     -22.177  12.836 -11.804  1.00  0.00    -0.074 N 
ATOM     16  H33 UNL     1     -22.490  11.872 -11.921  1.00  0.00     0.274 HD
ATOM     17  H32 UNL     1     -22.849  13.288 -12.424  1.00  0.00     0.274 HD
ATOM     18  H31 UNL     1     -21.216  12.967 -12.122  1.00  0.00     0.274 HD
ENDBRANCH  14  15
BRANCH  14  19
HETATM   19  C13 UNL     1     -23.330  14.425 -10.457  1.00  0.00     0.008 C 
HETATM   20  C14 UNL     1     -23.588  14.873 -11.882  1.00  0.00     0.011 C 
HETATM   21  C15 UNL     1     -22.688  15.585  -9.715  1.00  0.00     0.011 C 
ENDBRANCH  14  19
ENDBRANCH  13  14
ENDBRANCH   9  13
ENDBRANCH   3   5
BRANCH   1  22
HETATM   22  C5  UNL     1     -15.328   8.595 -10.958  1.00  0.00    -0.001 C 
BRANCH  22  23
HETATM   23  C4  UNL     1     -15.105   7.356 -11.784  1.00  0.00     0.057 C 
BRANCH  23  24
HETATM   24  C2  UNL     1     -15.427   7.618 -13.238  1.00  0.00    -0.017 C 
HETATM   25  C1  UNL     1     -14.360   6.993 -14.139  1.00  0.00     0.010 C 
HETATM   26  C3  UNL     1     -16.795   7.073 -13.568  1.00  0.00     0.010 C 
ENDBRANCH  23  24
ENDBRANCH  22  23
BRANCH  22  27
HETATM   27  C18 UNL     1     -14.442   8.757  -9.786  1.00  0.00     0.003 C 
HETATM   28  C19 UNL     1     -13.942  10.154  -9.524  1.00  0.00     0.020 C 
HETATM   29  C20 UNL     1     -12.645   9.853  -8.757  1.00  0.00    -0.013 C 
HETATM   30  C21 UNL     1     -13.018   9.222  -7.462  1.00  0.00     0.009 C 
HETATM   31  C25 UNL     1     -12.031   8.836  -9.726  1.00  0.00     0.010 C 
HETATM   32  C22 UNL     1     -13.912   8.042  -7.625  1.00  0.00    -0.013 C 
HETATM   33  C23 UNL     1     -13.191   7.060  -8.560  1.00  0.00     0.010 C 
HETATM   34  C26 UNL     1     -15.133   8.328  -8.482  1.00  0.00     0.020 C 
HETATM   35  C24 UNL     1     -13.210   7.873  -9.840  1.00  0.00     0.000 C 
ENDBRANCH  22  27
ENDBRANCH   1  22
TORSDOF 9
ENDMDL
