MODEL 1
REMARK VINA RESULT: -8.260190360      0.000      0.000
REMARK  8 active torsions:
REMARK  status: ('A' for Active; 'I' for Inactive)
REMARK       I    between atoms: C1_4  and  N2_5 
REMARK       I    between atoms: C1_4  and  N4_24 
REMARK    1  A    between atoms: N2_5  and  C2_7 
REMARK    2  A    between atoms: C5_10  and  S1_11 
REMARK    3  A    between atoms: S1_11  and  C6_14 
REMARK    4  A    between atoms: C7_15  and  C8_16 
REMARK    5  A    between atoms: C8_16  and  O3_17 
REMARK    6  A    between atoms: C8_16  and  N3_19 
REMARK    7  A    between atoms: N3_19  and  O4_20 
REMARK    8  A    between atoms: N4_24  and  N5_26 
ROOT
HETATM    1  C2  UNL     1       6.777  19.324  14.446  1.00  0.00     0.049 A 
HETATM    2  C3  UNL     1       7.324  18.898  13.263  1.00  0.00     0.031 A 
HETATM    3  C4  UNL     1       8.647  18.468  13.219  1.00  0.00     0.026 A 
HETATM    4  C5  UNL     1       9.410  18.471  14.364  1.00  0.00     0.063 A 
HETATM    5  C9  UNL     1       8.863  18.896  15.541  1.00  0.00     0.026 A 
HETATM    6  C10 UNL     1       7.556  19.318  15.572  1.00  0.00     0.031 A 
ENDROOT
BRANCH   1   7
HETATM    7  N2  UNL     1       5.447  19.757  14.497  1.00  0.00    -0.191 N 
HETATM    8  C1  UNL     1       5.046  21.113  14.510  1.00  0.00     0.695 C 
HETATM    9  N1  UNL     1       5.319  21.835  15.528  1.00  0.00    -0.233 N 
HETATM   10  N4  UNL     1       4.353  21.640  13.403  1.00  0.00    -0.072 N 
ATOM     11  H12 UNL     1       5.821  21.454  16.330  1.00  0.00     0.174 HD
ATOM     12  H11 UNL     1       5.029  22.813  15.539  1.00  0.00     0.174 HD
ATOM     13  H4  UNL     1       4.322  22.653  13.288  1.00  0.00     0.212 HD
ATOM     14  H2  UNL     1       4.717  19.045  14.526  1.00  0.00     0.184 HD
BRANCH  10  15
HETATM   15  N5  UNL     1       3.707  20.845  12.452  1.00  0.00    -0.024 N 
HETATM   16  O5  UNL     1       4.350  20.359  11.519  1.00  0.00    -0.516 OA
HETATM   17  O6  UNL     1       2.368  20.584  12.524  1.00  0.00    -0.516 OA
ENDBRANCH  10  15
ENDBRANCH   1   7
BRANCH   4  18
HETATM   18  S1  UNL     1      11.071  17.929  14.294  1.00  0.00     0.196 S 
HETATM   19  O1  UNL     1      11.970  18.813  15.104  1.00  0.00    -0.218 OA
HETATM   20  O2  UNL     1      11.186  16.484  14.731  1.00  0.00    -0.218 OA
BRANCH  18  21
HETATM   21  C6  UNL     1      11.604  18.000  12.631  1.00  0.00     0.114 C 
HETATM   22  C7  UNL     1      12.694  18.694  12.341  1.00  0.00     0.036 C 
BRANCH  22  23
HETATM   23  C8  UNL     1      13.124  18.736  10.913  1.00  0.00     0.262 C 
BRANCH  23  24
HETATM   24  O3  UNL     1      13.229  20.078  10.542  1.00  0.00    -0.374 OA
ATOM     25  H3  UNL     1      14.148  20.265  10.393  1.00  0.00     0.212 HD
ENDBRANCH  23  24
BRANCH  23  26
HETATM   26  N3  UNL     1      12.076  18.052  10.151  1.00  0.00    -0.067 NA
BRANCH  26  27
HETATM   27  O4  UNL     1      11.905  18.637   8.960  1.00  0.00    -0.293 OA
ATOM     28  H4  UNL     1      10.980  18.759   8.778  1.00  0.00     0.238 HD
ENDBRANCH  26  27
ENDBRANCH  23  26
ENDBRANCH  22  23
ENDBRANCH  18  21
ENDBRANCH   4  18
TORSDOF 8
ENDMDL
MODEL 2
REMARK VINA RESULT: -8.100615488      2.144      3.070
REMARK  8 active torsions:
REMARK  status: ('A' for Active; 'I' for Inactive)
REMARK       I    between atoms: C1_4  and  N2_5 
REMARK       I    between atoms: C1_4  and  N4_24 
REMARK    1  A    between atoms: N2_5  and  C2_7 
REMARK    2  A    between atoms: C5_10  and  S1_11 
REMARK    3  A    between atoms: S1_11  and  C6_14 
REMARK    4  A    between atoms: C7_15  and  C8_16 
REMARK    5  A    between atoms: C8_16  and  O3_17 
REMARK    6  A    between atoms: C8_16  and  N3_19 
REMARK    7  A    between atoms: N3_19  and  O4_20 
REMARK    8  A    between atoms: N4_24  and  N5_26 
ROOT
HETATM    1  C2  UNL     1       6.722  19.293  14.314  1.00  0.00     0.049 A 
HETATM    2  C3  UNL     1       7.505  19.232  15.439  1.00  0.00     0.031 A 
HETATM    3  C4  UNL     1       8.819  18.783  15.353  1.00  0.00     0.026 A 
HETATM    4  C5  UNL     1       9.336  18.397  14.137  1.00  0.00     0.063 A 
HETATM    5  C9  UNL     1       8.555  18.459  13.019  1.00  0.00     0.026 A 
HETATM    6  C10 UNL     1       7.258  18.904  13.116  1.00  0.00     0.031 A 
ENDROOT
BRANCH   1   7
HETATM    7  N2  UNL     1       5.400  19.744  14.395  1.00  0.00    -0.191 N 
HETATM    8  C1  UNL     1       5.019  21.105  14.430  1.00  0.00     0.695 C 
HETATM    9  N1  UNL     1       5.323  21.813  15.449  1.00  0.00    -0.233 N 
HETATM   10  N4  UNL     1       4.312  21.653  13.341  1.00  0.00    -0.072 N 
ATOM     11  H12 UNL     1       5.835  21.417  16.237  1.00  0.00     0.174 HD
ATOM     12  H11 UNL     1       5.048  22.795  15.474  1.00  0.00     0.174 HD
ATOM     13  H4  UNL     1       4.294  22.668  13.237  1.00  0.00     0.212 HD
ATOM     14  H2  UNL     1       4.660  19.043  14.432  1.00  0.00     0.184 HD
BRANCH  10  15
HETATM   15  N5  UNL     1       3.636  20.877  12.396  1.00  0.00    -0.024 N 
HETATM   16  O5  UNL     1       4.237  20.452  11.407  1.00  0.00    -0.516 OA
HETATM   17  O6  UNL     1       2.312  20.569  12.534  1.00  0.00    -0.516 OA
ENDBRANCH  10  15
ENDBRANCH   1   7
BRANCH   4  18
HETATM   18  S1  UNL     1      10.989  17.834  14.043  1.00  0.00     0.196 S 
HETATM   19  O1  UNL     1      11.183  16.570  14.825  1.00  0.00    -0.218 OA
HETATM   20  O2  UNL     1      11.416  17.655  12.601  1.00  0.00    -0.218 OA
BRANCH  18  21
HETATM   21  C6  UNL     1      12.028  19.058  14.732  1.00  0.00     0.114 C 
HETATM   22  C7  UNL     1      13.243  19.217  14.231  1.00  0.00     0.036 C 
BRANCH  22  23
HETATM   23  C8  UNL     1      14.107  20.270  14.840  1.00  0.00     0.262 C 
BRANCH  23  24
HETATM   24  O3  UNL     1      15.437  19.894  14.640  1.00  0.00    -0.374 OA
ATOM     25  H3  UNL     1      15.834  19.774  15.495  1.00  0.00     0.212 HD
ENDBRANCH  23  24
BRANCH  23  26
HETATM   26  N3  UNL     1      13.771  20.299  16.266  1.00  0.00    -0.067 NA
BRANCH  26  27
HETATM   27  O4  UNL     1      14.758  20.863  16.970  1.00  0.00    -0.293 OA
ATOM     28  H4  UNL     1      14.776  20.517  17.855  1.00  0.00     0.238 HD
ENDBRANCH  26  27
ENDBRANCH  23  26
ENDBRANCH  22  23
ENDBRANCH  18  21
ENDBRANCH   4  18
TORSDOF 8
ENDMDL
MODEL 3
REMARK VINA RESULT: -8.093467333      1.917      2.805
REMARK  8 active torsions:
REMARK  status: ('A' for Active; 'I' for Inactive)
REMARK       I    between atoms: C1_4  and  N2_5 
REMARK       I    between atoms: C1_4  and  N4_24 
REMARK    1  A    between atoms: N2_5  and  C2_7 
REMARK    2  A    between atoms: C5_10  and  S1_11 
REMARK    3  A    between atoms: S1_11  and  C6_14 
REMARK    4  A    between atoms: C7_15  and  C8_16 
REMARK    5  A    between atoms: C8_16  and  O3_17 
REMARK    6  A    between atoms: C8_16  and  N3_19 
REMARK    7  A    between atoms: N3_19  and  O4_20 
REMARK    8  A    between atoms: N4_24  and  N5_26 
ROOT
HETATM    1  C2  UNL     1       6.991  18.843  13.464  1.00  0.00     0.049 A 
HETATM    2  C3  UNL     1       7.244  18.627  12.133  1.00  0.00     0.031 A 
HETATM    3  C4  UNL     1       8.509  18.222  11.719  1.00  0.00     0.026 A 
HETATM    4  C5  UNL     1       9.511  18.038  12.644  1.00  0.00     0.063 A 
HETATM    5  C9  UNL     1       9.256  18.254  13.969  1.00  0.00     0.026 A 
HETATM    6  C10 UNL     1       8.003  18.654  14.366  1.00  0.00     0.031 A 
ENDROOT
BRANCH   1   7
HETATM    7  N2  UNL     1       5.721  19.249  13.886  1.00  0.00    -0.191 N 
HETATM    8  C1  UNL     1       5.409  20.546  14.356  1.00  0.00     0.695 C 
HETATM    9  N1  UNL     1       5.905  20.945  15.464  1.00  0.00    -0.233 N 
HETATM   10  N4  UNL     1       4.559  21.371  13.594  1.00  0.00    -0.072 N 
ATOM     11  H12 UNL     1       6.520  20.347  16.015  1.00  0.00     0.174 HD
ATOM     12  H11 UNL     1       5.679  21.880  15.803  1.00  0.00     0.174 HD
ATOM     13  H4  UNL     1       4.568  22.375  13.776  1.00  0.00     0.212 HD
ATOM     14  H2  UNL     1       4.967  18.562  13.853  1.00  0.00     0.184 HD
BRANCH  10  15
HETATM   15  N5  UNL     1       3.705  20.885  12.600  1.00  0.00    -0.024 N 
HETATM   16  O5  UNL     1       4.121  20.747  11.447  1.00  0.00    -0.516 OA
HETATM   17  O6  UNL     1       2.408  20.554  12.866  1.00  0.00    -0.516 OA
ENDBRANCH  10  15
ENDBRANCH   1   7
BRANCH   4  18
HETATM   18  S1  UNL     1      11.096  17.531  12.110  1.00  0.00     0.196 S 
HETATM   19  O1  UNL     1      11.178  16.040  11.977  1.00  0.00    -0.218 OA
HETATM   20  O2  UNL     1      11.474  18.217  10.814  1.00  0.00    -0.218 OA
BRANCH  18  21
HETATM   21  C6  UNL     1      12.267  18.029  13.307  1.00  0.00     0.114 C 
HETATM   22  C7  UNL     1      13.076  19.038  13.025  1.00  0.00     0.036 C 
BRANCH  22  23
HETATM   23  C8  UNL     1      14.065  19.441  14.067  1.00  0.00     0.262 C 
BRANCH  23  24
HETATM   24  O3  UNL     1      15.305  18.912  13.701  1.00  0.00    -0.374 OA
ATOM     25  H3  UNL     1      15.730  19.543  13.132  1.00  0.00     0.212 HD
ENDBRANCH  23  24
BRANCH  23  26
HETATM   26  N3  UNL     1      13.590  18.861  15.326  1.00  0.00    -0.067 NA
BRANCH  26  27
HETATM   27  O4  UNL     1      13.480  19.806  16.266  1.00  0.00    -0.293 OA
ATOM     28  H4  UNL     1      13.626  19.436  17.129  1.00  0.00     0.238 HD
ENDBRANCH  26  27
ENDBRANCH  23  26
ENDBRANCH  22  23
ENDBRANCH  18  21
ENDBRANCH   4  18
TORSDOF 8
ENDMDL
MODEL 4
REMARK VINA RESULT: -8.064871856      2.158      2.908
REMARK  8 active torsions:
REMARK  status: ('A' for Active; 'I' for Inactive)
REMARK       I    between atoms: C1_4  and  N2_5 
REMARK       I    between atoms: C1_4  and  N4_24 
REMARK    1  A    between atoms: N2_5  and  C2_7 
REMARK    2  A    between atoms: C5_10  and  S1_11 
REMARK    3  A    between atoms: S1_11  and  C6_14 
REMARK    4  A    between atoms: C7_15  and  C8_16 
REMARK    5  A    between atoms: C8_16  and  O3_17 
REMARK    6  A    between atoms: C8_16  and  N3_19 
REMARK    7  A    between atoms: N3_19  and  O4_20 
REMARK    8  A    between atoms: N4_24  and  N5_26 
ROOT
HETATM    1  C2  UNL     1       6.705  19.275  14.367  1.00  0.00     0.049 A 
HETATM    2  C3  UNL     1       7.222  18.909  13.151  1.00  0.00     0.031 A 
HETATM    3  C4  UNL     1       8.540  18.474  13.054  1.00  0.00     0.026 A 
HETATM    4  C5  UNL     1       9.328  18.411  14.181  1.00  0.00     0.063 A 
HETATM    5  C9  UNL     1       8.810  18.776  15.391  1.00  0.00     0.026 A 
HETATM    6  C10 UNL     1       7.507  19.204  15.474  1.00  0.00     0.031 A 
ENDROOT
BRANCH   1   7
HETATM    7  N2  UNL     1       5.379  19.713  14.470  1.00  0.00    -0.191 N 
HETATM    8  C1  UNL     1       4.987  21.070  14.547  1.00  0.00     0.695 C 
HETATM    9  N1  UNL     1       5.293  21.750  15.585  1.00  0.00    -0.233 N 
HETATM   10  N4  UNL     1       4.269  21.644  13.480  1.00  0.00    -0.072 N 
ATOM     11  H12 UNL     1       5.812  21.334  16.358  1.00  0.00     0.174 HD
ATOM     12  H11 UNL     1       5.009  22.728  15.641  1.00  0.00     0.174 HD
ATOM     13  H4  UNL     1       4.242  22.661  13.406  1.00  0.00     0.212 HD
ATOM     14  H2  UNL     1       4.645  19.005  14.490  1.00  0.00     0.184 HD
BRANCH  10  15
HETATM   15  N5  UNL     1       3.593  20.891  12.516  1.00  0.00    -0.024 N 
HETATM   16  O5  UNL     1       4.195  20.489  11.517  1.00  0.00    -0.516 OA
HETATM   17  O6  UNL     1       2.269  20.580  12.645  1.00  0.00    -0.516 OA
ENDBRANCH  10  15
ENDBRANCH   1   7
BRANCH   4  18
HETATM   18  S1  UNL     1      10.983  17.863  14.046  1.00  0.00     0.196 S 
HETATM   19  O1  UNL     1      11.205  16.595  14.814  1.00  0.00    -0.218 OA
HETATM   20  O2  UNL     1      11.380  17.698  12.594  1.00  0.00    -0.218 OA
BRANCH  18  21
HETATM   21  C6  UNL     1      12.027  19.091  14.720  1.00  0.00     0.114 C 
HETATM   22  C7  UNL     1      13.265  19.193  14.265  1.00  0.00     0.036 C 
BRANCH  22  23
HETATM   23  C8  UNL     1      14.133  20.251  14.861  1.00  0.00     0.262 C 
BRANCH  23  24
HETATM   24  O3  UNL     1      15.462  19.887  14.633  1.00  0.00    -0.374 OA
ATOM     25  H3  UNL     1      15.605  19.045  15.048  1.00  0.00     0.212 HD
ENDBRANCH  23  24
BRANCH  23  26
HETATM   26  N3  UNL     1      13.825  20.273  16.293  1.00  0.00    -0.067 NA
BRANCH  26  27
HETATM   27  O4  UNL     1      14.758  20.957  16.964  1.00  0.00    -0.293 OA
ATOM     28  H4  UNL     1      15.189  20.398  17.600  1.00  0.00     0.238 HD
ENDBRANCH  26  27
ENDBRANCH  23  26
ENDBRANCH  22  23
ENDBRANCH  18  21
ENDBRANCH   4  18
TORSDOF 8
ENDMDL
MODEL 5
REMARK VINA RESULT: -7.778038590      1.138      1.577
REMARK  8 active torsions:
REMARK  status: ('A' for Active; 'I' for Inactive)
REMARK       I    between atoms: C1_4  and  N2_5 
REMARK       I    between atoms: C1_4  and  N4_24 
REMARK    1  A    between atoms: N2_5  and  C2_7 
REMARK    2  A    between atoms: C5_10  and  S1_11 
REMARK    3  A    between atoms: S1_11  and  C6_14 
REMARK    4  A    between atoms: C7_15  and  C8_16 
REMARK    5  A    between atoms: C8_16  and  O3_17 
REMARK    6  A    between atoms: C8_16  and  N3_19 
REMARK    7  A    between atoms: N3_19  and  O4_20 
REMARK    8  A    between atoms: N4_24  and  N5_26 
ROOT
HETATM    1  C2  UNL     1       6.911  19.032  14.064  1.00  0.00     0.049 A 
HETATM    2  C3  UNL     1       7.760  18.867  15.128  1.00  0.00     0.031 A 
HETATM    3  C4  UNL     1       9.065  18.430  14.920  1.00  0.00     0.026 A 
HETATM    4  C5  UNL     1       9.506  18.162  13.644  1.00  0.00     0.063 A 
HETATM    5  C9  UNL     1       8.658  18.328  12.586  1.00  0.00     0.026 A 
HETATM    6  C10 UNL     1       7.371  18.760  12.804  1.00  0.00     0.031 A 
ENDROOT
BRANCH   1   7
HETATM    7  N2  UNL     1       5.598  19.471  14.267  1.00  0.00    -0.191 N 
HETATM    8  C1  UNL     1       5.229  20.818  14.491  1.00  0.00     0.695 C 
HETATM    9  N1  UNL     1       5.589  21.392  15.574  1.00  0.00    -0.233 N 
HETATM   10  N4  UNL     1       4.473  21.499  13.517  1.00  0.00    -0.072 N 
ATOM     11  H12 UNL     1       6.136  20.899  16.280  1.00  0.00     0.174 HD
ATOM     12  H11 UNL     1       5.323  22.364  15.736  1.00  0.00     0.174 HD
ATOM     13  H4  UNL     1       4.457  22.519  13.542  1.00  0.00     0.212 HD
ATOM     14  H2  UNL     1       4.855  18.772  14.254  1.00  0.00     0.184 HD
BRANCH  10  15
HETATM   15  N5  UNL     1       3.744  20.848  12.517  1.00  0.00    -0.024 N 
HETATM   16  O5  UNL     1       4.320  20.432  11.510  1.00  0.00    -0.516 OA
HETATM   17  O6  UNL     1       2.396  20.655  12.621  1.00  0.00    -0.516 OA
ENDBRANCH  10  15
ENDBRANCH   1   7
BRANCH   4  18
HETATM   18  S1  UNL     1      11.147  17.614  13.397  1.00  0.00     0.196 S 
HETATM   19  O1  UNL     1      11.735  17.058  14.658  1.00  0.00    -0.218 OA
HETATM   20  O2  UNL     1      11.214  16.604  12.270  1.00  0.00    -0.218 OA
BRANCH  18  21
HETATM   21  C6  UNL     1      12.118  18.982  12.909  1.00  0.00     0.114 C 
HETATM   22  C7  UNL     1      13.025  18.813  11.960  1.00  0.00     0.036 C 
BRANCH  22  23
HETATM   23  C8  UNL     1      13.839  20.000  11.565  1.00  0.00     0.262 C 
BRANCH  23  24
HETATM   24  O3  UNL     1      13.804  20.910  12.624  1.00  0.00    -0.374 OA
ATOM     25  H3  UNL     1      13.312  20.509  13.331  1.00  0.00     0.212 HD
ENDBRANCH  23  24
BRANCH  23  26
HETATM   26  N3  UNL     1      13.200  20.551  10.367  1.00  0.00    -0.067 NA
BRANCH  26  27
HETATM   27  O4  UNL     1      12.836  19.570   9.535  1.00  0.00    -0.293 OA
ATOM     28  H4  UNL     1      11.924  19.667   9.283  1.00  0.00     0.238 HD
ENDBRANCH  26  27
ENDBRANCH  23  26
ENDBRANCH  22  23
ENDBRANCH  18  21
ENDBRANCH   4  18
TORSDOF 8
ENDMDL
