MODEL 1
REMARK VINA RESULT: -4.930868839      0.000      0.000
REMARK  2 active torsions:
REMARK  status: ('A' for Active; 'I' for Inactive)
REMARK    1  A    between atoms: C2_2  and  C3_3 
REMARK    2  A    between atoms: C11_11  and  N1_12 
REMARK       I    between atoms: N1_12  and  C12_14 
ROOT
HETATM    1  C3  UNL     1       8.754  -3.723 -11.777  1.00  0.00     0.017 C 
HETATM    2  C4  UNL     1       9.524  -4.950 -11.262  1.00  0.00    -0.007 C 
HETATM    3  C5  UNL     1       8.819  -6.191 -11.690  1.00  0.00     0.010 C 
HETATM    4  C6  UNL     1       8.779  -6.200 -13.205  1.00  0.00    -0.012 C 
HETATM    5  C7  UNL     1      10.212  -6.246 -13.698  1.00  0.00     0.009 C 
HETATM    6  C8  UNL     1      10.853  -4.951 -13.285  1.00  0.00    -0.012 C 
HETATM    7  C9  UNL     1      10.929  -4.920 -11.768  1.00  0.00     0.010 C 
HETATM    8  C10 UNL     1      10.076  -3.800 -13.808  1.00  0.00     0.036 C 
HETATM    9  C11 UNL     1       8.619  -3.768 -13.258  1.00  0.00     0.037 C 
HETATM   10  C14 UNL     1       8.004  -5.030 -13.770  1.00  0.00     0.036 C 
ENDROOT
BRANCH   9  11
HETATM   11  N1  UNL     1       8.119  -2.547 -13.782  1.00  0.00    -0.355 N 
HETATM   12  C12 UNL     1       8.005  -2.226 -15.164  1.00  0.00     0.184 C 
HETATM   13  N2  UNL     1       7.291  -3.018 -16.088  1.00  0.00    -0.064 NA
HETATM   14  N3  UNL     1       8.569  -1.169 -15.619  1.00  0.00    -0.369 N 
HETATM   15  C13 UNL     1       8.457  -0.839 -17.016  1.00  0.00     0.148 C 
ATOM     16  H3  UNL     1       9.097  -0.562 -14.992  1.00  0.00     0.161 HD
ATOM     17  H1  UNL     1       7.815  -1.840 -13.112  1.00  0.00     0.163 HD
ENDBRANCH   9  11
BRANCH   1  18
HETATM   18  C2  UNL     1       7.523  -3.633 -10.962  1.00  0.00     0.003 C 
HETATM   19  C1  UNL     1       7.629  -3.044  -9.591  1.00  0.00     0.005 C 
ENDBRANCH   1  18
TORSDOF 2
ENDMDL
MODEL 2
REMARK VINA RESULT: -4.898846734      2.657      4.093
REMARK  2 active torsions:
REMARK  status: ('A' for Active; 'I' for Inactive)
REMARK    1  A    between atoms: C2_2  and  C3_3 
REMARK    2  A    between atoms: C11_11  and  N1_12 
REMARK       I    between atoms: N1_12  and  C12_14 
ROOT
HETATM    1  C3  UNL     1       9.350  -7.110 -10.879  1.00  0.00     0.017 C 
HETATM    2  C4  UNL     1      10.823  -7.547 -10.847  1.00  0.00    -0.007 C 
HETATM    3  C5  UNL     1      11.422  -7.370 -12.200  1.00  0.00     0.010 C 
HETATM    4  C6  UNL     1      11.323  -5.901 -12.560  1.00  0.00    -0.012 C 
HETATM    5  C7  UNL     1      12.145  -5.128 -11.547  1.00  0.00     0.009 C 
HETATM    6  C8  UNL     1      11.465  -5.300 -10.217  1.00  0.00    -0.012 C 
HETATM    7  C9  UNL     1      11.566  -6.762  -9.817  1.00  0.00     0.010 C 
HETATM    8  C10 UNL     1      10.050  -4.861 -10.300  1.00  0.00     0.036 C 
HETATM    9  C11 UNL     1       9.229  -5.696 -11.327  1.00  0.00     0.037 C 
HETATM   10  C14 UNL     1       9.891  -5.419 -12.638  1.00  0.00     0.036 C 
ENDROOT
BRANCH   9  11
HETATM   11  N1  UNL     1       7.913  -5.194 -11.150  1.00  0.00    -0.355 N 
HETATM   12  C12 UNL     1       7.541  -3.821 -11.184  1.00  0.00     0.184 C 
HETATM   13  N2  UNL     1       7.813  -2.971 -12.276  1.00  0.00    -0.064 NA
HETATM   14  N3  UNL     1       6.925  -3.305 -10.186  1.00  0.00    -0.369 N 
HETATM   15  C13 UNL     1       6.546  -1.916 -10.216  1.00  0.00     0.148 C 
ATOM     16  H3  UNL     1       6.704  -3.877  -9.371  1.00  0.00     0.161 HD
ATOM     17  H1  UNL     1       7.172  -5.875 -10.984  1.00  0.00     0.163 HD
ENDBRANCH   9  11
BRANCH   1  18
HETATM   18  C2  UNL     1       8.624  -8.151 -11.638  1.00  0.00     0.003 C 
HETATM   19  C1  UNL     1       7.672  -9.030 -10.890  1.00  0.00     0.005 C 
ENDBRANCH   1  18
TORSDOF 2
ENDMDL
MODEL 3
REMARK VINA RESULT: -4.851503916      3.581      5.616
REMARK  2 active torsions:
REMARK  status: ('A' for Active; 'I' for Inactive)
REMARK    1  A    between atoms: C2_2  and  C3_3 
REMARK    2  A    between atoms: C11_11  and  N1_12 
REMARK       I    between atoms: N1_12  and  C12_14 
ROOT
HETATM    1  C3  UNL     1       9.075  -4.870 -10.529  1.00  0.00     0.017 C 
HETATM    2  C4  UNL     1       8.233  -4.732 -11.807  1.00  0.00    -0.007 C 
HETATM    3  C5  UNL     1       9.020  -4.006 -12.842  1.00  0.00     0.010 C 
HETATM    4  C6  UNL     1      10.267  -4.818 -13.128  1.00  0.00    -0.012 C 
HETATM    5  C7  UNL     1       9.821  -6.155 -13.687  1.00  0.00     0.009 C 
HETATM    6  C8  UNL     1       9.083  -6.860 -12.585  1.00  0.00    -0.012 C 
HETATM    7  C9  UNL     1       7.812  -6.081 -12.289  1.00  0.00     0.010 C 
HETATM    8  C10 UNL     1       9.938  -6.971 -11.378  1.00  0.00     0.036 C 
HETATM    9  C11 UNL     1      10.352  -5.580 -10.813  1.00  0.00     0.037 C 
HETATM   10  C14 UNL     1      11.155  -4.961 -11.911  1.00  0.00     0.036 C 
ENDROOT
BRANCH   9  11
HETATM   11  N1  UNL     1      11.044  -5.924  -9.622  1.00  0.00    -0.355 N 
HETATM   12  C12 UNL     1      11.912  -7.041  -9.464  1.00  0.00     0.184 C 
HETATM   13  N2  UNL     1      13.032  -7.275 -10.288  1.00  0.00    -0.064 NA
HETATM   14  N3  UNL     1      11.688  -7.893  -8.534  1.00  0.00    -0.369 N 
HETATM   15  C13 UNL     1      12.563  -9.024  -8.369  1.00  0.00     0.148 C 
ATOM     16  H3  UNL     1      10.890  -7.769  -7.910  1.00  0.00     0.161 HD
ATOM     17  H1  UNL     1      10.907  -5.321  -8.811  1.00  0.00     0.163 HD
ENDBRANCH   9  11
BRANCH   1  18
HETATM   18  C2  UNL     1       9.141  -3.521  -9.926  1.00  0.00     0.003 C 
HETATM   19  C1  UNL     1       7.869  -2.911  -9.430  1.00  0.00     0.005 C 
ENDBRANCH   1  18
TORSDOF 2
ENDMDL
MODEL 4
REMARK VINA RESULT: -4.838733324      2.571      3.669
REMARK  2 active torsions:
REMARK  status: ('A' for Active; 'I' for Inactive)
REMARK    1  A    between atoms: C2_2  and  C3_3 
REMARK    2  A    between atoms: C11_11  and  N1_12 
REMARK       I    between atoms: N1_12  and  C12_14 
ROOT
HETATM    1  C3  UNL     1      10.426  -4.941 -11.103  1.00  0.00     0.017 C 
HETATM    2  C4  UNL     1      11.798  -5.351 -11.660  1.00  0.00    -0.007 C 
HETATM    3  C5  UNL     1      12.110  -6.743 -11.231  1.00  0.00     0.010 C 
HETATM    4  C6  UNL     1      11.031  -7.650 -11.787  1.00  0.00    -0.012 C 
HETATM    5  C7  UNL     1      11.102  -7.568 -13.300  1.00  0.00     0.009 C 
HETATM    6  C8  UNL     1      10.726  -6.162 -13.673  1.00  0.00    -0.012 C 
HETATM    7  C9  UNL     1      11.803  -5.226 -13.149  1.00  0.00     0.010 C 
HETATM    8  C10 UNL     1       9.395  -5.816 -13.116  1.00  0.00     0.036 C 
HETATM    9  C11 UNL     1       9.368  -5.881 -11.560  1.00  0.00     0.037 C 
HETATM   10  C14 UNL     1       9.658  -7.314 -11.248  1.00  0.00     0.036 C 
ENDROOT
BRANCH   9  11
HETATM   11  N1  UNL     1       8.066  -5.405 -11.255  1.00  0.00    -0.355 N 
HETATM   12  C12 UNL     1       7.671  -4.038 -11.230  1.00  0.00     0.184 C 
HETATM   13  N2  UNL     1       7.829  -3.165 -12.326  1.00  0.00    -0.064 NA
HETATM   14  N3  UNL     1       7.141  -3.549 -10.171  1.00  0.00    -0.369 N 
HETATM   15  C13 UNL     1       6.738  -2.167 -10.140  1.00  0.00     0.148 C 
ATOM     16  H3  UNL     1       7.003  -4.140  -9.350  1.00  0.00     0.161 HD
ATOM     17  H1  UNL     1       7.354  -6.101 -11.035  1.00  0.00     0.163 HD
ENDBRANCH   9  11
BRANCH   1  18
HETATM   18  C2  UNL     1      10.610  -4.744  -9.649  1.00  0.00     0.003 C 
HETATM   19  C1  UNL     1      11.324  -3.511  -9.192  1.00  0.00     0.005 C 
ENDBRANCH   1  18
TORSDOF 2
ENDMDL
MODEL 5
REMARK VINA RESULT: -4.778763260      3.267      5.002
REMARK  2 active torsions:
REMARK  status: ('A' for Active; 'I' for Inactive)
REMARK    1  A    between atoms: C2_2  and  C3_3 
REMARK    2  A    between atoms: C11_11  and  N1_12 
REMARK       I    between atoms: N1_12  and  C12_14 
ROOT
HETATM    1  C3  UNL     1      11.517  -5.985 -12.047  1.00  0.00     0.017 C 
HETATM    2  C4  UNL     1      12.127  -7.352 -11.703  1.00  0.00    -0.007 C 
HETATM    3  C5  UNL     1      12.859  -7.256 -10.408  1.00  0.00     0.010 C 
HETATM    4  C6  UNL     1      11.860  -6.850  -9.343  1.00  0.00    -0.012 C 
HETATM    5  C7  UNL     1      10.822  -7.951  -9.248  1.00  0.00     0.009 C 
HETATM    6  C8  UNL     1      10.084  -7.964 -10.557  1.00  0.00    -0.012 C 
HETATM    7  C9  UNL     1      11.055  -8.390 -11.646  1.00  0.00     0.010 C 
HETATM    8  C10 UNL     1       9.512  -6.625 -10.842  1.00  0.00     0.036 C 
HETATM    9  C11 UNL     1      10.608  -5.524 -10.963  1.00  0.00     0.037 C 
HETATM   10  C14 UNL     1      11.247  -5.492  -9.613  1.00  0.00     0.036 C 
ENDROOT
BRANCH   9  11
HETATM   11  N1  UNL     1       9.857  -4.383 -11.349  1.00  0.00    -0.355 N 
HETATM   12  C12 UNL     1       8.960  -3.662 -10.511  1.00  0.00     0.184 C 
HETATM   13  N2  UNL     1       9.336  -3.105  -9.271  1.00  0.00    -0.064 NA
HETATM   14  N3  UNL     1       7.744  -3.494 -10.879  1.00  0.00    -0.369 N 
HETATM   15  C13 UNL     1       6.833  -2.765 -10.036  1.00  0.00     0.148 C 
ATOM     16  H3  UNL     1       7.422  -3.877 -11.768  1.00  0.00     0.161 HD
ATOM     17  H1  UNL     1       9.969  -4.052 -12.307  1.00  0.00     0.163 HD
ENDBRANCH   9  11
BRANCH   1  18
HETATM   18  C2  UNL     1      12.645  -5.111 -12.435  1.00  0.00     0.003 C 
HETATM   19  C1  UNL     1      12.602  -4.466 -13.784  1.00  0.00     0.005 C 
ENDBRANCH   1  18
TORSDOF 2
ENDMDL
