MODEL 1
REMARK VINA RESULT: -5.399873526      0.000      0.000
REMARK  5 active torsions:
REMARK  status: ('A' for Active; 'I' for Inactive)
REMARK    1  A    between atoms: C2_2  and  S1_5 
REMARK    2  A    between atoms: S1_5  and  N1_8 
REMARK    3  A    between atoms: N1_8  and  C4_10 
REMARK    4  A    between atoms: C4_10  and  O3_11 
REMARK    5  A    between atoms: C4_10  and  C5_13 
ROOT
HETATM    1  C4  UNL     1      10.735  -4.897 -10.140  1.00  0.00     0.236 C 
ENDROOT
BRANCH   1   2
HETATM    2  N1  UNL     1       9.357  -4.932  -9.893  1.00  0.00    -0.289 N 
ATOM      3  H1  UNL     1       8.830  -5.796  -9.763  1.00  0.00     0.174 HD
BRANCH   2   4
HETATM    4  S1  UNL     1       8.656  -3.384  -9.833  1.00  0.00     0.266 S 
HETATM    5  O1  UNL     1       9.745  -2.374  -9.568  1.00  0.00    -0.203 OA
HETATM    6  O2  UNL     1       7.681  -3.398  -8.659  1.00  0.00    -0.203 OA
BRANCH   4   7
HETATM    7  C2  UNL     1       7.725  -2.929 -11.250  1.00  0.00     0.216 C 
HETATM    8  C1  UNL     1       6.920  -4.178 -11.654  1.00  0.00     0.071 C 
HETATM    9  C3  UNL     1       6.710  -1.902 -10.845  1.00  0.00     0.071 C 
HETATM   10  F1  UNL     1       8.468  -2.523 -12.325  1.00  0.00    -0.225 F 
ENDBRANCH   4   7
ENDBRANCH   2   4
ENDBRANCH   1   2
BRANCH   1  11
HETATM   11  O3  UNL     1      10.885  -4.326 -11.471  1.00  0.00    -0.375 OA
ATOM     12  H3  UNL     1      11.809  -4.127 -11.564  1.00  0.00     0.212 HD
ENDBRANCH   1  11
BRANCH   1  13
HETATM   13  C5  UNL     1      11.489  -6.175 -10.225  1.00  0.00     0.005 C 
HETATM   14  C6  UNL     1      12.130  -6.646  -8.970  1.00  0.00     0.018 C 
HETATM   15  C7  UNL     1      12.980  -7.874  -9.226  1.00  0.00    -0.013 C 
HETATM   16  C8  UNL     1      14.101  -7.540 -10.195  1.00  0.00     0.009 C 
HETATM   17  C12 UNL     1      12.213  -9.018  -9.824  1.00  0.00     0.009 C 
HETATM   18  C9  UNL     1      13.469  -7.103 -11.480  1.00  0.00    -0.013 C 
HETATM   19  C10 UNL     1      12.566  -8.166 -12.074  1.00  0.00     0.009 C 
HETATM   20  C14 UNL     1      12.633  -5.894 -11.215  1.00  0.00     0.018 C 
HETATM   21  C11 UNL     1      11.496  -8.504 -11.049  1.00  0.00    -0.013 C 
HETATM   22  C13 UNL     1      10.639  -7.316 -10.762  1.00  0.00     0.018 C 
ENDBRANCH   1  13
TORSDOF 5
ENDMDL
MODEL 2
REMARK VINA RESULT: -5.364853698      3.098      4.228
REMARK  5 active torsions:
REMARK  status: ('A' for Active; 'I' for Inactive)
REMARK    1  A    between atoms: C2_2  and  S1_5 
REMARK    2  A    between atoms: S1_5  and  N1_8 
REMARK    3  A    between atoms: N1_8  and  C4_10 
REMARK    4  A    between atoms: C4_10  and  O3_11 
REMARK    5  A    between atoms: C4_10  and  C5_13 
ROOT
HETATM    1  C4  UNL     1      12.805  -8.298 -10.066  1.00  0.00     0.236 C 
ENDROOT
BRANCH   1   2
HETATM    2  N1  UNL     1      12.727  -7.329  -9.058  1.00  0.00    -0.289 N 
ATOM      3  H1  UNL     1      13.467  -7.165  -8.376  1.00  0.00     0.174 HD
BRANCH   2   4
HETATM    4  S1  UNL     1      11.268  -6.455  -9.092  1.00  0.00     0.266 S 
HETATM    5  O1  UNL     1      11.006  -5.905  -7.712  1.00  0.00    -0.203 OA
HETATM    6  O2  UNL     1      10.175  -7.456  -9.455  1.00  0.00    -0.203 OA
BRANCH   4   7
HETATM    7  C2  UNL     1      11.191  -5.175 -10.291  1.00  0.00     0.216 C 
HETATM    8  C1  UNL     1       9.898  -5.416 -11.093  1.00  0.00     0.071 C 
HETATM    9  C3  UNL     1      10.994  -3.869  -9.582  1.00  0.00     0.071 C 
HETATM   10  F1  UNL     1      12.244  -5.135 -11.163  1.00  0.00    -0.225 F 
ENDBRANCH   4   7
ENDBRANCH   2   4
ENDBRANCH   1   2
BRANCH   1  11
HETATM   11  O3  UNL     1      12.667  -9.582  -9.394  1.00  0.00    -0.375 OA
ATOM     12  H3  UNL     1      11.782  -9.876  -9.577  1.00  0.00     0.212 HD
ENDBRANCH   1  11
BRANCH   1  13
HETATM   13  C5  UNL     1      14.069  -8.444 -10.834  1.00  0.00     0.005 C 
HETATM   14  C6  UNL     1      14.539  -9.834 -11.070  1.00  0.00     0.018 C 
HETATM   15  C7  UNL     1      15.900  -9.838 -11.735  1.00  0.00    -0.013 C 
HETATM   16  C8  UNL     1      16.925  -9.175 -10.829  1.00  0.00     0.009 C 
HETATM   17  C12 UNL     1      15.931  -9.100 -13.042  1.00  0.00     0.009 C 
HETATM   18  C9  UNL     1      16.486  -7.759 -10.616  1.00  0.00    -0.013 C 
HETATM   19  C10 UNL     1      16.361  -6.988 -11.915  1.00  0.00     0.009 C 
HETATM   20  C14 UNL     1      15.142  -7.768  -9.963  1.00  0.00     0.018 C 
HETATM   21  C11 UNL     1      15.370  -7.718 -12.805  1.00  0.00    -0.013 C 
HETATM   22  C13 UNL     1      14.013  -7.744 -12.183  1.00  0.00     0.018 C 
ENDBRANCH   1  13
TORSDOF 5
ENDMDL
MODEL 3
REMARK VINA RESULT: -5.321522185      2.654      6.138
REMARK  5 active torsions:
REMARK  status: ('A' for Active; 'I' for Inactive)
REMARK    1  A    between atoms: C2_2  and  S1_5 
REMARK    2  A    between atoms: S1_5  and  N1_8 
REMARK    3  A    between atoms: N1_8  and  C4_10 
REMARK    4  A    between atoms: C4_10  and  O3_11 
REMARK    5  A    between atoms: C4_10  and  C5_13 
ROOT
HETATM    1  C4  UNL     1      10.735  -4.554 -10.383  1.00  0.00     0.236 C 
ENDROOT
BRANCH   1   2
HETATM    2  N1  UNL     1      10.936  -5.794  -9.764  1.00  0.00    -0.289 N 
ATOM      3  H1  UNL     1      10.468  -6.076  -8.903  1.00  0.00     0.174 HD
BRANCH   2   4
HETATM    4  S1  UNL     1      12.043  -6.779 -10.600  1.00  0.00     0.266 S 
HETATM    5  O1  UNL     1      12.818  -5.916 -11.565  1.00  0.00    -0.203 OA
HETATM    6  O2  UNL     1      11.212  -7.793 -11.381  1.00  0.00    -0.203 OA
BRANCH   4   7
HETATM    7  C2  UNL     1      13.136  -7.704  -9.585  1.00  0.00     0.216 C 
HETATM    8  C1  UNL     1      12.725  -9.180  -9.746  1.00  0.00     0.071 C 
HETATM    9  C3  UNL     1      14.518  -7.600 -10.155  1.00  0.00     0.071 C 
HETATM   10  F1  UNL     1      13.101  -7.384  -8.255  1.00  0.00    -0.225 F 
ENDBRANCH   4   7
ENDBRANCH   2   4
ENDBRANCH   1   2
BRANCH   1  11
HETATM   11  O3  UNL     1      10.609  -3.587  -9.301  1.00  0.00    -0.375 OA
ATOM     12  H3  UNL     1      11.438  -3.124  -9.269  1.00  0.00     0.212 HD
ENDBRANCH   1  11
BRANCH   1  13
HETATM   13  C5  UNL     1       9.505  -4.335 -11.186  1.00  0.00     0.005 C 
HETATM   14  C6  UNL     1       9.706  -3.980 -12.615  1.00  0.00     0.018 C 
HETATM   15  C7  UNL     1       8.385  -3.647 -13.280  1.00  0.00    -0.013 C 
HETATM   16  C8  UNL     1       7.755  -2.437 -12.610  1.00  0.00     0.009 C 
HETATM   17  C12 UNL     1       7.380  -4.760 -13.206  1.00  0.00     0.009 C 
HETATM   18  C9  UNL     1       7.508  -2.795 -11.177  1.00  0.00    -0.013 C 
HETATM   19  C10 UNL     1       6.605  -4.003 -11.028  1.00  0.00     0.009 C 
HETATM   20  C14 UNL     1       8.815  -3.124 -10.534  1.00  0.00     0.018 C 
HETATM   21  C11 UNL     1       7.250  -5.170 -11.758  1.00  0.00    -0.013 C 
HETATM   22  C13 UNL     1       8.561  -5.527 -11.138  1.00  0.00     0.018 C 
ENDBRANCH   1  13
TORSDOF 5
ENDMDL
MODEL 4
REMARK VINA RESULT: -5.267684633      3.155      6.048
REMARK  5 active torsions:
REMARK  status: ('A' for Active; 'I' for Inactive)
REMARK    1  A    between atoms: C2_2  and  S1_5 
REMARK    2  A    between atoms: S1_5  and  N1_8 
REMARK    3  A    between atoms: N1_8  and  C4_10 
REMARK    4  A    between atoms: C4_10  and  O3_11 
REMARK    5  A    between atoms: C4_10  and  C5_13 
ROOT
HETATM    1  C4  UNL     1      11.217  -5.905 -10.036  1.00  0.00     0.236 C 
ENDROOT
BRANCH   1   2
HETATM    2  N1  UNL     1      11.137  -7.298  -9.910  1.00  0.00    -0.289 N 
ATOM      3  H1  UNL     1      10.273  -7.826 -10.029  1.00  0.00     0.174 HD
BRANCH   2   4
HETATM    4  S1  UNL     1      12.634  -8.015  -9.538  1.00  0.00     0.266 S 
HETATM    5  O1  UNL     1      12.403  -9.472  -9.223  1.00  0.00    -0.203 OA
HETATM    6  O2  UNL     1      13.155  -7.303  -8.293  1.00  0.00    -0.203 OA
BRANCH   4   7
HETATM    7  C2  UNL     1      13.874  -7.840 -10.769  1.00  0.00     0.216 C 
HETATM    8  C1  UNL     1      15.215  -7.752 -10.016  1.00  0.00     0.071 C 
HETATM    9  C3  UNL     1      13.936  -9.106 -11.568  1.00  0.00     0.071 C 
HETATM   10  F1  UNL     1      13.748  -6.734 -11.564  1.00  0.00    -0.225 F 
ENDBRANCH   4   7
ENDBRANCH   2   4
ENDBRANCH   1   2
BRANCH   1  11
HETATM   11  O3  UNL     1      10.995  -5.373  -8.698  1.00  0.00    -0.375 OA
ATOM     12  H3  UNL     1      11.848  -5.097  -8.385  1.00  0.00     0.212 HD
ENDBRANCH   1  11
BRANCH   1  13
HETATM   13  C5  UNL     1      10.208  -5.193 -10.863  1.00  0.00     0.005 C 
HETATM   14  C6  UNL     1       9.682  -3.920 -10.307  1.00  0.00     0.018 C 
HETATM   15  C7  UNL     1       8.565  -3.374 -11.174  1.00  0.00    -0.013 C 
HETATM   16  C8  UNL     1       7.404  -4.353 -11.207  1.00  0.00     0.009 C 
HETATM   17  C12 UNL     1       8.975  -3.135 -12.599  1.00  0.00     0.009 C 
HETATM   18  C9  UNL     1       7.910  -5.630 -11.804  1.00  0.00    -0.013 C 
HETATM   19  C10 UNL     1       8.469  -5.437 -13.200  1.00  0.00     0.009 C 
HETATM   20  C14 UNL     1       9.011  -6.157 -10.943  1.00  0.00     0.018 C 
HETATM   21  C11 UNL     1       9.588  -4.411 -13.123  1.00  0.00    -0.013 C 
HETATM   22  C13 UNL     1      10.709  -4.908 -12.270  1.00  0.00     0.018 C 
ENDBRANCH   1  13
TORSDOF 5
ENDMDL
MODEL 5
REMARK VINA RESULT: -5.259299238      2.720      6.051
REMARK  5 active torsions:
REMARK  status: ('A' for Active; 'I' for Inactive)
REMARK    1  A    between atoms: C2_2  and  S1_5 
REMARK    2  A    between atoms: S1_5  and  N1_8 
REMARK    3  A    between atoms: N1_8  and  C4_10 
REMARK    4  A    between atoms: C4_10  and  O3_11 
REMARK    5  A    between atoms: C4_10  and  C5_13 
ROOT
HETATM    1  C4  UNL     1      10.884  -4.496 -10.407  1.00  0.00     0.236 C 
ENDROOT
BRANCH   1   2
HETATM    2  N1  UNL     1      11.212  -5.720  -9.810  1.00  0.00    -0.289 N 
ATOM      3  H1  UNL     1      10.891  -5.998  -8.883  1.00  0.00     0.174 HD
BRANCH   2   4
HETATM    4  S1  UNL     1      12.202  -6.692 -10.794  1.00  0.00     0.266 S 
HETATM    5  O1  UNL     1      12.959  -5.799 -11.744  1.00  0.00    -0.203 OA
HETATM    6  O2  UNL     1      11.264  -7.597 -11.587  1.00  0.00    -0.203 OA
BRANCH   4   7
HETATM    7  C2  UNL     1      13.305  -7.751  -9.931  1.00  0.00     0.216 C 
HETATM    8  C1  UNL     1      12.748  -7.876  -8.500  1.00  0.00     0.071 C 
HETATM    9  C3  UNL     1      13.213  -9.123 -10.526  1.00  0.00     0.071 C 
HETATM   10  F1  UNL     1      14.596  -7.305  -9.859  1.00  0.00    -0.225 F 
ENDBRANCH   4   7
ENDBRANCH   2   4
ENDBRANCH   1   2
BRANCH   1  11
HETATM   11  O3  UNL     1      10.891  -3.515  -9.331  1.00  0.00    -0.375 OA
ATOM     12  H3  UNL     1      11.514  -3.837  -8.691  1.00  0.00     0.212 HD
ENDBRANCH   1  11
BRANCH   1  13
HETATM   13  C5  UNL     1       9.542  -4.326 -11.022  1.00  0.00     0.005 C 
HETATM   14  C6  UNL     1       8.641  -5.506 -10.971  1.00  0.00     0.018 C 
HETATM   15  C7  UNL     1       7.369  -5.247 -11.753  1.00  0.00    -0.013 C 
HETATM   16  C8  UNL     1       7.696  -5.006 -13.217  1.00  0.00     0.009 C 
HETATM   17  C12 UNL     1       6.605  -4.047 -11.273  1.00  0.00     0.009 C 
HETATM   18  C9  UNL     1       8.572  -3.793 -13.287  1.00  0.00    -0.013 C 
HETATM   19  C10 UNL     1       7.912  -2.565 -12.691  1.00  0.00     0.009 C 
HETATM   20  C14 UNL     1       9.820  -4.059 -12.512  1.00  0.00     0.018 C 
HETATM   21  C11 UNL     1       7.555  -2.874 -11.247  1.00  0.00    -0.013 C 
HETATM   22  C13 UNL     1       8.783  -3.144 -10.441  1.00  0.00     0.018 C 
ENDBRANCH   1  13
TORSDOF 5
ENDMDL
