MODEL 1
REMARK VINA RESULT: -5.942899393      0.000      0.000
REMARK  4 active torsions:
REMARK  status: ('A' for Active; 'I' for Inactive)
REMARK    1  A    between atoms: C2_2  and  N1_3 
REMARK    2  A    between atoms: N1_3  and  C3_5 
REMARK    3  A    between atoms: N3_9  and  C5_11 
REMARK    4  A    between atoms: C5_11  and  C6_12 
ROOT
HETATM    1  C3  UNL     1       8.496   0.938 -17.630  1.00  0.00     0.156 A 
HETATM    2  N2  UNL     1       8.929   0.101 -16.637  1.00  0.00    -0.173 N 
ATOM      3  H2  UNL     1       9.912   0.123 -16.367  1.00  0.00     0.186 HD
HETATM    4  C4  UNL     1       8.101  -0.747 -16.008  1.00  0.00     0.694 A 
HETATM    5  N3  UNL     1       8.538  -1.510 -15.089  1.00  0.00    -0.224 N 
ATOM      6  H3  UNL     1       9.532  -1.436 -14.869  1.00  0.00     0.177 HD
HETATM    7  N4  UNL     1       6.804  -0.792 -16.348  1.00  0.00    -0.131 N 
ATOM      8  H4  UNL     1       6.176  -1.437 -15.869  1.00  0.00     0.205 HD
HETATM    9  N5  UNL     1       6.346  -0.018 -17.283  1.00  0.00    -0.276 N 
ATOM     10  H5  UNL     1       5.358  -0.061 -17.532  1.00  0.00     0.188 HD
HETATM   11  C12 UNL     1       7.166   0.854 -17.939  1.00  0.00     0.140 A 
HETATM   12 BR1  UNL     1       6.341   1.925 -19.292  1.00  0.00    -0.026 Br
ENDROOT
BRANCH   5  13
HETATM   13  C5  UNL     1       7.786  -2.460 -14.332  1.00  0.00     0.142 C 
BRANCH  13  14
HETATM   14  C6  UNL     1       8.354  -2.660 -12.920  1.00  0.00     0.004 C 
HETATM   15  C7  UNL     1       7.242  -3.186 -12.045  1.00  0.00     0.006 C 
HETATM   16  C8  UNL     1       7.718  -3.288 -10.616  1.00  0.00     0.000 C 
HETATM   17  C9  UNL     1       9.192  -3.553 -10.521  1.00  0.00     0.000 C 
HETATM   18  C10 UNL     1       9.738  -4.339 -11.675  1.00  0.00     0.000 C 
HETATM   19  C11 UNL     1       9.406  -3.746 -13.013  1.00  0.00     0.006 C 
ENDBRANCH  13  14
ENDBRANCH   5  13
BRANCH   1  20
HETATM   20  N1  UNL     1       9.308   1.681 -18.156  1.00  0.00    -0.354 N 
ATOM     21  H1  UNL     1       9.397   2.522 -17.584  1.00  0.00     0.166 HD
BRANCH  20  22
HETATM   22  C2  UNL     1      10.152   1.798 -19.248  1.00  0.00     0.058 C 
HETATM   23  C1  UNL     1      11.603   2.097 -18.914  1.00  0.00     0.054 C 
ENDBRANCH  20  22
ENDBRANCH   1  20
TORSDOF 4
ENDMDL
MODEL 2
REMARK VINA RESULT: -5.765483029      0.663      1.420
REMARK  4 active torsions:
REMARK  status: ('A' for Active; 'I' for Inactive)
REMARK    1  A    between atoms: C2_2  and  N1_3 
REMARK    2  A    between atoms: N1_3  and  C3_5 
REMARK    3  A    between atoms: N3_9  and  C5_11 
REMARK    4  A    between atoms: C5_11  and  C6_12 
ROOT
HETATM    1  C3  UNL     1       8.638   1.005 -17.584  1.00  0.00     0.156 A 
HETATM    2  N2  UNL     1       8.916   0.108 -16.588  1.00  0.00    -0.173 N 
ATOM      3  H2  UNL     1       9.863   0.067 -16.211  1.00  0.00     0.186 HD
HETATM    4  C4  UNL     1       7.981  -0.718 -16.093  1.00  0.00     0.694 A 
HETATM    5  N3  UNL     1       8.275  -1.540 -15.167  1.00  0.00    -0.224 N 
ATOM      6  H3  UNL     1       9.240  -1.528 -14.836  1.00  0.00     0.177 HD
HETATM    7  N4  UNL     1       6.731  -0.680 -16.575  1.00  0.00    -0.131 N 
ATOM      8  H4  UNL     1       6.022  -1.308 -16.198  1.00  0.00     0.205 HD
HETATM    9  N5  UNL     1       6.418   0.154 -17.519  1.00  0.00    -0.276 N 
ATOM     10  H5  UNL     1       5.464   0.174 -17.876  1.00  0.00     0.188 HD
HETATM   11  C12 UNL     1       7.349   1.006 -18.041  1.00  0.00     0.140 A 
HETATM   12 BR1  UNL     1       6.734   2.172 -19.426  1.00  0.00    -0.026 Br
ENDROOT
BRANCH   5  13
HETATM   13  C5  UNL     1       7.398  -2.476 -14.541  1.00  0.00     0.142 C 
BRANCH  13  14
HETATM   14  C6  UNL     1       8.138  -3.413 -13.576  1.00  0.00     0.004 C 
HETATM   15  C7  UNL     1       9.619  -3.254 -13.822  1.00  0.00     0.006 C 
HETATM   16  C8  UNL     1      10.388  -4.241 -12.979  1.00  0.00     0.000 C 
HETATM   17  C9  UNL     1       9.681  -4.576 -11.699  1.00  0.00     0.000 C 
HETATM   18  C10 UNL     1       8.835  -3.458 -11.168  1.00  0.00     0.000 C 
HETATM   19  C11 UNL     1       7.858  -2.918 -12.172  1.00  0.00     0.006 C 
ENDBRANCH  13  14
ENDBRANCH   5  13
BRANCH   1  20
HETATM   20  N1  UNL     1       9.540   1.725 -17.984  1.00  0.00    -0.354 N 
ATOM     21  H1  UNL     1       9.552   2.574 -17.419  1.00  0.00     0.166 HD
BRANCH  20  22
HETATM   22  C2  UNL     1      10.552   1.805 -18.926  1.00  0.00     0.058 C 
HETATM   23  C1  UNL     1      10.976   0.480 -19.533  1.00  0.00     0.054 C 
ENDBRANCH  20  22
ENDBRANCH   1  20
TORSDOF 4
ENDMDL
MODEL 3
REMARK VINA RESULT: -5.727409157      4.525      6.912
REMARK  4 active torsions:
REMARK  status: ('A' for Active; 'I' for Inactive)
REMARK    1  A    between atoms: C2_2  and  N1_3 
REMARK    2  A    between atoms: N1_3  and  C3_5 
REMARK    3  A    between atoms: N3_9  and  C5_11 
REMARK    4  A    between atoms: C5_11  and  C6_12 
ROOT
HETATM    1  C3  UNL     1       7.819  -2.600 -11.667  1.00  0.00     0.156 A 
HETATM    2  N2  UNL     1       8.861  -3.469 -11.483  1.00  0.00    -0.173 N 
ATOM      3  H2  UNL     1       9.343  -3.843 -12.300  1.00  0.00     0.186 HD
HETATM    4  C4  UNL     1       9.268  -3.845 -10.260  1.00  0.00     0.694 A 
HETATM    5  N3  UNL     1      10.240  -4.655 -10.126  1.00  0.00    -0.224 N 
ATOM      6  H3  UNL     1      10.677  -4.989 -10.985  1.00  0.00     0.177 HD
HETATM    7  N4  UNL     1       8.647  -3.365  -9.172  1.00  0.00    -0.131 N 
ATOM      8  H4  UNL     1       8.957  -3.652  -8.244  1.00  0.00     0.205 HD
HETATM    9  N5  UNL     1       7.655  -2.539  -9.295  1.00  0.00    -0.276 N 
ATOM     10  H5  UNL     1       7.192  -2.181  -8.460  1.00  0.00     0.188 HD
HETATM   11  C12 UNL     1       7.221  -2.140 -10.527  1.00  0.00     0.140 A 
HETATM   12 BR1  UNL     1       5.748  -0.920 -10.542  1.00  0.00    -0.026 Br
ENDROOT
BRANCH   5  13
HETATM   13  C5  UNL     1      10.785  -5.145  -8.901  1.00  0.00     0.142 C 
BRANCH  13  14
HETATM   14  C6  UNL     1      11.972  -6.091  -9.129  1.00  0.00     0.004 C 
HETATM   15  C7  UNL     1      11.621  -7.429  -8.524  1.00  0.00     0.006 C 
HETATM   16  C8  UNL     1      12.803  -8.361  -8.619  1.00  0.00     0.000 C 
HETATM   17  C9  UNL     1      13.671  -8.068  -9.807  1.00  0.00     0.000 C 
HETATM   18  C10 UNL     1      12.922  -7.498 -10.973  1.00  0.00     0.000 C 
HETATM   19  C11 UNL     1      12.100  -6.292 -10.625  1.00  0.00     0.006 C 
ENDBRANCH  13  14
ENDBRANCH   5  13
BRANCH   1  20
HETATM   20  N1  UNL     1       7.507  -2.305 -12.809  1.00  0.00    -0.354 N 
ATOM     21  H1  UNL     1       6.542  -1.974 -12.807  1.00  0.00     0.166 HD
BRANCH  20  22
HETATM   22  C2  UNL     1       7.988  -2.256 -14.108  1.00  0.00     0.058 C 
HETATM   23  C1  UNL     1       7.576  -1.031 -14.903  1.00  0.00     0.054 C 
ENDBRANCH  20  22
ENDBRANCH   1  20
TORSDOF 4
ENDMDL
MODEL 4
REMARK VINA RESULT: -5.648904524      1.271      1.490
REMARK  4 active torsions:
REMARK  status: ('A' for Active; 'I' for Inactive)
REMARK    1  A    between atoms: C2_2  and  N1_3 
REMARK    2  A    between atoms: N1_3  and  C3_5 
REMARK    3  A    between atoms: N3_9  and  C5_11 
REMARK    4  A    between atoms: C5_11  and  C6_12 
ROOT
HETATM    1  C3  UNL     1       8.216   0.031 -16.917  1.00  0.00     0.156 A 
HETATM    2  N2  UNL     1       8.906  -0.594 -15.914  1.00  0.00    -0.173 N 
ATOM      3  H2  UNL     1       9.798  -0.205 -15.611  1.00  0.00     0.186 HD
HETATM    4  C4  UNL     1       8.444  -1.704 -15.316  1.00  0.00     0.694 A 
HETATM    5  N3  UNL     1       9.111  -2.259 -14.386  1.00  0.00    -0.224 N 
ATOM      6  H3  UNL     1       9.995  -1.817 -14.132  1.00  0.00     0.177 HD
HETATM    7  N4  UNL     1       7.272  -2.232 -15.700  1.00  0.00    -0.131 N 
ATOM      8  H4  UNL     1       6.922  -3.075 -15.245  1.00  0.00     0.205 HD
HETATM    9  N5  UNL     1       6.582  -1.675 -16.647  1.00  0.00    -0.276 N 
ATOM     10  H5  UNL     1       5.693  -2.086 -16.929  1.00  0.00     0.188 HD
HETATM   11  C12 UNL     1       7.028  -0.546 -17.272  1.00  0.00     0.140 A 
HETATM   12 BR1  UNL     1       5.898   0.153 -18.647  1.00  0.00    -0.026 Br
ENDROOT
BRANCH   5  13
HETATM   13  C5  UNL     1       8.755  -3.435 -13.659  1.00  0.00     0.142 C 
BRANCH  13  14
HETATM   14  C6  UNL     1       8.422  -3.134 -12.191  1.00  0.00     0.004 C 
HETATM   15  C7  UNL     1       7.094  -3.781 -11.876  1.00  0.00     0.006 C 
HETATM   16  C8  UNL     1       6.665  -3.416 -10.476  1.00  0.00     0.000 C 
HETATM   17  C9  UNL     1       7.831  -3.174  -9.563  1.00  0.00     0.000 C 
HETATM   18  C10 UNL     1       9.047  -3.978  -9.915  1.00  0.00     0.000 C 
HETATM   19  C11 UNL     1       9.472  -3.825 -11.346  1.00  0.00     0.006 C 
ENDBRANCH  13  14
ENDBRANCH   5  13
BRANCH   1  20
HETATM   20  N1  UNL     1       8.700   1.036 -17.413  1.00  0.00    -0.354 N 
ATOM     21  H1  UNL     1       8.340   1.850 -16.914  1.00  0.00     0.166 HD
BRANCH  20  22
HETATM   22  C2  UNL     1       9.561   1.473 -18.406  1.00  0.00     0.058 C 
HETATM   23  C1  UNL     1       9.890   0.444 -19.473  1.00  0.00     0.054 C 
ENDBRANCH  20  22
ENDBRANCH   1  20
TORSDOF 4
ENDMDL
MODEL 5
REMARK VINA RESULT: -5.595551367      1.779      2.354
REMARK  4 active torsions:
REMARK  status: ('A' for Active; 'I' for Inactive)
REMARK    1  A    between atoms: C2_2  and  N1_3 
REMARK    2  A    between atoms: N1_3  and  C3_5 
REMARK    3  A    between atoms: N3_9  and  C5_11 
REMARK    4  A    between atoms: C5_11  and  C6_12 
ROOT
HETATM    1  C3  UNL     1       7.907   0.180 -17.247  1.00  0.00     0.156 A 
HETATM    2  N2  UNL     1       7.517  -0.374 -16.057  1.00  0.00    -0.173 N 
ATOM      3  H2  UNL     1       6.732   0.039 -15.554  1.00  0.00     0.186 HD
HETATM    4  C4  UNL     1       8.137  -1.443 -15.532  1.00  0.00     0.694 A 
HETATM    5  N3  UNL     1       7.748  -1.931 -14.423  1.00  0.00    -0.224 N 
ATOM      6  H3  UNL     1       6.957  -1.470 -13.974  1.00  0.00     0.177 HD
HETATM    7  N4  UNL     1       9.172  -2.000 -16.177  1.00  0.00    -0.131 N 
ATOM      8  H4  UNL     1       9.642  -2.812 -15.777  1.00  0.00     0.205 HD
HETATM    9  N5  UNL     1       9.578  -1.512 -17.308  1.00  0.00    -0.276 N 
ATOM     10  H5  UNL     1      10.366  -1.945 -17.789  1.00  0.00     0.188 HD
HETATM   11  C12 UNL     1       8.966  -0.425 -17.865  1.00  0.00     0.140 A 
HETATM   12 BR1  UNL     1       9.681   0.176 -19.534  1.00  0.00    -0.026 Br
ENDROOT
BRANCH   5  13
HETATM   13  C5  UNL     1       8.301  -3.057 -13.741  1.00  0.00     0.142 C 
BRANCH  13  14
HETATM   14  C6  UNL     1       8.429  -2.817 -12.231  1.00  0.00     0.004 C 
HETATM   15  C7  UNL     1       7.068  -3.024 -11.612  1.00  0.00     0.006 C 
HETATM   16  C8  UNL     1       7.115  -2.685 -10.142  1.00  0.00     0.000 C 
HETATM   17  C9  UNL     1       8.467  -2.933  -9.539  1.00  0.00     0.000 C 
HETATM   18  C10 UNL     1       9.223  -4.049 -10.196  1.00  0.00     0.000 C 
HETATM   19  C11 UNL     1       9.341  -3.897 -11.685  1.00  0.00     0.006 C 
ENDBRANCH  13  14
ENDBRANCH   5  13
BRANCH   1  20
HETATM   20  N1  UNL     1       7.295   1.151 -17.662  1.00  0.00    -0.354 N 
ATOM     21  H1  UNL     1       7.703   1.991 -17.252  1.00  0.00     0.166 HD
BRANCH  20  22
HETATM   22  C2  UNL     1       6.248   1.525 -18.487  1.00  0.00     0.058 C 
HETATM   23  C1  UNL     1       6.572   2.624 -19.484  1.00  0.00     0.054 C 
ENDBRANCH  20  22
ENDBRANCH   1  20
TORSDOF 4
ENDMDL
