MODEL 1
REMARK VINA RESULT: -7.336323345      0.000      0.000
REMARK  5 active torsions:
REMARK  status: ('A' for Active; 'I' for Inactive)
REMARK    1  A    between atoms: N2_5  and  C4_6 
REMARK    2  A    between atoms: C4_6  and  C5_7 
REMARK    3  A    between atoms: C5_7  and  C6_8 
REMARK    4  A    between atoms: C9_11  and  C10_12 
REMARK    5  A    between atoms: C11_13  and  C12_14 
ROOT
HETATM    1  C10 UNL     1     -31.382  -3.718 -11.108  1.00  0.00     0.059 A 
HETATM    2  C11 UNL     1     -31.502  -3.301 -12.323  1.00  0.00     0.059 A 
HETATM    3  C18 UNL     1     -32.567  -2.254 -12.339  1.00  0.00     0.260 A 
HETATM    4  O1  UNL     1     -32.943  -1.632 -13.365  1.00  0.00    -0.267 OA
HETATM    5  N4  UNL     1     -33.074  -2.078 -11.042  1.00  0.00    -0.289 N 
ATOM      6  H4  UNL     1     -33.807  -1.434 -10.745  1.00  0.00     0.172 HD
HETATM    7  C19 UNL     1     -32.356  -2.978 -10.240  1.00  0.00     0.260 A 
HETATM    8  O2  UNL     1     -32.504  -3.143  -8.988  1.00  0.00    -0.267 OA
ENDROOT
BRANCH   1   9
HETATM    9  C9  UNL     1     -30.509  -4.721 -10.512  1.00  0.00    -0.019 A 
HETATM   10  C8  UNL     1     -30.597  -6.029 -10.740  1.00  0.00     0.013 A 
HETATM   11  C7  UNL     1     -29.718  -6.952 -10.179  1.00  0.00     0.008 A 
HETATM   12  C6  UNL     1     -28.726  -6.502  -9.358  1.00  0.00    -0.057 A 
HETATM   13  C21 UNL     1     -28.600  -5.162  -9.096  1.00  0.00     0.008 A 
HETATM   14  C20 UNL     1     -29.484  -4.274  -9.666  1.00  0.00     0.013 A 
BRANCH  12  15
HETATM   15  C5  UNL     1     -27.776  -7.502  -8.753  1.00  0.00     0.058 C 
BRANCH  15  16
HETATM   16  C4  UNL     1     -27.354  -8.495  -9.838  1.00  0.00     0.132 C 
BRANCH  16  17
HETATM   17  N2  UNL     1     -26.228  -8.011 -10.576  1.00  0.00    -0.366 N 
HETATM   18  C3  UNL     1     -26.373  -7.457 -11.806  1.00  0.00     0.092 A 
HETATM   19  C2  UNL     1     -25.275  -6.985 -12.523  1.00  0.00     0.043 A 
HETATM   20  C1  UNL     1     -24.018  -7.074 -11.995  1.00  0.00     0.049 A 
HETATM   21  N1  UNL     1     -22.886  -6.598 -12.711  1.00  0.00    -0.102 NA
HETATM   22  C23 UNL     1     -23.878  -7.637 -10.744  1.00  0.00     0.043 A 
HETATM   23  C22 UNL     1     -24.991  -8.103 -10.043  1.00  0.00     0.092 A 
ENDBRANCH  16  17
ENDBRANCH  15  16
ENDBRANCH  12  15
ENDBRANCH   1   9
BRANCH   2  24
HETATM   24  C12 UNL     1     -30.796  -3.691 -13.549  1.00  0.00    -0.016 A 
HETATM   25  C13 UNL     1     -31.370  -4.739 -14.290  1.00  0.00     0.014 A 
HETATM   26  C14 UNL     1     -30.790  -5.241 -15.433  1.00  0.00     0.030 A 
HETATM   27  C15 UNL     1     -29.608  -4.729 -15.903  1.00  0.00     0.085 A 
HETATM   28  N3  UNL     1     -28.992  -5.229 -17.079  1.00  0.00    -0.099 NA
HETATM   29  C16 UNL     1     -29.031  -3.706 -15.195  1.00  0.00     0.141 A 
HETATM   30  F1  UNL     1     -27.862  -3.163 -15.615  1.00  0.00    -0.204 F 
HETATM   31  C17 UNL     1     -29.632  -3.207 -14.035  1.00  0.00     0.056 A 
ENDBRANCH   2  24
TORSDOF 5
ENDMDL
MODEL 2
REMARK VINA RESULT: -7.051778752      0.810      1.167
REMARK  5 active torsions:
REMARK  status: ('A' for Active; 'I' for Inactive)
REMARK    1  A    between atoms: N2_5  and  C4_6 
REMARK    2  A    between atoms: C4_6  and  C5_7 
REMARK    3  A    between atoms: C5_7  and  C6_8 
REMARK    4  A    between atoms: C9_11  and  C10_12 
REMARK    5  A    between atoms: C11_13  and  C12_14 
ROOT
HETATM    1  C10 UNL     1     -31.413  -3.669 -11.144  1.00  0.00     0.059 A 
HETATM    2  C11 UNL     1     -31.549  -3.270 -12.363  1.00  0.00     0.059 A 
HETATM    3  C18 UNL     1     -32.590  -2.199 -12.377  1.00  0.00     0.260 A 
HETATM    4  O1  UNL     1     -32.973  -1.587 -13.406  1.00  0.00    -0.267 OA
HETATM    5  N4  UNL     1     -33.067  -1.990 -11.073  1.00  0.00    -0.289 N 
ATOM      6  H4  UNL     1     -33.779  -1.325 -10.774  1.00  0.00     0.172 HD
HETATM    7  C19 UNL     1     -32.353  -2.892 -10.270  1.00  0.00     0.260 A 
HETATM    8  O2  UNL     1     -32.479  -3.032  -9.012  1.00  0.00    -0.267 OA
ENDROOT
BRANCH   1   9
HETATM    9  C9  UNL     1     -30.550  -4.680 -10.547  1.00  0.00    -0.019 A 
HETATM   10  C8  UNL     1     -30.651  -5.987 -10.777  1.00  0.00     0.013 A 
HETATM   11  C7  UNL     1     -29.782  -6.918 -10.215  1.00  0.00     0.008 A 
HETATM   12  C6  UNL     1     -28.786  -6.479  -9.392  1.00  0.00    -0.057 A 
HETATM   13  C21 UNL     1     -28.649  -5.140  -9.128  1.00  0.00     0.008 A 
HETATM   14  C20 UNL     1     -29.523  -4.243  -9.699  1.00  0.00     0.013 A 
BRANCH  12  15
HETATM   15  C5  UNL     1     -27.847  -7.489  -8.786  1.00  0.00     0.058 C 
BRANCH  15  16
HETATM   16  C4  UNL     1     -27.429  -8.482  -9.873  1.00  0.00     0.132 C 
BRANCH  16  17
HETATM   17  N2  UNL     1     -26.285  -8.014 -10.592  1.00  0.00    -0.366 N 
HETATM   18  C3  UNL     1     -26.396  -7.496 -11.841  1.00  0.00     0.092 A 
HETATM   19  C2  UNL     1     -25.280  -7.040 -12.540  1.00  0.00     0.043 A 
HETATM   20  C1  UNL     1     -24.038  -7.107 -11.974  1.00  0.00     0.049 A 
HETATM   21  N1  UNL     1     -22.889  -6.647 -12.670  1.00  0.00    -0.102 NA
HETATM   22  C23 UNL     1     -23.932  -7.633 -10.704  1.00  0.00     0.043 A 
HETATM   23  C22 UNL     1     -25.063  -8.084 -10.021  1.00  0.00     0.092 A 
ENDBRANCH  16  17
ENDBRANCH  15  16
ENDBRANCH  12  15
ENDBRANCH   1   9
BRANCH   2  24
HETATM   24  C12 UNL     1     -30.875  -3.696 -13.596  1.00  0.00    -0.016 A 
HETATM   25  C13 UNL     1     -29.587  -3.176 -13.811  1.00  0.00     0.014 A 
HETATM   26  C14 UNL     1     -28.859  -3.450 -14.947  1.00  0.00     0.030 A 
HETATM   27  C15 UNL     1     -29.369  -4.256 -15.931  1.00  0.00     0.085 A 
HETATM   28  N3  UNL     1     -28.638  -4.554 -17.109  1.00  0.00    -0.099 NA
HETATM   29  C16 UNL     1     -30.626  -4.774 -15.740  1.00  0.00     0.141 A 
HETATM   30  F1  UNL     1     -31.180  -5.578 -16.681  1.00  0.00    -0.204 F 
HETATM   31  C17 UNL     1     -31.353  -4.486 -14.582  1.00  0.00     0.056 A 
ENDBRANCH   2  24
TORSDOF 5
ENDMDL
MODEL 3
REMARK VINA RESULT: -6.965437377      3.735      8.437
REMARK  5 active torsions:
REMARK  status: ('A' for Active; 'I' for Inactive)
REMARK    1  A    between atoms: N2_5  and  C4_6 
REMARK    2  A    between atoms: C4_6  and  C5_7 
REMARK    3  A    between atoms: C5_7  and  C6_8 
REMARK    4  A    between atoms: C9_11  and  C10_12 
REMARK    5  A    between atoms: C11_13  and  C12_14 
ROOT
HETATM    1  C10 UNL     1     -25.469  -9.196 -11.072  1.00  0.00     0.059 A 
HETATM    2  C11 UNL     1     -24.282  -9.061 -11.558  1.00  0.00     0.059 A 
HETATM    3  C18 UNL     1     -23.689 -10.425 -11.694  1.00  0.00     0.260 A 
HETATM    4  O1  UNL     1     -22.538 -10.663 -12.138  1.00  0.00    -0.267 OA
HETATM    5  N4  UNL     1     -24.613 -11.386 -11.252  1.00  0.00    -0.289 N 
ATOM      6  H4  UNL     1     -24.489 -12.397 -11.225  1.00  0.00     0.172 HD
HETATM    7  C19 UNL     1     -25.743 -10.655 -10.854  1.00  0.00     0.260 A 
HETATM    8  O2  UNL     1     -26.820 -11.143 -10.386  1.00  0.00    -0.267 OA
ENDROOT
BRANCH   1   9
HETATM    9  C9  UNL     1     -26.494  -8.217 -10.734  1.00  0.00    -0.019 A 
HETATM   10  C8  UNL     1     -26.783  -7.825  -9.496  1.00  0.00     0.013 A 
HETATM   11  C7  UNL     1     -27.745  -6.858  -9.218  1.00  0.00     0.008 A 
HETATM   12  C6  UNL     1     -28.424  -6.287 -10.254  1.00  0.00    -0.057 A 
HETATM   13  C21 UNL     1     -28.158  -6.663 -11.546  1.00  0.00     0.008 A 
HETATM   14  C20 UNL     1     -27.200  -7.621 -11.789  1.00  0.00     0.013 A 
BRANCH  12  15
HETATM   15  C5  UNL     1     -29.464  -5.240  -9.951  1.00  0.00     0.058 C 
BRANCH  15  16
HETATM   16  C4  UNL     1     -29.920  -4.607 -11.268  1.00  0.00     0.132 C 
BRANCH  16  17
HETATM   17  N2  UNL     1     -31.019  -3.715 -11.062  1.00  0.00    -0.366 N 
HETATM   18  C3  UNL     1     -31.397  -3.332  -9.817  1.00  0.00     0.092 A 
HETATM   19  C2  UNL     1     -32.468  -2.462  -9.619  1.00  0.00     0.043 A 
HETATM   20  C1  UNL     1     -33.165  -1.974 -10.688  1.00  0.00     0.049 A 
HETATM   21  N1  UNL     1     -34.259  -1.086 -10.506  1.00  0.00    -0.102 NA
HETATM   22  C23 UNL     1     -32.775  -2.366 -11.951  1.00  0.00     0.043 A 
HETATM   23  C22 UNL     1     -31.699  -3.238 -12.127  1.00  0.00     0.092 A 
ENDBRANCH  16  17
ENDBRANCH  15  16
ENDBRANCH  12  15
ENDBRANCH   1   9
BRANCH   2  24
HETATM   24  C12 UNL     1     -23.532  -7.860 -11.948  1.00  0.00    -0.016 A 
HETATM   25  C13 UNL     1     -22.295  -7.667 -11.309  1.00  0.00     0.014 A 
HETATM   26  C14 UNL     1     -21.508  -6.560 -11.539  1.00  0.00     0.030 A 
HETATM   27  C15 UNL     1     -21.908  -5.586 -12.417  1.00  0.00     0.085 A 
HETATM   28  N3  UNL     1     -21.115  -4.438 -12.671  1.00  0.00    -0.099 NA
HETATM   29  C16 UNL     1     -23.113  -5.756 -13.050  1.00  0.00     0.141 A 
HETATM   30  F1  UNL     1     -23.557  -4.822 -13.928  1.00  0.00    -0.204 F 
HETATM   31  C17 UNL     1     -23.901  -6.884 -12.805  1.00  0.00     0.056 A 
ENDBRANCH   2  24
TORSDOF 5
ENDMDL
MODEL 4
REMARK VINA RESULT: -6.937447655      3.718      8.326
REMARK  5 active torsions:
REMARK  status: ('A' for Active; 'I' for Inactive)
REMARK    1  A    between atoms: N2_5  and  C4_6 
REMARK    2  A    between atoms: C4_6  and  C5_7 
REMARK    3  A    between atoms: C5_7  and  C6_8 
REMARK    4  A    between atoms: C9_11  and  C10_12 
REMARK    5  A    between atoms: C11_13  and  C12_14 
ROOT
HETATM    1  C10 UNL     1     -26.652  -9.636 -10.808  1.00  0.00     0.059 A 
HETATM    2  C11 UNL     1     -25.456  -9.826 -11.254  1.00  0.00     0.059 A 
HETATM    3  C18 UNL     1     -25.206 -11.298 -11.268  1.00  0.00     0.260 A 
HETATM    4  O1  UNL     1     -24.136 -11.838 -11.647  1.00  0.00    -0.267 OA
HETATM    5  N4  UNL     1     -26.342 -11.973 -10.795  1.00  0.00    -0.289 N 
ATOM      6  H4  UNL     1     -26.466 -12.980 -10.691  1.00  0.00     0.172 HD
HETATM    7  C19 UNL     1     -27.272 -10.965 -10.496  1.00  0.00     0.260 A 
HETATM    8  O2  UNL     1     -28.445 -11.144 -10.037  1.00  0.00    -0.267 OA
ENDROOT
BRANCH   1   9
HETATM    9  C9  UNL     1     -27.418  -8.417 -10.583  1.00  0.00    -0.019 A 
HETATM   10  C8  UNL     1     -28.099  -7.770 -11.525  1.00  0.00     0.013 A 
HETATM   11  C7  UNL     1     -28.850  -6.628 -11.261  1.00  0.00     0.008 A 
HETATM   12  C6  UNL     1     -28.891  -6.146  -9.985  1.00  0.00    -0.057 A 
HETATM   13  C21 UNL     1     -28.202  -6.782  -8.984  1.00  0.00     0.008 A 
HETATM   14  C20 UNL     1     -27.469  -7.910  -9.276  1.00  0.00     0.013 A 
BRANCH  12  15
HETATM   15  C5  UNL     1     -29.704  -4.911  -9.702  1.00  0.00     0.058 C 
BRANCH  15  16
HETATM   16  C4  UNL     1     -30.003  -4.207 -11.027  1.00  0.00     0.132 C 
BRANCH  16  17
HETATM   17  N2  UNL     1     -31.159  -3.370 -10.922  1.00  0.00    -0.366 N 
HETATM   18  C3  UNL     1     -31.573  -2.882  -9.727  1.00  0.00     0.092 A 
HETATM   19  C2  UNL     1     -32.699  -2.066  -9.627  1.00  0.00     0.043 A 
HETATM   20  C1  UNL     1     -33.414  -1.740 -10.744  1.00  0.00     0.049 A 
HETATM   21  N1  UNL     1     -34.564  -0.909 -10.662  1.00  0.00    -0.102 NA
HETATM   22  C23 UNL     1     -32.987  -2.238 -11.956  1.00  0.00     0.043 A 
HETATM   23  C22 UNL     1     -31.856  -3.053 -12.034  1.00  0.00     0.092 A 
ENDBRANCH  16  17
ENDBRANCH  15  16
ENDBRANCH  12  15
ENDBRANCH   1   9
BRANCH   2  24
HETATM   24  C12 UNL     1     -24.432  -8.873 -11.700  1.00  0.00    -0.016 A 
HETATM   25  C13 UNL     1     -23.632  -8.306 -10.692  1.00  0.00     0.014 A 
HETATM   26  C14 UNL     1     -22.666  -7.361 -10.958  1.00  0.00     0.030 A 
HETATM   27  C15 UNL     1     -22.442  -6.929 -12.239  1.00  0.00     0.085 A 
HETATM   28  N3  UNL     1     -21.452  -5.957 -12.538  1.00  0.00    -0.099 NA
HETATM   29  C16 UNL     1     -23.213  -7.469 -13.237  1.00  0.00     0.141 A 
HETATM   30  F1  UNL     1     -23.033  -7.077 -14.523  1.00  0.00    -0.204 F 
HETATM   31  C17 UNL     1     -24.190  -8.427 -12.951  1.00  0.00     0.056 A 
ENDBRANCH   2  24
TORSDOF 5
ENDMDL
MODEL 5
REMARK VINA RESULT: -6.910643241      3.333      7.965
REMARK  5 active torsions:
REMARK  status: ('A' for Active; 'I' for Inactive)
REMARK    1  A    between atoms: N2_5  and  C4_6 
REMARK    2  A    between atoms: C4_6  and  C5_7 
REMARK    3  A    between atoms: C5_7  and  C6_8 
REMARK    4  A    between atoms: C9_11  and  C10_12 
REMARK    5  A    between atoms: C11_13  and  C12_14 
ROOT
HETATM    1  C10 UNL     1     -32.157  -2.915 -12.036  1.00  0.00     0.059 A 
HETATM    2  C11 UNL     1     -31.822  -3.531 -10.954  1.00  0.00     0.059 A 
HETATM    3  C18 UNL     1     -32.512  -2.855  -9.814  1.00  0.00     0.260 A 
HETATM    4  O1  UNL     1     -32.409  -3.199  -8.610  1.00  0.00    -0.267 OA
HETATM    5  N4  UNL     1     -33.285  -1.788 -10.299  1.00  0.00    -0.289 N 
ATOM      6  H4  UNL     1     -33.864  -1.146  -9.758  1.00  0.00     0.172 HD
HETATM    7  C19 UNL     1     -33.089  -1.792 -11.689  1.00  0.00     0.260 A 
HETATM    8  O2  UNL     1     -33.612  -0.982 -12.518  1.00  0.00    -0.267 OA
ENDROOT
BRANCH   1   9
HETATM    9  C9  UNL     1     -31.790  -3.136 -13.429  1.00  0.00    -0.019 A 
HETATM   10  C8  UNL     1     -30.840  -2.463 -14.074  1.00  0.00     0.013 A 
HETATM   11  C7  UNL     1     -30.494  -2.731 -15.395  1.00  0.00     0.008 A 
HETATM   12  C6  UNL     1     -31.153  -3.722 -16.062  1.00  0.00    -0.057 A 
HETATM   13  C21 UNL     1     -32.139  -4.439 -15.435  1.00  0.00     0.008 A 
HETATM   14  C20 UNL     1     -32.459  -4.152 -14.127  1.00  0.00     0.013 A 
BRANCH  12  15
HETATM   15  C5  UNL     1     -30.776  -4.010 -17.491  1.00  0.00     0.058 C 
BRANCH  15  16
HETATM   16  C4  UNL     1     -32.023  -3.866 -18.366  1.00  0.00     0.132 C 
BRANCH  16  17
HETATM   17  N2  UNL     1     -32.544  -2.534 -18.312  1.00  0.00    -0.366 N 
HETATM   18  C3  UNL     1     -31.796  -1.465 -18.682  1.00  0.00     0.092 A 
HETATM   19  C2  UNL     1     -32.305  -0.169 -18.629  1.00  0.00     0.043 A 
HETATM   20  C1  UNL     1     -33.583   0.051 -18.199  1.00  0.00     0.049 A 
HETATM   21  N1  UNL     1     -34.120   1.365 -18.139  1.00  0.00    -0.102 NA
HETATM   22  C23 UNL     1     -34.339  -1.039 -17.826  1.00  0.00     0.043 A 
HETATM   23  C22 UNL     1     -33.809  -2.330 -17.886  1.00  0.00     0.092 A 
ENDBRANCH  16  17
ENDBRANCH  15  16
ENDBRANCH  12  15
ENDBRANCH   1   9
BRANCH   2  24
HETATM   24  C12 UNL     1     -30.942  -4.686 -10.736  1.00  0.00    -0.016 A 
HETATM   25  C13 UNL     1     -29.708  -4.418 -10.120  1.00  0.00     0.014 A 
HETATM   26  C14 UNL     1     -28.764  -5.397  -9.899  1.00  0.00     0.030 A 
HETATM   27  C15 UNL     1     -28.995  -6.693 -10.277  1.00  0.00     0.085 A 
HETATM   28  N3  UNL     1     -28.039  -7.718 -10.060  1.00  0.00    -0.099 NA
HETATM   29  C16 UNL     1     -30.195  -6.976 -10.881  1.00  0.00     0.141 A 
HETATM   30  F1  UNL     1     -30.476  -8.242 -11.276  1.00  0.00    -0.204 F 
HETATM   31  C17 UNL     1     -31.143  -5.972 -11.099  1.00  0.00     0.056 A 
ENDBRANCH   2  24
TORSDOF 5
ENDMDL
