MODEL 1
REMARK VINA RESULT: -6.354336397      0.000      0.000
REMARK  6 active torsions:
REMARK  status: ('A' for Active; 'I' for Inactive)
REMARK    1  A    between atoms: C2_2  and  N1_3 
REMARK    2  A    between atoms: N1_3  and  C3_5 
REMARK    3  A    between atoms: C5_9  and  S1_10 
REMARK    4  A    between atoms: S1_10  and  C6_12 
REMARK    5  A    between atoms: C8_19  and  C9_20 
REMARK    6  A    between atoms: C9_20  and  C10_21 
ROOT
HETATM    1  C3  UNL     1     -31.747  -3.779 -11.498  1.00  0.00     0.226 A 
HETATM    2  N2  UNL     1     -31.682  -3.233 -12.742  1.00  0.00    -0.319 N 
ATOM      3  H2  UNL     1     -32.486  -2.710 -13.086  1.00  0.00     0.169 HD
HETATM    4  C4  UNL     1     -30.607  -3.351 -13.537  1.00  0.00     0.086 A 
HETATM    5  C5  UNL     1     -30.604  -2.766 -14.799  1.00  0.00     0.135 A 
HETATM    6  N5  UNL     1     -29.502  -2.918 -15.538  1.00  0.00    -0.356 N 
ATOM      7  H5  UNL     1     -29.472  -2.499 -16.467  1.00  0.00     0.166 HD
HETATM    8  C14 UNL     1     -28.422  -3.609 -15.098  1.00  0.00     0.090 A 
HETATM    9  C15 UNL     1     -28.435  -4.185 -13.846  1.00  0.00     0.034 A 
HETATM   10  C16 UNL     1     -29.540  -4.057 -13.052  1.00  0.00     0.041 A 
HETATM   11  C17 UNL     1     -29.604  -4.617 -11.776  1.00  0.00     0.161 A 
HETATM   12 CL1  UNL     1     -28.235  -5.505 -11.195  1.00  0.00    -0.055 Cl
HETATM   13  O3  UNL     1     -30.706  -4.448 -11.068  1.00  0.00    -0.266 OA
ENDROOT
BRANCH   5  14
HETATM   14  S1  UNL     1     -32.041  -1.909 -15.296  1.00  0.00     0.123 S 
HETATM   15  O1  UNL     1     -32.548  -0.870 -14.107  1.00  0.00    -0.244 OA
BRANCH  14  16
HETATM   16  C6  UNL     1     -31.691  -1.115 -16.798  1.00  0.00     0.134 A 
HETATM   17  N3  UNL     1     -31.368   0.189 -16.871  1.00  0.00    -0.299 N 
HETATM   18  C7  UNL     1     -31.135   0.516 -18.153  1.00  0.00     0.325 A 
ATOM     19  H3  UNL     1     -31.310   0.828 -16.078  1.00  0.00     0.171 HD
HETATM   20  O2  UNL     1     -30.807   1.683 -18.545  1.00  0.00    -0.247 OA
HETATM   21  N4  UNL     1     -31.314  -0.590 -18.874  1.00  0.00    -0.309 N 
HETATM   22  C8  UNL     1     -31.660  -1.623 -18.059  1.00  0.00     0.053 A 
ATOM     23  H4  UNL     1     -31.207  -0.652 -19.887  1.00  0.00     0.170 HD
BRANCH  22  24
HETATM   24  C9  UNL     1     -31.924  -2.965 -18.503  1.00  0.00     0.087 C 
BRANCH  24  25
HETATM   25  C10 UNL     1     -33.318  -3.202 -18.958  1.00  0.00    -0.019 C 
HETATM   26  C11 UNL     1     -34.121  -4.100 -18.377  1.00  0.00    -0.091 C 
HETATM   27  C12 UNL     1     -33.580  -4.877 -17.237  1.00  0.00     0.042 C 
HETATM   28  C13 UNL     1     -35.510  -4.314 -18.863  1.00  0.00     0.042 C 
ENDBRANCH  24  25
ENDBRANCH  22  24
ENDBRANCH  14  16
ENDBRANCH   5  14
BRANCH   1  29
HETATM   29  N1  UNL     1     -32.833  -3.597 -10.830  1.00  0.00    -0.356 N 
ATOM     30  H1  UNL     1     -33.656  -4.176 -10.998  1.00  0.00     0.163 HD
BRANCH  29  31
HETATM   31  C2  UNL     1     -32.852  -2.545  -9.834  1.00  0.00     0.118 C 
HETATM   32  C1  UNL     1     -33.633  -1.322 -10.332  1.00  0.00     0.026 C 
ENDBRANCH  29  31
ENDBRANCH   1  29
TORSDOF 6
ENDMDL
MODEL 2
REMARK VINA RESULT: -6.260386950      3.836      7.316
REMARK  6 active torsions:
REMARK  status: ('A' for Active; 'I' for Inactive)
REMARK    1  A    between atoms: C2_2  and  N1_3 
REMARK    2  A    between atoms: N1_3  and  C3_5 
REMARK    3  A    between atoms: C5_9  and  S1_10 
REMARK    4  A    between atoms: S1_10  and  C6_12 
REMARK    5  A    between atoms: C8_19  and  C9_20 
REMARK    6  A    between atoms: C9_20  and  C10_21 
ROOT
HETATM    1  C3  UNL     1     -32.130  -3.800 -13.438  1.00  0.00     0.226 A 
HETATM    2  N2  UNL     1     -30.858  -4.265 -13.318  1.00  0.00    -0.319 N 
ATOM      3  H2  UNL     1     -30.387  -4.612 -14.153  1.00  0.00     0.169 HD
HETATM    4  C4  UNL     1     -30.194  -4.290 -12.152  1.00  0.00     0.086 A 
HETATM    5  C5  UNL     1     -28.892  -4.778 -12.099  1.00  0.00     0.135 A 
HETATM    6  N5  UNL     1     -28.288  -4.770 -10.909  1.00  0.00    -0.356 N 
ATOM      7  H5  UNL     1     -27.333  -5.122 -10.840  1.00  0.00     0.166 HD
HETATM    8  C14 UNL     1     -28.897  -4.313  -9.787  1.00  0.00     0.090 A 
HETATM    9  C15 UNL     1     -30.187  -3.832  -9.850  1.00  0.00     0.034 A 
HETATM   10  C16 UNL     1     -30.848  -3.819 -11.046  1.00  0.00     0.041 A 
HETATM   11  C17 UNL     1     -32.152  -3.339 -11.166  1.00  0.00     0.161 A 
HETATM   12 CL1  UNL     1     -32.950  -2.751  -9.746  1.00  0.00    -0.055 Cl
HETATM   13  O3  UNL     1     -32.723  -3.356 -12.358  1.00  0.00    -0.266 OA
ENDROOT
BRANCH   5  14
HETATM   14  S1  UNL     1     -28.188  -5.364 -13.585  1.00  0.00     0.123 S 
HETATM   15  O1  UNL     1     -28.638  -4.412 -14.866  1.00  0.00    -0.244 OA
BRANCH  14  16
HETATM   16  C6  UNL     1     -26.469  -5.444 -13.359  1.00  0.00     0.134 A 
HETATM   17  N3  UNL     1     -25.642  -4.452 -13.735  1.00  0.00    -0.299 N 
HETATM   18  C7  UNL     1     -24.380  -4.786 -13.420  1.00  0.00     0.325 A 
ATOM     19  H3  UNL     1     -25.929  -3.584 -14.188  1.00  0.00     0.171 HD
HETATM   20  O2  UNL     1     -23.366  -4.050 -13.651  1.00  0.00    -0.247 OA
HETATM   21  N4  UNL     1     -24.427  -5.988 -12.847  1.00  0.00    -0.309 N 
HETATM   22  C8  UNL     1     -25.715  -6.424 -12.794  1.00  0.00     0.053 A 
ATOM     23  H4  UNL     1     -23.619  -6.504 -12.500  1.00  0.00     0.170 HD
BRANCH  22  24
HETATM   24  C9  UNL     1     -26.133  -7.681 -12.234  1.00  0.00     0.087 C 
BRANCH  24  25
HETATM   25  C10 UNL     1     -26.170  -7.713 -10.749  1.00  0.00    -0.019 C 
HETATM   26  C11 UNL     1     -27.276  -8.026 -10.064  1.00  0.00    -0.091 C 
HETATM   27  C12 UNL     1     -28.498  -8.352 -10.836  1.00  0.00     0.042 C 
HETATM   28  C13 UNL     1     -27.278  -8.043  -8.578  1.00  0.00     0.042 C 
ENDBRANCH  24  25
ENDBRANCH  22  24
ENDBRANCH  14  16
ENDBRANCH   5  14
BRANCH   1  29
HETATM   29  N1  UNL     1     -32.661  -3.828 -14.611  1.00  0.00    -0.356 N 
ATOM     30  H1  UNL     1     -33.464  -4.423 -14.810  1.00  0.00     0.163 HD
BRANCH  29  31
HETATM   31  C2  UNL     1     -32.082  -2.988 -15.641  1.00  0.00     0.118 C 
HETATM   32  C1  UNL     1     -32.190  -1.503 -15.272  1.00  0.00     0.026 C 
ENDBRANCH  29  31
ENDBRANCH   1  29
TORSDOF 6
ENDMDL
MODEL 3
REMARK VINA RESULT: -6.244373056      4.131      7.600
REMARK  6 active torsions:
REMARK  status: ('A' for Active; 'I' for Inactive)
REMARK    1  A    between atoms: C2_2  and  N1_3 
REMARK    2  A    between atoms: N1_3  and  C3_5 
REMARK    3  A    between atoms: C5_9  and  S1_10 
REMARK    4  A    between atoms: S1_10  and  C6_12 
REMARK    5  A    between atoms: C8_19  and  C9_20 
REMARK    6  A    between atoms: C9_20  and  C10_21 
ROOT
HETATM    1  C3  UNL     1     -32.131  -3.320 -11.838  1.00  0.00     0.226 A 
HETATM    2  N2  UNL     1     -30.924  -3.935 -11.728  1.00  0.00    -0.319 N 
ATOM      3  H2  UNL     1     -30.713  -4.440 -10.868  1.00  0.00     0.169 HD
HETATM    4  C4  UNL     1     -29.997  -3.909 -12.698  1.00  0.00     0.086 A 
HETATM    5  C5  UNL     1     -28.782  -4.563 -12.522  1.00  0.00     0.135 A 
HETATM    6  N5  UNL     1     -27.906  -4.501 -13.528  1.00  0.00    -0.356 N 
ATOM      7  H5  UNL     1     -27.007  -4.971 -13.426  1.00  0.00     0.166 HD
HETATM    8  C14 UNL     1     -28.168  -3.835 -14.680  1.00  0.00     0.090 A 
HETATM    9  C15 UNL     1     -29.375  -3.191 -14.845  1.00  0.00     0.034 A 
HETATM   10  C16 UNL     1     -30.305  -3.226 -13.843  1.00  0.00     0.041 A 
HETATM   11  C17 UNL     1     -31.543  -2.594 -13.960  1.00  0.00     0.161 A 
HETATM   12 CL1  UNL     1     -31.898  -1.737 -15.422  1.00  0.00    -0.055 Cl
HETATM   13  O3  UNL     1     -32.390  -2.675 -12.949  1.00  0.00    -0.266 OA
ENDROOT
BRANCH   5  14
HETATM   14  S1  UNL     1     -28.517  -5.381 -11.003  1.00  0.00     0.123 S 
HETATM   15  O1  UNL     1     -29.026  -4.445  -9.733  1.00  0.00    -0.244 OA
BRANCH  14  16
HETATM   16  C6  UNL     1     -29.315  -6.920 -11.086  1.00  0.00     0.134 A 
HETATM   17  N3  UNL     1     -30.584  -7.101 -10.675  1.00  0.00    -0.299 N 
HETATM   18  C7  UNL     1     -30.934  -8.382 -10.876  1.00  0.00     0.325 A 
ATOM     19  H3  UNL     1     -31.183  -6.380 -10.275  1.00  0.00     0.171 HD
HETATM   20  O2  UNL     1     -32.077  -8.865 -10.587  1.00  0.00    -0.247 OA
HETATM   21  N4  UNL     1     -29.879  -8.994 -11.412  1.00  0.00    -0.309 N 
HETATM   22  C8  UNL     1     -28.855  -8.110 -11.556  1.00  0.00     0.053 A 
ATOM     23  H4  UNL     1     -29.845  -9.979 -11.676  1.00  0.00     0.170 HD
BRANCH  22  24
HETATM   24  C9  UNL     1     -27.567  -8.429 -12.108  1.00  0.00     0.087 C 
BRANCH  24  25
HETATM   25  C10 UNL     1     -26.473  -8.528 -11.107  1.00  0.00    -0.019 C 
HETATM   26  C11 UNL     1     -25.352  -7.803 -11.193  1.00  0.00    -0.091 C 
HETATM   27  C12 UNL     1     -25.217  -6.872 -12.338  1.00  0.00     0.042 C 
HETATM   28  C13 UNL     1     -24.276  -7.932 -10.176  1.00  0.00     0.042 C 
ENDBRANCH  24  25
ENDBRANCH  22  24
ENDBRANCH  14  16
ENDBRANCH   5  14
BRANCH   1  29
HETATM   29  N1  UNL     1     -32.937  -3.416 -10.838  1.00  0.00    -0.356 N 
ATOM     30  H1  UNL     1     -33.612  -4.178 -10.779  1.00  0.00     0.163 HD
BRANCH  29  31
HETATM   31  C2  UNL     1     -32.855  -2.410  -9.798  1.00  0.00     0.118 C 
HETATM   32  C1  UNL     1     -33.644  -1.151 -10.181  1.00  0.00     0.026 C 
ENDBRANCH  29  31
ENDBRANCH   1  29
TORSDOF 6
ENDMDL
MODEL 4
REMARK VINA RESULT: -6.224544791      2.683      4.387
REMARK  6 active torsions:
REMARK  status: ('A' for Active; 'I' for Inactive)
REMARK    1  A    between atoms: C2_2  and  N1_3 
REMARK    2  A    between atoms: N1_3  and  C3_5 
REMARK    3  A    between atoms: C5_9  and  S1_10 
REMARK    4  A    between atoms: S1_10  and  C6_12 
REMARK    5  A    between atoms: C8_19  and  C9_20 
REMARK    6  A    between atoms: C9_20  and  C10_21 
ROOT
HETATM    1  C3  UNL     1     -31.392  -3.683 -10.118  1.00  0.00     0.226 A 
HETATM    2  N2  UNL     1     -31.490  -4.252 -11.349  1.00  0.00    -0.319 N 
ATOM      3  H2  UNL     1     -32.239  -3.945 -11.968  1.00  0.00     0.169 HD
HETATM    4  C4  UNL     1     -30.647  -5.200 -11.787  1.00  0.00     0.086 A 
HETATM    5  C5  UNL     1     -30.802  -5.740 -13.059  1.00  0.00     0.135 A 
HETATM    6  N5  UNL     1     -29.926  -6.676 -13.434  1.00  0.00    -0.356 N 
ATOM      7  H5  UNL     1     -30.016  -7.090 -14.362  1.00  0.00     0.166 HD
HETATM    8  C14 UNL     1     -28.923  -7.099 -12.626  1.00  0.00     0.090 A 
HETATM    9  C15 UNL     1     -28.778  -6.558 -11.366  1.00  0.00     0.034 A 
HETATM   10  C16 UNL     1     -29.649  -5.596 -10.937  1.00  0.00     0.041 A 
HETATM   11  C17 UNL     1     -29.545  -5.013  -9.674  1.00  0.00     0.161 A 
HETATM   12 CL1  UNL     1     -28.272  -5.537  -8.625  1.00  0.00    -0.055 Cl
HETATM   13  O3  UNL     1     -30.424  -4.086  -9.333  1.00  0.00    -0.266 OA
ENDROOT
BRANCH   5  14
HETATM   14  S1  UNL     1     -32.129  -5.155 -14.029  1.00  0.00     0.123 S 
HETATM   15  O1  UNL     1     -33.519  -5.063 -13.131  1.00  0.00    -0.244 OA
BRANCH  14  16
HETATM   16  C6  UNL     1     -31.652  -3.634 -14.715  1.00  0.00     0.134 A 
HETATM   17  N3  UNL     1     -32.507  -2.605 -14.862  1.00  0.00    -0.299 N 
HETATM   18  C7  UNL     1     -31.855  -1.561 -15.400  1.00  0.00     0.325 A 
ATOM     19  H3  UNL     1     -33.494  -2.617 -14.605  1.00  0.00     0.171 HD
HETATM   20  O2  UNL     1     -32.394  -0.438 -15.662  1.00  0.00    -0.247 OA
HETATM   21  N4  UNL     1     -30.593  -1.946 -15.586  1.00  0.00    -0.309 N 
HETATM   22  C8  UNL     1     -30.435  -3.232 -15.169  1.00  0.00     0.053 A 
ATOM     23  H4  UNL     1     -29.855  -1.364 -15.982  1.00  0.00     0.170 HD
BRANCH  22  24
HETATM   24  C9  UNL     1     -29.199  -3.965 -15.218  1.00  0.00     0.087 C 
BRANCH  24  25
HETATM   25  C10 UNL     1     -28.184  -3.532 -14.223  1.00  0.00    -0.019 C 
HETATM   26  C11 UNL     1     -27.000  -4.139 -14.094  1.00  0.00    -0.091 C 
HETATM   27  C12 UNL     1     -26.708  -5.284 -14.988  1.00  0.00     0.042 C 
HETATM   28  C13 UNL     1     -26.010  -3.682 -13.083  1.00  0.00     0.042 C 
ENDBRANCH  24  25
ENDBRANCH  22  24
ENDBRANCH  14  16
ENDBRANCH   5  14
BRANCH   1  29
HETATM   29  N1  UNL     1     -32.261  -2.783  -9.813  1.00  0.00    -0.356 N 
ATOM     30  H1  UNL     1     -32.283  -2.369  -8.881  1.00  0.00     0.163 HD
BRANCH  29  31
HETATM   31  C2  UNL     1     -33.207  -2.377 -10.833  1.00  0.00     0.118 C 
HETATM   32  C1  UNL     1     -33.894  -1.057 -10.458  1.00  0.00     0.026 C 
ENDBRANCH  29  31
ENDBRANCH   1  29
TORSDOF 6
ENDMDL
MODEL 5
REMARK VINA RESULT: -6.184361420      4.832      7.156
REMARK  6 active torsions:
REMARK  status: ('A' for Active; 'I' for Inactive)
REMARK    1  A    between atoms: C2_2  and  N1_3 
REMARK    2  A    between atoms: N1_3  and  C3_5 
REMARK    3  A    between atoms: C5_9  and  S1_10 
REMARK    4  A    between atoms: S1_10  and  C6_12 
REMARK    5  A    between atoms: C8_19  and  C9_20 
REMARK    6  A    between atoms: C9_20  and  C10_21 
ROOT
HETATM    1  C3  UNL     1     -27.024  -5.646 -12.874  1.00  0.00     0.226 A 
HETATM    2  N2  UNL     1     -27.806  -5.615 -11.762  1.00  0.00    -0.319 N 
ATOM      3  H2  UNL     1     -28.551  -4.921 -11.712  1.00  0.00     0.169 HD
HETATM    4  C4  UNL     1     -27.642  -6.454 -10.728  1.00  0.00     0.086 A 
HETATM    5  C5  UNL     1     -28.479  -6.370  -9.620  1.00  0.00     0.135 A 
HETATM    6  N5  UNL     1     -28.264  -7.237  -8.628  1.00  0.00    -0.356 N 
ATOM      7  H5  UNL     1     -28.863  -7.198  -7.803  1.00  0.00     0.166 HD
HETATM    8  C14 UNL     1     -27.280  -8.167  -8.676  1.00  0.00     0.090 A 
HETATM    9  C15 UNL     1     -26.456  -8.243  -9.778  1.00  0.00     0.034 A 
HETATM   10  C16 UNL     1     -26.635  -7.377 -10.820  1.00  0.00     0.041 A 
HETATM   11  C17 UNL     1     -25.832  -7.412 -11.960  1.00  0.00     0.161 A 
HETATM   12 CL1  UNL     1     -24.568  -8.592 -12.042  1.00  0.00    -0.055 Cl
HETATM   13  O3  UNL     1     -26.071  -6.543 -12.926  1.00  0.00    -0.266 OA
ENDROOT
BRANCH   5  14
HETATM   14  S1  UNL     1     -29.710  -5.133  -9.630  1.00  0.00     0.123 S 
HETATM   15  O1  UNL     1     -29.034  -3.630  -9.810  1.00  0.00    -0.244 OA
BRANCH  14  16
HETATM   16  C6  UNL     1     -30.848  -5.529 -10.879  1.00  0.00     0.134 A 
HETATM   17  N3  UNL     1     -31.284  -6.784 -11.090  1.00  0.00    -0.299 N 
HETATM   18  C7  UNL     1     -32.164  -6.782 -12.105  1.00  0.00     0.325 A 
ATOM     19  H3  UNL     1     -30.991  -7.607 -10.563  1.00  0.00     0.171 HD
HETATM   20  O2  UNL     1     -32.754  -7.822 -12.543  1.00  0.00    -0.247 OA
HETATM   21  N4  UNL     1     -32.273  -5.521 -12.521  1.00  0.00    -0.309 N 
HETATM   22  C8  UNL     1     -31.466  -4.716 -11.777  1.00  0.00     0.053 A 
ATOM     23  H4  UNL     1     -32.872  -5.205 -13.283  1.00  0.00     0.170 HD
BRANCH  22  24
HETATM   24  C9  UNL     1     -31.339  -3.295 -11.951  1.00  0.00     0.087 C 
BRANCH  24  25
HETATM   25  C10 UNL     1     -32.616  -2.544 -11.849  1.00  0.00    -0.019 C 
HETATM   26  C11 UNL     1     -33.033  -1.986 -10.706  1.00  0.00    -0.091 C 
HETATM   27  C12 UNL     1     -32.171  -2.134  -9.510  1.00  0.00     0.042 C 
HETATM   28  C13 UNL     1     -34.320  -1.246 -10.640  1.00  0.00     0.042 C 
ENDBRANCH  24  25
ENDBRANCH  22  24
ENDBRANCH  14  16
ENDBRANCH   5  14
BRANCH   1  29
HETATM   29  N1  UNL     1     -27.280  -4.788 -13.800  1.00  0.00    -0.356 N 
ATOM     30  H1  UNL     1     -26.538  -4.220 -14.208  1.00  0.00     0.163 HD
BRANCH  29  31
HETATM   31  C2  UNL     1     -28.653  -4.655 -14.244  1.00  0.00     0.118 C 
HETATM   32  C1  UNL     1     -28.922  -3.250 -14.799  1.00  0.00     0.026 C 
ENDBRANCH  29  31
ENDBRANCH   1  29
TORSDOF 6
ENDMDL
