MODEL 1
REMARK VINA RESULT: -4.760007959      0.000      0.000
REMARK  6 active torsions:
REMARK  status: ('A' for Active; 'I' for Inactive)
REMARK    1  A    between atoms: N1_1  and  C1_4 
REMARK    2  A    between atoms: C3_13  and  O2_14 
REMARK    3  A    between atoms: O2_14  and  S1_15 
REMARK    4  A    between atoms: S1_15  and  N5_16 
REMARK    5  A    between atoms: S1_15  and  N6_20 
REMARK    6  A    between atoms: N6_20  and  N7_22 
ROOT
HETATM    1  C1  UNL     1      11.991  25.305  -7.921  1.00  0.00     0.157 A 
HETATM    2  N2  UNL     1      12.335  24.406  -8.861  1.00  0.00    -0.290 N 
ATOM      3  H2  UNL     1      13.288  24.411  -9.226  1.00  0.00     0.172 HD
HETATM    4  C2  UNL     1      11.463  23.505  -9.332  1.00  0.00     0.340 A 
HETATM    5  O1  UNL     1      11.879  22.695 -10.218  1.00  0.00    -0.245 OA
HETATM    6  N3  UNL     1      10.223  23.489  -8.864  1.00  0.00    -0.249 N 
ATOM      7  H3  UNL     1       9.549  22.808  -9.214  1.00  0.00     0.192 HD
HETATM    8  N4  UNL     1       9.872  24.355  -7.951  1.00  0.00    -0.272 N 
ATOM      9  H4  UNL     1       8.913  24.328  -7.604  1.00  0.00     0.189 HD
HETATM   10  C3  UNL     1      10.703  25.276  -7.448  1.00  0.00     0.219 A 
ENDROOT
BRANCH  10  11
HETATM   11  O2  UNL     1      10.226  26.136  -6.491  1.00  0.00    -0.208 OA
BRANCH  11  12
HETATM   12  S1  UNL     1      10.552  25.981  -4.834  1.00  0.00     0.253 S 
HETATM   13  O3  UNL     1      11.808  25.203  -4.589  1.00  0.00    -0.197 OA
BRANCH  12  14
HETATM   14  N5  UNL     1      10.574  27.536  -4.129  1.00  0.00    -0.322 N 
ATOM     15  H52 UNL     1       9.864  27.895  -3.491  1.00  0.00     0.169 HD
ATOM     16  H51 UNL     1      11.405  28.031  -4.450  1.00  0.00     0.169 HD
ENDBRANCH  12  14
BRANCH  12  17
HETATM   17  N6  UNL     1       9.383  25.171  -4.138  1.00  0.00    -0.228 N 
ATOM     18  H6  UNL     1       8.631  24.738  -4.674  1.00  0.00     0.200 HD
BRANCH  17  19
HETATM   19  N7  UNL     1       9.443  25.085  -2.752  1.00  0.00    -0.335 N 
ATOM     20  H72 UNL     1      10.287  24.761  -2.281  1.00  0.00     0.177 HD
ATOM     21  H71 UNL     1       8.599  25.364  -2.250  1.00  0.00     0.177 HD
ENDBRANCH  17  19
ENDBRANCH  12  17
ENDBRANCH  11  12
ENDBRANCH  10  11
BRANCH   1  22
HETATM   22  N1  UNL     1      12.825  26.159  -7.475  1.00  0.00    -0.382 N 
ATOM     23  H12 UNL     1      13.680  25.854  -7.012  1.00  0.00     0.157 HD
ATOM     24  H11 UNL     1      12.665  27.163  -7.567  1.00  0.00     0.157 HD
ENDBRANCH   1  22
TORSDOF 6
ENDMDL
MODEL 2
REMARK VINA RESULT: -4.714664360      3.445      5.958
REMARK  6 active torsions:
REMARK  status: ('A' for Active; 'I' for Inactive)
REMARK    1  A    between atoms: N1_1  and  C1_4 
REMARK    2  A    between atoms: C3_13  and  O2_14 
REMARK    3  A    between atoms: O2_14  and  S1_15 
REMARK    4  A    between atoms: S1_15  and  N5_16 
REMARK    5  A    between atoms: S1_15  and  N6_20 
REMARK    6  A    between atoms: N6_20  and  N7_22 
ROOT
HETATM    1  C1  UNL     1      12.691  24.574  -8.775  1.00  0.00     0.157 A 
HETATM    2  N2  UNL     1      11.642  25.079  -8.103  1.00  0.00    -0.290 N 
ATOM      3  H2  UNL     1      11.778  25.905  -7.521  1.00  0.00     0.172 HD
HETATM    4  C2  UNL     1      10.422  24.529  -8.176  1.00  0.00     0.340 A 
HETATM    5  O1  UNL     1       9.491  25.077  -7.507  1.00  0.00    -0.245 OA
HETATM    6  N3  UNL     1      10.233  23.455  -8.931  1.00  0.00    -0.249 N 
ATOM      7  H3  UNL     1       9.310  23.027  -8.995  1.00  0.00     0.192 HD
HETATM    8  N4  UNL     1      11.241  22.951  -9.590  1.00  0.00    -0.272 N 
ATOM      9  H4  UNL     1      11.077  22.125 -10.166  1.00  0.00     0.189 HD
HETATM   10  C3  UNL     1      12.479  23.461  -9.552  1.00  0.00     0.219 A 
ENDROOT
BRANCH  10  11
HETATM   11  O2  UNL     1      13.463  22.849 -10.286  1.00  0.00    -0.208 OA
BRANCH  11  12
HETATM   12  S1  UNL     1      14.577  21.745  -9.640  1.00  0.00     0.253 S 
HETATM   13  O3  UNL     1      15.279  22.306  -8.443  1.00  0.00    -0.197 OA
BRANCH  12  14
HETATM   14  N5  UNL     1      13.773  20.273  -9.322  1.00  0.00    -0.322 N 
ATOM     15  H52 UNL     1      12.839  20.037  -9.656  1.00  0.00     0.169 HD
ATOM     16  H51 UNL     1      14.380  19.683  -8.754  1.00  0.00     0.169 HD
ENDBRANCH  12  14
BRANCH  12  17
HETATM   17  N6  UNL     1      15.702  21.439 -10.713  1.00  0.00    -0.228 N 
ATOM     18  H6  UNL     1      16.288  22.175 -11.106  1.00  0.00     0.200 HD
BRANCH  17  19
HETATM   19  N7  UNL     1      15.840  20.108 -11.085  1.00  0.00    -0.335 N 
ATOM     20  H72 UNL     1      15.417  19.360 -10.537  1.00  0.00     0.177 HD
ATOM     21  H71 UNL     1      16.386  19.935 -11.930  1.00  0.00     0.177 HD
ENDBRANCH  17  19
ENDBRANCH  12  17
ENDBRANCH  11  12
ENDBRANCH  10  11
BRANCH   1  22
HETATM   22  N1  UNL     1      13.848  25.101  -8.705  1.00  0.00    -0.382 N 
ATOM     23  H12 UNL     1      14.365  25.099  -7.826  1.00  0.00     0.157 HD
ATOM     24  H11 UNL     1      14.289  25.536  -9.516  1.00  0.00     0.157 HD
ENDBRANCH   1  22
TORSDOF 6
ENDMDL
MODEL 3
REMARK VINA RESULT: -4.637955380      1.192      2.054
REMARK  6 active torsions:
REMARK  status: ('A' for Active; 'I' for Inactive)
REMARK    1  A    between atoms: N1_1  and  C1_4 
REMARK    2  A    between atoms: C3_13  and  O2_14 
REMARK    3  A    between atoms: O2_14  and  S1_15 
REMARK    4  A    between atoms: S1_15  and  N5_16 
REMARK    5  A    between atoms: S1_15  and  N6_20 
REMARK    6  A    between atoms: N6_20  and  N7_22 
ROOT
HETATM    1  C1  UNL     1      10.664  23.788  -8.544  1.00  0.00     0.157 A 
HETATM    2  N2  UNL     1      11.152  22.654  -9.077  1.00  0.00    -0.290 N 
ATOM      3  H2  UNL     1      10.511  22.007  -9.537  1.00  0.00     0.172 HD
HETATM    4  C2  UNL     1      12.455  22.349  -9.022  1.00  0.00     0.340 A 
HETATM    5  O1  UNL     1      12.825  21.256  -9.555  1.00  0.00    -0.245 OA
HETATM    6  N3  UNL     1      13.297  23.183  -8.427  1.00  0.00    -0.249 N 
ATOM      7  H3  UNL     1      14.292  22.962  -8.379  1.00  0.00     0.192 HD
HETATM    8  N4  UNL     1      12.840  24.289  -7.903  1.00  0.00    -0.272 N 
ATOM      9  H4  UNL     1      13.503  24.917  -7.450  1.00  0.00     0.189 HD
HETATM   10  C3  UNL     1      11.549  24.640  -7.930  1.00  0.00     0.219 A 
ENDROOT
BRANCH  10  11
HETATM   11  O2  UNL     1      11.181  25.827  -7.348  1.00  0.00    -0.208 OA
BRANCH  11  12
HETATM   12  S1  UNL     1      11.018  26.049  -5.674  1.00  0.00     0.253 S 
HETATM   13  O3  UNL     1      12.018  25.237  -4.911  1.00  0.00    -0.197 OA
BRANCH  12  14
HETATM   14  N5  UNL     1      11.100  27.719  -5.329  1.00  0.00    -0.322 N 
ATOM     15  H52 UNL     1      11.727  28.141  -4.645  1.00  0.00     0.169 HD
ATOM     16  H51 UNL     1      10.425  28.209  -5.916  1.00  0.00     0.169 HD
ENDBRANCH  12  14
BRANCH  12  17
HETATM   17  N6  UNL     1       9.589  25.547  -5.210  1.00  0.00    -0.228 N 
ATOM     18  H6  UNL     1       8.793  25.519  -5.847  1.00  0.00     0.200 HD
BRANCH  17  19
HETATM   19  N7  UNL     1       9.486  25.147  -3.883  1.00  0.00    -0.335 N 
ATOM     20  H72 UNL     1       8.917  25.670  -3.218  1.00  0.00     0.177 HD
ATOM     21  H71 UNL     1      10.011  24.310  -3.628  1.00  0.00     0.177 HD
ENDBRANCH  17  19
ENDBRANCH  12  17
ENDBRANCH  11  12
ENDBRANCH  10  11
BRANCH   1  22
HETATM   22  N1  UNL     1       9.424  24.075  -8.600  1.00  0.00    -0.382 N 
ATOM     23  H12 UNL     1       9.035  24.527  -9.427  1.00  0.00     0.157 HD
ATOM     24  H11 UNL     1       8.789  23.863  -7.830  1.00  0.00     0.157 HD
ENDBRANCH   1  22
TORSDOF 6
ENDMDL
MODEL 4
REMARK VINA RESULT: -4.636493403      3.459      5.627
REMARK  6 active torsions:
REMARK  status: ('A' for Active; 'I' for Inactive)
REMARK    1  A    between atoms: N1_1  and  C1_4 
REMARK    2  A    between atoms: C3_13  and  O2_14 
REMARK    3  A    between atoms: O2_14  and  S1_15 
REMARK    4  A    between atoms: S1_15  and  N5_16 
REMARK    5  A    between atoms: S1_15  and  N6_20 
REMARK    6  A    between atoms: N6_20  and  N7_22 
ROOT
HETATM    1  C1  UNL     1      12.744  24.620  -8.768  1.00  0.00     0.157 A 
HETATM    2  N2  UNL     1      11.667  25.075  -8.103  1.00  0.00    -0.290 N 
ATOM      3  H2  UNL     1      11.766  25.890  -7.498  1.00  0.00     0.172 HD
HETATM    4  C2  UNL     1      10.468  24.488  -8.213  1.00  0.00     0.340 A 
HETATM    5  O1  UNL     1       9.507  24.989  -7.548  1.00  0.00    -0.245 OA
HETATM    6  N3  UNL     1      10.327  23.428  -8.996  1.00  0.00    -0.249 N 
ATOM      7  H3  UNL     1       9.419  22.973  -9.088  1.00  0.00     0.192 HD
HETATM    8  N4  UNL     1      11.363  22.973  -9.649  1.00  0.00    -0.272 N 
ATOM      9  H4  UNL     1      11.235  22.156 -10.247  1.00  0.00     0.189 HD
HETATM   10  C3  UNL     1      12.582  23.520  -9.575  1.00  0.00     0.219 A 
ENDROOT
BRANCH  10  11
HETATM   11  O2  UNL     1      13.598  22.959 -10.305  1.00  0.00    -0.208 OA
BRANCH  11  12
HETATM   12  S1  UNL     1      14.539  21.653  -9.768  1.00  0.00     0.253 S 
HETATM   13  O3  UNL     1      15.391  21.098 -10.866  1.00  0.00    -0.197 OA
BRANCH  12  14
HETATM   14  N5  UNL     1      15.436  22.145  -8.402  1.00  0.00    -0.322 N 
ATOM     15  H52 UNL     1      15.941  21.514  -7.779  1.00  0.00     0.169 HD
ATOM     16  H51 UNL     1      15.381  23.160  -8.319  1.00  0.00     0.169 HD
ENDBRANCH  12  14
BRANCH  12  17
HETATM   17  N6  UNL     1      13.590  20.474  -9.301  1.00  0.00    -0.228 N 
ATOM     18  H6  UNL     1      12.580  20.591  -9.222  1.00  0.00     0.200 HD
BRANCH  17  19
HETATM   19  N7  UNL     1      14.217  19.269  -9.005  1.00  0.00    -0.335 N 
ATOM     20  H72 UNL     1      15.057  18.977  -9.503  1.00  0.00     0.177 HD
ATOM     21  H71 UNL     1      13.784  18.710  -8.270  1.00  0.00     0.177 HD
ENDBRANCH  17  19
ENDBRANCH  12  17
ENDBRANCH  11  12
ENDBRANCH  10  11
BRANCH   1  22
HETATM   22  N1  UNL     1      13.882  25.182  -8.662  1.00  0.00    -0.382 N 
ATOM     23  H12 UNL     1      14.721  24.625  -8.499  1.00  0.00     0.157 HD
ATOM     24  H11 UNL     1      13.990  26.194  -8.739  1.00  0.00     0.157 HD
ENDBRANCH   1  22
TORSDOF 6
ENDMDL
MODEL 5
REMARK VINA RESULT: -4.542435645      1.018      1.926
REMARK  6 active torsions:
REMARK  status: ('A' for Active; 'I' for Inactive)
REMARK    1  A    between atoms: N1_1  and  C1_4 
REMARK    2  A    between atoms: C3_13  and  O2_14 
REMARK    3  A    between atoms: O2_14  and  S1_15 
REMARK    4  A    between atoms: S1_15  and  N5_16 
REMARK    5  A    between atoms: S1_15  and  N6_20 
REMARK    6  A    between atoms: N6_20  and  N7_22 
ROOT
HETATM    1  C1  UNL     1      10.745  24.055  -8.701  1.00  0.00     0.157 A 
HETATM    2  N2  UNL     1      11.587  23.412  -9.530  1.00  0.00    -0.290 N 
ATOM      3  H2  UNL     1      11.230  22.648 -10.103  1.00  0.00     0.172 HD
HETATM    4  C2  UNL     1      12.881  23.746  -9.623  1.00  0.00     0.340 A 
HETATM    5  O1  UNL     1      13.601  23.083 -10.433  1.00  0.00    -0.245 OA
HETATM    6  N3  UNL     1      13.355  24.738  -8.881  1.00  0.00    -0.249 N 
ATOM      7  H3  UNL     1      14.338  25.002  -8.943  1.00  0.00     0.192 HD
HETATM    8  N4  UNL     1      12.551  25.373  -8.072  1.00  0.00    -0.272 N 
ATOM      9  H4  UNL     1      12.934  26.133  -7.510  1.00  0.00     0.189 HD
HETATM   10  C3  UNL     1      11.251  25.079  -7.940  1.00  0.00     0.219 A 
ENDROOT
BRANCH  10  11
HETATM   11  O2  UNL     1      10.500  25.813  -7.058  1.00  0.00    -0.208 OA
BRANCH  11  12
HETATM   12  S1  UNL     1      10.809  25.895  -5.392  1.00  0.00     0.253 S 
HETATM   13  O3  UNL     1      12.022  25.103  -5.016  1.00  0.00    -0.197 OA
BRANCH  12  14
HETATM   14  N5  UNL     1      10.904  27.536  -4.929  1.00  0.00    -0.322 N 
ATOM     15  H52 UNL     1      10.721  28.326  -5.547  1.00  0.00     0.169 HD
ATOM     16  H51 UNL     1      11.171  27.585  -3.946  1.00  0.00     0.169 HD
ENDBRANCH  12  14
BRANCH  12  17
HETATM   17  N6  UNL     1       9.596  25.258  -4.597  1.00  0.00    -0.228 N 
ATOM     18  H6  UNL     1       8.693  25.083  -5.037  1.00  0.00     0.200 HD
BRANCH  17  19
HETATM   19  N7  UNL     1       9.837  24.950  -3.264  1.00  0.00    -0.335 N 
ATOM     20  H72 UNL     1      10.712  25.217  -2.812  1.00  0.00     0.177 HD
ATOM     21  H71 UNL     1       9.092  24.449  -2.779  1.00  0.00     0.177 HD
ENDBRANCH  17  19
ENDBRANCH  12  17
ENDBRANCH  11  12
ENDBRANCH  10  11
BRANCH   1  22
HETATM   22  N1  UNL     1       9.514  23.735  -8.618  1.00  0.00    -0.382 N 
ATOM     23  H12 UNL     1       9.098  23.097  -9.296  1.00  0.00     0.157 HD
ATOM     24  H11 UNL     1       8.914  24.102  -7.878  1.00  0.00     0.157 HD
ENDBRANCH   1  22
TORSDOF 6
ENDMDL
