MODEL 1
REMARK VINA RESULT: -3.854884509      0.000      0.000
REMARK  1 active torsions:
REMARK  status: ('A' for Active; 'I' for Inactive)
REMARK    1  A    between atoms: C3_3  and  C4_4 
ROOT
HETATM    1  C1  UNL     1     -18.112 -29.999  15.699  1.00  0.00     0.013 C 
HETATM    2  C2  UNL     1     -17.739 -28.601  15.281  1.00  0.00     0.027 C 
HETATM    3  C3  UNL     1     -18.976 -27.882  14.802  1.00  0.00     0.055 C 
HETATM    4  C5  UNL     1     -18.728 -27.478  13.373  1.00  0.00     0.243 C 
HETATM    5  N2  UNL     1     -17.566 -28.184  12.952  1.00  0.00    -0.066 N 
ATOM      6  H21 UNL     1     -16.980 -27.626  12.331  1.00  0.00     0.278 HD
ATOM      7  H22 UNL     1     -17.788 -28.939  12.304  1.00  0.00     0.278 HD
HETATM    8  C6  UNL     1     -16.849 -28.649  14.095  1.00  0.00     0.122 C 
HETATM    9  C7  UNL     1     -15.619 -27.789  14.406  1.00  0.00     0.046 C 
HETATM   10  C8  UNL     1     -16.316 -30.030  13.789  1.00  0.00     0.046 C 
ENDROOT
BRANCH   3  11
HETATM   11  C4  UNL     1     -19.246 -26.648  15.578  1.00  0.00     0.059 C 
HETATM   12  N1  UNL     1     -18.943 -25.483  15.157  1.00  0.00    -0.411 N 
ATOM     13  H12 UNL     1     -18.495 -25.414  14.243  1.00  0.00     0.155 HD
ATOM     14  H11 UNL     1     -19.129 -24.633  15.691  1.00  0.00     0.155 HD
ENDBRANCH   3  11
TORSDOF 1
ENDMDL
MODEL 2
REMARK VINA RESULT: -3.846958736      1.505      3.333
REMARK  1 active torsions:
REMARK  status: ('A' for Active; 'I' for Inactive)
REMARK    1  A    between atoms: C3_3  and  C4_4 
ROOT
HETATM    1  C1  UNL     1     -17.935 -30.534  15.698  1.00  0.00     0.013 C 
HETATM    2  C2  UNL     1     -17.970 -29.180  15.039  1.00  0.00     0.027 C 
HETATM    3  C3  UNL     1     -16.689 -28.971  14.271  1.00  0.00     0.055 C 
HETATM    4  C5  UNL     1     -16.024 -27.748  14.844  1.00  0.00     0.243 C 
HETATM    5  N2  UNL     1     -16.704 -27.453  16.059  1.00  0.00    -0.066 N 
ATOM      6  H21 UNL     1     -16.793 -26.449  16.216  1.00  0.00     0.278 HD
ATOM      7  H22 UNL     1     -16.142 -27.680  16.879  1.00  0.00     0.278 HD
HETATM    8  C6  UNL     1     -17.968 -28.115  16.071  1.00  0.00     0.122 C 
HETATM    9  C7  UNL     1     -19.130 -27.167  15.759  1.00  0.00     0.046 C 
HETATM   10  C8  UNL     1     -18.220 -28.624  17.473  1.00  0.00     0.046 C 
ENDROOT
BRANCH   3  11
HETATM   11  C4  UNL     1     -16.930 -28.719  12.830  1.00  0.00     0.059 C 
HETATM   12  N1  UNL     1     -16.007 -28.368  12.022  1.00  0.00    -0.411 N 
ATOM     13  H12 UNL     1     -15.066 -28.260  12.401  1.00  0.00     0.155 HD
ATOM     14  H11 UNL     1     -16.173 -28.193  11.031  1.00  0.00     0.155 HD
ENDBRANCH   3  11
TORSDOF 1
ENDMDL
MODEL 3
REMARK VINA RESULT: -3.821896146      1.563      2.618
REMARK  1 active torsions:
REMARK  status: ('A' for Active; 'I' for Inactive)
REMARK    1  A    between atoms: C3_3  and  C4_4 
ROOT
HETATM    1  C1  UNL     1     -19.202 -27.563  12.867  1.00  0.00     0.013 C 
HETATM    2  C2  UNL     1     -19.251 -27.331  14.354  1.00  0.00     0.027 C 
HETATM    3  C3  UNL     1     -19.557 -25.877  14.618  1.00  0.00     0.055 C 
HETATM    4  C5  UNL     1     -18.405 -25.321  15.413  1.00  0.00     0.243 C 
HETATM    5  N2  UNL     1     -17.364 -26.289  15.345  1.00  0.00    -0.066 N 
ATOM      6  H21 UNL     1     -16.843 -26.355  16.219  1.00  0.00     0.278 HD
ATOM      7  H22 UNL     1     -16.600 -25.990  14.740  1.00  0.00     0.278 HD
HETATM    8  C6  UNL     1     -17.908 -27.547  14.945  1.00  0.00     0.122 C 
HETATM    9  C7  UNL     1     -18.070 -28.517  16.120  1.00  0.00     0.046 C 
HETATM   10  C8  UNL     1     -16.927 -28.207  14.002  1.00  0.00     0.046 C 
ENDROOT
BRANCH   3  11
HETATM   11  C4  UNL     1     -20.789 -25.697  15.423  1.00  0.00     0.059 C 
HETATM   12  N1  UNL     1     -20.905 -26.124  16.619  1.00  0.00    -0.411 N 
ATOM     13  H12 UNL     1     -20.106 -26.610  17.025  1.00  0.00     0.155 HD
ATOM     14  H11 UNL     1     -21.753 -26.000  17.173  1.00  0.00     0.155 HD
ENDBRANCH   3  11
TORSDOF 1
ENDMDL
MODEL 4
REMARK VINA RESULT: -3.813441555      6.338      7.784
REMARK  1 active torsions:
REMARK  status: ('A' for Active; 'I' for Inactive)
REMARK    1  A    between atoms: C3_3  and  C4_4 
ROOT
HETATM    1  C1  UNL     1     -20.883 -28.146  22.369  1.00  0.00     0.013 C 
HETATM    2  C2  UNL     1     -21.016 -29.033  21.160  1.00  0.00     0.027 C 
HETATM    3  C3  UNL     1     -20.876 -28.194  19.913  1.00  0.00     0.055 C 
HETATM    4  C5  UNL     1     -22.152 -28.348  19.130  1.00  0.00     0.243 C 
HETATM    5  N2  UNL     1     -23.087 -28.973  20.003  1.00  0.00    -0.066 N 
ATOM      6  H21 UNL     1     -23.692 -29.631  19.512  1.00  0.00     0.278 HD
ATOM      7  H22 UNL     1     -23.806 -28.325  20.325  1.00  0.00     0.278 HD
HETATM    8  C6  UNL     1     -22.390 -29.586  21.087  1.00  0.00     0.122 C 
HETATM    9  C7  UNL     1     -22.269 -31.105  20.923  1.00  0.00     0.046 C 
HETATM   10  C8  UNL     1     -23.199 -29.375  22.348  1.00  0.00     0.046 C 
ENDROOT
BRANCH   3  11
HETATM   11  C4  UNL     1     -19.760 -28.649  19.050  1.00  0.00     0.059 C 
HETATM   12  N1  UNL     1     -18.713 -29.215  19.509  1.00  0.00    -0.411 N 
ATOM     13  H12 UNL     1     -18.656 -29.352  20.518  1.00  0.00     0.155 HD
ATOM     14  H11 UNL     1     -17.945 -29.528  18.915  1.00  0.00     0.155 HD
ENDBRANCH   3  11
TORSDOF 1
ENDMDL
MODEL 5
REMARK VINA RESULT: -3.793297641      6.845      8.645
REMARK  1 active torsions:
REMARK  status: ('A' for Active; 'I' for Inactive)
REMARK    1  A    between atoms: C3_3  and  C4_4 
ROOT
HETATM    1  C1  UNL     1     -19.965 -34.078  18.036  1.00  0.00     0.013 C 
HETATM    2  C2  UNL     1     -18.648 -34.806  18.088  1.00  0.00     0.027 C 
HETATM    3  C3  UNL     1     -18.207 -35.131  16.682  1.00  0.00     0.055 C 
HETATM    4  C5  UNL     1     -18.080 -36.629  16.593  1.00  0.00     0.243 C 
HETATM    5  N2  UNL     1     -18.703 -37.155  17.760  1.00  0.00    -0.066 N 
ATOM      6  H21 UNL     1     -18.215 -37.975  18.120  1.00  0.00     0.278 HD
ATOM      7  H22 UNL     1     -19.598 -37.597  17.551  1.00  0.00     0.278 HD
HETATM    8  C6  UNL     1     -18.825 -36.126  18.741  1.00  0.00     0.122 C 
HETATM    9  C7  UNL     1     -17.770 -36.240  19.846  1.00  0.00     0.046 C 
HETATM   10  C8  UNL     1     -20.161 -36.289  19.432  1.00  0.00     0.046 C 
ENDROOT
BRANCH   3  11
HETATM   11  C4  UNL     1     -16.884 -34.546  16.356  1.00  0.00     0.059 C 
HETATM   12  N1  UNL     1     -16.639 -33.955  15.253  1.00  0.00    -0.411 N 
ATOM     13  H12 UNL     1     -17.398 -33.891  14.574  1.00  0.00     0.155 HD
ATOM     14  H11 UNL     1     -15.729 -33.553  15.028  1.00  0.00     0.155 HD
ENDBRANCH   3  11
TORSDOF 1
ENDMDL
