MODEL 1
REMARK VINA RESULT: -4.619343643      0.000      0.000
REMARK  1 active torsions:
REMARK  status: ('A' for Active; 'I' for Inactive)
REMARK    1  A    between atoms: C2_2  and  C3_3 
ROOT
HETATM    1  C3  UNL     1     -17.035 -34.633  15.936  1.00  0.00     0.209 C 
HETATM    2  C4  UNL     1     -18.293 -34.284  16.704  1.00  0.00     0.057 C 
HETATM    3  C5  UNL     1     -18.354 -32.764  16.812  1.00  0.00     0.086 C 
HETATM    4 CL1  UNL     1     -19.801 -32.278  17.698  1.00  0.00    -0.125 Cl
HETATM    5  C6  UNL     1     -18.331 -32.178  15.405  1.00  0.00     0.047 C 
HETATM    6  C7  UNL     1     -17.041 -32.628  14.768  1.00  0.00     0.234 C 
HETATM    7  N1  UNL     1     -17.126 -34.084  14.615  1.00  0.00    -0.068 N 
ATOM      8  H11 UNL     1     -17.954 -34.390  14.104  1.00  0.00     0.277 HD
ATOM      9  H12 UNL     1     -16.434 -34.465  13.970  1.00  0.00     0.277 HD
ENDROOT
BRANCH   1  10
HETATM   10  C2  UNL     1     -16.802 -36.107  15.940  1.00  0.00    -0.005 C 
HETATM   11  C1  UNL     1     -17.868 -36.873  16.150  1.00  0.00     0.009 C 
ENDBRANCH   1  10
TORSDOF 1
ENDMDL
MODEL 2
REMARK VINA RESULT: -4.480755544      2.087      2.477
REMARK  1 active torsions:
REMARK  status: ('A' for Active; 'I' for Inactive)
REMARK    1  A    between atoms: C2_2  and  C3_3 
ROOT
HETATM    1  C3  UNL     1     -18.124 -34.462  16.429  1.00  0.00     0.209 C 
HETATM    2  C4  UNL     1     -17.127 -33.701  15.580  1.00  0.00     0.057 C 
HETATM    3  C5  UNL     1     -17.826 -32.442  15.076  1.00  0.00     0.086 C 
HETATM    4 CL1  UNL     1     -16.722 -31.497  14.076  1.00  0.00    -0.125 Cl
HETATM    5  C6  UNL     1     -18.315 -31.646  16.281  1.00  0.00     0.047 C 
HETATM    6  C7  UNL     1     -19.272 -32.538  17.031  1.00  0.00     0.234 C 
HETATM    7  N1  UNL     1     -18.487 -33.658  17.559  1.00  0.00    -0.068 N 
ATOM      8  H11 UNL     1     -17.688 -33.364  18.121  1.00  0.00     0.277 HD
ATOM      9  H12 UNL     1     -18.968 -34.181  18.290  1.00  0.00     0.277 HD
ENDROOT
BRANCH   1  10
HETATM   10  C2  UNL     1     -17.581 -35.798  16.814  1.00  0.00    -0.005 C 
HETATM   11  C1  UNL     1     -17.064 -36.531  15.833  1.00  0.00     0.009 C 
ENDBRANCH   1  10
TORSDOF 1
ENDMDL
MODEL 3
REMARK VINA RESULT: -4.400912432      1.398      3.260
REMARK  1 active torsions:
REMARK  status: ('A' for Active; 'I' for Inactive)
REMARK    1  A    between atoms: C2_2  and  C3_3 
ROOT
HETATM    1  C3  UNL     1     -17.716 -33.973  15.579  1.00  0.00     0.209 C 
HETATM    2  C4  UNL     1     -18.472 -33.860  16.886  1.00  0.00     0.057 C 
HETATM    3  C5  UNL     1     -18.928 -35.263  17.271  1.00  0.00     0.086 C 
HETATM    4 CL1  UNL     1     -19.819 -35.213  18.793  1.00  0.00    -0.125 Cl
HETATM    5  C6  UNL     1     -17.700 -36.162  17.367  1.00  0.00     0.047 C 
HETATM    6  C7  UNL     1     -17.049 -36.154  16.007  1.00  0.00     0.234 C 
HETATM    7  N1  UNL     1     -16.557 -34.792  15.777  1.00  0.00    -0.068 N 
ATOM      8  H11 UNL     1     -15.943 -34.452  16.518  1.00  0.00     0.277 HD
ATOM      9  H12 UNL     1     -15.881 -34.728  15.016  1.00  0.00     0.277 HD
ENDROOT
BRANCH   1  10
HETATM   10  C2  UNL     1     -17.390 -32.622  15.036  1.00  0.00    -0.005 C 
HETATM   11  C1  UNL     1     -18.133 -31.612  15.477  1.00  0.00     0.009 C 
ENDBRANCH   1  10
TORSDOF 1
ENDMDL
MODEL 4
REMARK VINA RESULT: -4.211557180      6.537      7.756
REMARK  1 active torsions:
REMARK  status: ('A' for Active; 'I' for Inactive)
REMARK    1  A    between atoms: C2_2  and  C3_3 
ROOT
HETATM    1  C3  UNL     1     -18.632 -27.893  14.431  1.00  0.00     0.209 C 
HETATM    2  C4  UNL     1     -18.782 -27.313  13.040  1.00  0.00     0.057 C 
HETATM    3  C5  UNL     1     -20.129 -26.600  12.987  1.00  0.00     0.086 C 
HETATM    4 CL1  UNL     1     -20.376 -25.892  11.390  1.00  0.00    -0.125 Cl
HETATM    5  C6  UNL     1     -20.157 -25.539  14.083  1.00  0.00     0.047 C 
HETATM    6  C7  UNL     1     -19.975 -26.264  15.393  1.00  0.00     0.234 C 
HETATM    7  N1  UNL     1     -18.620 -26.824  15.386  1.00  0.00    -0.068 N 
ATOM      8  H11 UNL     1     -17.895 -26.129  15.207  1.00  0.00     0.277 HD
ATOM      9  H12 UNL     1     -18.295 -27.109  16.309  1.00  0.00     0.277 HD
ENDROOT
BRANCH   1  10
HETATM   10  C2  UNL     1     -17.422 -28.764  14.516  1.00  0.00    -0.005 C 
HETATM   11  C1  UNL     1     -16.248 -28.157  14.382  1.00  0.00     0.009 C 
ENDBRANCH   1  10
TORSDOF 1
ENDMDL
MODEL 5
REMARK VINA RESULT: -4.119311625      2.981      4.480
REMARK  1 active torsions:
REMARK  status: ('A' for Active; 'I' for Inactive)
REMARK    1  A    between atoms: C2_2  and  C3_3 
ROOT
HETATM    1  C3  UNL     1     -17.311 -35.428  16.726  1.00  0.00     0.209 C 
HETATM    2  C4  UNL     1     -17.176 -36.541  15.708  1.00  0.00     0.057 C 
HETATM    3  C5  UNL     1     -17.665 -37.825  16.370  1.00  0.00     0.086 C 
HETATM    4 CL1  UNL     1     -17.540 -39.174  15.239  1.00  0.00    -0.125 Cl
HETATM    5  C6  UNL     1     -19.101 -37.613  16.836  1.00  0.00     0.047 C 
HETATM    6  C7  UNL     1     -19.074 -36.469  17.818  1.00  0.00     0.234 C 
HETATM    7  N1  UNL     1     -18.695 -35.269  17.066  1.00  0.00    -0.068 N 
ATOM      8  H11 UNL     1     -19.293 -35.091  16.258  1.00  0.00     0.277 HD
ATOM      9  H12 UNL     1     -18.893 -34.400  17.562  1.00  0.00     0.277 HD
ENDROOT
BRANCH   1  10
HETATM   10  C2  UNL     1     -16.686 -34.170  16.222  1.00  0.00    -0.005 C 
HETATM   11  C1  UNL     1     -17.475 -33.353  15.532  1.00  0.00     0.009 C 
ENDBRANCH   1  10
TORSDOF 1
ENDMDL
