MODEL 1
REMARK VINA RESULT: -8.588437617      0.000      0.000
REMARK  12 active torsions:
REMARK  status: ('A' for Active; 'I' for Inactive)
REMARK    1  A    between atoms: C2_3  and  N2_4 
REMARK    2  A    between atoms: N5_12  and  C4_13 
REMARK    3  A    between atoms: C4_13  and  C5_14 
REMARK    4  A    between atoms: N6_16  and  C7_17 
REMARK    5  A    between atoms: C8_23  and  N9_24 
REMARK    6  A    between atoms: C9_31  and  N12_32 
REMARK    7  A    between atoms: N12_32  and  C10_34 
REMARK    8  A    between atoms: C10_34  and  C11_35 
REMARK    9  A    between atoms: C11_35  and  O2_36 
REMARK   10  A    between atoms: C12_38  and  O3_39 
REMARK   11  A    between atoms: C14_42  and  N13_43 
REMARK   12  A    between atoms: N13_43  and  O4_45 
ROOT
HETATM    1  C1  UNL     1     -20.383   6.258  14.936  1.00  0.00     0.177 C 
HETATM    2  N1  UNL     1     -19.579   5.624  13.913  1.00  0.00    -0.170 N 
HETATM    3  C2  UNL     1     -18.286   5.976  13.769  1.00  0.00     0.681 A 
HETATM    4  N3  UNL     1     -17.450   5.457  12.857  1.00  0.00    -0.174 N 
ATOM      5  H3  UNL     1     -16.480   5.766  12.797  1.00  0.00     0.186 HD
HETATM    6  C3  UNL     1     -17.931   4.514  12.025  1.00  0.00     0.152 A 
HETATM    7  N4  UNL     1     -17.156   3.943  11.082  1.00  0.00    -0.280 N 
ATOM      8  H4  UNL     1     -16.182   4.236  11.004  1.00  0.00     0.189 HD
HETATM    9  N5  UNL     1     -17.606   3.026  10.264  1.00  0.00    -0.267 N 
HETATM   10  C9  UNL     1     -18.915   2.589  10.323  1.00  0.00     0.153 A 
HETATM   11  C12 UNL     1     -19.771   3.136  11.272  1.00  0.00     0.129 A 
HETATM   12  C13 UNL     1     -19.322   4.123  12.167  1.00  0.00     0.093 A 
HETATM   13  C14 UNL     1     -20.156   4.683  13.120  1.00  0.00     0.159 A 
ENDROOT
BRANCH   9  14
HETATM   14  C4  UNL     1     -16.703   2.452   9.265  1.00  0.00     0.210 C 
BRANCH  14  15
HETATM   15  C5  UNL     1     -15.329   2.394   9.796  1.00  0.00     0.064 A 
HETATM   16  C6  UNL     1     -14.855   1.517  10.744  1.00  0.00     0.148 A 
HETATM   17  N6  UNL     1     -13.570   1.798  10.945  1.00  0.00    -0.230 N 
HETATM   18  N10 UNL     1     -13.276   2.813  10.144  1.00  0.00    -0.234 N 
HETATM   19  N11 UNL     1     -14.305   3.198   9.441  1.00  0.00    -0.287 N 
ATOM     20  H10 UNL     1     -12.353   3.243  10.085  1.00  0.00     0.209 HD
ATOM     21  H11 UNL     1     -14.331   3.955   8.758  1.00  0.00     0.188 HD
BRANCH  17  22
HETATM   22  C7  UNL     1     -12.669   1.143  11.846  1.00  0.00     0.195 A 
HETATM   23  N7  UNL     1     -12.288  -0.143  11.867  1.00  0.00    -0.220 N 
HETATM   24  O1  UNL     1     -11.454  -0.366  12.835  1.00  0.00    -0.153 OA
ATOM     25  H7  UNL     1     -12.611  -0.852  11.209  1.00  0.00     0.198 HD
HETATM   26  N8  UNL     1     -11.277   0.760  13.457  1.00  0.00    -0.222 N 
HETATM   27  C8  UNL     1     -12.001   1.737  12.895  1.00  0.00     0.169 A 
ATOM     28  H8  UNL     1     -10.668   0.885  14.266  1.00  0.00     0.198 HD
BRANCH  27  29
HETATM   29  N9  UNL     1     -12.056   2.965  13.261  1.00  0.00    -0.381 N 
ATOM     30  H92 UNL     1     -12.364   3.760  12.699  1.00  0.00     0.157 HD
ATOM     31  H91 UNL     1     -11.805   3.355  14.169  1.00  0.00     0.157 HD
ENDBRANCH  27  29
ENDBRANCH  17  22
ENDBRANCH  14  15
ENDBRANCH   9  14
BRANCH  10  32
HETATM   32  N12 UNL     1     -19.216   1.725   9.501  1.00  0.00    -0.371 N 
ATOM     33  H12 UNL     1     -18.684   0.904   9.793  1.00  0.00     0.161 HD
BRANCH  32  34
HETATM   34  C10 UNL     1     -19.897   1.310   8.403  1.00  0.00     0.147 C 
BRANCH  34  35
HETATM   35  C11 UNL     1     -20.415  -0.127   8.639  1.00  0.00     0.183 C 
BRANCH  35  36
HETATM   36  O2  UNL     1     -19.488  -1.047   8.203  1.00  0.00    -0.399 OA
ATOM     37  H2  UNL     1     -19.919  -1.759   7.747  1.00  0.00     0.209 HD
ENDBRANCH  35  36
ENDBRANCH  34  35
ENDBRANCH  32  34
ENDBRANCH  10  32
BRANCH  11  38
HETATM   38  O3  UNL     1     -21.088   2.791  11.433  1.00  0.00    -0.356 OA
ATOM     39  H3  UNL     1     -21.394   1.982  11.828  1.00  0.00     0.218 HD
ENDBRANCH  11  38
BRANCH   3  40
HETATM   40  N2  UNL     1     -17.799   6.891  14.569  1.00  0.00    -0.234 N 
ATOM     41  H22 UNL     1     -18.232   6.978  15.488  1.00  0.00     0.174 HD
ATOM     42  H21 UNL     1     -17.021   7.460  14.235  1.00  0.00     0.174 HD
ENDBRANCH   3  40
BRANCH  13  43
HETATM   43  N13 UNL     1     -21.360   4.303  13.202  1.00  0.00    -0.252 N 
ATOM     44  H13 UNL     1     -21.494   3.314  13.412  1.00  0.00     0.196 HD
BRANCH  43  45
HETATM   45  O4  UNL     1     -22.491   5.021  13.052  1.00  0.00    -0.288 OA
ATOM     46  H4  UNL     1     -23.079   5.359  13.716  1.00  0.00     0.244 HD
ENDBRANCH  43  45
ENDBRANCH  13  43
TORSDOF 12
ENDMDL
MODEL 2
REMARK VINA RESULT: -8.482699683      2.003      2.842
REMARK  12 active torsions:
REMARK  status: ('A' for Active; 'I' for Inactive)
REMARK    1  A    between atoms: C2_3  and  N2_4 
REMARK    2  A    between atoms: N5_12  and  C4_13 
REMARK    3  A    between atoms: C4_13  and  C5_14 
REMARK    4  A    between atoms: N6_16  and  C7_17 
REMARK    5  A    between atoms: C8_23  and  N9_24 
REMARK    6  A    between atoms: C9_31  and  N12_32 
REMARK    7  A    between atoms: N12_32  and  C10_34 
REMARK    8  A    between atoms: C10_34  and  C11_35 
REMARK    9  A    between atoms: C11_35  and  O2_36 
REMARK   10  A    between atoms: C12_38  and  O3_39 
REMARK   11  A    between atoms: C14_42  and  N13_43 
REMARK   12  A    between atoms: N13_43  and  O4_45 
ROOT
HETATM    1  C1  UNL     1     -20.731   4.602  13.228  1.00  0.00     0.177 C 
HETATM    2  N1  UNL     1     -19.385   4.329  12.771  1.00  0.00    -0.170 N 
HETATM    3  C2  UNL     1     -18.335   4.794  13.476  1.00  0.00     0.681 A 
HETATM    4  N3  UNL     1     -17.048   4.604  13.147  1.00  0.00    -0.174 N 
ATOM      5  H3  UNL     1     -16.296   4.983  13.722  1.00  0.00     0.186 HD
HETATM    6  C3  UNL     1     -16.781   3.895  12.033  1.00  0.00     0.152 A 
HETATM    7  N4  UNL     1     -15.516   3.658  11.635  1.00  0.00    -0.280 N 
ATOM      8  H4  UNL     1     -14.747   4.027  12.195  1.00  0.00     0.189 HD
HETATM    9  N5  UNL     1     -15.237   2.972  10.555  1.00  0.00    -0.267 N 
HETATM   10  C9  UNL     1     -16.235   2.448   9.757  1.00  0.00     0.153 A 
HETATM   11  C12 UNL     1     -17.564   2.654  10.110  1.00  0.00     0.129 A 
HETATM   12  C13 UNL     1     -17.901   3.385  11.263  1.00  0.00     0.093 A 
HETATM   13  C14 UNL     1     -19.217   3.604  11.634  1.00  0.00     0.159 A 
ENDROOT
BRANCH   9  14
HETATM   14  C4  UNL     1     -13.836   2.757  10.185  1.00  0.00     0.210 C 
BRANCH  14  15
HETATM   15  C5  UNL     1     -13.306   1.569  10.878  1.00  0.00     0.064 A 
HETATM   16  C6  UNL     1     -12.813   1.521  12.161  1.00  0.00     0.148 A 
HETATM   17  N6  UNL     1     -12.436   0.268  12.401  1.00  0.00    -0.230 N 
HETATM   18  N10 UNL     1     -12.694  -0.421  11.298  1.00  0.00    -0.234 N 
HETATM   19  N11 UNL     1     -13.216   0.324  10.364  1.00  0.00    -0.287 N 
ATOM     20  H10 UNL     1     -12.507  -1.419  11.193  1.00  0.00     0.209 HD
ATOM     21  H11 UNL     1     -13.498   0.026   9.430  1.00  0.00     0.188 HD
BRANCH  17  22
HETATM   22  C7  UNL     1     -11.864  -0.250  13.608  1.00  0.00     0.195 A 
HETATM   23  N7  UNL     1     -10.686  -0.868  13.783  1.00  0.00    -0.220 N 
HETATM   24  O1  UNL     1     -10.511  -1.195  15.026  1.00  0.00    -0.153 OA
ATOM     25  H7  UNL     1     -10.016  -1.055  13.037  1.00  0.00     0.198 HD
HETATM   26  N8  UNL     1     -11.562  -0.800  15.678  1.00  0.00    -0.222 N 
HETATM   27  C8  UNL     1     -12.440  -0.207  14.859  1.00  0.00     0.169 A 
ATOM     28  H8  UNL     1     -11.700  -0.925  16.681  1.00  0.00     0.198 HD
BRANCH  27  29
HETATM   29  N9  UNL     1     -13.577   0.295  15.179  1.00  0.00    -0.381 N 
ATOM     30  H92 UNL     1     -13.909   1.239  14.978  1.00  0.00     0.157 HD
ATOM     31  H91 UNL     1     -14.337  -0.160  15.684  1.00  0.00     0.157 HD
ENDBRANCH  27  29
ENDBRANCH  17  22
ENDBRANCH  14  15
ENDBRANCH   9  14
BRANCH  10  32
HETATM   32  N12 UNL     1     -15.845   1.824   8.773  1.00  0.00    -0.371 N 
ATOM     33  H12 UNL     1     -15.654   0.886   9.128  1.00  0.00     0.161 HD
BRANCH  32  34
HETATM   34  C10 UNL     1     -15.539   1.750   7.452  1.00  0.00     0.147 C 
BRANCH  34  35
HETATM   35  C11 UNL     1     -16.811   1.381   6.656  1.00  0.00     0.183 C 
BRANCH  35  36
HETATM   36  O2  UNL     1     -17.266   2.471   5.950  1.00  0.00    -0.399 OA
ATOM     37  H2  UNL     1     -17.933   2.931   6.446  1.00  0.00     0.209 HD
ENDBRANCH  35  36
ENDBRANCH  34  35
ENDBRANCH  32  34
ENDBRANCH  10  32
BRANCH  11  38
HETATM   38  O3  UNL     1     -18.644   2.189   9.406  1.00  0.00    -0.356 OA
ATOM     39  H3  UNL     1     -19.375   1.713   9.783  1.00  0.00     0.218 HD
ENDBRANCH  11  38
BRANCH   3  40
HETATM   40  N2  UNL     1     -18.573   5.486  14.562  1.00  0.00    -0.234 N 
ATOM     41  H22 UNL     1     -19.219   5.076  15.237  1.00  0.00     0.174 HD
ATOM     42  H21 UNL     1     -18.107   6.385  14.675  1.00  0.00     0.174 HD
ENDBRANCH   3  40
BRANCH  13  43
HETATM   43  N13 UNL     1     -20.155   3.136  10.926  1.00  0.00    -0.252 N 
ATOM     44  H13 UNL     1     -20.427   3.708  10.126  1.00  0.00     0.196 HD
BRANCH  43  45
HETATM   45  O4  UNL     1     -20.847   1.990  11.079  1.00  0.00    -0.288 OA
ATOM     46  H4  UNL     1     -21.582   1.804  11.651  1.00  0.00     0.244 HD
ENDBRANCH  43  45
ENDBRANCH  13  43
TORSDOF 12
ENDMDL
MODEL 3
REMARK VINA RESULT: -8.448555826      1.861      2.366
REMARK  12 active torsions:
REMARK  status: ('A' for Active; 'I' for Inactive)
REMARK    1  A    between atoms: C2_3  and  N2_4 
REMARK    2  A    between atoms: N5_12  and  C4_13 
REMARK    3  A    between atoms: C4_13  and  C5_14 
REMARK    4  A    between atoms: N6_16  and  C7_17 
REMARK    5  A    between atoms: C8_23  and  N9_24 
REMARK    6  A    between atoms: C9_31  and  N12_32 
REMARK    7  A    between atoms: N12_32  and  C10_34 
REMARK    8  A    between atoms: C10_34  and  C11_35 
REMARK    9  A    between atoms: C11_35  and  O2_36 
REMARK   10  A    between atoms: C12_38  and  O3_39 
REMARK   11  A    between atoms: C14_42  and  N13_43 
REMARK   12  A    between atoms: N13_43  and  O4_45 
ROOT
HETATM    1  C1  UNL     1     -20.367   5.431  13.954  1.00  0.00     0.177 C 
HETATM    2  N1  UNL     1     -19.230   4.896  13.234  1.00  0.00    -0.170 N 
HETATM    3  C2  UNL     1     -17.984   5.120  13.696  1.00  0.00     0.681 A 
HETATM    4  N3  UNL     1     -16.861   4.675  13.112  1.00  0.00    -0.174 N 
ATOM      5  H3  UNL     1     -15.945   4.879  13.511  1.00  0.00     0.186 HD
HETATM    6  C3  UNL     1     -16.982   3.950  11.984  1.00  0.00     0.152 A 
HETATM    7  N4  UNL     1     -15.904   3.466  11.338  1.00  0.00    -0.280 N 
ATOM      8  H4  UNL     1     -14.976   3.657  11.718  1.00  0.00     0.189 HD
HETATM    9  N5  UNL     1     -16.001   2.760  10.240  1.00  0.00    -0.267 N 
HETATM   10  C9  UNL     1     -17.229   2.469   9.678  1.00  0.00     0.153 A 
HETATM   11  C12 UNL     1     -18.385   2.938  10.293  1.00  0.00     0.129 A 
HETATM   12  C13 UNL     1     -18.318   3.699  11.473  1.00  0.00     0.093 A 
HETATM   13  C14 UNL     1     -19.454   4.176  12.104  1.00  0.00     0.159 A 
ENDROOT
BRANCH   9  14
HETATM   14  C4  UNL     1     -14.783   2.269   9.593  1.00  0.00     0.210 C 
BRANCH  14  15
HETATM   15  C5  UNL     1     -14.049   1.374  10.507  1.00  0.00     0.064 A 
HETATM   16  C6  UNL     1     -14.110   1.380  11.881  1.00  0.00     0.148 A 
HETATM   17  N6  UNL     1     -13.301   0.422  12.324  1.00  0.00    -0.230 N 
HETATM   18  N10 UNL     1     -12.767  -0.147  11.252  1.00  0.00    -0.234 N 
HETATM   19  N11 UNL     1     -13.192   0.397  10.145  1.00  0.00    -0.287 N 
ATOM     20  H10 UNL     1     -12.103  -0.920  11.288  1.00  0.00     0.209 HD
ATOM     21  H11 UNL     1     -12.928   0.136   9.195  1.00  0.00     0.188 HD
BRANCH  17  22
HETATM   22  C7  UNL     1     -13.045   0.063  13.688  1.00  0.00     0.195 A 
HETATM   23  N7  UNL     1     -13.825   0.238  14.764  1.00  0.00    -0.220 N 
HETATM   24  O1  UNL     1     -13.252  -0.219  15.834  1.00  0.00    -0.153 OA
ATOM     25  H7  UNL     1     -14.747   0.673  14.745  1.00  0.00     0.198 HD
HETATM   26  N8  UNL     1     -12.098  -0.696  15.478  1.00  0.00    -0.222 N 
HETATM   27  C8  UNL     1     -11.907  -0.553  14.161  1.00  0.00     0.169 A 
ATOM     28  H8  UNL     1     -11.427  -1.123  16.117  1.00  0.00     0.198 HD
BRANCH  27  29
HETATM   29  N9  UNL     1     -10.877  -0.917  13.486  1.00  0.00    -0.381 N 
ATOM     30  H92 UNL     1     -10.437  -0.410  12.718  1.00  0.00     0.157 HD
ATOM     31  H91 UNL     1     -10.327  -1.767  13.603  1.00  0.00     0.157 HD
ENDBRANCH  27  29
ENDBRANCH  17  22
ENDBRANCH  14  15
ENDBRANCH   9  14
BRANCH  10  32
HETATM   32  N12 UNL     1     -17.188   1.799   8.648  1.00  0.00    -0.371 N 
ATOM     33  H12 UNL     1     -16.326   1.260   8.732  1.00  0.00     0.161 HD
BRANCH  32  34
HETATM   34  C10 UNL     1     -17.709   1.413   7.456  1.00  0.00     0.147 C 
BRANCH  34  35
HETATM   35  C11 UNL     1     -16.565   1.251   6.430  1.00  0.00     0.183 C 
BRANCH  35  36
HETATM   36  O2  UNL     1     -16.816   0.183   5.598  1.00  0.00    -0.399 OA
ATOM     37  H2  UNL     1     -16.254   0.222   4.833  1.00  0.00     0.209 HD
ENDBRANCH  35  36
ENDBRANCH  34  35
ENDBRANCH  32  34
ENDBRANCH  10  32
BRANCH  11  38
HETATM   38  O3  UNL     1     -19.659   2.720   9.838  1.00  0.00    -0.356 OA
ATOM     39  H3  UNL     1     -20.419   2.587  10.392  1.00  0.00     0.218 HD
ENDBRANCH  11  38
BRANCH   3  40
HETATM   40  N2  UNL     1     -17.845   5.823  14.792  1.00  0.00    -0.234 N 
ATOM     41  H22 UNL     1     -18.571   5.721  15.501  1.00  0.00     0.174 HD
ATOM     42  H21 UNL     1     -17.029   6.428  14.878  1.00  0.00     0.174 HD
ENDBRANCH   3  40
BRANCH  13  43
HETATM   43  N13 UNL     1     -20.595   3.927  11.616  1.00  0.00    -0.252 N 
ATOM     44  H13 UNL     1     -20.880   4.526  10.841  1.00  0.00     0.196 HD
BRANCH  43  45
HETATM   45  O4  UNL     1     -21.486   2.982  11.974  1.00  0.00    -0.288 OA
ATOM     46  H4  UNL     1     -22.385   3.082  12.262  1.00  0.00     0.244 HD
ENDBRANCH  43  45
ENDBRANCH  13  43
TORSDOF 12
ENDMDL
MODEL 4
REMARK VINA RESULT: -8.428690933      2.293      4.283
REMARK  12 active torsions:
REMARK  status: ('A' for Active; 'I' for Inactive)
REMARK    1  A    between atoms: C2_3  and  N2_4 
REMARK    2  A    between atoms: N5_12  and  C4_13 
REMARK    3  A    between atoms: C4_13  and  C5_14 
REMARK    4  A    between atoms: N6_16  and  C7_17 
REMARK    5  A    between atoms: C8_23  and  N9_24 
REMARK    6  A    between atoms: C9_31  and  N12_32 
REMARK    7  A    between atoms: N12_32  and  C10_34 
REMARK    8  A    between atoms: C10_34  and  C11_35 
REMARK    9  A    between atoms: C11_35  and  O2_36 
REMARK   10  A    between atoms: C12_38  and  O3_39 
REMARK   11  A    between atoms: C14_42  and  N13_43 
REMARK   12  A    between atoms: N13_43  and  O4_45 
ROOT
HETATM    1  C1  UNL     1     -21.106   2.945  11.558  1.00  0.00     0.177 C 
HETATM    2  N1  UNL     1     -19.674   3.103  11.700  1.00  0.00    -0.170 N 
HETATM    3  C2  UNL     1     -19.172   3.667  12.816  1.00  0.00     0.681 A 
HETATM    4  N3  UNL     1     -17.867   3.864  13.054  1.00  0.00    -0.174 N 
ATOM      5  H3  UNL     1     -17.550   4.298  13.920  1.00  0.00     0.186 HD
HETATM    6  C3  UNL     1     -16.989   3.470  12.112  1.00  0.00     0.152 A 
HETATM    7  N4  UNL     1     -15.661   3.632  12.273  1.00  0.00    -0.280 N 
ATOM      8  H4  UNL     1     -15.320   4.063  13.133  1.00  0.00     0.189 HD
HETATM    9  N5  UNL     1     -14.793   3.256  11.369  1.00  0.00    -0.267 N 
HETATM   10  C9  UNL     1     -15.195   2.667  10.186  1.00  0.00     0.153 A 
HETATM   11  C12 UNL     1     -16.551   2.469   9.953  1.00  0.00     0.129 A 
HETATM   12  C13 UNL     1     -17.512   2.860  10.902  1.00  0.00     0.093 A 
HETATM   13  C14 UNL     1     -18.868   2.674  10.693  1.00  0.00     0.159 A 
ENDROOT
BRANCH   9  14
HETATM   14  C4  UNL     1     -13.365   3.466  11.616  1.00  0.00     0.210 C 
BRANCH  14  15
HETATM   15  C5  UNL     1     -12.806   2.323  12.361  1.00  0.00     0.064 A 
HETATM   16  C6  UNL     1     -13.421   1.630  13.377  1.00  0.00     0.148 A 
HETATM   17  N6  UNL     1     -12.584   0.678  13.780  1.00  0.00    -0.230 N 
HETATM   18  N10 UNL     1     -11.495   0.792  13.031  1.00  0.00    -0.234 N 
HETATM   19  N11 UNL     1     -11.592   1.767  12.170  1.00  0.00    -0.287 N 
ATOM     20  H10 UNL     1     -10.678   0.187  13.118  1.00  0.00     0.209 HD
ATOM     21  H11 UNL     1     -10.889   2.052  11.488  1.00  0.00     0.188 HD
BRANCH  17  22
HETATM   22  C7  UNL     1     -12.800  -0.287  14.816  1.00  0.00     0.195 A 
HETATM   23  N7  UNL     1     -13.677  -0.251  15.830  1.00  0.00    -0.220 N 
HETATM   24  O1  UNL     1     -13.579  -1.312  16.570  1.00  0.00    -0.153 OA
ATOM     25  H7  UNL     1     -14.335   0.510  15.997  1.00  0.00     0.198 HD
HETATM   26  N8  UNL     1     -12.644  -2.053  16.057  1.00  0.00    -0.222 N 
HETATM   27  C8  UNL     1     -12.119  -1.476  14.968  1.00  0.00     0.169 A 
ATOM     28  H8  UNL     1     -12.349  -2.954  16.433  1.00  0.00     0.198 HD
BRANCH  27  29
HETATM   29  N9  UNL     1     -11.181  -1.939  14.225  1.00  0.00    -0.381 N 
ATOM     30  H92 UNL     1     -10.182  -1.952  14.435  1.00  0.00     0.157 HD
ATOM     31  H91 UNL     1     -11.272  -2.372  13.307  1.00  0.00     0.157 HD
ENDBRANCH  27  29
ENDBRANCH  17  22
ENDBRANCH  14  15
ENDBRANCH   9  14
BRANCH  10  32
HETATM   32  N12 UNL     1     -14.285   2.359   9.419  1.00  0.00    -0.371 N 
ATOM     33  H12 UNL     1     -13.619   3.129   9.495  1.00  0.00     0.161 HD
BRANCH  32  34
HETATM   34  C10 UNL     1     -13.717   1.513   8.521  1.00  0.00     0.147 C 
BRANCH  34  35
HETATM   35  C11 UNL     1     -12.390   0.973   9.101  1.00  0.00     0.183 C 
BRANCH  35  36
HETATM   36  O2  UNL     1     -12.639  -0.019  10.021  1.00  0.00    -0.399 OA
ATOM     37  H2  UNL     1     -12.013   0.027  10.734  1.00  0.00     0.209 HD
ENDBRANCH  35  36
ENDBRANCH  34  35
ENDBRANCH  32  34
ENDBRANCH  10  32
BRANCH  11  38
HETATM   38  O3  UNL     1     -17.078   1.898   8.824  1.00  0.00    -0.356 OA
ATOM     39  H3  UNL     1     -17.613   1.113   8.811  1.00  0.00     0.218 HD
ENDBRANCH  11  38
BRANCH   3  40
HETATM   40  N2  UNL     1     -20.010   4.056  13.744  1.00  0.00    -0.234 N 
ATOM     41  H22 UNL     1     -19.712   3.940  14.713  1.00  0.00     0.174 HD
ATOM     42  H21 UNL     1     -20.904   4.451  13.454  1.00  0.00     0.174 HD
ENDBRANCH   3  40
BRANCH  13  43
HETATM   43  N13 UNL     1     -19.270   2.136   9.621  1.00  0.00    -0.252 N 
ATOM     44  H13 UNL     1     -19.335   2.760   8.816  1.00  0.00     0.196 HD
BRANCH  43  45
HETATM   45  O4  UNL     1     -19.623   0.856   9.391  1.00  0.00    -0.288 OA
ATOM     46  H4  UNL     1     -19.091   0.070   9.427  1.00  0.00     0.244 HD
ENDBRANCH  43  45
ENDBRANCH  13  43
TORSDOF 12
ENDMDL
MODEL 5
REMARK VINA RESULT: -8.383994648      1.292      1.393
REMARK  12 active torsions:
REMARK  status: ('A' for Active; 'I' for Inactive)
REMARK    1  A    between atoms: C2_3  and  N2_4 
REMARK    2  A    between atoms: N5_12  and  C4_13 
REMARK    3  A    between atoms: C4_13  and  C5_14 
REMARK    4  A    between atoms: N6_16  and  C7_17 
REMARK    5  A    between atoms: C8_23  and  N9_24 
REMARK    6  A    between atoms: C9_31  and  N12_32 
REMARK    7  A    between atoms: N12_32  and  C10_34 
REMARK    8  A    between atoms: C10_34  and  C11_35 
REMARK    9  A    between atoms: C11_35  and  O2_36 
REMARK   10  A    between atoms: C12_38  and  O3_39 
REMARK   11  A    between atoms: C14_42  and  N13_43 
REMARK   12  A    between atoms: N13_43  and  O4_45 
ROOT
HETATM    1  C1  UNL     1     -20.070   4.871  14.959  1.00  0.00     0.177 C 
HETATM    2  N1  UNL     1     -19.224   4.528  13.835  1.00  0.00    -0.170 N 
HETATM    3  C2  UNL     1     -17.970   5.015  13.772  1.00  0.00     0.681 A 
HETATM    4  N3  UNL     1     -17.101   4.765  12.781  1.00  0.00    -0.174 N 
ATOM      5  H3  UNL     1     -16.163   5.166  12.790  1.00  0.00     0.186 HD
HETATM    6  C3  UNL     1     -17.506   3.969  11.774  1.00  0.00     0.152 A 
HETATM    7  N4  UNL     1     -16.694   3.669  10.741  1.00  0.00    -0.280 N 
ATOM      8  H4  UNL     1     -15.751   4.057  10.729  1.00  0.00     0.189 HD
HETATM    9  N5  UNL     1     -17.070   2.897   9.753  1.00  0.00    -0.267 N 
HETATM   10  C9  UNL     1     -18.335   2.342   9.715  1.00  0.00     0.153 A 
HETATM   11  C12 UNL     1     -19.225   2.610  10.748  1.00  0.00     0.129 A 
HETATM   12  C13 UNL     1     -18.855   3.434  11.826  1.00  0.00     0.093 A 
HETATM   13  C14 UNL     1     -19.724   3.716  12.866  1.00  0.00     0.159 A 
ENDROOT
BRANCH   9  14
HETATM   14  C4  UNL     1     -16.131   2.617   8.665  1.00  0.00     0.210 C 
BRANCH  14  15
HETATM   15  C5  UNL     1     -14.908   1.991   9.200  1.00  0.00     0.064 A 
HETATM   16  C6  UNL     1     -14.609   1.781  10.526  1.00  0.00     0.148 A 
HETATM   17  N6  UNL     1     -13.416   1.195  10.582  1.00  0.00    -0.230 N 
HETATM   18  N10 UNL     1     -13.006   1.055   9.329  1.00  0.00    -0.234 N 
HETATM   19  N11 UNL     1     -13.873   1.521   8.473  1.00  0.00    -0.287 N 
ATOM     20  H10 UNL     1     -12.115   0.633   9.066  1.00  0.00     0.209 HD
ATOM     21  H11 UNL     1     -13.785   1.529   7.457  1.00  0.00     0.188 HD
BRANCH  17  22
HETATM   22  C7  UNL     1     -12.702   0.789  11.756  1.00  0.00     0.195 A 
HETATM   23  N7  UNL     1     -12.366  -0.448  12.151  1.00  0.00    -0.220 N 
HETATM   24  O1  UNL     1     -11.719  -0.419  13.275  1.00  0.00    -0.153 OA
ATOM     25  H7  UNL     1     -12.590  -1.299  11.636  1.00  0.00     0.198 HD
HETATM   26  N8  UNL     1     -11.621   0.826  13.630  1.00  0.00    -0.222 N 
HETATM   27  C8  UNL     1     -12.210   1.628  12.733  1.00  0.00     0.169 A 
ATOM     28  H8  UNL     1     -11.158   1.151  14.479  1.00  0.00     0.198 HD
BRANCH  27  29
HETATM   29  N9  UNL     1     -12.294   2.908  12.779  1.00  0.00    -0.381 N 
ATOM     30  H92 UNL     1     -11.526   3.576  12.708  1.00  0.00     0.157 HD
ATOM     31  H91 UNL     1     -13.136   3.471  12.892  1.00  0.00     0.157 HD
ENDBRANCH  27  29
ENDBRANCH  17  22
ENDBRANCH  14  15
ENDBRANCH   9  14
BRANCH  10  32
HETATM   32  N12 UNL     1     -18.567   1.636   8.735  1.00  0.00    -0.371 N 
ATOM     33  H12 UNL     1     -17.802   0.961   8.724  1.00  0.00     0.161 HD
BRANCH  32  34
HETATM   34  C10 UNL     1     -19.326   1.300   7.662  1.00  0.00     0.147 C 
BRANCH  34  35
HETATM   35  C11 UNL     1     -19.403   2.505   6.697  1.00  0.00     0.183 C 
BRANCH  35  36
HETATM   36  O2  UNL     1     -18.282   2.552   5.900  1.00  0.00    -0.399 OA
ATOM     37  H2  UNL     1     -18.448   3.080   5.128  1.00  0.00     0.209 HD
ENDBRANCH  35  36
ENDBRANCH  34  35
ENDBRANCH  32  34
ENDBRANCH  10  32
BRANCH  11  38
HETATM   38  O3  UNL     1     -20.504   2.124  10.829  1.00  0.00    -0.356 OA
ATOM     39  H3  UNL     1     -21.125   2.105  10.110  1.00  0.00     0.218 HD
ENDBRANCH  11  38
BRANCH   3  40
HETATM   40  N2  UNL     1     -17.556   5.792  14.742  1.00  0.00    -0.234 N 
ATOM     41  H22 UNL     1     -16.983   6.594  14.479  1.00  0.00     0.174 HD
ATOM     42  H21 UNL     1     -17.826   5.558  15.697  1.00  0.00     0.174 HD
ENDBRANCH   3  40
BRANCH  13  43
HETATM   43  N13 UNL     1     -20.889   3.223  12.862  1.00  0.00    -0.252 N 
ATOM     44  H13 UNL     1     -20.942   2.226  13.075  1.00  0.00     0.196 HD
BRANCH  43  45
HETATM   45  O4  UNL     1     -22.069   3.826  12.618  1.00  0.00    -0.288 OA
ATOM     46  H4  UNL     1     -22.748   4.087  13.229  1.00  0.00     0.244 HD
ENDBRANCH  43  45
ENDBRANCH  13  43
TORSDOF 12
ENDMDL
