MODEL 1
REMARK VINA RESULT: -9.725322337      0.000      0.000
REMARK  7 active torsions:
REMARK  status: ('A' for Active; 'I' for Inactive)
REMARK    1  A    between atoms: O1_2  and  C2_3 
REMARK    2  A    between atoms: C2_3  and  C3_5 
REMARK    3  A    between atoms: C8_11  and  N1_12 
REMARK    4  A    between atoms: N1_12  and  C9_14 
REMARK    5  A    between atoms: C9_14  and  O3_15 
REMARK    6  A    between atoms: C9_14  and  C10_17 
REMARK    7  A    between atoms: C15_24  and  C16_25 
ROOT
HETATM    1  C3  UNL     1      14.693  76.414  -3.438  1.00  0.00     0.126 C 
HETATM    2  C4  UNL     1      15.557  75.178  -3.560  1.00  0.00     0.024 C 
HETATM    3  C5  UNL     1      14.654  74.031  -3.265  1.00  0.00     0.042 C 
HETATM    4  C6  UNL     1      13.242  74.531  -3.595  1.00  0.00    -0.021 A 
HETATM    5  C7  UNL     1      13.292  75.880  -3.686  1.00  0.00     0.006 A 
HETATM    6  S1  UNL     1      11.691  76.308  -4.049  1.00  0.00    -0.074 SA
HETATM    7  C8  UNL     1      10.966  74.717  -4.077  1.00  0.00     0.094 A 
HETATM    8  C19 UNL     1      12.034  73.922  -3.799  1.00  0.00     0.085 A 
HETATM    9  C20 UNL     1      11.853  72.443  -3.753  1.00  0.00     0.103 C 
HETATM   10  N5  UNL     1      11.743  71.260  -3.724  1.00  0.00    -0.191 NA
ENDROOT
BRANCH   7  11
HETATM   11  N1  UNL     1       9.590  74.461  -4.358  1.00  0.00    -0.352 N 
ATOM     12  H1  UNL     1       8.923  74.828  -3.680  1.00  0.00     0.163 HD
BRANCH  11  13
HETATM   13  C9  UNL     1       9.029  73.761  -5.460  1.00  0.00     0.272 C 
BRANCH  13  14
HETATM   14  O3  UNL     1       7.848  73.144  -4.989  1.00  0.00    -0.371 OA
ATOM     15  H3  UNL     1       7.666  72.420  -5.577  1.00  0.00     0.212 HD
ENDBRANCH  13  14
BRANCH  13  16
HETATM   16  C10 UNL     1       8.605  74.712  -6.542  1.00  0.00     0.087 A 
HETATM   17  C11 UNL     1       9.460  75.425  -7.344  1.00  0.00     0.092 A 
HETATM   18  N2  UNL     1      10.881  75.461  -7.380  1.00  0.00    -0.099 NA
HETATM   19  C12 UNL     1       8.696  76.192  -8.216  1.00  0.00     0.092 A 
HETATM   20  C13 UNL     1       8.987  77.088  -9.228  1.00  0.00     0.191 A 
HETATM   21  C17 UNL     1       7.377  75.926  -7.924  1.00  0.00     0.167 A 
HETATM   22  O4  UNL     1      10.201  77.310  -9.470  1.00  0.00    -0.287 OA
HETATM   23  C14 UNL     1       7.962  77.695  -9.921  1.00  0.00     0.098 A 
HETATM   24  C15 UNL     1       6.656  77.373  -9.566  1.00  0.00     0.146 A 
HETATM   25  O6  UNL     1       6.423  76.519  -8.601  1.00  0.00    -0.287 OA
HETATM   26  N4  UNL     1       7.364  75.028  -6.908  1.00  0.00    -0.329 N 
HETATM   27  C18 UNL     1       6.114  74.525  -6.350  1.00  0.00     0.158 C 
BRANCH  24  28
HETATM   28  C16 UNL     1       5.557  78.007 -10.290  1.00  0.00     0.288 C 
HETATM   29  N3  UNL     1       5.271  77.691 -11.640  1.00  0.00    -0.055 NA
HETATM   30  O5  UNL     1       4.851  78.858  -9.685  1.00  0.00    -0.269 OA
ENDBRANCH  24  28
ENDBRANCH  13  16
ENDBRANCH  11  13
ENDBRANCH   7  11
BRANCH   1  31
HETATM   31  C2  UNL     1      14.807  76.946  -2.055  1.00  0.00     0.267 C 
HETATM   32  O2  UNL     1      15.844  76.826  -1.353  1.00  0.00    -0.264 OA
BRANCH  31  33
HETATM   33  O1  UNL     1      13.724  77.609  -1.499  1.00  0.00    -0.326 OA
HETATM   34  C1  UNL     1      13.229  77.189  -0.222  1.00  0.00     0.213 C 
ENDBRANCH  31  33
ENDBRANCH   1  31
TORSDOF 7
ENDMDL
MODEL 2
REMARK VINA RESULT: -9.655763443      2.922      9.608
REMARK  7 active torsions:
REMARK  status: ('A' for Active; 'I' for Inactive)
REMARK    1  A    between atoms: O1_2  and  C2_3 
REMARK    2  A    between atoms: C2_3  and  C3_5 
REMARK    3  A    between atoms: C8_11  and  N1_12 
REMARK    4  A    between atoms: N1_12  and  C9_14 
REMARK    5  A    between atoms: C9_14  and  O3_15 
REMARK    6  A    between atoms: C9_14  and  C10_17 
REMARK    7  A    between atoms: C15_24  and  C16_25 
ROOT
HETATM    1  C3  UNL     1       7.131  75.842  -8.921  1.00  0.00     0.126 C 
HETATM    2  C4  UNL     1       7.526  76.854  -9.973  1.00  0.00     0.024 C 
HETATM    3  C5  UNL     1       8.601  77.676  -9.350  1.00  0.00     0.042 C 
HETATM    4  C6  UNL     1       9.221  76.781  -8.270  1.00  0.00    -0.021 A 
HETATM    5  C7  UNL     1       8.370  75.753  -8.046  1.00  0.00     0.006 A 
HETATM    6  S1  UNL     1       9.158  74.847  -6.848  1.00  0.00    -0.074 SA
HETATM    7  C8  UNL     1      10.596  75.821  -6.646  1.00  0.00     0.094 A 
HETATM    8  C19 UNL     1      10.380  76.819  -7.545  1.00  0.00     0.085 A 
HETATM    9  C20 UNL     1      11.410  77.883  -7.718  1.00  0.00     0.103 C 
HETATM   10  N5  UNL     1      12.221  78.736  -7.888  1.00  0.00    -0.191 NA
ENDROOT
BRANCH   7  11
HETATM   11  N1  UNL     1      11.659  75.515  -5.745  1.00  0.00    -0.352 N 
ATOM     12  H1  UNL     1      12.312  74.796  -6.056  1.00  0.00     0.163 HD
BRANCH  11  13
HETATM   13  C9  UNL     1      11.927  76.083  -4.470  1.00  0.00     0.272 C 
BRANCH  13  14
HETATM   14  O3  UNL     1      10.962  75.555  -3.582  1.00  0.00    -0.371 OA
ATOM     15  H3  UNL     1      11.430  74.995  -2.973  1.00  0.00     0.212 HD
ENDBRANCH  13  14
BRANCH  13  16
HETATM   16  C10 UNL     1      13.264  75.638  -3.952  1.00  0.00     0.087 A 
HETATM   17  C11 UNL     1      13.618  74.337  -3.699  1.00  0.00     0.092 A 
HETATM   18  N2  UNL     1      12.879  73.131  -3.850  1.00  0.00    -0.099 NA
HETATM   19  C12 UNL     1      14.927  74.328  -3.232  1.00  0.00     0.092 A 
HETATM   20  C13 UNL     1      15.803  73.338  -2.823  1.00  0.00     0.191 A 
HETATM   21  C17 UNL     1      15.347  75.638  -3.209  1.00  0.00     0.167 A 
HETATM   22  O4  UNL     1      15.389  72.152  -2.856  1.00  0.00    -0.287 OA
HETATM   23  C14 UNL     1      17.071  73.679  -2.403  1.00  0.00     0.098 A 
HETATM   24  C15 UNL     1      17.419  75.025  -2.410  1.00  0.00     0.146 A 
HETATM   25  O6  UNL     1      16.559  75.931  -2.804  1.00  0.00    -0.287 OA
HETATM   26  N4  UNL     1      14.315  76.399  -3.650  1.00  0.00    -0.329 N 
HETATM   27  C18 UNL     1      14.426  77.849  -3.753  1.00  0.00     0.158 C 
BRANCH  24  28
HETATM   28  C16 UNL     1      18.760  75.403  -1.968  1.00  0.00     0.288 C 
HETATM   29  N3  UNL     1      19.164  76.757  -1.884  1.00  0.00    -0.055 NA
HETATM   30  O5  UNL     1      19.570  74.489  -1.656  1.00  0.00    -0.269 OA
ENDBRANCH  24  28
ENDBRANCH  13  16
ENDBRANCH  11  13
ENDBRANCH   7  11
BRANCH   1  31
HETATM   31  C2  UNL     1       5.985  76.379  -8.142  1.00  0.00     0.267 C 
HETATM   32  O2  UNL     1       5.191  77.245  -8.592  1.00  0.00    -0.264 OA
BRANCH  31  33
HETATM   33  O1  UNL     1       5.768  75.911  -6.855  1.00  0.00    -0.326 OA
HETATM   34  C1  UNL     1       5.132  74.640  -6.673  1.00  0.00     0.213 C 
ENDBRANCH  31  33
ENDBRANCH   1  31
TORSDOF 7
ENDMDL
MODEL 3
REMARK VINA RESULT: -9.609364292      2.300      3.658
REMARK  7 active torsions:
REMARK  status: ('A' for Active; 'I' for Inactive)
REMARK    1  A    between atoms: O1_2  and  C2_3 
REMARK    2  A    between atoms: C2_3  and  C3_5 
REMARK    3  A    between atoms: C8_11  and  N1_12 
REMARK    4  A    between atoms: N1_12  and  C9_14 
REMARK    5  A    between atoms: C9_14  and  O3_15 
REMARK    6  A    between atoms: C9_14  and  C10_17 
REMARK    7  A    between atoms: C15_24  and  C16_25 
ROOT
HETATM    1  C3  UNL     1      16.117  74.060  -2.033  1.00  0.00     0.126 C 
HETATM    2  C4  UNL     1      16.628  75.482  -1.960  1.00  0.00     0.024 C 
HETATM    3  C5  UNL     1      15.819  76.246  -2.951  1.00  0.00     0.042 C 
HETATM    4  C6  UNL     1      14.510  75.459  -3.099  1.00  0.00    -0.021 A 
HETATM    5  C7  UNL     1      14.707  74.228  -2.573  1.00  0.00     0.006 A 
HETATM    6  S1  UNL     1      13.208  73.465  -2.794  1.00  0.00    -0.074 SA
HETATM    7  C8  UNL     1      12.334  74.763  -3.576  1.00  0.00     0.094 A 
HETATM    8  C19 UNL     1      13.278  75.742  -3.620  1.00  0.00     0.085 A 
HETATM    9  C20 UNL     1      12.929  77.069  -4.203  1.00  0.00     0.103 C 
HETATM   10  N5  UNL     1      12.675  78.142  -4.648  1.00  0.00    -0.191 NA
ENDROOT
BRANCH   7  11
HETATM   11  N1  UNL     1      10.971  74.685  -3.990  1.00  0.00    -0.352 N 
ATOM     12  H1  UNL     1      10.352  75.406  -3.619  1.00  0.00     0.163 HD
BRANCH  11  13
HETATM   13  C9  UNL     1      10.363  73.733  -4.853  1.00  0.00     0.272 C 
BRANCH  13  14
HETATM   14  O3  UNL     1       9.696  72.804  -4.023  1.00  0.00    -0.371 OA
ATOM     15  H3  UNL     1       9.265  72.184  -4.600  1.00  0.00     0.212 HD
ENDBRANCH  13  14
BRANCH  13  16
HETATM   16  C10 UNL     1       9.304  74.376  -5.702  1.00  0.00     0.087 A 
HETATM   17  C11 UNL     1       7.958  74.129  -5.603  1.00  0.00     0.092 A 
HETATM   18  N2  UNL     1       7.237  73.266  -4.732  1.00  0.00    -0.099 NA
HETATM   19  C12 UNL     1       7.305  74.906  -6.553  1.00  0.00     0.092 A 
HETATM   20  C13 UNL     1       5.983  75.080  -6.919  1.00  0.00     0.191 A 
HETATM   21  C17 UNL     1       8.278  75.618  -7.217  1.00  0.00     0.167 A 
HETATM   22  O4  UNL     1       5.118  74.416  -6.294  1.00  0.00    -0.287 OA
HETATM   23  C14 UNL     1       5.665  75.955  -7.935  1.00  0.00     0.098 A 
HETATM   24  C15 UNL     1       6.705  76.637  -8.557  1.00  0.00     0.146 A 
HETATM   25  O6  UNL     1       7.944  76.443  -8.180  1.00  0.00    -0.287 OA
HETATM   26  N4  UNL     1       9.471  75.269  -6.675  1.00  0.00    -0.329 N 
HETATM   27  C18 UNL     1      10.723  75.847  -7.151  1.00  0.00     0.158 C 
BRANCH  24  28
HETATM   28  C16 UNL     1       6.385  77.569  -9.636  1.00  0.00     0.288 C 
HETATM   29  N3  UNL     1       5.207  78.353  -9.621  1.00  0.00    -0.055 NA
HETATM   30  O5  UNL     1       7.189  77.669 -10.602  1.00  0.00    -0.269 OA
ENDBRANCH  24  28
ENDBRANCH  13  16
ENDBRANCH  11  13
ENDBRANCH   7  11
BRANCH   1  31
HETATM   31  C2  UNL     1      16.953  73.297  -2.996  1.00  0.00     0.267 C 
HETATM   32  O2  UNL     1      16.537  72.921  -4.122  1.00  0.00    -0.264 OA
BRANCH  31  33
HETATM   33  O1  UNL     1      18.256  72.977  -2.649  1.00  0.00    -0.326 OA
HETATM   34  C1  UNL     1      18.503  72.314  -1.403  1.00  0.00     0.213 C 
ENDBRANCH  31  33
ENDBRANCH   1  31
TORSDOF 7
ENDMDL
MODEL 4
REMARK VINA RESULT: -9.558872153      1.694      2.624
REMARK  7 active torsions:
REMARK  status: ('A' for Active; 'I' for Inactive)
REMARK    1  A    between atoms: O1_2  and  C2_3 
REMARK    2  A    between atoms: C2_3  and  C3_5 
REMARK    3  A    between atoms: C8_11  and  N1_12 
REMARK    4  A    between atoms: N1_12  and  C9_14 
REMARK    5  A    between atoms: C9_14  and  O3_15 
REMARK    6  A    between atoms: C9_14  and  C10_17 
REMARK    7  A    between atoms: C15_24  and  C16_25 
ROOT
HETATM    1  C3  UNL     1      16.159  76.637  -2.860  1.00  0.00     0.126 C 
HETATM    2  C4  UNL     1      16.850  75.438  -2.250  1.00  0.00     0.024 C 
HETATM    3  C5  UNL     1      15.762  74.608  -1.662  1.00  0.00     0.042 C 
HETATM    4  C6  UNL     1      14.498  74.979  -2.450  1.00  0.00    -0.021 A 
HETATM    5  C7  UNL     1      14.750  76.129  -3.117  1.00  0.00     0.006 A 
HETATM    6  S1  UNL     1      13.297  76.430  -3.939  1.00  0.00    -0.074 SA
HETATM    7  C8  UNL     1      12.368  75.049  -3.402  1.00  0.00     0.094 A 
HETATM    8  C19 UNL     1      13.262  74.413  -2.596  1.00  0.00     0.085 A 
HETATM    9  C20 UNL     1      12.871  73.135  -1.937  1.00  0.00     0.103 C 
HETATM   10  N5  UNL     1      12.593  72.106  -1.410  1.00  0.00    -0.191 NA
ENDROOT
BRANCH   7  11
HETATM   11  N1  UNL     1      11.028  74.770  -3.805  1.00  0.00    -0.352 N 
ATOM     12  H1  UNL     1      10.302  75.307  -3.332  1.00  0.00     0.163 HD
BRANCH  11  13
HETATM   13  C9  UNL     1      10.575  73.840  -4.780  1.00  0.00     0.272 C 
BRANCH  13  14
HETATM   14  O3  UNL     1       9.958  72.783  -4.073  1.00  0.00    -0.371 OA
ATOM     15  H3  UNL     1      10.619  72.419  -3.496  1.00  0.00     0.212 HD
ENDBRANCH  13  14
BRANCH  13  16
HETATM   16  C10 UNL     1       9.509  74.446  -5.646  1.00  0.00     0.087 A 
HETATM   17  C11 UNL     1       8.171  74.151  -5.572  1.00  0.00     0.092 A 
HETATM   18  N2  UNL     1       7.465  73.260  -4.716  1.00  0.00    -0.099 NA
HETATM   19  C12 UNL     1       7.507  74.906  -6.532  1.00  0.00     0.092 A 
HETATM   20  C13 UNL     1       6.187  75.034  -6.922  1.00  0.00     0.191 A 
HETATM   21  C17 UNL     1       8.466  75.654  -7.178  1.00  0.00     0.167 A 
HETATM   22  O4  UNL     1       5.335  74.338  -6.313  1.00  0.00    -0.287 OA
HETATM   23  C14 UNL     1       5.856  75.900  -7.942  1.00  0.00     0.098 A 
HETATM   24  C15 UNL     1       6.882  76.620  -8.543  1.00  0.00     0.146 A 
HETATM   25  O6  UNL     1       8.120  76.469  -8.144  1.00  0.00    -0.287 OA
HETATM   26  N4  UNL     1       9.661  75.347  -6.614  1.00  0.00    -0.329 N 
HETATM   27  C18 UNL     1      10.899  75.970  -7.067  1.00  0.00     0.158 C 
BRANCH  24  28
HETATM   28  C16 UNL     1       6.548  77.542  -9.627  1.00  0.00     0.288 C 
HETATM   29  N3  UNL     1       5.340  78.280  -9.633  1.00  0.00    -0.055 NA
HETATM   30  O5  UNL     1       7.367  77.676 -10.576  1.00  0.00    -0.269 OA
ENDBRANCH  24  28
ENDBRANCH  13  16
ENDBRANCH  11  13
ENDBRANCH   7  11
BRANCH   1  31
HETATM   31  C2  UNL     1      16.138  77.739  -1.864  1.00  0.00     0.267 C 
HETATM   32  O2  UNL     1      17.007  77.872  -0.965  1.00  0.00    -0.264 OA
BRANCH  31  33
HETATM   33  O1  UNL     1      15.115  78.673  -1.917  1.00  0.00    -0.326 OA
HETATM   34  C1  UNL     1      14.343  78.930  -0.738  1.00  0.00     0.213 C 
ENDBRANCH  31  33
ENDBRANCH   1  31
TORSDOF 7
ENDMDL
MODEL 5
REMARK VINA RESULT: -9.532056176      2.268      3.657
REMARK  7 active torsions:
REMARK  status: ('A' for Active; 'I' for Inactive)
REMARK    1  A    between atoms: O1_2  and  C2_3 
REMARK    2  A    between atoms: C2_3  and  C3_5 
REMARK    3  A    between atoms: C8_11  and  N1_12 
REMARK    4  A    between atoms: N1_12  and  C9_14 
REMARK    5  A    between atoms: C9_14  and  O3_15 
REMARK    6  A    between atoms: C9_14  and  C10_17 
REMARK    7  A    between atoms: C15_24  and  C16_25 
ROOT
HETATM    1  C3  UNL     1      15.874  77.035  -2.206  1.00  0.00     0.126 C 
HETATM    2  C4  UNL     1      16.566  78.302  -2.659  1.00  0.00     0.024 C 
HETATM    3  C5  UNL     1      16.151  78.496  -4.076  1.00  0.00     0.042 C 
HETATM    4  C6  UNL     1      14.812  77.759  -4.211  1.00  0.00    -0.021 A 
HETATM    5  C7  UNL     1      14.681  76.941  -3.143  1.00  0.00     0.006 A 
HETATM    6  S1  UNL     1      13.182  76.192  -3.405  1.00  0.00    -0.074 SA
HETATM    7  C8  UNL     1      12.737  76.955  -4.914  1.00  0.00     0.094 A 
HETATM    8  C19 UNL     1      13.803  77.771  -5.134  1.00  0.00     0.085 A 
HETATM    9  C20 UNL     1      13.816  78.648  -6.340  1.00  0.00     0.103 C 
HETATM   10  N5  UNL     1      13.847  79.370  -7.284  1.00  0.00    -0.191 NA
ENDROOT
BRANCH   7  11
HETATM   11  N1  UNL     1      11.521  76.707  -5.618  1.00  0.00    -0.352 N 
ATOM     12  H1  UNL     1      10.781  77.396  -5.483  1.00  0.00     0.163 HD
BRANCH  11  13
HETATM   13  C9  UNL     1      11.205  75.623  -6.481  1.00  0.00     0.272 C 
BRANCH  13  14
HETATM   14  O3  UNL     1      11.044  74.485  -5.659  1.00  0.00    -0.371 OA
ATOM     15  H3  UNL     1      11.268  73.730  -6.192  1.00  0.00     0.212 HD
ENDBRANCH  13  14
BRANCH  13  16
HETATM   16  C10 UNL     1       9.883  75.842  -7.160  1.00  0.00     0.087 A 
HETATM   17  C11 UNL     1       8.793  75.016  -7.048  1.00  0.00     0.092 A 
HETATM   18  N2  UNL     1       8.616  73.813  -6.310  1.00  0.00    -0.099 NA
HETATM   19  C12 UNL     1       7.767  75.548  -7.819  1.00  0.00     0.092 A 
HETATM   20  C13 UNL     1       6.465  75.170  -8.093  1.00  0.00     0.191 A 
HETATM   21  C17 UNL     1       8.259  76.699  -8.392  1.00  0.00     0.167 A 
HETATM   22  O4  UNL     1       6.046  74.114  -7.556  1.00  0.00    -0.287 OA
HETATM   23  C14 UNL     1       5.689  75.946  -8.927  1.00  0.00     0.098 A 
HETATM   24  C15 UNL     1       6.259  77.094  -9.465  1.00  0.00     0.146 A 
HETATM   25  O6  UNL     1       7.496  77.417  -9.181  1.00  0.00    -0.287 OA
HETATM   26  N4  UNL     1       9.540  76.842  -7.969  1.00  0.00    -0.329 N 
HETATM   27  C18 UNL     1      10.360  77.971  -8.391  1.00  0.00     0.158 C 
BRANCH  24  28
HETATM   28  C16 UNL     1       5.450  77.928 -10.352  1.00  0.00     0.288 C 
HETATM   29  N3  UNL     1       5.293  77.625 -11.725  1.00  0.00    -0.055 NA
HETATM   30  O5  UNL     1       4.881  78.943  -9.868  1.00  0.00    -0.269 OA
ENDBRANCH  24  28
ENDBRANCH  13  16
ENDBRANCH  11  13
ENDBRANCH   7  11
BRANCH   1  31
HETATM   31  C2  UNL     1      16.790  75.884  -2.417  1.00  0.00     0.267 C 
HETATM   32  O2  UNL     1      18.016  75.919  -2.137  1.00  0.00    -0.264 OA
BRANCH  31  33
HETATM   33  O1  UNL     1      16.281  74.709  -2.946  1.00  0.00    -0.326 OA
HETATM   34  C1  UNL     1      17.141  73.569  -3.070  1.00  0.00     0.213 C 
ENDBRANCH  31  33
ENDBRANCH   1  31
TORSDOF 7
ENDMDL
