MODEL 1
REMARK VINA RESULT: -9.017427769      0.000      0.000
REMARK  8 active torsions:
REMARK  status: ('A' for Active; 'I' for Inactive)
REMARK    1  A    between atoms: O1_2  and  C2_3 
REMARK    2  A    between atoms: C7_9  and  O3_10 
REMARK    3  A    between atoms: C8_12  and  O4_13 
REMARK    4  A    between atoms: C10_15  and  O5_16 
REMARK    5  A    between atoms: C11_18  and  N1_19 
REMARK    6  A    between atoms: N1_19  and  N2_21 
REMARK    7  A    between atoms: C18_33  and  O9_34 
REMARK    8  A    between atoms: C19_36  and  O10_37 
ROOT
HETATM    1  C2  UNL     1       8.425  75.539  -7.748  1.00  0.00     0.105 A 
HETATM    2  C3  UNL     1       9.323  76.578  -7.961  1.00  0.00     0.058 A 
HETATM    3  C4  UNL     1      10.483  76.693  -7.235  1.00  0.00     0.055 A 
HETATM    4  C5  UNL     1      11.337  77.736  -7.479  1.00  0.00     0.201 A 
HETATM    5  O2  UNL     1      11.034  78.557  -8.360  1.00  0.00    -0.286 OA
HETATM    6  C6  UNL     1      12.500  77.834  -6.739  1.00  0.00     0.087 A 
HETATM    7  C7  UNL     1      13.393  78.862  -6.935  1.00  0.00     0.119 A 
HETATM    8  C8  UNL     1      14.561  78.919  -6.147  1.00  0.00     0.138 A 
HETATM    9  C10 UNL     1      14.760  77.937  -5.211  1.00  0.00     0.133 A 
HETATM   10  C11 UNL     1      13.922  76.902  -4.972  1.00  0.00     0.119 A 
HETATM   11  C16 UNL     1      12.765  76.882  -5.779  1.00  0.00     0.124 A 
HETATM   12  O8  UNL     1      11.906  75.900  -5.586  1.00  0.00    -0.303 OA
HETATM   13  C17 UNL     1      10.794  75.768  -6.264  1.00  0.00     0.126 A 
HETATM   14  C18 UNL     1       9.911  74.729  -6.038  1.00  0.00     0.137 A 
HETATM   15  C19 UNL     1       8.728  74.618  -6.782  1.00  0.00     0.137 A 
ENDROOT
BRANCH  10  16
HETATM   16  N1  UNL     1      14.096  75.875  -4.038  1.00  0.00    -0.289 N 
ATOM     17  H1  UNL     1      14.883  75.256  -4.233  1.00  0.00     0.187 HD
BRANCH  16  18
HETATM   18  N2  UNL     1      13.388  75.556  -2.901  1.00  0.00    -0.241 N 
HETATM   19  C12 UNL     1      12.984  76.492  -1.871  1.00  0.00     0.163 C 
HETATM   20  C13 UNL     1      13.524  76.112  -0.503  1.00  0.00     0.125 C 
HETATM   21  C14 UNL     1      13.415  74.651  -0.280  1.00  0.00     0.227 C 
HETATM   22  O6  UNL     1      13.686  74.235   0.902  1.00  0.00    -0.273 OA
HETATM   23  N3  UNL     1      13.036  73.705  -1.279  1.00  0.00    -0.278 N 
HETATM   24  C15 UNL     1      13.022  74.175  -2.648  1.00  0.00     0.343 C 
ATOM     25  H3  UNL     1      12.787  72.745  -1.040  1.00  0.00     0.173 HD
HETATM   26  O7  UNL     1      12.714  73.456  -3.608  1.00  0.00    -0.245 OA
ENDBRANCH  16  18
ENDBRANCH  10  16
BRANCH   9  27
HETATM   27  O5  UNL     1      15.934  78.015  -4.432  1.00  0.00    -0.356 OA
ATOM     28  H5  UNL     1      15.990  78.721  -3.799  1.00  0.00     0.218 HD
ENDBRANCH   9  27
BRANCH   8  29
HETATM   29  O4  UNL     1      15.497  79.906  -6.279  1.00  0.00    -0.351 OA
HETATM   30  C9  UNL     1      15.516  81.164  -5.684  1.00  0.00     0.210 C 
ENDBRANCH   8  29
BRANCH   7  31
HETATM   31  O3  UNL     1      13.233  79.835  -7.839  1.00  0.00    -0.357 OA
ATOM     32  H3  UNL     1      12.737  80.631  -7.687  1.00  0.00     0.218 HD
ENDBRANCH   7  31
BRANCH  14  33
HETATM   33  O9  UNL     1      10.172  73.783  -5.080  1.00  0.00    -0.356 OA
ATOM     34  H9  UNL     1       9.537  73.104  -4.882  1.00  0.00     0.218 HD
ENDBRANCH  14  33
BRANCH  15  35
HETATM   35  O10 UNL     1       7.853  73.552  -6.525  1.00  0.00    -0.351 OA
HETATM   36  C20 UNL     1       6.855  73.657  -5.519  1.00  0.00     0.210 C 
ENDBRANCH  15  35
BRANCH   1  37
HETATM   37  O1  UNL     1       7.254  75.440  -8.495  1.00  0.00    -0.353 OA
HETATM   38  C1  UNL     1       6.134  76.216  -8.193  1.00  0.00     0.210 C 
ENDBRANCH   1  37
TORSDOF 8
ENDMDL
MODEL 2
REMARK VINA RESULT: -8.996672762      1.620      2.008
REMARK  8 active torsions:
REMARK  status: ('A' for Active; 'I' for Inactive)
REMARK    1  A    between atoms: O1_2  and  C2_3 
REMARK    2  A    between atoms: C7_9  and  O3_10 
REMARK    3  A    between atoms: C8_12  and  O4_13 
REMARK    4  A    between atoms: C10_15  and  O5_16 
REMARK    5  A    between atoms: C11_18  and  N1_19 
REMARK    6  A    between atoms: N1_19  and  N2_21 
REMARK    7  A    between atoms: C18_33  and  O9_34 
REMARK    8  A    between atoms: C19_36  and  O10_37 
ROOT
HETATM    1  C2  UNL     1       9.084  75.403  -7.331  1.00  0.00     0.105 A 
HETATM    2  C3  UNL     1       9.947  76.438  -7.667  1.00  0.00     0.058 A 
HETATM    3  C4  UNL     1      11.068  76.716  -6.924  1.00  0.00     0.055 A 
HETATM    4  C5  UNL     1      11.889  77.749  -7.295  1.00  0.00     0.201 A 
HETATM    5  O2  UNL     1      11.593  78.411  -8.303  1.00  0.00    -0.286 OA
HETATM    6  C6  UNL     1      13.013  78.013  -6.534  1.00  0.00     0.087 A 
HETATM    7  C7  UNL     1      13.871  79.040  -6.854  1.00  0.00     0.119 A 
HETATM    8  C8  UNL     1      15.000  79.272  -6.040  1.00  0.00     0.138 A 
HETATM    9  C10 UNL     1      15.196  78.455  -4.956  1.00  0.00     0.133 A 
HETATM   10  C11 UNL     1      14.391  77.430  -4.592  1.00  0.00     0.119 A 
HETATM   11  C16 UNL     1      13.272  77.233  -5.429  1.00  0.00     0.124 A 
HETATM   12  O8  UNL     1      12.447  76.253  -5.120  1.00  0.00    -0.303 OA
HETATM   13  C17 UNL     1      11.372  75.967  -5.811  1.00  0.00     0.126 A 
HETATM   14  C18 UNL     1      10.523  74.934  -5.461  1.00  0.00     0.137 A 
HETATM   15  C19 UNL     1       9.380  74.656  -6.224  1.00  0.00     0.137 A 
ENDROOT
BRANCH  10  16
HETATM   16  N1  UNL     1      14.564  76.567  -3.505  1.00  0.00    -0.289 N 
ATOM     17  H1  UNL     1      14.031  76.824  -2.673  1.00  0.00     0.187 HD
BRANCH  16  18
HETATM   18  N2  UNL     1      15.330  75.432  -3.362  1.00  0.00    -0.241 N 
HETATM   19  C12 UNL     1      15.081  74.162  -4.015  1.00  0.00     0.163 C 
HETATM   20  C13 UNL     1      14.905  73.028  -3.019  1.00  0.00     0.125 C 
HETATM   21  C14 UNL     1      15.894  73.131  -1.921  1.00  0.00     0.227 C 
HETATM   22  O6  UNL     1      15.950  72.139  -1.111  1.00  0.00    -0.273 OA
HETATM   23  N3  UNL     1      16.765  74.243  -1.718  1.00  0.00    -0.278 N 
HETATM   24  C15 UNL     1      16.472  75.445  -2.468  1.00  0.00     0.343 C 
ATOM     25  H3  UNL     1      17.556  74.192  -1.075  1.00  0.00     0.173 HD
HETATM   26  O7  UNL     1      17.148  76.479  -2.382  1.00  0.00    -0.245 OA
ENDBRANCH  16  18
ENDBRANCH  10  16
BRANCH   9  27
HETATM   27  O5  UNL     1      16.330  78.705  -4.154  1.00  0.00    -0.356 OA
ATOM     28  H5  UNL     1      16.864  77.958  -3.911  1.00  0.00     0.218 HD
ENDBRANCH   9  27
BRANCH   8  29
HETATM   29  O4  UNL     1      15.900  80.270  -6.287  1.00  0.00    -0.351 OA
HETATM   30  C9  UNL     1      15.875  81.587  -5.839  1.00  0.00     0.210 C 
ENDBRANCH   8  29
BRANCH   7  31
HETATM   31  O3  UNL     1      13.713  79.854  -7.903  1.00  0.00    -0.357 OA
ATOM     32  H3  UNL     1      14.429  80.223  -8.406  1.00  0.00     0.218 HD
ENDBRANCH   7  31
BRANCH  14  33
HETATM   33  O9  UNL     1      10.779  74.159  -4.359  1.00  0.00    -0.356 OA
ATOM     34  H9  UNL     1      11.656  74.101  -3.999  1.00  0.00     0.218 HD
ENDBRANCH  14  33
BRANCH  15  35
HETATM   35  O10 UNL     1       8.538  73.602  -5.838  1.00  0.00    -0.351 OA
HETATM   36  C20 UNL     1       7.377  73.846  -5.055  1.00  0.00     0.210 C 
ENDBRANCH  15  35
BRANCH   1  37
HETATM   37  O1  UNL     1       7.952  75.137  -8.098  1.00  0.00    -0.353 OA
HETATM   38  C1  UNL     1       6.874  76.022  -8.130  1.00  0.00     0.210 C 
ENDBRANCH   1  37
TORSDOF 8
ENDMDL
MODEL 3
REMARK VINA RESULT: -8.941569660      2.924      8.241
REMARK  8 active torsions:
REMARK  status: ('A' for Active; 'I' for Inactive)
REMARK    1  A    between atoms: O1_2  and  C2_3 
REMARK    2  A    between atoms: C7_9  and  O3_10 
REMARK    3  A    between atoms: C8_12  and  O4_13 
REMARK    4  A    between atoms: C10_15  and  O5_16 
REMARK    5  A    between atoms: C11_18  and  N1_19 
REMARK    6  A    between atoms: N1_19  and  N2_21 
REMARK    7  A    between atoms: C18_33  and  O9_34 
REMARK    8  A    between atoms: C19_36  and  O10_37 
ROOT
HETATM    1  C2  UNL     1      14.774  78.202  -5.787  1.00  0.00     0.105 A 
HETATM    2  C3  UNL     1      14.104  77.272  -5.004  1.00  0.00     0.058 A 
HETATM    3  C4  UNL     1      12.937  76.680  -5.420  1.00  0.00     0.055 A 
HETATM    4  C5  UNL     1      12.311  75.769  -4.611  1.00  0.00     0.201 A 
HETATM    5  O2  UNL     1      12.822  75.501  -3.512  1.00  0.00    -0.286 OA
HETATM    6  C6  UNL     1      11.137  75.184  -5.049  1.00  0.00     0.087 A 
HETATM    7  C7  UNL     1      10.460  74.266  -4.278  1.00  0.00     0.119 A 
HETATM    8  C8  UNL     1       9.263  73.705  -4.769  1.00  0.00     0.138 A 
HETATM    9  C10 UNL     1       8.822  74.100  -6.006  1.00  0.00     0.133 A 
HETATM   10  C11 UNL     1       9.442  74.994  -6.810  1.00  0.00     0.119 A 
HETATM   11  C16 UNL     1      10.634  75.534  -6.283  1.00  0.00     0.124 A 
HETATM   12  O8  UNL     1      11.278  76.418  -7.018  1.00  0.00    -0.303 OA
HETATM   13  C17 UNL     1      12.392  76.996  -6.644  1.00  0.00     0.126 A 
HETATM   14  C18 UNL     1      13.046  77.921  -7.436  1.00  0.00     0.137 A 
HETATM   15  C19 UNL     1      14.237  78.521  -7.004  1.00  0.00     0.137 A 
ENDROOT
BRANCH  10  16
HETATM   16  N1  UNL     1       9.032  75.411  -8.081  1.00  0.00    -0.289 N 
ATOM     17  H1  UNL     1       9.453  74.892  -8.852  1.00  0.00     0.187 HD
BRANCH  16  18
HETATM   18  N2  UNL     1       8.158  76.401  -8.470  1.00  0.00    -0.241 N 
HETATM   19  C12 UNL     1       6.831  76.614  -7.928  1.00  0.00     0.163 C 
HETATM   20  C13 UNL     1       5.754  76.550  -8.998  1.00  0.00     0.125 C 
HETATM   21  C14 UNL     1       6.189  77.254 -10.227  1.00  0.00     0.227 C 
HETATM   22  O6  UNL     1       5.300  77.408 -11.138  1.00  0.00    -0.273 OA
HETATM   23  N3  UNL     1       7.505  77.757 -10.450  1.00  0.00    -0.278 N 
HETATM   24  C15 UNL     1       8.535  77.312  -9.535  1.00  0.00     0.343 C 
ATOM     25  H3  UNL     1       7.711  78.398 -11.216  1.00  0.00     0.173 HD
HETATM   26  O7  UNL     1       9.717  77.672  -9.619  1.00  0.00    -0.245 OA
ENDBRANCH  16  18
ENDBRANCH  10  16
BRANCH   9  27
HETATM   27  O5  UNL     1       7.621  73.527  -6.477  1.00  0.00    -0.356 OA
ATOM     28  H5  UNL     1       6.826  73.729  -5.998  1.00  0.00     0.218 HD
ENDBRANCH   9  27
BRANCH   8  29
HETATM   29  O4  UNL     1       8.531  72.789  -4.068  1.00  0.00    -0.351 OA
HETATM   30  C9  UNL     1       7.187  72.846  -3.712  1.00  0.00     0.210 C 
ENDBRANCH   8  29
BRANCH   7  31
HETATM   31  O3  UNL     1      10.862  73.857  -3.070  1.00  0.00    -0.357 OA
ATOM     32  H3  UNL     1      10.398  74.042  -2.261  1.00  0.00     0.218 HD
ENDBRANCH   7  31
BRANCH  14  33
HETATM   33  O9  UNL     1      12.543  78.273  -8.663  1.00  0.00    -0.356 OA
ATOM     34  H9  UNL     1      12.955  77.966  -9.463  1.00  0.00     0.218 HD
ENDBRANCH  14  33
BRANCH  15  35
HETATM   35  O10 UNL     1      14.873  79.458  -7.832  1.00  0.00    -0.351 OA
HETATM   36  C20 UNL     1      14.812  80.848  -7.539  1.00  0.00     0.210 C 
ENDBRANCH  15  35
BRANCH   1  37
HETATM   37  O1  UNL     1      15.957  78.790  -5.346  1.00  0.00    -0.353 OA
HETATM   38  C1  UNL     1      16.220  78.958  -3.986  1.00  0.00     0.210 C 
ENDBRANCH   1  37
TORSDOF 8
ENDMDL
MODEL 4
REMARK VINA RESULT: -8.751053526      1.374      1.836
REMARK  8 active torsions:
REMARK  status: ('A' for Active; 'I' for Inactive)
REMARK    1  A    between atoms: O1_2  and  C2_3 
REMARK    2  A    between atoms: C7_9  and  O3_10 
REMARK    3  A    between atoms: C8_12  and  O4_13 
REMARK    4  A    between atoms: C10_15  and  O5_16 
REMARK    5  A    between atoms: C11_18  and  N1_19 
REMARK    6  A    between atoms: N1_19  and  N2_21 
REMARK    7  A    between atoms: C18_33  and  O9_34 
REMARK    8  A    between atoms: C19_36  and  O10_37 
ROOT
HETATM    1  C2  UNL     1       8.916  75.511  -7.385  1.00  0.00     0.105 A 
HETATM    2  C3  UNL     1       9.756  76.573  -7.691  1.00  0.00     0.058 A 
HETATM    3  C4  UNL     1      10.926  76.792  -7.005  1.00  0.00     0.055 A 
HETATM    4  C5  UNL     1      11.722  77.855  -7.341  1.00  0.00     0.201 A 
HETATM    5  O2  UNL     1      11.360  78.598  -8.268  1.00  0.00    -0.286 OA
HETATM    6  C6  UNL     1      12.896  78.058  -6.640  1.00  0.00     0.087 A 
HETATM    7  C7  UNL     1      13.733  79.111  -6.929  1.00  0.00     0.119 A 
HETATM    8  C8  UNL     1      14.915  79.277  -6.177  1.00  0.00     0.138 A 
HETATM    9  C10 UNL     1      15.182  78.372  -5.181  1.00  0.00     0.133 A 
HETATM   10  C11 UNL     1      14.402  77.317  -4.851  1.00  0.00     0.119 A 
HETATM   11  C16 UNL     1      13.228  77.188  -5.624  1.00  0.00     0.124 A 
HETATM   12  O8  UNL     1      12.423  76.183  -5.343  1.00  0.00    -0.303 OA
HETATM   13  C17 UNL     1      11.303  75.952  -5.982  1.00  0.00     0.126 A 
HETATM   14  C18 UNL     1      10.477  74.891  -5.664  1.00  0.00     0.137 A 
HETATM   15  C19 UNL     1       9.284  74.674  -6.368  1.00  0.00     0.137 A 
ENDROOT
BRANCH  10  16
HETATM   16  N1  UNL     1      14.646  76.367  -3.855  1.00  0.00    -0.289 N 
ATOM     17  H1  UNL     1      15.017  75.481  -4.199  1.00  0.00     0.187 HD
BRANCH  16  18
HETATM   18  N2  UNL     1      14.471  76.420  -2.490  1.00  0.00    -0.241 N 
HETATM   19  C12 UNL     1      13.359  75.845  -1.761  1.00  0.00     0.163 C 
HETATM   20  C13 UNL     1      12.602  76.883  -0.950  1.00  0.00     0.125 C 
HETATM   21  C14 UNL     1      13.539  77.817  -0.284  1.00  0.00     0.227 C 
HETATM   22  O6  UNL     1      13.024  78.634   0.560  1.00  0.00    -0.273 OA
HETATM   23  N3  UNL     1      14.946  77.859  -0.519  1.00  0.00    -0.278 N 
HETATM   24  C15 UNL     1      15.434  77.132  -1.671  1.00  0.00     0.343 C 
ATOM     25  H3  UNL     1      15.576  78.377   0.094  1.00  0.00     0.173 HD
HETATM   26  O7  UNL     1      16.630  77.090  -1.988  1.00  0.00    -0.245 OA
ENDBRANCH  16  18
ENDBRANCH  10  16
BRANCH   9  27
HETATM   27  O5  UNL     1      16.369  78.558  -4.440  1.00  0.00    -0.356 OA
ATOM     28  H5  UNL     1      17.016  77.863  -4.475  1.00  0.00     0.218 HD
ENDBRANCH   9  27
BRANCH   8  29
HETATM   29  O4  UNL     1      15.799  80.295  -6.399  1.00  0.00    -0.351 OA
HETATM   30  C9  UNL     1      15.776  81.587  -5.884  1.00  0.00     0.210 C 
ENDBRANCH   8  29
BRANCH   7  31
HETATM   31  O3  UNL     1      13.506  80.010  -7.892  1.00  0.00    -0.357 OA
ATOM     32  H3  UNL     1      14.167  80.322  -8.499  1.00  0.00     0.218 HD
ENDBRANCH   7  31
BRANCH  14  33
HETATM   33  O9  UNL     1      10.805  74.026  -4.650  1.00  0.00    -0.356 OA
ATOM     34  H9  UNL     1      10.224  73.313  -4.414  1.00  0.00     0.218 HD
ENDBRANCH  14  33
BRANCH  15  35
HETATM   35  O10 UNL     1       8.468  73.588  -6.016  1.00  0.00    -0.351 OA
HETATM   36  C20 UNL     1       7.372  73.759  -5.127  1.00  0.00     0.210 C 
ENDBRANCH  15  35
BRANCH   1  37
HETATM   37  O1  UNL     1       7.734  75.306  -8.093  1.00  0.00    -0.353 OA
HETATM   38  C1  UNL     1       6.675  76.212  -8.014  1.00  0.00     0.210 C 
ENDBRANCH   1  37
TORSDOF 8
ENDMDL
MODEL 5
REMARK VINA RESULT: -8.672100654      1.652      1.883
REMARK  8 active torsions:
REMARK  status: ('A' for Active; 'I' for Inactive)
REMARK    1  A    between atoms: O1_2  and  C2_3 
REMARK    2  A    between atoms: C7_9  and  O3_10 
REMARK    3  A    between atoms: C8_12  and  O4_13 
REMARK    4  A    between atoms: C10_15  and  O5_16 
REMARK    5  A    between atoms: C11_18  and  N1_19 
REMARK    6  A    between atoms: N1_19  and  N2_21 
REMARK    7  A    between atoms: C18_33  and  O9_34 
REMARK    8  A    between atoms: C19_36  and  O10_37 
ROOT
HETATM    1  C2  UNL     1       8.907  75.282  -7.666  1.00  0.00     0.105 A 
HETATM    2  C3  UNL     1       9.879  76.246  -7.899  1.00  0.00     0.058 A 
HETATM    3  C4  UNL     1      10.898  76.478  -7.007  1.00  0.00     0.055 A 
HETATM    4  C5  UNL     1      11.832  77.442  -7.279  1.00  0.00     0.201 A 
HETATM    5  O2  UNL     1      11.732  78.085  -8.336  1.00  0.00    -0.286 OA
HETATM    6  C6  UNL     1      12.850  77.659  -6.369  1.00  0.00     0.087 A 
HETATM    7  C7  UNL     1      13.815  78.617  -6.585  1.00  0.00     0.119 A 
HETATM    8  C8  UNL     1      14.827  78.804  -5.621  1.00  0.00     0.138 A 
HETATM    9  C10 UNL     1      14.808  78.014  -4.500  1.00  0.00     0.133 A 
HETATM   10  C11 UNL     1      13.891  77.057  -4.232  1.00  0.00     0.119 A 
HETATM   11  C16 UNL     1      12.894  76.903  -5.219  1.00  0.00     0.124 A 
HETATM   12  O8  UNL     1      11.966  75.990  -5.009  1.00  0.00    -0.303 OA
HETATM   13  C17 UNL     1      10.986  75.749  -5.842  1.00  0.00     0.126 A 
HETATM   14  C18 UNL     1      10.026  74.787  -5.595  1.00  0.00     0.137 A 
HETATM   15  C19 UNL     1       8.989  74.556  -6.509  1.00  0.00     0.137 A 
ENDROOT
BRANCH  10  16
HETATM   16  N1  UNL     1      13.845  76.223  -3.110  1.00  0.00    -0.289 N 
ATOM     17  H1  UNL     1      13.109  76.454  -2.443  1.00  0.00     0.187 HD
BRANCH  16  18
HETATM   18  N2  UNL     1      14.623  75.146  -2.750  1.00  0.00    -0.241 N 
HETATM   19  C12 UNL     1      15.753  75.189  -1.844  1.00  0.00     0.163 C 
HETATM   20  C13 UNL     1      17.034  74.694  -2.495  1.00  0.00     0.125 C 
HETATM   21  C14 UNL     1      16.775  73.493  -3.323  1.00  0.00     0.227 C 
HETATM   22  O6  UNL     1      17.807  72.891  -3.788  1.00  0.00    -0.273 OA
HETATM   23  N3  UNL     1      15.478  72.981  -3.624  1.00  0.00    -0.278 N 
HETATM   24  C15 UNL     1      14.354  73.842  -3.327  1.00  0.00     0.343 C 
ATOM     25  H3  UNL     1      15.350  72.053  -4.029  1.00  0.00     0.173 HD
HETATM   26  O7  UNL     1      13.178  73.519  -3.542  1.00  0.00    -0.245 OA
ENDBRANCH  16  18
ENDBRANCH  10  16
BRANCH   9  27
HETATM   27  O5  UNL     1      15.829  78.219  -3.548  1.00  0.00    -0.356 OA
ATOM     28  H5  UNL     1      16.725  78.088  -3.835  1.00  0.00     0.218 HD
ENDBRANCH   9  27
BRANCH   8  29
HETATM   29  O4  UNL     1      15.820  79.733  -5.759  1.00  0.00    -0.351 OA
HETATM   30  C9  UNL     1      15.790  81.085  -5.433  1.00  0.00     0.210 C 
ENDBRANCH   8  29
BRANCH   7  31
HETATM   31  O3  UNL     1      13.866  79.403  -7.666  1.00  0.00    -0.357 OA
ATOM     32  H3  UNL     1      13.902  80.352  -7.636  1.00  0.00     0.218 HD
ENDBRANCH   7  31
BRANCH  14  33
HETATM   33  O9  UNL     1      10.066  74.035  -4.448  1.00  0.00    -0.356 OA
ATOM     34  H9  UNL     1      10.848  74.015  -3.908  1.00  0.00     0.218 HD
ENDBRANCH  14  33
BRANCH  15  35
HETATM   35  O10 UNL     1       8.029  73.572  -6.225  1.00  0.00    -0.351 OA
HETATM   36  C20 UNL     1       6.865  73.887  -5.473  1.00  0.00     0.210 C 
ENDBRANCH  15  35
BRANCH   1  37
HETATM   37  O1  UNL     1       7.883  75.062  -8.583  1.00  0.00    -0.353 OA
HETATM   38  C1  UNL     1       6.783  75.918  -8.660  1.00  0.00     0.210 C 
ENDBRANCH   1  37
TORSDOF 8
ENDMDL
