MODEL 1
REMARK VINA RESULT: -5.132527684      0.000      0.000
REMARK  6 active torsions:
REMARK  status: ('A' for Active; 'I' for Inactive)
REMARK    1  A    between atoms: N1_1  and  C1_5 
REMARK    2  A    between atoms: C1_5  and  C2_6 
REMARK    3  A    between atoms: C2_6  and  N2_7 
REMARK    4  A    between atoms: N2_7  and  C3_9 
REMARK    5  A    between atoms: C5_16  and  N5_17 
REMARK    6  A    between atoms: N5_17  and  O2_19 
ROOT
HETATM    1  C3  UNL     1      -5.576  12.984  12.359  1.00  0.00     0.179 C 
HETATM    2  N3  UNL     1      -5.696  13.317  13.673  1.00  0.00    -0.289 N 
ATOM      3  H3  UNL     1      -4.977  12.955  14.300  1.00  0.00     0.172 HD
HETATM    4  C4  UNL     1      -6.672  14.083  14.249  1.00  0.00     0.340 C 
HETATM    5  O1  UNL     1      -6.917  13.919  15.464  1.00  0.00    -0.246 OA
HETATM    6  N4  UNL     1      -7.436  15.035  13.643  1.00  0.00    -0.139 N 
ATOM      7  H4  UNL     1      -8.073  15.534  14.264  1.00  0.00     0.189 HD
HETATM    8  C5  UNL     1      -7.479  15.419  12.354  1.00  0.00     0.708 C 
HETATM    9  N6  UNL     1      -6.701  14.936  11.344  1.00  0.00    -0.151 N 
ATOM     10  H6  UNL     1      -6.766  15.458  10.470  1.00  0.00     0.188 HD
HETATM   11  C6  UNL     1      -5.866  13.888  11.310  1.00  0.00     0.304 C 
HETATM   12  O3  UNL     1      -5.260  13.665  10.237  1.00  0.00    -0.263 OA
ENDROOT
BRANCH   1  13
HETATM   13  N2  UNL     1      -5.210  11.859  12.065  1.00  0.00    -0.350 N 
ATOM     14  H2  UNL     1      -5.122  11.845  11.049  1.00  0.00     0.166 HD
BRANCH  13  15
HETATM   15  C2  UNL     1      -4.864  10.605  12.498  1.00  0.00     0.089 C 
BRANCH  15  16
HETATM   16  C1  UNL     1      -3.435  10.351  12.918  1.00  0.00     0.274 C 
BRANCH  16  17
HETATM   17  N1  UNL     1      -2.556  10.874  11.881  1.00  0.00    -0.075 N 
ATOM     18  H13 UNL     1      -1.597  10.998  12.205  1.00  0.00     0.274 HD
ATOM     19  H12 UNL     1      -2.366  10.192  11.146  1.00  0.00     0.274 HD
ATOM     20  H11 UNL     1      -2.964  11.736  11.520  1.00  0.00     0.274 HD
ENDBRANCH  16  17
ENDBRANCH  15  16
ENDBRANCH  13  15
ENDBRANCH   1  13
BRANCH   8  21
HETATM   21  N5  UNL     1      -8.344  16.331  12.061  1.00  0.00    -0.098 N 
ATOM     22  H5  UNL     1      -8.269  17.272  12.448  1.00  0.00     0.213 HD
BRANCH  21  23
HETATM   23  O2  UNL     1      -9.364  15.994  11.214  1.00  0.00    -0.276 OA
ATOM     24  H2  UNL     1     -10.079  16.611  11.114  1.00  0.00     0.245 HD
ENDBRANCH  21  23
ENDBRANCH   8  21
TORSDOF 6
ENDMDL
MODEL 2
REMARK VINA RESULT: -4.993732094      6.769      9.489
REMARK  6 active torsions:
REMARK  status: ('A' for Active; 'I' for Inactive)
REMARK    1  A    between atoms: N1_1  and  C1_5 
REMARK    2  A    between atoms: C1_5  and  C2_6 
REMARK    3  A    between atoms: C2_6  and  N2_7 
REMARK    4  A    between atoms: N2_7  and  C3_9 
REMARK    5  A    between atoms: C5_16  and  N5_17 
REMARK    6  A    between atoms: N5_17  and  O2_19 
ROOT
HETATM    1  C3  UNL     1      -9.575  21.451  12.431  1.00  0.00     0.179 C 
HETATM    2  N3  UNL     1     -10.596  22.349  12.500  1.00  0.00    -0.289 N 
ATOM      3  H3  UNL     1     -11.170  22.318  13.342  1.00  0.00     0.172 HD
HETATM    4  C4  UNL     1     -10.940  23.286  11.566  1.00  0.00     0.340 C 
HETATM    5  O1  UNL     1     -12.121  23.695  11.541  1.00  0.00    -0.246 OA
HETATM    6  N4  UNL     1     -10.129  23.850  10.627  1.00  0.00    -0.139 N 
ATOM      7  H4  UNL     1     -10.567  24.574  10.058  1.00  0.00     0.189 HD
HETATM    8  C5  UNL     1      -8.838  23.601  10.336  1.00  0.00     0.708 C 
HETATM    9  N6  UNL     1      -8.026  22.715  10.978  1.00  0.00    -0.151 N 
ATOM     10  H6  UNL     1      -7.040  22.778  10.722  1.00  0.00     0.188 HD
HETATM   11  C6  UNL     1      -8.308  21.774  11.889  1.00  0.00     0.304 C 
HETATM   12  O3  UNL     1      -7.356  21.088  12.328  1.00  0.00    -0.263 OA
ENDROOT
BRANCH   1  13
HETATM   13  N2  UNL     1      -9.753  20.320  12.846  1.00  0.00    -0.350 N 
ATOM     14  H2  UNL     1      -9.295  19.697  12.180  1.00  0.00     0.166 HD
BRANCH  13  15
HETATM   15  C2  UNL     1     -10.297  19.514  13.813  1.00  0.00     0.089 C 
BRANCH  15  16
HETATM   16  C1  UNL     1      -9.624  18.197  14.122  1.00  0.00     0.274 C 
BRANCH  16  17
HETATM   17  N1  UNL     1      -9.276  17.556  12.862  1.00  0.00    -0.075 N 
ATOM     18  H13 UNL     1     -10.023  17.620  12.170  1.00  0.00     0.274 HD
ATOM     19  H12 UNL     1      -8.563  18.070  12.344  1.00  0.00     0.274 HD
ATOM     20  H11 UNL     1      -9.003  16.593  13.058  1.00  0.00     0.274 HD
ENDBRANCH  16  17
ENDBRANCH  15  16
ENDBRANCH  13  15
ENDBRANCH   1  13
BRANCH   8  21
HETATM   21  N5  UNL     1      -8.337  24.272   9.354  1.00  0.00    -0.098 N 
ATOM     22  H5  UNL     1      -8.935  24.685   8.638  1.00  0.00     0.213 HD
BRANCH  21  23
HETATM   23  O2  UNL     1      -6.977  24.411   9.306  1.00  0.00    -0.276 OA
ATOM     24  H2  UNL     1      -6.595  24.748   8.504  1.00  0.00     0.245 HD
ENDBRANCH  21  23
ENDBRANCH   8  21
TORSDOF 6
ENDMDL
MODEL 3
REMARK VINA RESULT: -4.725704314      1.783      5.040
REMARK  6 active torsions:
REMARK  status: ('A' for Active; 'I' for Inactive)
REMARK    1  A    between atoms: N1_1  and  C1_5 
REMARK    2  A    between atoms: C1_5  and  C2_6 
REMARK    3  A    between atoms: C2_6  and  N2_7 
REMARK    4  A    between atoms: N2_7  and  C3_9 
REMARK    5  A    between atoms: C5_16  and  N5_17 
REMARK    6  A    between atoms: N5_17  and  O2_19 
ROOT
HETATM    1  C3  UNL     1      -6.587  14.644  13.308  1.00  0.00     0.179 C 
HETATM    2  N3  UNL     1      -6.624  13.787  14.365  1.00  0.00    -0.289 N 
ATOM      3  H3  UNL     1      -7.344  13.963  15.066  1.00  0.00     0.172 HD
HETATM    4  C4  UNL     1      -5.806  12.716  14.593  1.00  0.00     0.340 C 
HETATM    5  O1  UNL     1      -5.648  12.328  15.772  1.00  0.00    -0.246 OA
HETATM    6  N4  UNL     1      -5.117  11.993  13.666  1.00  0.00    -0.139 N 
ATOM      7  H4  UNL     1      -4.603  11.194  14.038  1.00  0.00     0.189 HD
HETATM    8  C5  UNL     1      -5.010  12.170  12.336  1.00  0.00     0.708 C 
HETATM    9  N6  UNL     1      -5.631  13.135  11.600  1.00  0.00    -0.151 N 
ATOM     10  H6  UNL     1      -5.557  13.014  10.590  1.00  0.00     0.188 HD
HETATM   11  C6  UNL     1      -6.322  14.216  11.985  1.00  0.00     0.304 C 
HETATM   12  O3  UNL     1      -6.800  14.948  11.088  1.00  0.00    -0.263 OA
ENDROOT
BRANCH   1  13
HETATM   13  N2  UNL     1      -6.783  15.831  13.502  1.00  0.00    -0.350 N 
ATOM     14  H2  UNL     1      -6.142  16.329  12.884  1.00  0.00     0.166 HD
BRANCH  13  15
HETATM   15  C2  UNL     1      -7.485  16.792  14.183  1.00  0.00     0.089 C 
BRANCH  15  16
HETATM   16  C1  UNL     1      -8.504  17.615  13.431  1.00  0.00     0.274 C 
BRANCH  16  17
HETATM   17  N1  UNL     1      -8.860  16.899  12.215  1.00  0.00    -0.075 N 
ATOM     18  H13 UNL     1      -8.056  16.461  11.767  1.00  0.00     0.274 HD
ATOM     19  H12 UNL     1      -9.395  16.050  12.401  1.00  0.00     0.274 HD
ATOM     20  H11 UNL     1      -9.352  17.545  11.597  1.00  0.00     0.274 HD
ENDBRANCH  16  17
ENDBRANCH  15  16
ENDBRANCH  13  15
ENDBRANCH   1  13
BRANCH   8  21
HETATM   21  N5  UNL     1      -4.244  11.339  11.712  1.00  0.00    -0.098 N 
ATOM     22  H5  UNL     1      -4.629  10.525  11.233  1.00  0.00     0.213 HD
BRANCH  21  23
HETATM   23  O2  UNL     1      -2.899  11.588  11.714  1.00  0.00    -0.276 OA
ATOM     24  H2  UNL     1      -2.366  11.148  11.062  1.00  0.00     0.245 HD
ENDBRANCH  21  23
ENDBRANCH   8  21
TORSDOF 6
ENDMDL
MODEL 4
REMARK VINA RESULT: -4.628611135      6.171      8.665
REMARK  6 active torsions:
REMARK  status: ('A' for Active; 'I' for Inactive)
REMARK    1  A    between atoms: N1_1  and  C1_5 
REMARK    2  A    between atoms: C1_5  and  C2_6 
REMARK    3  A    between atoms: C2_6  and  N2_7 
REMARK    4  A    between atoms: N2_7  and  C3_9 
REMARK    5  A    between atoms: C5_16  and  N5_17 
REMARK    6  A    between atoms: N5_17  and  O2_19 
ROOT
HETATM    1  C3  UNL     1      -9.470  20.785  13.053  1.00  0.00     0.179 C 
HETATM    2  N3  UNL     1     -10.365  21.216  13.983  1.00  0.00    -0.289 N 
ATOM      3  H3  UNL     1     -10.110  21.069  14.960  1.00  0.00     0.172 HD
HETATM    4  C4  UNL     1     -11.569  21.823  13.756  1.00  0.00     0.340 C 
HETATM    5  O1  UNL     1     -12.455  21.735  14.634  1.00  0.00    -0.246 OA
HETATM    6  N4  UNL     1     -11.936  22.538  12.655  1.00  0.00    -0.139 N 
ATOM      7  H4  UNL     1     -12.864  22.958  12.704  1.00  0.00     0.189 HD
HETATM    8  C5  UNL     1     -11.264  22.776  11.514  1.00  0.00     0.708 C 
HETATM    9  N6  UNL     1      -9.998  22.361  11.225  1.00  0.00    -0.151 N 
ATOM     10  H6  UNL     1      -9.598  22.770  10.380  1.00  0.00     0.188 HD
HETATM   11  C6  UNL     1      -9.192  21.504  11.867  1.00  0.00     0.304 C 
HETATM   12  O3  UNL     1      -8.056  21.302  11.380  1.00  0.00    -0.263 OA
ENDROOT
BRANCH   1  13
HETATM   13  N2  UNL     1      -8.883  19.733  13.240  1.00  0.00    -0.350 N 
ATOM     14  H2  UNL     1      -8.785  19.295  12.324  1.00  0.00     0.166 HD
BRANCH  13  15
HETATM   15  C2  UNL     1      -8.296  18.879  14.138  1.00  0.00     0.089 C 
BRANCH  15  16
HETATM   16  C1  UNL     1      -8.186  17.415  13.781  1.00  0.00     0.274 C 
BRANCH  16  17
HETATM   17  N1  UNL     1      -9.001  17.172  12.599  1.00  0.00    -0.075 N 
ATOM     18  H13 UNL     1      -8.480  17.298  11.731  1.00  0.00     0.274 HD
ATOM     19  H12 UNL     1      -9.235  16.187  12.479  1.00  0.00     0.274 HD
ATOM     20  H11 UNL     1      -9.827  17.768  12.652  1.00  0.00     0.274 HD
ENDBRANCH  16  17
ENDBRANCH  15  16
ENDBRANCH  13  15
ENDBRANCH   1  13
BRANCH   8  21
HETATM   21  N5  UNL     1     -11.889  23.462  10.617  1.00  0.00    -0.098 N 
ATOM     22  H5  UNL     1     -11.819  24.479  10.588  1.00  0.00     0.213 HD
BRANCH  21  23
HETATM   23  O2  UNL     1     -12.650  22.780   9.708  1.00  0.00    -0.276 OA
ATOM     24  H2  UNL     1     -13.574  22.995   9.654  1.00  0.00     0.245 HD
ENDBRANCH  21  23
ENDBRANCH   8  21
TORSDOF 6
ENDMDL
MODEL 5
REMARK VINA RESULT: -4.628372047      1.007      2.724
REMARK  6 active torsions:
REMARK  status: ('A' for Active; 'I' for Inactive)
REMARK    1  A    between atoms: N1_1  and  C1_5 
REMARK    2  A    between atoms: C1_5  and  C2_6 
REMARK    3  A    between atoms: C2_6  and  N2_7 
REMARK    4  A    between atoms: N2_7  and  C3_9 
REMARK    5  A    between atoms: C5_16  and  N5_17 
REMARK    6  A    between atoms: N5_17  and  O2_19 
ROOT
HETATM    1  C3  UNL     1      -5.261  13.024  13.592  1.00  0.00     0.179 C 
HETATM    2  N3  UNL     1      -5.361  12.911  12.240  1.00  0.00    -0.289 N 
ATOM      3  H3  UNL     1      -5.054  12.026  11.835  1.00  0.00     0.172 HD
HETATM    4  C4  UNL     1      -5.827  13.849  11.362  1.00  0.00     0.340 C 
HETATM    5  O1  UNL     1      -5.437  13.800  10.175  1.00  0.00    -0.246 OA
HETATM    6  N4  UNL     1      -6.695  14.867  11.627  1.00  0.00    -0.139 N 
ATOM      7  H4  UNL     1      -6.961  15.428  10.818  1.00  0.00     0.189 HD
HETATM    8  C5  UNL     1      -7.254  15.246  12.791  1.00  0.00     0.708 C 
HETATM    9  N6  UNL     1      -7.090  14.635  13.999  1.00  0.00    -0.151 N 
ATOM     10  H6  UNL     1      -7.716  14.967  14.733  1.00  0.00     0.188 HD
HETATM   11  C6  UNL     1      -6.241  13.672  14.382  1.00  0.00     0.304 C 
HETATM   12  O3  UNL     1      -6.304  13.282  15.570  1.00  0.00    -0.263 OA
ENDROOT
BRANCH   1  13
HETATM   13  N2  UNL     1      -4.286  12.555  14.154  1.00  0.00    -0.350 N 
ATOM     14  H2  UNL     1      -4.550  12.440  15.133  1.00  0.00     0.166 HD
BRANCH  13  15
HETATM   15  C2  UNL     1      -2.992  12.114  14.052  1.00  0.00     0.089 C 
BRANCH  15  16
HETATM   16  C1  UNL     1      -2.735  10.753  13.448  1.00  0.00     0.274 C 
BRANCH  16  17
HETATM   17  N1  UNL     1      -2.579  10.915  12.010  1.00  0.00    -0.075 N 
ATOM     18  H13 UNL     1      -2.755  10.051  11.496  1.00  0.00     0.274 HD
ATOM     19  H12 UNL     1      -3.322  11.477  11.594  1.00  0.00     0.274 HD
ATOM     20  H11 UNL     1      -1.650  11.296  11.830  1.00  0.00     0.274 HD
ENDBRANCH  16  17
ENDBRANCH  15  16
ENDBRANCH  13  15
ENDBRANCH   1  13
BRANCH   8  21
HETATM   21  N5  UNL     1      -8.016  16.287  12.744  1.00  0.00    -0.098 N 
ATOM     22  H5  UNL     1      -8.199  16.844  13.579  1.00  0.00     0.213 HD
BRANCH  21  23
HETATM   23  O2  UNL     1      -8.568  16.618  11.538  1.00  0.00    -0.276 OA
ATOM     24  H2  UNL     1      -8.117  17.263  11.006  1.00  0.00     0.245 HD
ENDBRANCH  21  23
ENDBRANCH   8  21
TORSDOF 6
ENDMDL
