MODEL 1
REMARK VINA RESULT: -5.431972056      0.000      0.000
REMARK  4 active torsions:
REMARK  status: ('A' for Active; 'I' for Inactive)
REMARK    1  A    between atoms: N1_1  and  C1_4 
REMARK    2  A    between atoms: C2_7  and  N3_8 
REMARK    3  A    between atoms: N3_8  and  C3_10 
REMARK    4  A    between atoms: N8_23  and  O3_24 
ROOT
HETATM    1  C1  UNL     1      -7.058  14.771  13.542  1.00  0.00     0.721 A 
HETATM    2  N2  UNL     1      -6.463  13.643  13.977  1.00  0.00    -0.019 N 
ATOM      3  H2  UNL     1      -6.705  13.282  14.900  1.00  0.00     0.203 HD
HETATM    4  C2  UNL     1      -5.562  12.979  13.236  1.00  0.00     0.715 A 
HETATM    5  N7  UNL     1      -5.265  13.479  12.026  1.00  0.00    -0.138 N 
ATOM      6  H7  UNL     1      -4.585  12.998  11.439  1.00  0.00     0.189 HD
HETATM    7  C5  UNL     1      -5.852  14.609  11.572  1.00  0.00     0.380 A 
HETATM    8  O2  UNL     1      -5.553  15.064  10.421  1.00  0.00    -0.243 OA
HETATM    9  N8  UNL     1      -6.757  15.265  12.334  1.00  0.00     0.004 N 
ENDROOT
BRANCH   4  10
HETATM   10  N3  UNL     1      -5.034  11.905  13.718  1.00  0.00    -0.020 N 
ATOM     11  H3  UNL     1      -5.317  11.590  14.646  1.00  0.00     0.203 HD
BRANCH  10  12
HETATM   12  C3  UNL     1      -4.069  11.148  12.998  1.00  0.00     0.715 A 
HETATM   13  N4  UNL     1      -2.736  11.372  12.892  1.00  0.00    -0.127 N 
HETATM   14  N5  UNL     1      -2.189  10.438  12.132  1.00  0.00    -0.237 N 
ATOM     15  H4  UNL     1      -2.232  12.142  13.332  1.00  0.00     0.205 HD
HETATM   16  C4  UNL     1      -3.147   9.587  11.724  1.00  0.00     0.353 A 
ATOM     17  H5  UNL     1      -1.200  10.374  11.894  1.00  0.00     0.192 HD
HETATM   18  O1  UNL     1      -2.991   8.566  10.979  1.00  0.00    -0.245 OA
HETATM   19  N6  UNL     1      -4.298  10.040  12.267  1.00  0.00    -0.138 N 
ATOM     20  H6  UNL     1      -5.211   9.605  12.141  1.00  0.00     0.189 HD
ENDBRANCH  10  12
ENDBRANCH   4  10
BRANCH   1  21
HETATM   21  N1  UNL     1      -7.933  15.418  14.260  1.00  0.00    -0.232 N 
ATOM     22  H12 UNL     1      -8.075  15.113  15.223  1.00  0.00     0.174 HD
ATOM     23  H11 UNL     1      -8.467  16.205  13.890  1.00  0.00     0.174 HD
ENDBRANCH   1  21
BRANCH   9  24
HETATM   24  O3  UNL     1      -7.364  16.423  11.878  1.00  0.00    -0.265 OA
ATOM     25  H3  UNL     1      -7.154  17.263  12.270  1.00  0.00     0.246 HD
ENDBRANCH   9  24
TORSDOF 4
ENDMDL
MODEL 2
REMARK VINA RESULT: -5.298545611      5.067      7.569
REMARK  4 active torsions:
REMARK  status: ('A' for Active; 'I' for Inactive)
REMARK    1  A    between atoms: N1_1  and  C1_4 
REMARK    2  A    between atoms: C2_7  and  N3_8 
REMARK    3  A    between atoms: N3_8  and  C3_10 
REMARK    4  A    between atoms: N8_23  and  O3_24 
ROOT
HETATM    1  C1  UNL     1      -9.342  21.705  12.139  1.00  0.00     0.721 A 
HETATM    2  N2  UNL     1      -9.758  20.476  12.501  1.00  0.00    -0.019 N 
ATOM      3  H2  UNL     1     -10.662  20.143  12.166  1.00  0.00     0.203 HD
HETATM    4  C2  UNL     1      -9.022  19.676  13.288  1.00  0.00     0.715 A 
HETATM    5  N7  UNL     1      -7.838  20.144  13.712  1.00  0.00    -0.138 N 
ATOM      6  H7  UNL     1      -7.255  19.560  14.311  1.00  0.00     0.189 HD
HETATM    7  C5  UNL     1      -7.403  21.373  13.359  1.00  0.00     0.380 A 
HETATM    8  O2  UNL     1      -6.276  21.794  13.775  1.00  0.00    -0.243 OA
HETATM    9  N8  UNL     1      -8.160  22.166  12.565  1.00  0.00     0.004 N 
ENDROOT
BRANCH   4  10
HETATM   10  N3  UNL     1      -9.486  18.511  13.593  1.00  0.00    -0.020 N 
ATOM     11  H3  UNL     1     -10.388  18.447  14.063  1.00  0.00     0.203 HD
BRANCH  10  12
HETATM   12  C3  UNL     1      -8.777  17.314  13.294  1.00  0.00     0.715 A 
HETATM   13  N4  UNL     1      -8.269  16.403  14.160  1.00  0.00    -0.127 N 
HETATM   14  N5  UNL     1      -7.682  15.430  13.485  1.00  0.00    -0.237 N 
ATOM     15  H4  UNL     1      -8.330  16.459  15.177  1.00  0.00     0.205 HD
HETATM   16  C4  UNL     1      -7.791  15.681  12.168  1.00  0.00     0.353 A 
ATOM     17  H5  UNL     1      -7.221  14.619  13.896  1.00  0.00     0.192 HD
HETATM   18  O1  UNL     1      -7.345  14.962  11.216  1.00  0.00    -0.245 OA
HETATM   19  N6  UNL     1      -8.469  16.846  12.070  1.00  0.00    -0.138 N 
ATOM     20  H6  UNL     1      -8.712  17.306  11.193  1.00  0.00     0.189 HD
ENDBRANCH  10  12
ENDBRANCH   4  10
BRANCH   1  21
HETATM   21  N1  UNL     1     -10.056  22.486  11.375  1.00  0.00    -0.232 N 
ATOM     22  H12 UNL     1      -9.831  22.508  10.380  1.00  0.00     0.174 HD
ATOM     23  H11 UNL     1     -10.814  23.062  11.740  1.00  0.00     0.174 HD
ENDBRANCH   1  21
BRANCH   9  24
HETATM   24  O3  UNL     1      -7.724  23.428  12.198  1.00  0.00    -0.265 OA
ATOM     25  H3  UNL     1      -6.921  23.785  12.561  1.00  0.00     0.246 HD
ENDBRANCH   9  24
TORSDOF 4
ENDMDL
MODEL 3
REMARK VINA RESULT: -5.227678396      2.443      6.818
REMARK  4 active torsions:
REMARK  status: ('A' for Active; 'I' for Inactive)
REMARK    1  A    between atoms: N1_1  and  C1_4 
REMARK    2  A    between atoms: C2_7  and  N3_8 
REMARK    3  A    between atoms: N3_8  and  C3_10 
REMARK    4  A    between atoms: N8_23  and  O3_24 
ROOT
HETATM    1  C1  UNL     1      -5.815  13.259  13.433  1.00  0.00     0.721 A 
HETATM    2  N2  UNL     1      -6.653  14.065  14.113  1.00  0.00    -0.019 N 
ATOM      3  H2  UNL     1      -6.949  13.790  15.050  1.00  0.00     0.203 HD
HETATM    4  C2  UNL     1      -7.112  15.216  13.598  1.00  0.00     0.715 A 
HETATM    5  N7  UNL     1      -6.704  15.548  12.364  1.00  0.00    -0.138 N 
ATOM      6  H7  UNL     1      -7.035  16.418  11.944  1.00  0.00     0.189 HD
HETATM    7  C5  UNL     1      -5.863  14.754  11.666  1.00  0.00     0.380 A 
HETATM    8  O2  UNL     1      -5.491  15.091  10.496  1.00  0.00    -0.243 OA
HETATM    9  N8  UNL     1      -5.412  13.596  12.201  1.00  0.00     0.004 N 
ENDROOT
BRANCH   4  10
HETATM   10  N3  UNL     1      -7.912  15.937  14.309  1.00  0.00    -0.020 N 
ATOM     11  H3  UNL     1      -8.275  15.556  15.182  1.00  0.00     0.203 HD
BRANCH  10  12
HETATM   12  C3  UNL     1      -8.305  17.245  13.912  1.00  0.00     0.715 A 
HETATM   13  N4  UNL     1      -9.343  17.605  13.117  1.00  0.00    -0.127 N 
HETATM   14  N5  UNL     1      -9.369  18.921  12.991  1.00  0.00    -0.237 N 
ATOM     15  H4  UNL     1     -10.002  16.959  12.682  1.00  0.00     0.205 HD
HETATM   16  C4  UNL     1      -8.354  19.450  13.697  1.00  0.00     0.353 A 
ATOM     17  H5  UNL     1     -10.050  19.449  12.447  1.00  0.00     0.192 HD
HETATM   18  O1  UNL     1      -8.067  20.686  13.808  1.00  0.00    -0.245 OA
HETATM   19  N6  UNL     1      -7.710  18.403  14.257  1.00  0.00    -0.138 N 
ATOM     20  H6  UNL     1      -6.888  18.478  14.857  1.00  0.00     0.189 HD
ENDBRANCH  10  12
ENDBRANCH   4  10
BRANCH   1  21
HETATM   21  N1  UNL     1      -5.368  12.139  13.930  1.00  0.00    -0.232 N 
ATOM     22  H12 UNL     1      -4.437  12.144  14.347  1.00  0.00     0.174 HD
ATOM     23  H11 UNL     1      -5.914  11.278  13.912  1.00  0.00     0.174 HD
ENDBRANCH   1  21
BRANCH   9  24
HETATM   24  O3  UNL     1      -4.550  12.774  11.494  1.00  0.00    -0.265 OA
ATOM     25  H3  UNL     1      -4.891  12.110  10.906  1.00  0.00     0.246 HD
ENDBRANCH   9  24
TORSDOF 4
ENDMDL
MODEL 4
REMARK VINA RESULT: -5.209582195      6.877      9.373
REMARK  4 active torsions:
REMARK  status: ('A' for Active; 'I' for Inactive)
REMARK    1  A    between atoms: N1_1  and  C1_4 
REMARK    2  A    between atoms: C2_7  and  N3_8 
REMARK    3  A    between atoms: N3_8  and  C3_10 
REMARK    4  A    between atoms: N8_23  and  O3_24 
ROOT
HETATM    1  C1  UNL     1     -10.257  23.273  11.378  1.00  0.00     0.721 A 
HETATM    2  N2  UNL     1     -10.663  22.343  12.264  1.00  0.00    -0.019 N 
ATOM      3  H2  UNL     1     -11.587  22.435  12.686  1.00  0.00     0.203 HD
HETATM    4  C2  UNL     1      -9.892  21.301  12.610  1.00  0.00     0.715 A 
HETATM    5  N7  UNL     1      -8.682  21.208  12.037  1.00  0.00    -0.138 N 
ATOM      6  H7  UNL     1      -8.072  20.427  12.279  1.00  0.00     0.189 HD
HETATM    7  C5  UNL     1      -8.257  22.130  11.146  1.00  0.00     0.380 A 
HETATM    8  O2  UNL     1      -7.104  22.021  10.616  1.00  0.00    -0.243 OA
HETATM    9  N8  UNL     1      -9.048  23.176  10.810  1.00  0.00     0.004 N 
ENDROOT
BRANCH   4  10
HETATM   10  N3  UNL     1     -10.348  20.450  13.465  1.00  0.00    -0.020 N 
ATOM     11  H3  UNL     1     -11.247  20.632  13.911  1.00  0.00     0.203 HD
BRANCH  10  12
HETATM   12  C3  UNL     1      -9.638  19.265  13.807  1.00  0.00     0.715 A 
HETATM   13  N4  UNL     1      -9.848  18.003  13.358  1.00  0.00    -0.127 N 
HETATM   14  N5  UNL     1      -8.972  17.184  13.915  1.00  0.00    -0.237 N 
ATOM     15  H4  UNL     1     -10.571  17.727  12.693  1.00  0.00     0.205 HD
HETATM   16  C4  UNL     1      -8.173  17.888  14.737  1.00  0.00     0.353 A 
ATOM     17  H5  UNL     1      -8.912  16.180  13.749  1.00  0.00     0.192 HD
HETATM   18  O1  UNL     1      -7.215  17.432  15.442  1.00  0.00    -0.245 OA
HETATM   19  N6  UNL     1      -8.598  19.168  14.657  1.00  0.00    -0.138 N 
ATOM     20  H6  UNL     1      -8.190  19.950  15.168  1.00  0.00     0.189 HD
ENDBRANCH  10  12
ENDBRANCH   4  10
BRANCH   1  21
HETATM   21  N1  UNL     1     -11.003  24.288  11.041  1.00  0.00    -0.232 N 
ATOM     22  H12 UNL     1     -11.489  24.241  10.145  1.00  0.00     0.174 HD
ATOM     23  H11 UNL     1     -11.110  25.109  11.637  1.00  0.00     0.174 HD
ENDBRANCH   1  21
BRANCH   9  24
HETATM   24  O3  UNL     1      -8.622  24.126   9.898  1.00  0.00    -0.265 OA
ATOM     25  H3  UNL     1      -8.058  23.880   9.173  1.00  0.00     0.246 HD
ENDBRANCH   9  24
TORSDOF 4
ENDMDL
MODEL 5
REMARK VINA RESULT: -5.182229814      9.758     10.992
REMARK  4 active torsions:
REMARK  status: ('A' for Active; 'I' for Inactive)
REMARK    1  A    between atoms: N1_1  and  C1_4 
REMARK    2  A    between atoms: C2_7  and  N3_8 
REMARK    3  A    between atoms: N3_8  and  C3_10 
REMARK    4  A    between atoms: N8_23  and  O3_24 
ROOT
HETATM    1  C1  UNL     1     -10.116  21.486  15.446  1.00  0.00     0.721 A 
HETATM    2  N2  UNL     1      -9.493  21.451  14.253  1.00  0.00    -0.019 N 
ATOM      3  H2  UNL     1      -8.694  22.066  14.095  1.00  0.00     0.203 HD
HETATM    4  C2  UNL     1      -9.888  20.634  13.264  1.00  0.00     0.715 A 
HETATM    5  N7  UNL     1     -10.942  19.838  13.502  1.00  0.00    -0.138 N 
ATOM      6  H7  UNL     1     -11.267  19.205  12.771  1.00  0.00     0.189 HD
HETATM    7  C5  UNL     1     -11.580  19.858  14.693  1.00  0.00     0.380 A 
HETATM    8  O2  UNL     1     -12.578  19.093  14.895  1.00  0.00    -0.243 OA
HETATM    9  N8  UNL     1     -11.167  20.689  15.678  1.00  0.00     0.004 N 
ENDROOT
BRANCH   4  10
HETATM   10  N3  UNL     1      -9.242  20.655  12.147  1.00  0.00    -0.020 N 
ATOM     11  H3  UNL     1      -8.797  19.798  11.818  1.00  0.00     0.203 HD
BRANCH  10  12
HETATM   12  C3  UNL     1      -9.130  21.835  11.361  1.00  0.00     0.715 A 
HETATM   13  N4  UNL     1     -10.127  22.598  10.848  1.00  0.00    -0.127 N 
HETATM   14  N5  UNL     1      -9.608  23.612  10.176  1.00  0.00    -0.237 N 
ATOM     15  H4  UNL     1     -11.125  22.419  10.963  1.00  0.00     0.205 HD
HETATM   16  C4  UNL     1      -8.266  23.535  10.233  1.00  0.00     0.353 A 
ATOM     17  H5  UNL     1     -10.139  24.335   9.693  1.00  0.00     0.192 HD
HETATM   18  O1  UNL     1      -7.434  24.340   9.701  1.00  0.00    -0.245 OA
HETATM   19  N6  UNL     1      -7.991  22.435  10.967  1.00  0.00    -0.138 N 
ATOM     20  H6  UNL     1      -7.053  22.104  11.191  1.00  0.00     0.189 HD
ENDBRANCH  10  12
ENDBRANCH   4  10
BRANCH   1  21
HETATM   21  N1  UNL     1      -9.735  22.279  16.409  1.00  0.00    -0.232 N 
ATOM     22  H12 UNL     1      -8.930  22.881  16.235  1.00  0.00     0.174 HD
ATOM     23  H11 UNL     1     -10.210  22.311  17.310  1.00  0.00     0.174 HD
ENDBRANCH   1  21
BRANCH   9  24
HETATM   24  O3  UNL     1     -11.814  20.718  16.902  1.00  0.00    -0.265 OA
ATOM     25  H3  UNL     1     -12.748  20.890  16.949  1.00  0.00     0.246 HD
ENDBRANCH   9  24
TORSDOF 4
ENDMDL
