MODEL 1
REMARK VINA RESULT: -11.188928487      0.000      0.000
REMARK  6 active torsions:
REMARK  status: ('A' for Active; 'I' for Inactive)
REMARK    1  A    between atoms: C3_3  and  C4_4 
REMARK    2  A    between atoms: C7_11  and  N3_12 
REMARK    3  A    between atoms: N6_23  and  C11_24 
REMARK    4  A    between atoms: C11_24  and  C13_26 
REMARK    5  A    between atoms: C16_29  and  N7_30 
REMARK       I    between atoms: N7_30  and  C17_32 
REMARK    6  A    between atoms: C17_32  and  C18_34 
ROOT
HETATM    1  C1  UNL     1       0.714 -11.594 -15.898  1.00  0.00     0.071 C 
HETATM    2  C2  UNL     1       1.049 -10.843 -14.667  1.00  0.00     0.037 A 
HETATM    3  C3  UNL     1       1.158 -11.386 -13.391  1.00  0.00     0.019 A 
HETATM    4  C10 UNL     1       1.486 -10.365 -12.518  1.00  0.00     0.121 A 
HETATM    5  N5  UNL     1       1.563  -9.278 -13.262  1.00  0.00    -0.308 N 
ATOM      6  H5  UNL     1       1.792  -8.353 -12.897  1.00  0.00     0.186 HD
HETATM    7  N6  UNL     1       1.307  -9.529 -14.555  1.00  0.00    -0.291 N 
ENDROOT
BRANCH   7   8
HETATM    8  C11 UNL     1       1.313  -8.547 -15.596  1.00  0.00     0.108 C 
HETATM    9  C12 UNL     1       1.886  -9.058 -16.907  1.00  0.00     0.035 C 
BRANCH   8  10
HETATM   10  C13 UNL     1       1.957  -7.229 -15.199  1.00  0.00     0.010 C 
HETATM   11  C14 UNL     1       1.668  -6.246 -16.291  1.00  0.00     0.009 C 
HETATM   12  C15 UNL     1       1.436  -4.844 -15.859  1.00  0.00     0.026 C 
HETATM   13  C16 UNL     1       0.561  -4.684 -14.642  1.00  0.00     0.084 C 
HETATM   14  C24 UNL     1       0.196  -6.009 -14.007  1.00  0.00     0.026 C 
HETATM   15  C25 UNL     1       1.455  -6.795 -13.842  1.00  0.00     0.009 C 
BRANCH  13  16
HETATM   16  N7  UNL     1      -0.586  -3.859 -14.891  1.00  0.00    -0.356 N 
HETATM   17  C17 UNL     1      -0.606  -2.685 -15.657  1.00  0.00     0.222 C 
HETATM   18  O1  UNL     1       0.451  -2.265 -16.203  1.00  0.00    -0.273 OA
ATOM     19  H7  UNL     1      -1.468  -4.154 -14.471  1.00  0.00     0.162 HD
BRANCH  17  20
HETATM   20  C18 UNL     1      -1.849  -1.900 -15.853  1.00  0.00     0.083 C 
HETATM   21  C19 UNL     1      -1.564  -0.641 -16.652  1.00  0.00     0.014 C 
HETATM   22  C20 UNL     1      -2.692   0.335 -16.525  1.00  0.00     0.007 C 
HETATM   23  C21 UNL     1      -3.969  -0.386 -16.095  1.00  0.00     0.079 C 
HETATM   24  C22 UNL     1      -3.830  -1.005 -14.736  1.00  0.00     0.244 C 
HETATM   25  F2  UNL     1      -4.582  -2.174 -14.717  1.00  0.00    -0.206 F 
HETATM   26  F3  UNL     1      -4.270  -0.145 -13.728  1.00  0.00    -0.206 F 
HETATM   27  C23 UNL     1      -2.388  -1.403 -14.507  1.00  0.00     0.093 C 
ENDBRANCH  17  20
ENDBRANCH  13  16
ENDBRANCH   8  10
ENDBRANCH   7   8
BRANCH   3  28
HETATM   28  C4  UNL     1       0.964 -12.780 -13.000  1.00  0.00     0.034 A 
HETATM   29  C5  UNL     1      -0.300 -13.249 -12.706  1.00  0.00     0.105 A 
HETATM   30  N1  UNL     1      -0.519 -14.535 -12.339  1.00  0.00    -0.349 N 
HETATM   31  C6  UNL     1       0.496 -15.410 -12.248  1.00  0.00     0.151 A 
ATOM     32  H1  UNL     1      -1.468 -14.843 -12.129  1.00  0.00     0.167 HD
HETATM   33  N2  UNL     1       0.547 -16.712 -11.913  1.00  0.00    -0.174 N 
HETATM   34  C8  UNL     1       1.768 -14.962 -12.538  1.00  0.00     0.133 A 
HETATM   35  C7  UNL     1       1.833 -17.110 -11.984  1.00  0.00     0.678 A 
ATOM     36  H2  UNL     1      -0.247 -17.296 -11.652  1.00  0.00     0.186 HD
HETATM   37  N4  UNL     1       2.561 -16.034 -12.365  1.00  0.00    -0.185 N 
ATOM     38  H4  UNL     1       3.571 -16.036 -12.501  1.00  0.00     0.184 HD
HETATM   39  C9  UNL     1       2.019 -13.654 -12.915  1.00  0.00     0.160 A 
HETATM   40  F1  UNL     1       3.306 -13.265 -13.191  1.00  0.00    -0.203 F 
BRANCH  35  41
HETATM   41  N3  UNL     1       2.302 -18.280 -11.740  1.00  0.00    -0.234 N 
ATOM     42  H32 UNL     1       1.947 -19.154 -12.128  1.00  0.00     0.174 HD
ATOM     43  H31 UNL     1       3.087 -18.519 -11.134  1.00  0.00     0.174 HD
ENDBRANCH  35  41
ENDBRANCH   3  28
TORSDOF 6
ENDMDL
MODEL 2
REMARK VINA RESULT: -10.988464814      1.489      2.157
REMARK  6 active torsions:
REMARK  status: ('A' for Active; 'I' for Inactive)
REMARK    1  A    between atoms: C3_3  and  C4_4 
REMARK    2  A    between atoms: C7_11  and  N3_12 
REMARK    3  A    between atoms: N6_23  and  C11_24 
REMARK    4  A    between atoms: C11_24  and  C13_26 
REMARK    5  A    between atoms: C16_29  and  N7_30 
REMARK       I    between atoms: N7_30  and  C17_32 
REMARK    6  A    between atoms: C17_32  and  C18_34 
ROOT
HETATM    1  C1  UNL     1       1.085 -11.026 -11.835  1.00  0.00     0.071 C 
HETATM    2  C2  UNL     1       1.376 -11.199 -13.277  1.00  0.00     0.037 A 
HETATM    3  C3  UNL     1       1.570 -12.415 -13.924  1.00  0.00     0.019 A 
HETATM    4  C10 UNL     1       1.814 -12.155 -15.260  1.00  0.00     0.121 A 
HETATM    5  N5  UNL     1       1.762 -10.841 -15.377  1.00  0.00    -0.308 N 
ATOM      6  H5  UNL     1       1.903 -10.342 -16.256  1.00  0.00     0.186 HD
HETATM    7  N6  UNL     1       1.503 -10.238 -14.207  1.00  0.00    -0.291 N 
ENDROOT
BRANCH   7   8
HETATM    8  C11 UNL     1       1.390  -8.823 -14.024  1.00  0.00     0.108 C 
HETATM    9  C12 UNL     1      -0.039  -8.313 -14.100  1.00  0.00     0.035 C 
BRANCH   8  10
HETATM   10  C13 UNL     1       2.306  -8.008 -14.923  1.00  0.00     0.010 C 
HETATM   11  C14 UNL     1       1.523  -7.652 -16.148  1.00  0.00     0.009 C 
HETATM   12  C15 UNL     1       1.803  -6.316 -16.733  1.00  0.00     0.026 C 
HETATM   13  C16 UNL     1       1.926  -5.192 -15.736  1.00  0.00     0.084 C 
HETATM   14  C24 UNL     1       1.875  -5.677 -14.302  1.00  0.00     0.026 C 
HETATM   15  C25 UNL     1       2.838  -6.810 -14.172  1.00  0.00     0.009 C 
BRANCH  13  16
HETATM   16  N7  UNL     1       1.001  -4.125 -15.988  1.00  0.00    -0.356 N 
HETATM   17  C17 UNL     1      -0.227  -3.929 -15.341  1.00  0.00     0.222 C 
HETATM   18  O1  UNL     1      -0.608  -4.732 -14.445  1.00  0.00    -0.273 OA
ATOM     19  H7  UNL     1       1.261  -3.447 -16.705  1.00  0.00     0.162 HD
BRANCH  17  20
HETATM   20  C18 UNL     1      -1.116  -2.791 -15.677  1.00  0.00     0.083 C 
HETATM   21  C19 UNL     1      -0.379  -1.771 -16.526  1.00  0.00     0.014 C 
HETATM   22  C20 UNL     1      -1.113  -0.465 -16.543  1.00  0.00     0.007 C 
HETATM   23  C21 UNL     1      -2.579  -0.677 -16.167  1.00  0.00     0.079 C 
HETATM   24  C22 UNL     1      -2.727  -1.193 -14.766  1.00  0.00     0.244 C 
HETATM   25  F2  UNL     1      -3.832  -2.036 -14.733  1.00  0.00    -0.206 F 
HETATM   26  F3  UNL     1      -2.897  -0.157 -13.847  1.00  0.00    -0.206 F 
HETATM   27  C23 UNL     1      -1.521  -2.033 -14.407  1.00  0.00     0.093 C 
ENDBRANCH  17  20
ENDBRANCH  13  16
ENDBRANCH   8  10
ENDBRANCH   7   8
BRANCH   3  28
HETATM   28  C4  UNL     1       1.535 -13.750 -13.332  1.00  0.00     0.034 A 
HETATM   29  C5  UNL     1       2.581 -14.190 -12.548  1.00  0.00     0.105 A 
HETATM   30  N1  UNL     1       2.584 -15.422 -11.983  1.00  0.00    -0.349 N 
HETATM   31  C6  UNL     1       1.559 -16.269 -12.168  1.00  0.00     0.151 A 
ATOM     32  H1  UNL     1       3.377 -15.710 -11.410  1.00  0.00     0.167 HD
HETATM   33  N2  UNL     1       1.321 -17.519 -11.731  1.00  0.00    -0.174 N 
HETATM   34  C8  UNL     1       0.502 -15.850 -12.950  1.00  0.00     0.133 A 
HETATM   35  C7  UNL     1       0.127 -17.911 -12.219  1.00  0.00     0.678 A 
ATOM     36  H2  UNL     1       1.936 -18.074 -11.135  1.00  0.00     0.186 HD
HETATM   37  N4  UNL     1      -0.356 -16.885 -12.957  1.00  0.00    -0.185 N 
ATOM     38  H4  UNL     1      -1.249 -16.895 -13.450  1.00  0.00     0.184 HD
HETATM   39  C9  UNL     1       0.474 -14.597 -13.537  1.00  0.00     0.160 A 
HETATM   40  F1  UNL     1      -0.604 -14.234 -14.306  1.00  0.00    -0.203 F 
BRANCH  35  41
HETATM   41  N3  UNL     1      -0.460 -19.038 -12.032  1.00  0.00    -0.234 N 
ATOM     42  H32 UNL     1      -0.826 -19.644 -12.766  1.00  0.00     0.174 HD
ATOM     43  H31 UNL     1      -0.650 -19.498 -11.142  1.00  0.00     0.174 HD
ENDBRANCH  35  41
ENDBRANCH   3  28
TORSDOF 6
ENDMDL
MODEL 3
REMARK VINA RESULT: -10.875812628      4.354      7.810
REMARK  6 active torsions:
REMARK  status: ('A' for Active; 'I' for Inactive)
REMARK    1  A    between atoms: C3_3  and  C4_4 
REMARK    2  A    between atoms: C7_11  and  N3_12 
REMARK    3  A    between atoms: N6_23  and  C11_24 
REMARK    4  A    between atoms: C11_24  and  C13_26 
REMARK    5  A    between atoms: C16_29  and  N7_30 
REMARK       I    between atoms: N7_30  and  C17_32 
REMARK    6  A    between atoms: C17_32  and  C18_34 
ROOT
HETATM    1  C1  UNL     1       2.365 -15.587 -16.638  1.00  0.00     0.071 C 
HETATM    2  C2  UNL     1       1.024 -15.097 -16.247  1.00  0.00     0.037 A 
HETATM    3  C3  UNL     1       0.125 -14.441 -17.081  1.00  0.00     0.019 A 
HETATM    4  C10 UNL     1      -1.009 -14.151 -16.345  1.00  0.00     0.121 A 
HETATM    5  N5  UNL     1      -0.772 -14.622 -15.135  1.00  0.00    -0.308 N 
ATOM      6  H5  UNL     1      -1.433 -14.558 -14.360  1.00  0.00     0.186 HD
HETATM    7  N6  UNL     1       0.437 -15.195 -15.042  1.00  0.00    -0.291 N 
ENDROOT
BRANCH   7   8
HETATM    8  C11 UNL     1       0.971 -15.790 -13.854  1.00  0.00     0.108 C 
HETATM    9  C12 UNL     1      -0.006 -16.715 -13.148  1.00  0.00     0.035 C 
BRANCH   8  10
HETATM   10  C13 UNL     1       1.575 -14.792 -12.881  1.00  0.00     0.010 C 
HETATM   11  C14 UNL     1       2.611 -14.012 -13.630  1.00  0.00     0.009 C 
HETATM   12  C15 UNL     1       2.742 -12.580 -13.258  1.00  0.00     0.026 C 
HETATM   13  C16 UNL     1       1.439 -11.845 -13.070  1.00  0.00     0.084 C 
HETATM   14  C24 UNL     1       0.235 -12.759 -13.163  1.00  0.00     0.026 C 
HETATM   15  C25 UNL     1       0.488 -13.934 -12.277  1.00  0.00     0.009 C 
BRANCH  13  16
HETATM   16  N7  UNL     1       1.324 -10.696 -13.921  1.00  0.00    -0.356 N 
HETATM   17  C17 UNL     1       1.301  -9.358 -13.502  1.00  0.00     0.222 C 
HETATM   18  O1  UNL     1       1.385  -9.077 -12.274  1.00  0.00    -0.273 OA
ATOM     19  H7  UNL     1       1.252 -10.868 -14.924  1.00  0.00     0.162 HD
BRANCH  17  20
HETATM   20  C18 UNL     1       1.177  -8.238 -14.464  1.00  0.00     0.083 C 
HETATM   21  C19 UNL     1       1.497  -8.706 -15.873  1.00  0.00     0.014 C 
HETATM   22  C20 UNL     1       1.758  -7.539 -16.773  1.00  0.00     0.007 C 
HETATM   23  C21 UNL     1       1.136  -6.270 -16.189  1.00  0.00     0.079 C 
HETATM   24  C22 UNL     1       1.757  -5.899 -14.875  1.00  0.00     0.244 C 
HETATM   25  F2  UNL     1       0.773  -5.317 -14.084  1.00  0.00    -0.206 F 
HETATM   26  F3  UNL     1       2.819  -5.008 -15.037  1.00  0.00    -0.206 F 
HETATM   27  C23 UNL     1       2.215  -7.151 -14.160  1.00  0.00     0.093 C 
ENDBRANCH  17  20
ENDBRANCH  13  16
ENDBRANCH   8  10
ENDBRANCH   7   8
BRANCH   3  28
HETATM   28  C4  UNL     1       0.311 -14.096 -18.488  1.00  0.00     0.034 A 
HETATM   29  C5  UNL     1      -0.458 -14.704 -19.459  1.00  0.00     0.105 A 
HETATM   30  N1  UNL     1      -0.314 -14.411 -20.774  1.00  0.00    -0.349 N 
HETATM   31  C6  UNL     1       0.592 -13.509 -21.186  1.00  0.00     0.151 A 
ATOM     32  H1  UNL     1      -0.901 -14.883 -21.462  1.00  0.00     0.167 HD
HETATM   33  N2  UNL     1       0.928 -13.047 -22.405  1.00  0.00    -0.174 N 
HETATM   34  C8  UNL     1       1.372 -12.888 -20.232  1.00  0.00     0.133 A 
HETATM   35  C7  UNL     1       1.912 -12.139 -22.249  1.00  0.00     0.678 A 
ATOM     36  H2  UNL     1       0.511 -13.334 -23.291  1.00  0.00     0.186 HD
HETATM   37  N4  UNL     1       2.168 -12.056 -20.923  1.00  0.00    -0.185 N 
ATOM     38  H4  UNL     1       2.870 -11.445 -20.506  1.00  0.00     0.184 HD
HETATM   39  C9  UNL     1       1.244 -13.169 -18.882  1.00  0.00     0.160 A 
HETATM   40  F1  UNL     1       2.048 -12.522 -17.978  1.00  0.00    -0.203 F 
BRANCH  35  41
HETATM   41  N3  UNL     1       2.507 -11.470 -23.169  1.00  0.00    -0.234 N 
ATOM     42  H32 UNL     1       3.146 -11.855 -23.864  1.00  0.00     0.174 HD
ATOM     43  H31 UNL     1       2.439 -10.468 -23.348  1.00  0.00     0.174 HD
ENDBRANCH  35  41
ENDBRANCH   3  28
TORSDOF 6
ENDMDL
MODEL 4
REMARK VINA RESULT: -10.848296671      4.686      8.173
REMARK  6 active torsions:
REMARK  status: ('A' for Active; 'I' for Inactive)
REMARK    1  A    between atoms: C3_3  and  C4_4 
REMARK    2  A    between atoms: C7_11  and  N3_12 
REMARK    3  A    between atoms: N6_23  and  C11_24 
REMARK    4  A    between atoms: C11_24  and  C13_26 
REMARK    5  A    between atoms: C16_29  and  N7_30 
REMARK       I    between atoms: N7_30  and  C17_32 
REMARK    6  A    between atoms: C17_32  and  C18_34 
ROOT
HETATM    1  C1  UNL     1       3.096 -14.662 -16.773  1.00  0.00     0.071 C 
HETATM    2  C2  UNL     1       1.616 -14.659 -16.725  1.00  0.00     0.037 A 
HETATM    3  C3  UNL     1       0.776 -14.098 -17.681  1.00  0.00     0.019 A 
HETATM    4  C10 UNL     1      -0.530 -14.304 -17.276  1.00  0.00     0.121 A 
HETATM    5  N5  UNL     1      -0.445 -14.959 -16.134  1.00  0.00    -0.308 N 
ATOM      6  H5  UNL     1      -1.253 -15.258 -15.587  1.00  0.00     0.186 HD
HETATM    7  N6  UNL     1       0.827 -15.188 -15.774  1.00  0.00    -0.291 N 
ENDROOT
BRANCH   7   8
HETATM    8  C11 UNL     1       1.231 -15.872 -14.584  1.00  0.00     0.108 C 
HETATM    9  C12 UNL     1       0.328 -17.039 -14.220  1.00  0.00     0.035 C 
BRANCH   8  10
HETATM   10  C13 UNL     1       1.447 -14.959 -13.389  1.00  0.00     0.010 C 
HETATM   11  C14 UNL     1       2.554 -14.016 -13.745  1.00  0.00     0.009 C 
HETATM   12  C15 UNL     1       2.428 -12.635 -13.213  1.00  0.00     0.026 C 
HETATM   13  C16 UNL     1       1.051 -12.030 -13.317  1.00  0.00     0.084 C 
HETATM   14  C24 UNL     1       0.019 -13.015 -13.826  1.00  0.00     0.026 C 
HETATM   15  C25 UNL     1       0.154 -14.268 -13.025  1.00  0.00     0.009 C 
BRANCH  13  16
HETATM   16  N7  UNL     1       1.042 -10.797 -14.050  1.00  0.00    -0.356 N 
HETATM   17  C17 UNL     1       1.216  -9.516 -13.509  1.00  0.00     0.222 C 
HETATM   18  O1  UNL     1       1.401  -9.370 -12.269  1.00  0.00    -0.273 OA
ATOM     19  H7  UNL     1       0.896 -10.858 -15.058  1.00  0.00     0.162 HD
BRANCH  17  20
HETATM   20  C18 UNL     1       1.189  -8.298 -14.355  1.00  0.00     0.083 C 
HETATM   21  C19 UNL     1       1.411  -8.656 -15.813  1.00  0.00     0.014 C 
HETATM   22  C20 UNL     1       1.772  -7.441 -16.609  1.00  0.00     0.007 C 
HETATM   23  C21 UNL     1       1.316  -6.177 -15.881  1.00  0.00     0.079 C 
HETATM   24  C22 UNL     1       2.016  -6.007 -14.565  1.00  0.00     0.244 C 
HETATM   25  F2  UNL     1       1.129  -5.403 -13.681  1.00  0.00    -0.206 F 
HETATM   26  F3  UNL     1       3.166  -5.225 -14.686  1.00  0.00    -0.206 F 
HETATM   27  C23 UNL     1       2.352  -7.367 -13.993  1.00  0.00     0.093 C 
ENDBRANCH  17  20
ENDBRANCH  13  16
ENDBRANCH   8  10
ENDBRANCH   7   8
BRANCH   3  28
HETATM   28  C4  UNL     1       1.165 -13.401 -18.904  1.00  0.00     0.034 A 
HETATM   29  C5  UNL     1       1.871 -12.218 -18.835  1.00  0.00     0.105 A 
HETATM   30  N1  UNL     1       2.247 -11.543 -19.948  1.00  0.00    -0.349 N 
HETATM   31  C6  UNL     1       1.945 -12.005 -21.172  1.00  0.00     0.151 A 
ATOM     32  H1  UNL     1       2.768 -10.671 -19.855  1.00  0.00     0.167 HD
HETATM   33  N2  UNL     1       2.195 -11.538 -22.409  1.00  0.00    -0.174 N 
HETATM   34  C8  UNL     1       1.239 -13.187 -21.265  1.00  0.00     0.133 A 
HETATM   35  C7  UNL     1       1.662 -12.401 -23.296  1.00  0.00     0.678 A 
ATOM     36  H2  UNL     1       2.700 -10.681 -22.636  1.00  0.00     0.186 HD
HETATM   37  N4  UNL     1       1.085 -13.397 -22.584  1.00  0.00    -0.185 N 
ATOM     38  H4  UNL     1       0.600 -14.196 -22.991  1.00  0.00     0.184 HD
HETATM   39  C9  UNL     1       0.843 -13.896 -20.144  1.00  0.00     0.160 A 
HETATM   40  F1  UNL     1       0.142 -15.066 -20.296  1.00  0.00    -0.203 F 
BRANCH  35  41
HETATM   41  N3  UNL     1       1.683 -12.316 -24.577  1.00  0.00    -0.234 N 
ATOM     42  H32 UNL     1       2.512 -12.146 -25.147  1.00  0.00     0.174 HD
ATOM     43  H31 UNL     1       0.893 -12.402 -25.217  1.00  0.00     0.174 HD
ENDBRANCH  35  41
ENDBRANCH   3  28
TORSDOF 6
ENDMDL
MODEL 5
REMARK VINA RESULT: -10.730033381      1.025      1.526
REMARK  6 active torsions:
REMARK  status: ('A' for Active; 'I' for Inactive)
REMARK    1  A    between atoms: C3_3  and  C4_4 
REMARK    2  A    between atoms: C7_11  and  N3_12 
REMARK    3  A    between atoms: N6_23  and  C11_24 
REMARK    4  A    between atoms: C11_24  and  C13_26 
REMARK    5  A    between atoms: C16_29  and  N7_30 
REMARK       I    between atoms: N7_30  and  C17_32 
REMARK    6  A    between atoms: C17_32  and  C18_34 
ROOT
HETATM    1  C1  UNL     1       0.944 -10.913 -12.189  1.00  0.00     0.071 C 
HETATM    2  C2  UNL     1       1.362 -10.850 -13.608  1.00  0.00     0.037 A 
HETATM    3  C3  UNL     1       1.491 -11.938 -14.464  1.00  0.00     0.019 A 
HETATM    4  C10 UNL     1       1.898 -11.466 -15.698  1.00  0.00     0.121 A 
HETATM    5  N5  UNL     1       1.999 -10.157 -15.558  1.00  0.00    -0.308 N 
ATOM      6  H5  UNL     1       2.282  -9.525 -16.307  1.00  0.00     0.186 HD
HETATM    7  N6  UNL     1       1.686  -9.755 -14.317  1.00  0.00    -0.291 N 
ENDROOT
BRANCH   7   8
HETATM    8  C11 UNL     1       1.707  -8.396 -13.868  1.00  0.00     0.108 C 
HETATM    9  C12 UNL     1       0.406  -7.951 -13.221  1.00  0.00     0.035 C 
BRANCH   8  10
HETATM   10  C13 UNL     1       2.154  -7.402 -14.927  1.00  0.00     0.010 C 
HETATM   11  C14 UNL     1       1.041  -7.280 -15.920  1.00  0.00     0.009 C 
HETATM   12  C15 UNL     1       0.837  -5.930 -16.506  1.00  0.00     0.026 C 
HETATM   13  C16 UNL     1       0.912  -4.788 -15.525  1.00  0.00     0.084 C 
HETATM   14  C24 UNL     1       1.323  -5.235 -14.138  1.00  0.00     0.026 C 
HETATM   15  C25 UNL     1       2.537  -6.092 -14.279  1.00  0.00     0.009 C 
BRANCH  13  16
HETATM   16  N7  UNL     1      -0.280  -3.989 -15.514  1.00  0.00    -0.356 N 
HETATM   17  C17 UNL     1      -0.386  -2.662 -15.954  1.00  0.00     0.222 C 
HETATM   18  O1  UNL     1       0.625  -2.062 -16.412  1.00  0.00    -0.273 OA
ATOM     19  H7  UNL     1      -1.127  -4.427 -15.153  1.00  0.00     0.162 HD
BRANCH  17  20
HETATM   20  C18 UNL     1      -1.669  -1.920 -15.900  1.00  0.00     0.083 C 
HETATM   21  C19 UNL     1      -1.579  -0.639 -16.710  1.00  0.00     0.014 C 
HETATM   22  C20 UNL     1      -2.696   0.293 -16.355  1.00  0.00     0.007 C 
HETATM   23  C21 UNL     1      -3.846  -0.481 -15.711  1.00  0.00     0.079 C 
HETATM   24  C22 UNL     1      -3.436  -1.114 -14.414  1.00  0.00     0.244 C 
HETATM   25  F2  UNL     1      -4.131  -2.310 -14.281  1.00  0.00    -0.206 F 
HETATM   26  F3  UNL     1      -3.708  -0.286 -13.324  1.00  0.00    -0.206 F 
HETATM   27  C23 UNL     1      -1.964  -1.463 -14.466  1.00  0.00     0.093 C 
ENDBRANCH  17  20
ENDBRANCH  13  16
ENDBRANCH   8  10
ENDBRANCH   7   8
BRANCH   3  28
HETATM   28  C4  UNL     1       1.252 -13.345 -14.152  1.00  0.00     0.034 A 
HETATM   29  C5  UNL     1       0.196 -14.015 -14.732  1.00  0.00     0.105 A 
HETATM   30  N1  UNL     1      -0.058 -15.320 -14.466  1.00  0.00    -0.349 N 
HETATM   31  C6  UNL     1       0.718 -16.016 -13.620  1.00  0.00     0.151 A 
ATOM     32  H1  UNL     1      -0.850 -15.780 -14.915  1.00  0.00     0.167 HD
HETATM   33  N2  UNL     1       0.684 -17.292 -13.194  1.00  0.00    -0.174 N 
HETATM   34  C8  UNL     1       1.781 -15.365 -13.028  1.00  0.00     0.133 A 
HETATM   35  C7  UNL     1       1.709 -17.472 -12.337  1.00  0.00     0.678 A 
ATOM     36  H2  UNL     1       0.003 -17.999 -13.470  1.00  0.00     0.186 HD
HETATM   37  N4  UNL     1       2.364 -16.291 -12.248  1.00  0.00    -0.185 N 
ATOM     38  H4  UNL     1       3.188 -16.127 -11.669  1.00  0.00     0.184 HD
HETATM   39  C9  UNL     1       2.062 -14.034 -13.282  1.00  0.00     0.160 A 
HETATM   40  F1  UNL     1       3.132 -13.437 -12.664  1.00  0.00    -0.203 F 
BRANCH  35  41
HETATM   41  N3  UNL     1       2.023 -18.549 -11.712  1.00  0.00    -0.234 N 
ATOM     42  H32 UNL     1       1.591 -18.882 -10.850  1.00  0.00     0.174 HD
ATOM     43  H31 UNL     1       2.738 -19.229 -11.970  1.00  0.00     0.174 HD
ENDBRANCH  35  41
ENDBRANCH   3  28
TORSDOF 6
ENDMDL
