MODEL 1
REMARK VINA RESULT: -8.076430479      0.000      0.000
REMARK  6 active torsions:
REMARK  status: ('A' for Active; 'I' for Inactive)
REMARK    1  A    between atoms: O1_2  and  C2_3 
REMARK    2  A    between atoms: C6_8  and  C7_9 
REMARK    3  A    between atoms: N1_10  and  N2_12 
REMARK    4  A    between atoms: N2_12  and  C8_14 
REMARK    5  A    between atoms: C13_20  and  O2_21 
REMARK    6  A    between atoms: C16_27  and  O3_28 
ROOT
HETATM    1  C7  UNL     1       2.137 -13.131 -13.801  1.00  0.00     0.122 C 
HETATM    2  N1  UNL     1       1.463 -12.072 -14.079  1.00  0.00    -0.310 N 
ATOM      3  H1  UNL     1       0.708 -12.164 -14.757  1.00  0.00     0.186 HD
ENDROOT
BRANCH   2   4
HETATM    4  N2  UNL     1       1.677 -10.822 -13.538  1.00  0.00    -0.298 N 
ATOM      5  H2  UNL     1       1.851 -10.745 -12.536  1.00  0.00     0.187 HD
BRANCH   4   6
HETATM    6  C8  UNL     1       1.666  -9.640 -14.322  1.00  0.00     0.083 A 
HETATM    7  C9  UNL     1       1.929  -9.781 -15.689  1.00  0.00     0.060 A 
HETATM    8  C10 UNL     1       1.948  -8.725 -16.555  1.00  0.00     0.063 A 
HETATM    9 CL1  UNL     1       2.285  -8.944 -18.276  1.00  0.00    -0.082 Cl
HETATM   10  C11 UNL     1       1.693  -7.474 -16.039  1.00  0.00     0.059 A 
HETATM   11  C12 UNL     1       1.431  -7.291 -14.710  1.00  0.00     0.007 A 
HETATM   12  N3  UNL     1       1.642  -6.193 -16.677  1.00  0.00    -0.388 N 
HETATM   13  C13 UNL     1       1.420  -8.383 -13.858  1.00  0.00     0.102 A 
HETATM   14  C14 UNL     1       1.191  -5.853 -14.407  1.00  0.00     0.063 C 
HETATM   15  C15 UNL     1       1.054  -5.219 -15.776  1.00  0.00     0.124 C 
ATOM     16  H3  UNL     1       1.971  -5.994 -17.622  1.00  0.00     0.159 HD
BRANCH  13  17
HETATM   17  O2  UNL     1       1.154  -8.197 -12.513  1.00  0.00    -0.358 OA
ATOM     18  H2  UNL     1       1.223  -7.325 -12.142  1.00  0.00     0.217 HD
ENDBRANCH  13  17
ENDBRANCH   4   6
ENDBRANCH   2   4
BRANCH   1  19
HETATM   19  C6  UNL     1       1.773 -14.371 -14.468  1.00  0.00     0.023 A 
HETATM   20  C4  UNL     1       1.345 -15.490 -13.781  1.00  0.00    -0.027 A 
HETATM   21  C3  UNL     1       0.999 -16.664 -14.401  1.00  0.00     0.052 A 
HETATM   22  C5  UNL     1       1.257 -15.413 -12.309  1.00  0.00     0.050 C 
HETATM   23  C2  UNL     1       1.073 -16.758 -15.777  1.00  0.00     0.106 A 
HETATM   24 BR1  UNL     1       0.417 -18.167 -13.379  1.00  0.00    -0.048 Br
HETATM   25  C17 UNL     1       1.499 -15.650 -16.489  1.00  0.00     0.079 A 
HETATM   26  C16 UNL     1       1.846 -14.470 -15.838  1.00  0.00     0.098 A 
HETATM   27 BR2  UNL     1       1.627 -15.705 -18.389  1.00  0.00    -0.045 Br
BRANCH  23  28
HETATM   28  O1  UNL     1       0.747 -17.892 -16.470  1.00  0.00    -0.353 OA
HETATM   29  C1  UNL     1      -0.557 -18.226 -16.900  1.00  0.00     0.210 C 
ENDBRANCH  23  28
BRANCH  26  30
HETATM   30  O3  UNL     1       2.268 -13.377 -16.586  1.00  0.00    -0.358 OA
ATOM     31  H3  UNL     1       3.197 -13.225 -16.714  1.00  0.00     0.217 HD
ENDBRANCH  26  30
ENDBRANCH   1  19
TORSDOF 6
ENDMDL
MODEL 2
REMARK VINA RESULT: -8.044962254      1.729      2.572
REMARK  6 active torsions:
REMARK  status: ('A' for Active; 'I' for Inactive)
REMARK    1  A    between atoms: O1_2  and  C2_3 
REMARK    2  A    between atoms: C6_8  and  C7_9 
REMARK    3  A    between atoms: N1_10  and  N2_12 
REMARK    4  A    between atoms: N2_12  and  C8_14 
REMARK    5  A    between atoms: C13_20  and  O2_21 
REMARK    6  A    between atoms: C16_27  and  O3_28 
ROOT
HETATM    1  C7  UNL     1       0.260 -13.097 -13.639  1.00  0.00     0.122 C 
HETATM    2  N1  UNL     1       1.435 -12.574 -13.613  1.00  0.00    -0.310 N 
ATOM      3  H1  UNL     1       2.218 -13.173 -13.873  1.00  0.00     0.186 HD
ENDROOT
BRANCH   2   4
HETATM    4  N2  UNL     1       1.724 -11.272 -13.264  1.00  0.00    -0.298 N 
ATOM      5  H2  UNL     1       1.950 -11.065 -12.291  1.00  0.00     0.187 HD
BRANCH   4   6
HETATM    6  C8  UNL     1       1.719 -10.211 -14.204  1.00  0.00     0.083 A 
HETATM    7  C9  UNL     1       1.913 -10.551 -15.548  1.00  0.00     0.060 A 
HETATM    8  C10 UNL     1       1.931  -9.628 -16.553  1.00  0.00     0.063 A 
HETATM    9 CL1  UNL     1       2.178 -10.098 -18.239  1.00  0.00    -0.082 Cl
HETATM   10  C11 UNL     1       1.747  -8.308 -16.209  1.00  0.00     0.059 A 
HETATM   11  C12 UNL     1       1.555  -7.931 -14.909  1.00  0.00     0.007 A 
HETATM   12  N3  UNL     1       1.714  -7.126 -17.018  1.00  0.00    -0.388 N 
HETATM   13  C13 UNL     1       1.543  -8.892 -13.912  1.00  0.00     0.102 A 
HETATM   14  C14 UNL     1       1.383  -6.456 -14.801  1.00  0.00     0.063 C 
HETATM   15  C15 UNL     1       1.206  -6.013 -16.239  1.00  0.00     0.124 C 
ATOM     16  H3  UNL     1       2.005  -7.076 -17.994  1.00  0.00     0.159 HD
BRANCH  13  17
HETATM   17  O2  UNL     1       1.347  -8.510 -12.597  1.00  0.00    -0.358 OA
ATOM     18  H2  UNL     1       0.484  -8.229 -12.318  1.00  0.00     0.217 HD
ENDBRANCH  13  17
ENDBRANCH   4   6
ENDBRANCH   2   4
BRANCH   1  19
HETATM   19  C6  UNL     1       0.138 -14.491 -14.034  1.00  0.00     0.023 A 
HETATM   20  C4  UNL     1      -0.257 -14.876 -15.300  1.00  0.00    -0.027 A 
HETATM   21  C3  UNL     1      -0.375 -16.189 -15.683  1.00  0.00     0.052 A 
HETATM   22  C5  UNL     1      -0.566 -13.820 -16.285  1.00  0.00     0.050 C 
HETATM   23  C2  UNL     1      -0.090 -17.192 -14.778  1.00  0.00     0.106 A 
HETATM   24 BR1  UNL     1      -0.928 -16.638 -17.453  1.00  0.00    -0.048 Br
HETATM   25  C17 UNL     1       0.308 -16.832 -13.502  1.00  0.00     0.079 A 
HETATM   26  C16 UNL     1       0.420 -15.495 -13.136  1.00  0.00     0.098 A 
HETATM   27 BR2  UNL     1       0.717 -18.162 -12.200  1.00  0.00    -0.045 Br
BRANCH  23  28
HETATM   28  O1  UNL     1      -0.184 -18.523 -15.081  1.00  0.00    -0.353 OA
HETATM   29  C1  UNL     1      -1.364 -19.292 -14.973  1.00  0.00     0.210 C 
ENDBRANCH  23  28
BRANCH  26  30
HETATM   30  O3  UNL     1       0.824 -15.171 -11.846  1.00  0.00    -0.358 OA
ATOM     31  H3  UNL     1       0.186 -15.154 -11.144  1.00  0.00     0.217 HD
ENDBRANCH  26  30
ENDBRANCH   1  19
TORSDOF 6
ENDMDL
MODEL 3
REMARK VINA RESULT: -7.991907866      5.124      7.591
REMARK  6 active torsions:
REMARK  status: ('A' for Active; 'I' for Inactive)
REMARK    1  A    between atoms: O1_2  and  C2_3 
REMARK    2  A    between atoms: C6_8  and  C7_9 
REMARK    3  A    between atoms: N1_10  and  N2_12 
REMARK    4  A    between atoms: N2_12  and  C8_14 
REMARK    5  A    between atoms: C13_20  and  O2_21 
REMARK    6  A    between atoms: C16_27  and  O3_28 
ROOT
HETATM    1  C7  UNL     1       0.897  -5.736 -14.516  1.00  0.00     0.122 C 
HETATM    2  N1  UNL     1      -0.202  -5.182 -14.888  1.00  0.00    -0.310 N 
ATOM      3  H1  UNL     1      -0.730  -5.643 -15.627  1.00  0.00     0.186 HD
ENDROOT
BRANCH   2   4
HETATM    4  N2  UNL     1      -0.726  -4.016 -14.371  1.00  0.00    -0.298 N 
ATOM      5  H2  UNL     1      -0.931  -3.972 -13.373  1.00  0.00     0.187 HD
BRANCH   4   6
HETATM    6  C8  UNL     1      -0.990  -2.877 -15.173  1.00  0.00     0.083 A 
HETATM    7  C9  UNL     1      -2.096  -2.095 -14.823  1.00  0.00     0.060 A 
HETATM    8  C10 UNL     1      -2.460  -0.973 -15.511  1.00  0.00     0.063 A 
HETATM    9 CL1  UNL     1      -3.865  -0.010 -15.037  1.00  0.00    -0.082 Cl
HETATM   10  C11 UNL     1      -1.692  -0.612 -16.595  1.00  0.00     0.059 A 
HETATM   11  C12 UNL     1      -0.602  -1.348 -16.973  1.00  0.00     0.007 A 
HETATM   12  N3  UNL     1      -1.812   0.489 -17.502  1.00  0.00    -0.388 N 
HETATM   13  C13 UNL     1      -0.260  -2.481 -16.254  1.00  0.00     0.102 A 
HETATM   14  C14 UNL     1       0.055  -0.752 -18.168  1.00  0.00     0.063 C 
HETATM   15  C15 UNL     1      -0.604   0.606 -18.296  1.00  0.00     0.124 C 
ATOM     16  H3  UNL     1      -2.626   1.100 -17.579  1.00  0.00     0.159 HD
BRANCH  13  17
HETATM   17  O2  UNL     1       0.843  -3.225 -16.636  1.00  0.00    -0.358 OA
ATOM     18  H2  UNL     1       1.519  -2.816 -17.163  1.00  0.00     0.217 HD
ENDBRANCH  13  17
ENDBRANCH   4   6
ENDBRANCH   2   4
BRANCH   1  19
HETATM   19  C6  UNL     1       1.300  -6.969 -15.173  1.00  0.00     0.023 A 
HETATM   20  C4  UNL     1       1.333  -8.185 -14.520  1.00  0.00    -0.027 A 
HETATM   21  C3  UNL     1       1.711  -9.355 -15.131  1.00  0.00     0.052 A 
HETATM   22  C5  UNL     1       0.940  -8.224 -13.096  1.00  0.00     0.050 C 
HETATM   23  C2  UNL     1       2.082  -9.342 -16.460  1.00  0.00     0.106 A 
HETATM   24 BR1  UNL     1       1.730 -10.997 -14.158  1.00  0.00    -0.048 Br
HETATM   25  C17 UNL     1       2.057  -8.135 -17.137  1.00  0.00     0.079 A 
HETATM   26  C16 UNL     1       1.671  -6.962 -16.498  1.00  0.00     0.098 A 
HETATM   27 BR2  UNL     1       2.556  -8.040 -18.974  1.00  0.00    -0.045 Br
BRANCH  23  28
HETATM   28  O1  UNL     1       2.472 -10.463 -17.141  1.00  0.00    -0.353 OA
HETATM   29  C1  UNL     1       1.591 -11.439 -17.658  1.00  0.00     0.210 C 
ENDBRANCH  23  28
BRANCH  26  30
HETATM   30  O3  UNL     1       1.657  -5.768 -17.210  1.00  0.00    -0.358 OA
ATOM     31  H3  UNL     1       0.846  -5.458 -17.594  1.00  0.00     0.217 HD
ENDBRANCH  26  30
ENDBRANCH   1  19
TORSDOF 6
ENDMDL
MODEL 4
REMARK VINA RESULT: -7.890294615      2.257      2.871
REMARK  6 active torsions:
REMARK  status: ('A' for Active; 'I' for Inactive)
REMARK    1  A    between atoms: O1_2  and  C2_3 
REMARK    2  A    between atoms: C6_8  and  C7_9 
REMARK    3  A    between atoms: N1_10  and  N2_12 
REMARK    4  A    between atoms: N2_12  and  C8_14 
REMARK    5  A    between atoms: C13_20  and  O2_21 
REMARK    6  A    between atoms: C16_27  and  O3_28 
ROOT
HETATM    1  C7  UNL     1       1.756 -14.564 -13.782  1.00  0.00     0.122 C 
HETATM    2  N1  UNL     1       1.118 -13.448 -13.755  1.00  0.00    -0.310 N 
ATOM      3  H1  UNL     1       0.126 -13.471 -13.990  1.00  0.00     0.186 HD
ENDROOT
BRANCH   2   4
HETATM    4  N2  UNL     1       1.662 -12.223 -13.434  1.00  0.00    -0.298 N 
ATOM      5  H2  UNL     1       2.051 -12.089 -12.501  1.00  0.00     0.187 HD
BRANCH   4   6
HETATM    6  C8  UNL     1       1.702 -11.142 -14.351  1.00  0.00     0.083 A 
HETATM    7  C9  UNL     1       1.506  -9.858 -13.831  1.00  0.00     0.060 A 
HETATM    8  C10 UNL     1       1.521  -8.733 -14.604  1.00  0.00     0.063 A 
HETATM    9 CL1  UNL     1       1.270  -7.127 -13.909  1.00  0.00    -0.082 Cl
HETATM   10  C11 UNL     1       1.739  -8.890 -15.955  1.00  0.00     0.059 A 
HETATM   11  C12 UNL     1       1.934 -10.127 -16.505  1.00  0.00     0.007 A 
HETATM   12  N3  UNL     1       1.810  -7.924 -17.009  1.00  0.00    -0.388 N 
HETATM   13  C13 UNL     1       1.914 -11.248 -15.693  1.00  0.00     0.102 A 
HETATM   14  C14 UNL     1       2.147 -10.028 -17.976  1.00  0.00     0.063 C 
HETATM   15  C15 UNL     1       2.345  -8.544 -18.207  1.00  0.00     0.124 C 
ATOM     16  H3  UNL     1       1.526  -6.947 -16.930  1.00  0.00     0.159 HD
BRANCH  13  17
HETATM   17  O2  UNL     1       2.112 -12.499 -16.251  1.00  0.00    -0.358 OA
ATOM     18  H2  UNL     1       2.040 -12.605 -17.193  1.00  0.00     0.217 HD
ENDBRANCH  13  17
ENDBRANCH   4   6
ENDBRANCH   2   4
BRANCH   1  19
HETATM   19  C6  UNL     1       1.020 -15.765 -14.144  1.00  0.00     0.023 A 
HETATM   20  C4  UNL     1       1.043 -16.913 -13.377  1.00  0.00    -0.027 A 
HETATM   21  C3  UNL     1       0.353 -18.052 -13.709  1.00  0.00     0.052 A 
HETATM   22  C5  UNL     1       1.851 -16.910 -12.140  1.00  0.00     0.050 C 
HETATM   23  C2  UNL     1      -0.409 -18.077 -14.861  1.00  0.00     0.106 A 
HETATM   24 BR1  UNL     1       0.437 -19.599 -12.595  1.00  0.00    -0.048 Br
HETATM   25  C17 UNL     1      -0.449 -16.939 -15.647  1.00  0.00     0.079 A 
HETATM   26  C16 UNL     1       0.260 -15.796 -15.291  1.00  0.00     0.098 A 
HETATM   27 BR2  UNL     1      -1.478 -16.900 -17.250  1.00  0.00    -0.045 Br
BRANCH  23  28
HETATM   28  O1  UNL     1      -1.125 -19.173 -15.262  1.00  0.00    -0.353 OA
HETATM   29  C1  UNL     1      -2.434 -19.480 -14.831  1.00  0.00     0.210 C 
ENDBRANCH  23  28
BRANCH  26  30
HETATM   30  O3  UNL     1       0.196 -14.671 -16.104  1.00  0.00    -0.358 OA
ATOM     31  H3  UNL     1       0.216 -13.806 -15.713  1.00  0.00     0.217 HD
ENDBRANCH  26  30
ENDBRANCH   1  19
TORSDOF 6
ENDMDL
MODEL 5
REMARK VINA RESULT: -7.877372833      2.071      3.257
REMARK  6 active torsions:
REMARK  status: ('A' for Active; 'I' for Inactive)
REMARK    1  A    between atoms: O1_2  and  C2_3 
REMARK    2  A    between atoms: C6_8  and  C7_9 
REMARK    3  A    between atoms: N1_10  and  N2_12 
REMARK    4  A    between atoms: N2_12  and  C8_14 
REMARK    5  A    between atoms: C13_20  and  O2_21 
REMARK    6  A    between atoms: C16_27  and  O3_28 
ROOT
HETATM    1  C7  UNL     1       0.320 -12.835 -13.646  1.00  0.00     0.122 C 
HETATM    2  N1  UNL     1       1.499 -12.330 -13.568  1.00  0.00    -0.310 N 
ATOM      3  H1  UNL     1       2.286 -12.950 -13.754  1.00  0.00     0.186 HD
ENDROOT
BRANCH   2   4
HETATM    4  N2  UNL     1       1.789 -11.019 -13.253  1.00  0.00    -0.298 N 
ATOM      5  H2  UNL     1       2.059 -10.794 -12.295  1.00  0.00     0.187 HD
BRANCH   4   6
HETATM    6  C8  UNL     1       1.727  -9.974 -14.209  1.00  0.00     0.083 A 
HETATM    7  C9  UNL     1       1.403  -8.698 -13.736  1.00  0.00     0.060 A 
HETATM    8  C10 UNL     1       1.310  -7.605 -14.548  1.00  0.00     0.063 A 
HETATM    9 CL1  UNL     1       0.897  -6.008 -13.912  1.00  0.00    -0.082 Cl
HETATM   10  C11 UNL     1       1.549  -7.788 -15.892  1.00  0.00     0.059 A 
HETATM   11  C12 UNL     1       1.869  -9.018 -16.397  1.00  0.00     0.007 A 
HETATM   12  N3  UNL     1       1.530  -6.858 -16.981  1.00  0.00    -0.388 N 
HETATM   13  C13 UNL     1       1.955 -10.106 -15.546  1.00  0.00     0.102 A 
HETATM   14  C14 UNL     1       2.079  -8.951 -17.870  1.00  0.00     0.063 C 
HETATM   15  C15 UNL     1       2.130  -7.464 -18.155  1.00  0.00     0.124 C 
ATOM     16  H3  UNL     1       1.151  -5.912 -16.937  1.00  0.00     0.159 HD
BRANCH  13  17
HETATM   17  O2  UNL     1       2.280 -11.350 -16.058  1.00  0.00    -0.358 OA
ATOM     18  H2  UNL     1       3.168 -11.514 -16.353  1.00  0.00     0.217 HD
ENDBRANCH  13  17
ENDBRANCH   4   6
ENDBRANCH   2   4
BRANCH   1  19
HETATM   19  C6  UNL     1       0.198 -14.243 -13.991  1.00  0.00     0.023 A 
HETATM   20  C4  UNL     1      -0.185 -14.672 -15.247  1.00  0.00    -0.027 A 
HETATM   21  C3  UNL     1      -0.303 -15.997 -15.584  1.00  0.00     0.052 A 
HETATM   22  C5  UNL     1      -0.481 -13.651 -16.273  1.00  0.00     0.050 C 
HETATM   23  C2  UNL     1      -0.031 -16.968 -14.640  1.00  0.00     0.106 A 
HETATM   24 BR1  UNL     1      -0.839 -16.508 -17.342  1.00  0.00    -0.048 Br
HETATM   25  C17 UNL     1       0.355 -16.564 -13.374  1.00  0.00     0.079 A 
HETATM   26  C16 UNL     1       0.467 -15.214 -13.055  1.00  0.00     0.098 A 
HETATM   27 BR2  UNL     1       0.747 -17.847 -12.021  1.00  0.00    -0.045 Br
BRANCH  23  28
HETATM   28  O1  UNL     1      -0.125 -18.309 -14.896  1.00  0.00    -0.353 OA
HETATM   29  C1  UNL     1      -1.304 -19.075 -14.753  1.00  0.00     0.210 C 
ENDBRANCH  23  28
BRANCH  26  30
HETATM   30  O3  UNL     1       0.859 -14.845 -11.773  1.00  0.00    -0.358 OA
ATOM     31  H3  UNL     1       0.213 -14.800 -11.079  1.00  0.00     0.217 HD
ENDBRANCH  26  30
ENDBRANCH   1  19
TORSDOF 6
ENDMDL
