MODEL 1
REMARK VINA RESULT: -7.707318079      0.000      0.000
REMARK  7 active torsions:
REMARK  status: ('A' for Active; 'I' for Inactive)
REMARK    1  A    between atoms: S1_2  and  C1_4 
REMARK    2  A    between atoms: S1_2  and  N1_12 
REMARK    3  A    between atoms: N1_12  and  C7_13 
REMARK    4  A    between atoms: N1_12  and  C13_26 
REMARK    5  A    between atoms: C9_15  and  O3_16 
REMARK    6  A    between atoms: C10_18  and  O4_19 
REMARK    7  A    between atoms: C11_21  and  O5_22 
ROOT
HETATM    1  N1  UNL     1       1.200 -13.759 -15.624  1.00  0.00    -0.265 N 
ENDROOT
BRANCH   1   2
HETATM    2  S1  UNL     1       1.836 -12.880 -16.969  1.00  0.00     0.265 S 
HETATM    3  O1  UNL     1       3.258 -13.365 -17.210  1.00  0.00    -0.200 OA
HETATM    4  O2  UNL     1       1.064 -13.215 -18.236  1.00  0.00    -0.200 OA
BRANCH   2   5
HETATM    5  C1  UNL     1       1.813 -11.161 -16.776  1.00  0.00     0.081 A 
HETATM    6  C2  UNL     1       2.197 -10.355 -17.824  1.00  0.00     0.027 A 
HETATM    7  C3  UNL     1       2.181  -8.962 -17.716  1.00  0.00     0.022 A 
HETATM    8  C4  UNL     1       1.776  -8.374 -16.549  1.00  0.00     0.032 A 
HETATM    9 BR1  UNL     1       1.756  -6.452 -16.409  1.00  0.00    -0.049 Br
HETATM   10  C5  UNL     1       1.392  -9.168 -15.501  1.00  0.00     0.052 A 
HETATM   11 CL1  UNL     1       0.872  -8.428 -14.004  1.00  0.00    -0.083 Cl
HETATM   12  C6  UNL     1       1.408 -10.564 -15.607  1.00  0.00     0.050 A 
ENDBRANCH   2   5
ENDBRANCH   1   2
BRANCH   1  13
HETATM   13  C7  UNL     1       0.650 -15.061 -15.774  1.00  0.00     0.073 A 
HETATM   14  C8  UNL     1       1.408 -16.193 -15.459  1.00  0.00     0.071 A 
HETATM   15  C9  UNL     1       0.940 -17.487 -15.581  1.00  0.00     0.103 A 
HETATM   16  C10 UNL     1      -0.332 -17.702 -16.034  1.00  0.00     0.134 A 
HETATM   17  C11 UNL     1      -1.115 -16.588 -16.360  1.00  0.00     0.126 A 
HETATM   18  C12 UNL     1      -0.620 -15.318 -16.227  1.00  0.00     0.097 A 
HETATM   19 CL2  UNL     1      -1.710 -14.018 -16.701  1.00  0.00    -0.079 Cl
BRANCH  15  20
HETATM   20  O3  UNL     1       1.784 -18.546 -15.236  1.00  0.00    -0.358 OA
ATOM     21  H3  UNL     1       2.640 -18.353 -14.873  1.00  0.00     0.217 HD
ENDBRANCH  15  20
BRANCH  16  22
HETATM   22  O4  UNL     1      -0.862 -18.975 -16.180  1.00  0.00    -0.356 OA
ATOM     23  H4  UNL     1      -1.411 -19.215 -16.917  1.00  0.00     0.218 HD
ENDBRANCH  16  22
BRANCH  17  24
HETATM   24  O5  UNL     1      -2.399 -16.843 -16.815  1.00  0.00    -0.356 OA
ATOM     25  H5  UNL     1      -2.622 -16.501 -17.673  1.00  0.00     0.218 HD
ENDBRANCH  17  24
ENDBRANCH   1  13
BRANCH   1  26
HETATM   26  C13 UNL     1       1.266 -13.150 -14.324  1.00  0.00     0.102 C 
HETATM   27  C14 UNL     1       0.080 -13.319 -13.444  1.00  0.00     0.026 C 
HETATM   28  C15 UNL     1       0.446 -12.683 -12.081  1.00  0.00     0.002 C 
HETATM   29  C16 UNL     1       1.334 -13.686 -11.397  1.00  0.00     0.000 C 
HETATM   30  C17 UNL     1       2.118 -14.475 -12.436  1.00  0.00     0.002 C 
HETATM   31  C18 UNL     1       2.503 -13.510 -13.531  1.00  0.00     0.026 C 
ENDBRANCH   1  26
TORSDOF 7
ENDMDL
MODEL 2
REMARK VINA RESULT: -7.636737199      1.604      1.916
REMARK  7 active torsions:
REMARK  status: ('A' for Active; 'I' for Inactive)
REMARK    1  A    between atoms: S1_2  and  C1_4 
REMARK    2  A    between atoms: S1_2  and  N1_12 
REMARK    3  A    between atoms: N1_12  and  C7_13 
REMARK    4  A    between atoms: N1_12  and  C13_26 
REMARK    5  A    between atoms: C9_15  and  O3_16 
REMARK    6  A    between atoms: C10_18  and  O4_19 
REMARK    7  A    between atoms: C11_21  and  O5_22 
ROOT
HETATM    1  N1  UNL     1       1.216 -14.650 -15.319  1.00  0.00    -0.265 N 
ENDROOT
BRANCH   1   2
HETATM    2  S1  UNL     1       1.946 -14.073 -16.775  1.00  0.00     0.265 S 
HETATM    3  O1  UNL     1       3.382 -14.578 -16.807  1.00  0.00    -0.200 OA
HETATM    4  O2  UNL     1       1.266 -14.687 -17.989  1.00  0.00    -0.200 OA
BRANCH   2   5
HETATM    5  C1  UNL     1       1.911 -12.354 -16.962  1.00  0.00     0.081 A 
HETATM    6  C2  UNL     1       1.560 -11.562 -15.891  1.00  0.00     0.027 A 
HETATM    7  C3  UNL     1       1.532 -10.169 -15.993  1.00  0.00     0.022 A 
HETATM    8  C4  UNL     1       1.858  -9.566 -17.177  1.00  0.00     0.032 A 
HETATM    9 BR1  UNL     1       1.817  -7.644 -17.310  1.00  0.00    -0.049 Br
HETATM   10  C5  UNL     1       2.208 -10.346 -18.248  1.00  0.00     0.052 A 
HETATM   11 CL1  UNL     1       2.626  -9.587 -19.767  1.00  0.00    -0.083 Cl
HETATM   12  C6  UNL     1       2.236 -11.742 -18.148  1.00  0.00     0.050 A 
ENDBRANCH   2   5
ENDBRANCH   1   2
BRANCH   1  13
HETATM   13  C7  UNL     1       0.786 -15.997 -15.181  1.00  0.00     0.073 A 
HETATM   14  C8  UNL     1       1.557 -16.920 -14.467  1.00  0.00     0.071 A 
HETATM   15  C9  UNL     1       1.201 -18.244 -14.294  1.00  0.00     0.103 A 
HETATM   16  C10 UNL     1       0.035 -18.704 -14.841  1.00  0.00     0.134 A 
HETATM   17  C11 UNL     1      -0.757 -17.804 -15.563  1.00  0.00     0.126 A 
HETATM   18  C12 UNL     1      -0.375 -16.497 -15.716  1.00  0.00     0.097 A 
HETATM   19 CL2  UNL     1      -1.458 -15.490 -16.672  1.00  0.00    -0.079 Cl
BRANCH  15  20
HETATM   20  O3  UNL     1       2.047 -19.080 -13.560  1.00  0.00    -0.358 OA
ATOM     21  H3  UNL     1       1.993 -20.019 -13.692  1.00  0.00     0.217 HD
ENDBRANCH  15  20
BRANCH  16  22
HETATM   22  O4  UNL     1      -0.379 -20.020 -14.703  1.00  0.00    -0.356 OA
ATOM     23  H4  UNL     1      -0.599 -20.398 -13.860  1.00  0.00     0.218 HD
ENDBRANCH  16  22
BRANCH  17  24
HETATM   24  O5  UNL     1      -1.931 -18.305 -16.102  1.00  0.00    -0.356 OA
ATOM     25  H5  UNL     1      -1.928 -18.483 -17.036  1.00  0.00     0.218 HD
ENDBRANCH  17  24
ENDBRANCH   1  13
BRANCH   1  26
HETATM   26  C13 UNL     1       1.079 -13.733 -14.221  1.00  0.00     0.102 C 
HETATM   27  C14 UNL     1      -0.091 -13.931 -13.325  1.00  0.00     0.026 C 
HETATM   28  C15 UNL     1       0.054 -12.906 -12.174  1.00  0.00     0.002 C 
HETATM   29  C16 UNL     1       1.097 -13.483 -11.255  1.00  0.00     0.000 C 
HETATM   30  C17 UNL     1       2.088 -14.316 -12.056  1.00  0.00     0.002 C 
HETATM   31  C18 UNL     1       2.318 -13.599 -13.364  1.00  0.00     0.026 C 
ENDBRANCH   1  26
TORSDOF 7
ENDMDL
MODEL 3
REMARK VINA RESULT: -7.599701814      4.083      6.417
REMARK  7 active torsions:
REMARK  status: ('A' for Active; 'I' for Inactive)
REMARK    1  A    between atoms: S1_2  and  C1_4 
REMARK    2  A    between atoms: S1_2  and  N1_12 
REMARK    3  A    between atoms: N1_12  and  C7_13 
REMARK    4  A    between atoms: N1_12  and  C13_26 
REMARK    5  A    between atoms: C9_15  and  O3_16 
REMARK    6  A    between atoms: C10_18  and  O4_19 
REMARK    7  A    between atoms: C11_21  and  O5_22 
ROOT
HETATM    1  N1  UNL     1       0.898 -13.906 -14.287  1.00  0.00    -0.265 N 
ENDROOT
BRANCH   1   2
HETATM    2  S1  UNL     1       1.389 -14.562 -12.766  1.00  0.00     0.265 S 
HETATM    3  O1  UNL     1       2.835 -14.151 -12.527  1.00  0.00    -0.200 OA
HETATM    4  O2  UNL     1       0.590 -13.935 -11.634  1.00  0.00    -0.200 OA
BRANCH   2   5
HETATM    5  C1  UNL     1       1.225 -16.280 -12.640  1.00  0.00     0.081 A 
HETATM    6  C2  UNL     1       2.312 -17.040 -12.272  1.00  0.00     0.027 A 
HETATM    7  C3  UNL     1       2.221 -18.428 -12.145  1.00  0.00     0.022 A 
HETATM    8  C4  UNL     1       1.031 -19.058 -12.389  1.00  0.00     0.032 A 
HETATM    9 BR1  UNL     1       0.913 -20.973 -12.211  1.00  0.00    -0.049 Br
HETATM   10  C5  UNL     1      -0.056 -18.310 -12.755  1.00  0.00     0.052 A 
HETATM   11 CL1  UNL     1      -1.583 -19.102 -13.069  1.00  0.00    -0.083 Cl
HETATM   12  C6  UNL     1       0.034 -16.918 -12.884  1.00  0.00     0.050 A 
ENDBRANCH   2   5
ENDBRANCH   1   2
BRANCH   1  13
HETATM   13  C7  UNL     1       0.634 -14.736 -15.409  1.00  0.00     0.073 A 
HETATM   14  C8  UNL     1      -0.640 -15.279 -15.607  1.00  0.00     0.071 A 
HETATM   15  C9  UNL     1      -0.968 -16.094 -16.673  1.00  0.00     0.103 A 
HETATM   16  C10 UNL     1      -0.013 -16.404 -17.602  1.00  0.00     0.134 A 
HETATM   17  C11 UNL     1       1.272 -15.877 -17.429  1.00  0.00     0.126 A 
HETATM   18  C12 UNL     1       1.564 -15.072 -16.360  1.00  0.00     0.097 A 
HETATM   19 CL2  UNL     1       3.230 -14.506 -16.261  1.00  0.00    -0.079 Cl
BRANCH  15  20
HETATM   20  O3  UNL     1      -2.274 -16.581 -16.774  1.00  0.00    -0.358 OA
ATOM     21  H3  UNL     1      -2.826 -16.582 -16.000  1.00  0.00     0.217 HD
ENDBRANCH  15  20
BRANCH  16  22
HETATM   22  O4  UNL     1      -0.278 -17.216 -18.694  1.00  0.00    -0.356 OA
ATOM     23  H4  UNL     1       0.156 -17.099 -19.531  1.00  0.00     0.218 HD
ENDBRANCH  16  22
BRANCH  17  24
HETATM   24  O5  UNL     1       2.214 -16.212 -18.389  1.00  0.00    -0.356 OA
ATOM     25  H5  UNL     1       1.894 -16.327 -19.277  1.00  0.00     0.218 HD
ENDBRANCH  17  24
ENDBRANCH   1  13
BRANCH   1  26
HETATM   26  C13 UNL     1       0.731 -12.481 -14.388  1.00  0.00     0.102 C 
HETATM   27  C14 UNL     1       1.849 -11.639 -13.888  1.00  0.00     0.026 C 
HETATM   28  C15 UNL     1       1.478 -10.172 -14.216  1.00  0.00     0.002 C 
HETATM   29  C16 UNL     1       1.758 -10.007 -15.685  1.00  0.00     0.000 C 
HETATM   30  C17 UNL     1       1.548 -11.333 -16.403  1.00  0.00     0.002 C 
HETATM   31  C18 UNL     1       0.350 -11.997 -15.769  1.00  0.00     0.026 C 
ENDBRANCH   1  26
TORSDOF 7
ENDMDL
MODEL 4
REMARK VINA RESULT: -7.538856590      3.338      4.692
REMARK  7 active torsions:
REMARK  status: ('A' for Active; 'I' for Inactive)
REMARK    1  A    between atoms: S1_2  and  C1_4 
REMARK    2  A    between atoms: S1_2  and  N1_12 
REMARK    3  A    between atoms: N1_12  and  C7_13 
REMARK    4  A    between atoms: N1_12  and  C13_26 
REMARK    5  A    between atoms: C9_15  and  O3_16 
REMARK    6  A    between atoms: C10_18  and  O4_19 
REMARK    7  A    between atoms: C11_21  and  O5_22 
ROOT
HETATM    1  N1  UNL     1       0.779 -14.369 -13.331  1.00  0.00    -0.265 N 
ENDROOT
BRANCH   1   2
HETATM    2  S1  UNL     1       0.430 -13.048 -12.273  1.00  0.00     0.265 S 
HETATM    3  O1  UNL     1      -1.074 -13.025 -12.038  1.00  0.00    -0.200 OA
HETATM    4  O2  UNL     1       1.057 -13.282 -10.907  1.00  0.00    -0.200 OA
BRANCH   2   5
HETATM    5  C1  UNL     1       0.971 -11.508 -12.846  1.00  0.00     0.081 A 
HETATM    6  C2  UNL     1       0.829 -10.397 -12.045  1.00  0.00     0.027 A 
HETATM    7  C3  UNL     1       1.265  -9.137 -12.463  1.00  0.00     0.022 A 
HETATM    8  C4  UNL     1       1.848  -8.991 -13.692  1.00  0.00     0.032 A 
HETATM    9 BR1  UNL     1       2.447  -7.250 -14.260  1.00  0.00    -0.049 Br
HETATM   10  C5  UNL     1       1.994 -10.091 -14.495  1.00  0.00     0.052 A 
HETATM   11 CL1  UNL     1       2.738  -9.917 -16.069  1.00  0.00    -0.083 Cl
HETATM   12  C6  UNL     1       1.557 -11.354 -14.079  1.00  0.00     0.050 A 
ENDBRANCH   2   5
ENDBRANCH   1   2
BRANCH   1  13
HETATM   13  C7  UNL     1       0.918 -15.697 -12.848  1.00  0.00     0.073 A 
HETATM   14  C8  UNL     1      -0.159 -16.588 -12.896  1.00  0.00     0.071 A 
HETATM   15  C9  UNL     1      -0.096 -17.892 -12.444  1.00  0.00     0.103 A 
HETATM   16  C10 UNL     1       1.073 -18.364 -11.915  1.00  0.00     0.134 A 
HETATM   17  C11 UNL     1       2.169 -17.495 -11.851  1.00  0.00     0.126 A 
HETATM   18  C12 UNL     1       2.072 -16.208 -12.309  1.00  0.00     0.097 A 
HETATM   19 CL2  UNL     1       3.524 -15.224 -12.138  1.00  0.00    -0.079 Cl
BRANCH  15  20
HETATM   20  O3  UNL     1      -1.235 -18.697 -12.542  1.00  0.00    -0.358 OA
ATOM     21  H3  UNL     1      -1.765 -18.838 -11.766  1.00  0.00     0.217 HD
ENDBRANCH  15  20
BRANCH  16  22
HETATM   22  O4  UNL     1       1.202 -19.662 -11.444  1.00  0.00    -0.356 OA
ATOM     23  H4  UNL     1       0.667 -20.376 -11.770  1.00  0.00     0.218 HD
ENDBRANCH  16  22
BRANCH  17  24
HETATM   24  O5  UNL     1       3.336 -18.008 -11.309  1.00  0.00    -0.356 OA
ATOM     25  H5  UNL     1       4.057 -18.153 -11.911  1.00  0.00     0.218 HD
ENDBRANCH  17  24
ENDBRANCH   1  13
BRANCH   1  26
HETATM   26  C13 UNL     1       0.897 -14.096 -14.738  1.00  0.00     0.102 C 
HETATM   27  C14 UNL     1       1.817 -14.968 -15.514  1.00  0.00     0.026 C 
HETATM   28  C15 UNL     1       1.675 -14.552 -16.998  1.00  0.00     0.002 C 
HETATM   29  C16 UNL     1       0.387 -15.172 -17.466  1.00  0.00     0.000 C 
HETATM   30  C17 UNL     1      -0.589 -15.276 -16.302  1.00  0.00     0.002 C 
HETATM   31  C18 UNL     1      -0.424 -14.026 -15.471  1.00  0.00     0.026 C 
ENDBRANCH   1  26
TORSDOF 7
ENDMDL
MODEL 5
REMARK VINA RESULT: -7.520339095      2.720      3.928
REMARK  7 active torsions:
REMARK  status: ('A' for Active; 'I' for Inactive)
REMARK    1  A    between atoms: S1_2  and  C1_4 
REMARK    2  A    between atoms: S1_2  and  N1_12 
REMARK    3  A    between atoms: N1_12  and  C7_13 
REMARK    4  A    between atoms: N1_12  and  C13_26 
REMARK    5  A    between atoms: C9_15  and  O3_16 
REMARK    6  A    between atoms: C10_18  and  O4_19 
REMARK    7  A    between atoms: C11_21  and  O5_22 
ROOT
HETATM    1  N1  UNL     1       0.986 -15.271 -15.565  1.00  0.00    -0.265 N 
ENDROOT
BRANCH   1   2
HETATM    2  S1  UNL     1      -0.119 -14.066 -15.004  1.00  0.00     0.265 S 
HETATM    3  O1  UNL     1      -1.279 -14.005 -15.988  1.00  0.00    -0.200 OA
HETATM    4  O2  UNL     1      -0.727 -14.482 -13.674  1.00  0.00    -0.200 OA
BRANCH   2   5
HETATM    5  C1  UNL     1       0.577 -12.496 -14.799  1.00  0.00     0.081 A 
HETATM    6  C2  UNL     1       0.847 -12.033 -13.531  1.00  0.00     0.027 A 
HETATM    7  C3  UNL     1       1.422 -10.778 -13.320  1.00  0.00     0.022 A 
HETATM    8  C4  UNL     1       1.728  -9.980 -14.389  1.00  0.00     0.032 A 
HETATM    9 BR1  UNL     1       2.521  -8.250 -14.091  1.00  0.00    -0.049 Br
HETATM   10  C5  UNL     1       1.464 -10.433 -15.655  1.00  0.00     0.052 A 
HETATM   11 CL1  UNL     1       1.851  -9.424 -17.030  1.00  0.00    -0.083 Cl
HETATM   12  C6  UNL     1       0.887 -11.691 -15.868  1.00  0.00     0.050 A 
ENDBRANCH   2   5
ENDBRANCH   1   2
BRANCH   1  13
HETATM   13  C7  UNL     1       1.367 -15.357 -16.931  1.00  0.00     0.073 A 
HETATM   14  C8  UNL     1       2.388 -14.545 -17.437  1.00  0.00     0.071 A 
HETATM   15  C9  UNL     1       2.809 -14.574 -18.752  1.00  0.00     0.103 A 
HETATM   16  C10 UNL     1       2.213 -15.435 -19.631  1.00  0.00     0.134 A 
HETATM   17  C11 UNL     1       1.187 -16.260 -19.154  1.00  0.00     0.126 A 
HETATM   18  C12 UNL     1       0.793 -16.206 -17.843  1.00  0.00     0.097 A 
HETATM   19 CL2  UNL     1      -0.528 -17.283 -17.396  1.00  0.00    -0.079 Cl
BRANCH  15  20
HETATM   20  O3  UNL     1       3.840 -13.718 -19.150  1.00  0.00    -0.358 OA
ATOM     21  H3  UNL     1       4.310 -13.907 -19.954  1.00  0.00     0.217 HD
ENDBRANCH  15  20
BRANCH  16  22
HETATM   22  O4  UNL     1       2.589 -15.514 -20.962  1.00  0.00    -0.356 OA
ATOM     23  H4  UNL     1       2.652 -14.746 -21.519  1.00  0.00     0.218 HD
ENDBRANCH  16  22
BRANCH  17  24
HETATM   24  O5  UNL     1       0.606 -17.121 -20.072  1.00  0.00    -0.356 OA
ATOM     25  H5  UNL     1       0.716 -16.900 -20.990  1.00  0.00     0.218 HD
ENDBRANCH  17  24
ENDBRANCH   1  13
BRANCH   1  26
HETATM   26  C13 UNL     1       1.544 -16.180 -14.602  1.00  0.00     0.102 C 
HETATM   27  C14 UNL     1       1.616 -15.705 -13.196  1.00  0.00     0.026 C 
HETATM   28  C15 UNL     1       2.135 -16.894 -12.353  1.00  0.00     0.002 C 
HETATM   29  C16 UNL     1       0.954 -17.810 -12.183  1.00  0.00     0.000 C 
HETATM   30  C17 UNL     1       0.034 -17.696 -13.390  1.00  0.00     0.002 C 
HETATM   31  C18 UNL     1       0.915 -17.556 -14.608  1.00  0.00     0.026 C 
ENDBRANCH   1  26
TORSDOF 7
ENDMDL
