MODEL 1
REMARK VINA RESULT: 3.781922942      0.000      0.000
REMARK  7 active torsions:
REMARK  status: ('A' for Active; 'I' for Inactive)
REMARK    1  A    between atoms: C6_11  and  C7_12 
REMARK    2  A    between atoms: C7_12  and  C8_13 
REMARK    3  A    between atoms: C8_13  and  C9_14 
REMARK    4  A    between atoms: C13_20  and  N4_21 
REMARK    5  A    between atoms: C16_28  and  N7_29 
REMARK    6  A    between atoms: C23_36  and  C24_37 
REMARK    7  A    between atoms: C24_37  and  C25_38 
ROOT
HETATM    1  C9  UNL     1      23.751 -53.305 -33.448  1.00  0.00     0.041 A 
HETATM    2  C10 UNL     1      23.841 -54.563 -34.002  1.00  0.00     0.109 A 
HETATM    3  N3  UNL     1      24.319 -54.786 -35.228  1.00  0.00    -0.364 N 
ATOM      4  H3  UNL     1      24.366 -55.737 -35.594  1.00  0.00     0.165 HD
HETATM    5  C11 UNL     1      24.734 -53.764 -35.967  1.00  0.00     0.045 A 
HETATM    6  C12 UNL     1      25.240 -53.993 -37.238  1.00  0.00     0.064 A 
HETATM    7  C13 UNL     1      25.687 -52.890 -38.003  1.00  0.00     0.086 A 
HETATM    8  C16 UNL     1      25.621 -51.633 -37.502  1.00  0.00     0.060 A 
HETATM    9  C21 UNL     1      25.107 -51.405 -36.215  1.00  0.00     0.046 A 
HETATM   10  C22 UNL     1      24.665 -52.485 -35.459  1.00  0.00     0.001 A 
HETATM   11  C23 UNL     1      24.170 -52.219 -34.177  1.00  0.00    -0.021 A 
ENDROOT
BRANCH   1  12
HETATM   12  C8  UNL     1      23.170 -53.113 -32.134  1.00  0.00    -0.059 C 
BRANCH  12  13
HETATM   13  C7  UNL     1      22.664 -52.969 -31.035  1.00  0.00    -0.059 C 
BRANCH  13  14
HETATM   14  C6  UNL     1      22.048 -52.823 -29.748  1.00  0.00     0.040 A 
HETATM   15  C2  UNL     1      21.912 -53.906 -28.915  1.00  0.00     0.025 A 
HETATM   16  C1  UNL     1      22.418 -55.254 -29.367  1.00  0.00     0.070 C 
HETATM   17  N1  UNL     1      21.342 -53.817 -27.704  1.00  0.00    -0.345 N 
HETATM   18  C3  UNL     1      20.882 -52.635 -27.272  1.00  0.00     0.098 A 
ATOM     19  H1  UNL     1      21.259 -54.645 -27.115  1.00  0.00     0.167 HD
HETATM   20  N2  UNL     1      20.326 -52.571 -26.081  1.00  0.00    -0.385 N 
HETATM   21  C4  UNL     1      20.975 -51.502 -28.036  1.00  0.00     0.049 A 
ATOM     22  H22 UNL     1      20.256 -53.415 -25.513  1.00  0.00     0.157 HD
ATOM     23  H21 UNL     1      19.976 -51.671 -25.752  1.00  0.00     0.157 HD
HETATM   24  C5  UNL     1      21.561 -51.597 -29.279  1.00  0.00     0.026 A 
ENDBRANCH  13  14
ENDBRANCH  12  13
ENDBRANCH   1  12
BRANCH  11  25
HETATM   25  C24 UNL     1      24.158 -50.870 -33.608  1.00  0.00     0.079 C 
BRANCH  25  26
HETATM   26  C25 UNL     1      25.478 -50.191 -33.567  1.00  0.00    -0.051 A 
HETATM   27  C26 UNL     1      26.549 -50.939 -33.033  1.00  0.00     0.011 A 
HETATM   28  C27 UNL     1      27.786 -50.365 -32.940  1.00  0.00     0.046 A 
HETATM   29  C28 UNL     1      27.965 -49.074 -33.365  1.00  0.00     0.154 A 
HETATM   30  F1  UNL     1      29.191 -48.493 -33.276  1.00  0.00    -0.203 F 
HETATM   31  C29 UNL     1      26.940 -48.328 -33.887  1.00  0.00     0.155 A 
HETATM   32  F2  UNL     1      27.137 -47.039 -34.310  1.00  0.00    -0.203 F 
HETATM   33  C30 UNL     1      25.689 -48.919 -33.979  1.00  0.00     0.053 A 
ENDBRANCH  25  26
ENDBRANCH  11  25
BRANCH   8  34
HETATM   34  N7  UNL     1      26.078 -50.510 -38.203  1.00  0.00    -0.379 N 
HETATM   35  C17 UNL     1      27.351 -50.388 -38.875  1.00  0.00     0.123 C 
HETATM   36  C18 UNL     1      27.002 -49.700 -40.166  1.00  0.00     0.021 C 
HETATM   37  C19 UNL     1      25.797 -48.873 -39.811  1.00  0.00     0.021 C 
HETATM   38  C20 UNL     1      25.420 -49.222 -38.411  1.00  0.00     0.123 C 
ENDBRANCH   8  34
BRANCH   7  39
HETATM   39  N4  UNL     1      26.180 -53.132 -39.297  1.00  0.00    -0.249 N 
HETATM   40  C14 UNL     1      25.477 -53.052 -40.422  1.00  0.00     0.208 A 
HETATM   41  N5  UNL     1      26.276 -53.373 -41.453  1.00  0.00    -0.346 N 
HETATM   42  C15 UNL     1      27.500 -53.660 -40.963  1.00  0.00     0.199 A 
ATOM     43  H5  UNL     1      26.005 -53.397 -42.436  1.00  0.00     0.167 HD
HETATM   44  N6  UNL     1      27.394 -53.498 -39.622  1.00  0.00    -0.288 N 
ATOM     45  H6  UNL     1      28.155 -53.640 -38.959  1.00  0.00     0.188 HD
ENDBRANCH   7  39
TORSDOF 7
ENDMDL
MODEL 2
REMARK VINA RESULT: 4.169627949      0.615      1.214
REMARK  7 active torsions:
REMARK  status: ('A' for Active; 'I' for Inactive)
REMARK    1  A    between atoms: C6_11  and  C7_12 
REMARK    2  A    between atoms: C7_12  and  C8_13 
REMARK    3  A    between atoms: C8_13  and  C9_14 
REMARK    4  A    between atoms: C13_20  and  N4_21 
REMARK    5  A    between atoms: C16_28  and  N7_29 
REMARK    6  A    between atoms: C23_36  and  C24_37 
REMARK    7  A    between atoms: C24_37  and  C25_38 
ROOT
HETATM    1  C9  UNL     1      23.676 -53.295 -33.505  1.00  0.00     0.041 A 
HETATM    2  C10 UNL     1      23.699 -54.544 -34.084  1.00  0.00     0.109 A 
HETATM    3  N3  UNL     1      24.147 -54.765 -35.322  1.00  0.00    -0.364 N 
ATOM      4  H3  UNL     1      24.144 -55.710 -35.707  1.00  0.00     0.165 HD
HETATM    5  C11 UNL     1      24.596 -53.748 -36.049  1.00  0.00     0.045 A 
HETATM    6  C12 UNL     1      25.071 -53.976 -37.333  1.00  0.00     0.064 A 
HETATM    7  C13 UNL     1      25.556 -52.880 -38.084  1.00  0.00     0.086 A 
HETATM    8  C16 UNL     1      25.556 -51.631 -37.558  1.00  0.00     0.060 A 
HETATM    9  C21 UNL     1      25.073 -51.404 -36.259  1.00  0.00     0.046 A 
HETATM   10  C22 UNL     1      24.595 -52.478 -35.516  1.00  0.00     0.001 A 
HETATM   11  C23 UNL     1      24.133 -52.214 -34.220  1.00  0.00    -0.021 A 
ENDROOT
BRANCH   1  12
HETATM   12  C8  UNL     1      23.126 -53.102 -32.178  1.00  0.00    -0.059 C 
BRANCH  12  13
HETATM   13  C7  UNL     1      22.645 -52.957 -31.067  1.00  0.00    -0.059 C 
BRANCH  13  14
HETATM   14  C6  UNL     1      22.051 -52.794 -29.772  1.00  0.00     0.040 A 
HETATM   15  C2  UNL     1      21.923 -53.869 -28.927  1.00  0.00     0.025 A 
HETATM   16  C1  UNL     1      22.415 -55.224 -29.373  1.00  0.00     0.070 C 
HETATM   17  N1  UNL     1      21.373 -53.764 -27.708  1.00  0.00    -0.345 N 
HETATM   18  C3  UNL     1      20.927 -52.576 -27.281  1.00  0.00     0.098 A 
ATOM     19  H1  UNL     1      21.295 -54.586 -27.109  1.00  0.00     0.167 HD
HETATM   20  N2  UNL     1      20.390 -52.497 -26.081  1.00  0.00    -0.385 N 
HETATM   21  C4  UNL     1      21.013 -51.450 -28.057  1.00  0.00     0.049 A 
ATOM     22  H22 UNL     1      20.325 -53.335 -25.504  1.00  0.00     0.157 HD
ATOM     23  H21 UNL     1      20.050 -51.592 -25.756  1.00  0.00     0.157 HD
HETATM   24  C5  UNL     1      21.578 -51.561 -29.308  1.00  0.00     0.026 A 
ENDBRANCH  13  14
ENDBRANCH  12  13
ENDBRANCH   1  12
BRANCH  11  25
HETATM   25  C24 UNL     1      24.192 -50.878 -33.626  1.00  0.00     0.079 C 
BRANCH  25  26
HETATM   26  C25 UNL     1      25.552 -50.285 -33.542  1.00  0.00    -0.051 A 
HETATM   27  C26 UNL     1      25.629 -48.882 -33.662  1.00  0.00     0.011 A 
HETATM   28  C27 UNL     1      26.853 -48.272 -33.623  1.00  0.00     0.046 A 
HETATM   29  C28 UNL     1      27.982 -49.035 -33.468  1.00  0.00     0.154 A 
HETATM   30  F1  UNL     1      29.203 -48.440 -33.428  1.00  0.00    -0.203 F 
HETATM   31  C29 UNL     1      27.930 -50.400 -33.348  1.00  0.00     0.155 A 
HETATM   32  F2  UNL     1      29.069 -51.148 -33.192  1.00  0.00    -0.203 F 
HETATM   33  C30 UNL     1      26.685 -51.008 -33.389  1.00  0.00     0.053 A 
ENDBRANCH  25  26
ENDBRANCH  11  25
BRANCH   8  34
HETATM   34  N7  UNL     1      26.052 -50.516 -38.246  1.00  0.00    -0.379 N 
HETATM   35  C17 UNL     1      27.375 -50.388 -38.813  1.00  0.00     0.123 C 
HETATM   36  C18 UNL     1      27.124 -49.735 -40.144  1.00  0.00     0.021 C 
HETATM   37  C19 UNL     1      25.882 -48.921 -39.910  1.00  0.00     0.021 C 
HETATM   38  C20 UNL     1      25.394 -49.244 -38.538  1.00  0.00     0.123 C 
ENDBRANCH   8  34
BRANCH   7  39
HETATM   39  N4  UNL     1      26.016 -53.118 -39.391  1.00  0.00    -0.249 N 
HETATM   40  C14 UNL     1      27.207 -53.610 -39.715  1.00  0.00     0.208 A 
HETATM   41  N5  UNL     1      27.296 -53.675 -41.055  1.00  0.00    -0.346 N 
HETATM   42  C15 UNL     1      26.140 -53.214 -41.575  1.00  0.00     0.199 A 
ATOM     43  H5  UNL     1      28.098 -54.013 -41.586  1.00  0.00     0.167 HD
HETATM   44  N6  UNL     1      25.375 -52.880 -40.507  1.00  0.00    -0.288 N 
ATOM     45  H6  UNL     1      24.432 -52.497 -40.566  1.00  0.00     0.188 HD
ENDBRANCH   7  39
TORSDOF 7
ENDMDL
MODEL 3
REMARK VINA RESULT: 5.828250146      1.035      1.410
REMARK  7 active torsions:
REMARK  status: ('A' for Active; 'I' for Inactive)
REMARK    1  A    between atoms: C6_11  and  C7_12 
REMARK    2  A    between atoms: C7_12  and  C8_13 
REMARK    3  A    between atoms: C8_13  and  C9_14 
REMARK    4  A    between atoms: C13_20  and  N4_21 
REMARK    5  A    between atoms: C16_28  and  N7_29 
REMARK    6  A    between atoms: C23_36  and  C24_37 
REMARK    7  A    between atoms: C24_37  and  C25_38 
ROOT
HETATM    1  C9  UNL     1      24.367 -53.514 -34.151  1.00  0.00     0.041 A 
HETATM    2  C10 UNL     1      24.824 -54.760 -34.517  1.00  0.00     0.109 A 
HETATM    3  N3  UNL     1      25.404 -55.007 -35.694  1.00  0.00    -0.364 N 
ATOM      4  H3  UNL     1      25.727 -55.948 -35.919  1.00  0.00     0.165 HD
HETATM    5  C11 UNL     1      25.560 -54.020 -36.569  1.00  0.00     0.045 A 
HETATM    6  C12 UNL     1      26.170 -54.271 -37.789  1.00  0.00     0.064 A 
HETATM    7  C13 UNL     1      26.336 -53.202 -38.701  1.00  0.00     0.086 A 
HETATM    8  C16 UNL     1      25.905 -51.956 -38.387  1.00  0.00     0.060 A 
HETATM    9  C21 UNL     1      25.286 -51.706 -37.151  1.00  0.00     0.046 A 
HETATM   10  C22 UNL     1      25.120 -52.754 -36.251  1.00  0.00     0.001 A 
HETATM   11  C23 UNL     1      24.509 -52.463 -35.025  1.00  0.00    -0.021 A 
ENDROOT
BRANCH   1  12
HETATM   12  C8  UNL     1      23.693 -53.313 -32.884  1.00  0.00    -0.059 C 
BRANCH  12  13
HETATM   13  C7  UNL     1      23.110 -53.163 -31.824  1.00  0.00    -0.059 C 
BRANCH  13  14
HETATM   14  C6  UNL     1      22.409 -53.014 -30.582  1.00  0.00     0.040 A 
HETATM   15  C2  UNL     1      22.076 -54.117 -29.835  1.00  0.00     0.025 A 
HETATM   16  C1  UNL     1      22.457 -55.490 -30.333  1.00  0.00     0.070 C 
HETATM   17  N1  UNL     1      21.420 -54.025 -28.668  1.00  0.00    -0.345 N 
HETATM   18  C3  UNL     1      21.068 -52.822 -28.198  1.00  0.00     0.098 A 
ATOM     19  H1  UNL     1      21.191 -54.869 -28.143  1.00  0.00     0.167 HD
HETATM   20  N2  UNL     1      20.424 -52.756 -27.051  1.00  0.00    -0.385 N 
HETATM   21  C4  UNL     1      21.358 -51.668 -28.876  1.00  0.00     0.049 A 
ATOM     22  H22 UNL     1      20.208 -53.615 -26.546  1.00  0.00     0.157 HD
ATOM     23  H21 UNL     1      20.155 -51.840 -26.693  1.00  0.00     0.157 HD
HETATM   24  C5  UNL     1      22.032 -51.766 -30.074  1.00  0.00     0.026 A 
ENDBRANCH  13  14
ENDBRANCH  12  13
ENDBRANCH   1  12
BRANCH  11  25
HETATM   25  C24 UNL     1      24.102 -51.106 -34.656  1.00  0.00     0.079 C 
BRANCH  25  26
HETATM   26  C25 UNL     1      25.217 -50.143 -34.467  1.00  0.00    -0.051 A 
HETATM   27  C26 UNL     1      25.444 -49.235 -35.522  1.00  0.00     0.011 A 
HETATM   28  C27 UNL     1      26.473 -48.340 -35.427  1.00  0.00     0.046 A 
HETATM   29  C28 UNL     1      27.266 -48.340 -34.309  1.00  0.00     0.154 A 
HETATM   30  F1  UNL     1      28.292 -47.455 -34.203  1.00  0.00    -0.203 F 
HETATM   31  C29 UNL     1      27.065 -49.213 -33.271  1.00  0.00     0.155 A 
HETATM   32  F2  UNL     1      27.866 -49.199 -32.159  1.00  0.00    -0.203 F 
HETATM   33  C30 UNL     1      26.018 -50.116 -33.377  1.00  0.00     0.053 A 
ENDBRANCH  25  26
ENDBRANCH  11  25
BRANCH   8  34
HETATM   34  N7  UNL     1      26.072 -50.856 -39.238  1.00  0.00    -0.379 N 
HETATM   35  C17 UNL     1      27.305 -50.140 -39.468  1.00  0.00     0.123 C 
HETATM   36  C18 UNL     1      27.304 -49.909 -40.954  1.00  0.00     0.021 C 
HETATM   37  C19 UNL     1      25.842 -49.838 -41.300  1.00  0.00     0.021 C 
HETATM   38  C20 UNL     1      25.079 -50.170 -40.062  1.00  0.00     0.123 C 
ENDBRANCH   8  34
BRANCH   7  39
HETATM   39  N4  UNL     1      26.938 -53.471 -39.942  1.00  0.00    -0.249 N 
HETATM   40  C14 UNL     1      26.295 -53.753 -41.071  1.00  0.00     0.208 A 
HETATM   41  N5  UNL     1      27.201 -53.973 -42.038  1.00  0.00    -0.346 N 
HETATM   42  C15 UNL     1      28.431 -53.827 -41.504  1.00  0.00     0.199 A 
ATOM     43  H5  UNL     1      26.994 -54.211 -43.009  1.00  0.00     0.167 HD
HETATM   44  N6  UNL     1      28.220 -53.516 -40.202  1.00  0.00    -0.288 N 
ATOM     45  H6  UNL     1      28.958 -53.341 -39.521  1.00  0.00     0.188 HD
ENDBRANCH   7  39
TORSDOF 7
ENDMDL
MODEL 4
REMARK VINA RESULT: 6.346895389      2.293      3.435
REMARK  7 active torsions:
REMARK  status: ('A' for Active; 'I' for Inactive)
REMARK    1  A    between atoms: C6_11  and  C7_12 
REMARK    2  A    between atoms: C7_12  and  C8_13 
REMARK    3  A    between atoms: C8_13  and  C9_14 
REMARK    4  A    between atoms: C13_20  and  N4_21 
REMARK    5  A    between atoms: C16_28  and  N7_29 
REMARK    6  A    between atoms: C23_36  and  C24_37 
REMARK    7  A    between atoms: C24_37  and  C25_38 
ROOT
HETATM    1  C9  UNL     1      23.530 -51.834 -33.534  1.00  0.00     0.041 A 
HETATM    2  C10 UNL     1      23.021 -50.731 -34.182  1.00  0.00     0.109 A 
HETATM    3  N3  UNL     1      23.415 -50.357 -35.402  1.00  0.00    -0.364 N 
ATOM      4  H3  UNL     1      23.007 -49.531 -35.841  1.00  0.00     0.165 HD
HETATM    5  C11 UNL     1      24.340 -51.065 -36.039  1.00  0.00     0.045 A 
HETATM    6  C12 UNL     1      24.745 -50.684 -37.310  1.00  0.00     0.064 A 
HETATM    7  C13 UNL     1      25.723 -51.461 -37.975  1.00  0.00     0.086 A 
HETATM    8  C16 UNL     1      26.254 -52.556 -37.380  1.00  0.00     0.060 A 
HETATM    9  C21 UNL     1      25.842 -52.938 -36.092  1.00  0.00     0.046 A 
HETATM   10  C22 UNL     1      24.881 -52.178 -35.434  1.00  0.00     0.001 A 
HETATM   11  C23 UNL     1      24.488 -52.596 -34.157  1.00  0.00    -0.021 A 
ENDROOT
BRANCH   1  12
HETATM   12  C8  UNL     1      23.108 -52.163 -32.187  1.00  0.00    -0.059 C 
BRANCH  12  13
HETATM   13  C7  UNL     1      22.729 -52.443 -31.063  1.00  0.00    -0.059 C 
BRANCH  13  14
HETATM   14  C6  UNL     1      22.254 -52.765 -29.749  1.00  0.00     0.040 A 
HETATM   15  C2  UNL     1      22.167 -54.074 -29.342  1.00  0.00     0.025 A 
HETATM   16  C1  UNL     1      22.579 -55.172 -30.292  1.00  0.00     0.070 C 
HETATM   17  N1  UNL     1      21.728 -54.422 -28.124  1.00  0.00    -0.345 N 
HETATM   18  C3  UNL     1      21.355 -53.472 -27.256  1.00  0.00     0.098 A 
ATOM     19  H1  UNL     1      21.678 -55.406 -27.859  1.00  0.00     0.167 HD
HETATM   20  N2  UNL     1      20.926 -53.837 -26.066  1.00  0.00    -0.385 N 
HETATM   21  C4  UNL     1      21.408 -52.141 -27.576  1.00  0.00     0.049 A 
ATOM     22  H22 UNL     1      20.887 -54.827 -25.828  1.00  0.00     0.157 HD
ATOM     23  H21 UNL     1      20.642 -53.114 -25.405  1.00  0.00     0.157 HD
HETATM   24  C5  UNL     1      21.860 -51.787 -28.828  1.00  0.00     0.026 A 
ENDBRANCH  13  14
ENDBRANCH  12  13
ENDBRANCH   1  12
BRANCH  11  25
HETATM   25  C24 UNL     1      25.011 -53.816 -33.538  1.00  0.00     0.079 C 
BRANCH  25  26
HETATM   26  C25 UNL     1      26.426 -53.741 -33.093  1.00  0.00    -0.051 A 
HETATM   27  C26 UNL     1      26.832 -52.523 -32.508  1.00  0.00     0.011 A 
HETATM   28  C27 UNL     1      28.129 -52.374 -32.102  1.00  0.00     0.046 A 
HETATM   29  C28 UNL     1      29.012 -53.410 -32.270  1.00  0.00     0.154 A 
HETATM   30  F1  UNL     1      30.304 -53.273 -31.870  1.00  0.00    -0.203 F 
HETATM   31  C29 UNL     1      28.640 -54.602 -32.836  1.00  0.00     0.155 A 
HETATM   32  F2  UNL     1      29.535 -55.628 -32.995  1.00  0.00    -0.203 F 
HETATM   33  C30 UNL     1      27.322 -54.743 -33.244  1.00  0.00     0.053 A 
ENDBRANCH  25  26
ENDBRANCH  11  25
BRANCH   8  34
HETATM   34  N7  UNL     1      27.201 -53.378 -38.004  1.00  0.00    -0.379 N 
HETATM   35  C17 UNL     1      26.992 -54.743 -38.430  1.00  0.00     0.123 C 
HETATM   36  C18 UNL     1      27.662 -54.796 -39.776  1.00  0.00     0.021 C 
HETATM   37  C19 UNL     1      28.758 -53.772 -39.666  1.00  0.00     0.021 C 
HETATM   38  C20 UNL     1      28.589 -53.083 -38.354  1.00  0.00     0.123 C 
ENDBRANCH   8  34
BRANCH   7  39
HETATM   39  N4  UNL     1      26.141 -51.055 -39.254  1.00  0.00    -0.249 N 
HETATM   40  C14 UNL     1      25.661 -51.510 -40.407  1.00  0.00     0.208 A 
HETATM   41  N5  UNL     1      26.318 -50.909 -41.414  1.00  0.00    -0.346 N 
HETATM   42  C15 UNL     1      27.224 -50.065 -40.880  1.00  0.00     0.199 A 
ATOM     43  H5  UNL     1      26.159 -51.065 -42.409  1.00  0.00     0.167 HD
HETATM   44  N6  UNL     1      27.079 -50.187 -39.538  1.00  0.00    -0.288 N 
ATOM     45  H6  UNL     1      27.626 -49.675 -38.846  1.00  0.00     0.188 HD
ENDBRANCH   7  39
TORSDOF 7
ENDMDL
MODEL 5
REMARK VINA RESULT: 6.555029218      5.003     10.100
REMARK  7 active torsions:
REMARK  status: ('A' for Active; 'I' for Inactive)
REMARK    1  A    between atoms: C6_11  and  C7_12 
REMARK    2  A    between atoms: C7_12  and  C8_13 
REMARK    3  A    between atoms: C8_13  and  C9_14 
REMARK    4  A    between atoms: C13_20  and  N4_21 
REMARK    5  A    between atoms: C16_28  and  N7_29 
REMARK    6  A    between atoms: C23_36  and  C24_37 
REMARK    7  A    between atoms: C24_37  and  C25_38 
ROOT
HETATM    1  C9  UNL     1      26.925 -52.581 -39.649  1.00  0.00     0.041 A 
HETATM    2  C10 UNL     1      27.021 -51.231 -39.902  1.00  0.00     0.109 A 
HETATM    3  N3  UNL     1      27.314 -50.332 -38.960  1.00  0.00    -0.364 N 
ATOM      4  H3  UNL     1      27.374 -49.342 -39.197  1.00  0.00     0.165 HD
HETATM    5  C11 UNL     1      27.527 -50.735 -37.712  1.00  0.00     0.045 A 
HETATM    6  C12 UNL     1      27.841 -49.804 -36.731  1.00  0.00     0.064 A 
HETATM    7  C13 UNL     1      28.075 -50.257 -35.412  1.00  0.00     0.086 A 
HETATM    8  C16 UNL     1      27.994 -51.576 -35.112  1.00  0.00     0.060 A 
HETATM    9  C21 UNL     1      27.675 -52.515 -36.107  1.00  0.00     0.046 A 
HETATM   10  C22 UNL     1      27.443 -52.075 -37.406  1.00  0.00     0.001 A 
HETATM   11  C23 UNL     1      27.139 -53.042 -38.373  1.00  0.00    -0.021 A 
ENDROOT
BRANCH   1  12
HETATM   12  C8  UNL     1      26.548 -53.508 -40.698  1.00  0.00    -0.059 C 
BRANCH  12  13
HETATM   13  C7  UNL     1      26.229 -54.306 -41.562  1.00  0.00    -0.059 C 
BRANCH  13  14
HETATM   14  C6  UNL     1      25.852 -55.267 -42.557  1.00  0.00     0.040 A 
HETATM   15  C2  UNL     1      26.143 -56.598 -42.384  1.00  0.00     0.025 A 
HETATM   16  C1  UNL     1      26.863 -57.040 -41.133  1.00  0.00     0.070 C 
HETATM   17  N1  UNL     1      25.812 -57.531 -43.288  1.00  0.00    -0.345 N 
HETATM   18  C3  UNL     1      25.172 -57.172 -44.409  1.00  0.00     0.098 A 
ATOM     19  H1  UNL     1      26.046 -58.510 -43.122  1.00  0.00     0.167 HD
HETATM   20  N2  UNL     1      24.858 -58.106 -45.283  1.00  0.00    -0.385 N 
HETATM   21  C4  UNL     1      24.842 -55.868 -44.665  1.00  0.00     0.049 A 
ATOM     22  H22 UNL     1      25.103 -59.076 -45.091  1.00  0.00     0.157 HD
ATOM     23  H21 UNL     1      24.370 -57.833 -46.136  1.00  0.00     0.157 HD
HETATM   24  C5  UNL     1      25.184 -54.912 -43.734  1.00  0.00     0.026 A 
ENDBRANCH  13  14
ENDBRANCH  12  13
ENDBRANCH   1  12
BRANCH  11  25
HETATM   25  C24 UNL     1      27.116 -54.473 -38.067  1.00  0.00     0.079 C 
BRANCH  25  26
HETATM   26  C25 UNL     1      25.762 -55.058 -37.888  1.00  0.00    -0.051 A 
HETATM   27  C26 UNL     1      24.914 -54.401 -36.972  1.00  0.00     0.011 A 
HETATM   28  C27 UNL     1      23.664 -54.902 -36.737  1.00  0.00     0.046 A 
HETATM   29  C28 UNL     1      23.256 -56.034 -37.395  1.00  0.00     0.154 A 
HETATM   30  F1  UNL     1      22.015 -56.541 -37.169  1.00  0.00    -0.203 F 
HETATM   31  C29 UNL     1      24.063 -56.689 -38.290  1.00  0.00     0.155 A 
HETATM   32  F2  UNL     1      23.639 -57.819 -38.941  1.00  0.00    -0.203 F 
HETATM   33  C30 UNL     1      25.328 -56.172 -38.521  1.00  0.00     0.053 A 
ENDBRANCH  25  26
ENDBRANCH  11  25
BRANCH   8  34
HETATM   34  N7  UNL     1      28.247 -52.082 -33.831  1.00  0.00    -0.379 N 
HETATM   35  C17 UNL     1      27.257 -52.353 -32.815  1.00  0.00     0.123 C 
HETATM   36  C18 UNL     1      27.700 -53.669 -32.236  1.00  0.00     0.021 C 
HETATM   37  C19 UNL     1      29.192 -53.653 -32.424  1.00  0.00     0.021 C 
HETATM   38  C20 UNL     1      29.525 -52.433 -33.214  1.00  0.00     0.123 C 
ENDBRANCH   8  34
BRANCH   7  39
HETATM   39  N4  UNL     1      28.373 -49.304 -34.423  1.00  0.00    -0.249 N 
HETATM   40  C14 UNL     1      27.738 -49.166 -33.263  1.00  0.00     0.208 A 
HETATM   41  N5  UNL     1      28.285 -48.139 -32.592  1.00  0.00    -0.346 N 
HETATM   42  C15 UNL     1      29.279 -47.626 -33.346  1.00  0.00     0.199 A 
ATOM     43  H5  UNL     1      27.998 -47.804 -31.672  1.00  0.00     0.167 HD
HETATM   44  N6  UNL     1      29.298 -48.380 -34.473  1.00  0.00    -0.288 N 
ATOM     45  H6  UNL     1      29.943 -48.244 -35.251  1.00  0.00     0.188 HD
ENDBRANCH   7  39
TORSDOF 7
ENDMDL
