MODEL 1
REMARK VINA RESULT: -6.667652917      0.000      0.000
REMARK  5 active torsions:
REMARK  status: ('A' for Active; 'I' for Inactive)
REMARK    1  A    between atoms: C5_6  and  C6_7 
REMARK    2  A    between atoms: C6_7  and  O1_8 
REMARK    3  A    between atoms: C6_7  and  C7_10 
REMARK    4  A    between atoms: C6_7  and  C13_17 
REMARK    5  A    between atoms: C18_24  and  N3_25 
ROOT
HETATM    1  C6  UNL     1      28.672 -52.831 -35.045  1.00  0.00     0.140 C 
ENDROOT
BRANCH   1   2
HETATM    2  C5  UNL     1      27.729 -53.393 -36.040  1.00  0.00    -0.014 A 
HETATM    3  C4  UNL     1      26.387 -53.545 -35.763  1.00  0.00     0.013 A 
HETATM    4  C3  UNL     1      25.515 -54.066 -36.717  1.00  0.00     0.031 A 
HETATM    5  C2  UNL     1      25.962 -54.446 -37.964  1.00  0.00     0.045 A 
HETATM    6  N1  UNL     1      25.303 -54.960 -39.022  1.00  0.00    -0.349 N 
HETATM    7  C26 UNL     1      27.306 -54.295 -38.245  1.00  0.00     0.004 A 
HETATM    8  C1  UNL     1      23.890 -55.266 -39.125  1.00  0.00     0.156 C 
HETATM    9  C31 UNL     1      26.222 -55.142 -39.987  1.00  0.00     0.061 A 
HETATM   10  C27 UNL     1      27.460 -54.743 -39.538  1.00  0.00     0.006 A 
HETATM   11  C30 UNL     1      26.085 -55.640 -41.279  1.00  0.00     0.118 A 
HETATM   12  C28 UNL     1      28.532 -54.850 -40.390  1.00  0.00     0.031 A 
HETATM   13  C29 UNL     1      28.362 -55.354 -41.680  1.00  0.00     0.088 A 
HETATM   14  N5  UNL     1      27.141 -55.740 -42.099  1.00  0.00    -0.373 N 
ATOM     15  H5  UNL     1      27.020 -56.108 -43.042  1.00  0.00     0.164 HD
HETATM   16  C25 UNL     1      28.171 -53.777 -37.292  1.00  0.00     0.025 A 
ENDBRANCH   1   2
BRANCH   1  17
HETATM   17  O1  UNL     1      29.927 -52.639 -35.693  1.00  0.00    -0.376 OA
ATOM     18  H1  UNL     1      30.603 -52.999 -35.131  1.00  0.00     0.211 HD
ENDBRANCH   1  17
BRANCH   1  19
HETATM   19  C7  UNL     1      28.917 -53.695 -33.879  1.00  0.00    -0.015 A 
HETATM   20  C8  UNL     1      29.620 -54.903 -34.032  1.00  0.00     0.014 A 
HETATM   21  C9  UNL     1      29.857 -55.740 -32.967  1.00  0.00     0.043 A 
HETATM   22  C10 UNL     1      29.415 -55.431 -31.703  1.00  0.00     0.116 A 
HETATM   23  F1  UNL     1      29.630 -56.231 -30.636  1.00  0.00    -0.206 F 
HETATM   24  C11 UNL     1      28.725 -54.260 -31.516  1.00  0.00     0.043 A 
HETATM   25  C12 UNL     1      28.500 -53.438 -32.595  1.00  0.00     0.014 A 
ENDBRANCH   1  19
BRANCH   1  26
HETATM   26  C13 UNL     1      28.266 -51.474 -34.612  1.00  0.00    -0.011 A 
HETATM   27  C14 UNL     1      28.688 -50.942 -33.441  1.00  0.00     0.028 A 
HETATM   28  C15 UNL     1      28.296 -49.686 -33.051  1.00  0.00     0.097 A 
HETATM   29  N2  UNL     1      27.471 -48.970 -33.862  1.00  0.00    -0.328 N 
HETATM   30  C16 UNL     1      26.928 -47.741 -33.752  1.00  0.00     0.141 A 
HETATM   31  C23 UNL     1      27.035 -49.467 -35.029  1.00  0.00     0.069 A 
HETATM   32  C17 UNL     1      26.156 -47.479 -34.855  1.00  0.00     0.161 A 
HETATM   33  F2  UNL     1      25.456 -46.314 -35.067  1.00  0.00    -0.202 F 
HETATM   34  C18 UNL     1      26.208 -48.569 -35.687  1.00  0.00     0.098 A 
HETATM   35  C24 UNL     1      27.429 -50.733 -35.424  1.00  0.00     0.043 A 
BRANCH  34  36
HETATM   36  N3  UNL     1      25.570 -48.759 -36.940  1.00  0.00    -0.373 N 
HETATM   37  C19 UNL     1      24.786 -49.988 -37.129  1.00  0.00     0.150 C 
HETATM   38  C20 UNL     1      25.139 -50.685 -38.415  1.00  0.00     0.252 C 
HETATM   39  N4  UNL     1      25.884 -49.853 -39.318  1.00  0.00    -0.072 N 
HETATM   40  C21 UNL     1      25.437 -48.490 -39.363  1.00  0.00     0.252 C 
ATOM     41  H42 UNL     1      26.880 -49.896 -39.104  1.00  0.00     0.277 HD
ATOM     42  H41 UNL     1      25.891 -50.259 -40.254  1.00  0.00     0.277 HD
HETATM   43  C22 UNL     1      25.646 -47.817 -38.031  1.00  0.00     0.150 C 
ENDBRANCH  34  36
ENDBRANCH   1  26
TORSDOF 5
ENDMDL
MODEL 2
REMARK VINA RESULT: -4.751727622      2.790      6.603
REMARK  5 active torsions:
REMARK  status: ('A' for Active; 'I' for Inactive)
REMARK    1  A    between atoms: C5_6  and  C6_7 
REMARK    2  A    between atoms: C6_7  and  O1_8 
REMARK    3  A    between atoms: C6_7  and  C7_10 
REMARK    4  A    between atoms: C6_7  and  C13_17 
REMARK    5  A    between atoms: C18_24  and  N3_25 
ROOT
HETATM    1  C6  UNL     1      26.427 -54.161 -38.228  1.00  0.00     0.140 C 
ENDROOT
BRANCH   1   2
HETATM    2  C5  UNL     1      27.238 -54.262 -36.992  1.00  0.00    -0.014 A 
HETATM    3  C4  UNL     1      28.367 -55.049 -36.927  1.00  0.00     0.013 A 
HETATM    4  C3  UNL     1      29.122 -55.122 -35.758  1.00  0.00     0.031 A 
HETATM    5  C2  UNL     1      28.766 -54.412 -34.631  1.00  0.00     0.045 A 
HETATM    6  N1  UNL     1      29.344 -54.332 -33.415  1.00  0.00    -0.349 N 
HETATM    7  C26 UNL     1      27.635 -53.621 -34.694  1.00  0.00     0.004 A 
HETATM    8  C1  UNL     1      30.540 -55.009 -32.956  1.00  0.00     0.156 C 
HETATM    9  C31 UNL     1      28.586 -53.490 -32.692  1.00  0.00     0.061 A 
HETATM   10  C27 UNL     1      27.530 -53.038 -33.450  1.00  0.00     0.006 A 
HETATM   11  C30 UNL     1      28.728 -53.051 -31.378  1.00  0.00     0.118 A 
HETATM   12  C28 UNL     1      26.642 -52.159 -32.880  1.00  0.00     0.031 A 
HETATM   13  C29 UNL     1      26.812 -51.739 -31.561  1.00  0.00     0.088 A 
HETATM   14  N5  UNL     1      27.853 -52.194 -30.835  1.00  0.00    -0.373 N 
ATOM     15  H5  UNL     1      27.975 -51.885 -29.871  1.00  0.00     0.164 HD
HETATM   16  C25 UNL     1      26.886 -53.552 -35.860  1.00  0.00     0.025 A 
ENDBRANCH   1   2
BRANCH   1  17
HETATM   17  O1  UNL     1      25.202 -54.852 -38.005  1.00  0.00    -0.376 OA
ATOM     18  H1  UNL     1      25.384 -55.594 -37.440  1.00  0.00     0.211 HD
ENDBRANCH   1  17
BRANCH   1  19
HETATM   19  C7  UNL     1      27.051 -54.760 -39.419  1.00  0.00    -0.015 A 
HETATM   20  C8  UNL     1      26.474 -55.893 -40.021  1.00  0.00     0.014 A 
HETATM   21  C9  UNL     1      27.035 -56.488 -41.127  1.00  0.00     0.043 A 
HETATM   22  C10 UNL     1      28.186 -55.998 -41.694  1.00  0.00     0.116 A 
HETATM   23  F1  UNL     1      28.764 -56.557 -42.780  1.00  0.00    -0.206 F 
HETATM   24  C11 UNL     1      28.777 -54.893 -41.134  1.00  0.00     0.043 A 
HETATM   25  C12 UNL     1      28.199 -54.315 -40.028  1.00  0.00     0.014 A 
ENDBRANCH   1  19
BRANCH   1  26
HETATM   26  C13 UNL     1      26.020 -52.762 -38.503  1.00  0.00    -0.011 A 
HETATM   27  C14 UNL     1      25.390 -52.414 -39.649  1.00  0.00     0.028 A 
HETATM   28  C15 UNL     1      25.026 -51.113 -39.892  1.00  0.00     0.097 A 
HETATM   29  N2  UNL     1      25.306 -50.165 -38.956  1.00  0.00    -0.328 N 
HETATM   30  C16 UNL     1      25.079 -48.837 -38.911  1.00  0.00     0.141 A 
HETATM   31  C23 UNL     1      25.928 -50.476 -37.809  1.00  0.00     0.069 A 
HETATM   32  C17 UNL     1      25.562 -48.328 -37.733  1.00  0.00     0.161 A 
HETATM   33  F2  UNL     1      25.496 -47.005 -37.360  1.00  0.00    -0.202 F 
HETATM   34  C18 UNL     1      26.110 -49.357 -37.010  1.00  0.00     0.098 A 
HETATM   35  C24 UNL     1      26.295 -51.788 -37.564  1.00  0.00     0.043 A 
BRANCH  34  36
HETATM   36  N3  UNL     1      26.729 -49.315 -35.734  1.00  0.00    -0.373 N 
HETATM   37  C19 UNL     1      26.014 -48.628 -34.650  1.00  0.00     0.150 C 
HETATM   38  C20 UNL     1      26.901 -47.654 -33.922  1.00  0.00     0.252 C 
HETATM   39  N4  UNL     1      28.296 -47.850 -34.202  1.00  0.00    -0.072 N 
HETATM   40  C21 UNL     1      28.690 -49.227 -34.282  1.00  0.00     0.252 C 
ATOM     41  H42 UNL     1      28.564 -47.351 -35.050  1.00  0.00     0.277 HD
ATOM     42  H41 UNL     1      28.869 -47.352 -33.521  1.00  0.00     0.277 HD
HETATM   43  C22 UNL     1      28.012 -49.908 -35.444  1.00  0.00     0.150 C 
ENDBRANCH  34  36
ENDBRANCH   1  26
TORSDOF 5
ENDMDL
MODEL 3
REMARK VINA RESULT: -3.226095178      3.107      6.466
REMARK  5 active torsions:
REMARK  status: ('A' for Active; 'I' for Inactive)
REMARK    1  A    between atoms: C5_6  and  C6_7 
REMARK    2  A    between atoms: C6_7  and  O1_8 
REMARK    3  A    between atoms: C6_7  and  C7_10 
REMARK    4  A    between atoms: C6_7  and  C13_17 
REMARK    5  A    between atoms: C18_24  and  N3_25 
ROOT
HETATM    1  C6  UNL     1      24.607 -52.581 -35.930  1.00  0.00     0.140 C 
ENDROOT
BRANCH   1   2
HETATM    2  C5  UNL     1      25.558 -52.673 -34.797  1.00  0.00    -0.014 A 
HETATM    3  C4  UNL     1      25.307 -52.060 -33.589  1.00  0.00     0.013 A 
HETATM    4  C3  UNL     1      26.210 -52.166 -32.532  1.00  0.00     0.031 A 
HETATM    5  C2  UNL     1      27.379 -52.886 -32.660  1.00  0.00     0.045 A 
HETATM    6  N1  UNL     1      28.374 -53.121 -31.781  1.00  0.00    -0.349 N 
HETATM    7  C26 UNL     1      27.632 -53.502 -33.870  1.00  0.00     0.004 A 
HETATM    8  C1  UNL     1      28.480 -52.652 -30.414  1.00  0.00     0.156 C 
HETATM    9  C31 UNL     1      29.271 -53.889 -32.424  1.00  0.00     0.061 A 
HETATM   10  C27 UNL     1      28.842 -54.139 -33.707  1.00  0.00     0.006 A 
HETATM   11  C30 UNL     1      30.480 -54.423 -31.985  1.00  0.00     0.118 A 
HETATM   12  C28 UNL     1      29.630 -54.915 -34.523  1.00  0.00     0.031 A 
HETATM   13  C29 UNL     1      30.837 -55.434 -34.053  1.00  0.00     0.088 A 
HETATM   14  N5  UNL     1      31.238 -55.178 -32.792  1.00  0.00    -0.373 N 
ATOM     15  H5  UNL     1      32.121 -55.558 -32.452  1.00  0.00     0.164 HD
HETATM   16  C25 UNL     1      26.731 -53.392 -34.919  1.00  0.00     0.025 A 
ENDBRANCH   1   2
BRANCH   1  17
HETATM   17  O1  UNL     1      23.358 -52.126 -35.417  1.00  0.00    -0.376 OA
ATOM     18  H1  UNL     1      23.485 -51.893 -34.505  1.00  0.00     0.211 HD
ENDBRANCH   1  17
BRANCH   1  19
HETATM   19  C7  UNL     1      24.351 -53.857 -36.618  1.00  0.00    -0.015 A 
HETATM   20  C8  UNL     1      25.377 -54.480 -37.351  1.00  0.00     0.014 A 
HETATM   21  C9  UNL     1      25.172 -55.665 -38.016  1.00  0.00     0.043 A 
HETATM   22  C10 UNL     1      23.951 -56.296 -37.992  1.00  0.00     0.116 A 
HETATM   23  F1  UNL     1      23.715 -57.461 -38.634  1.00  0.00    -0.206 F 
HETATM   24  C11 UNL     1      22.927 -55.718 -37.286  1.00  0.00     0.043 A 
HETATM   25  C12 UNL     1      23.154 -54.532 -36.628  1.00  0.00     0.014 A 
ENDBRANCH   1  19
BRANCH   1  26
HETATM   26  C13 UNL     1      25.012 -51.539 -36.902  1.00  0.00    -0.011 A 
HETATM   27  C14 UNL     1      24.797 -50.223 -36.668  1.00  0.00     0.028 A 
HETATM   28  C15 UNL     1      25.172 -49.270 -37.582  1.00  0.00     0.097 A 
HETATM   29  N2  UNL     1      25.770 -49.664 -38.738  1.00  0.00    -0.328 N 
HETATM   30  C16 UNL     1      26.238 -48.978 -39.800  1.00  0.00     0.141 A 
HETATM   31  C23 UNL     1      25.999 -50.960 -39.001  1.00  0.00     0.069 A 
HETATM   32  C17 UNL     1      26.756 -49.853 -40.721  1.00  0.00     0.161 A 
HETATM   33  F2  UNL     1      27.318 -49.491 -41.924  1.00  0.00    -0.202 F 
HETATM   34  C18 UNL     1      26.615 -51.128 -40.232  1.00  0.00     0.098 A 
HETATM   35  C24 UNL     1      25.621 -51.921 -38.080  1.00  0.00     0.043 A 
BRANCH  34  36
HETATM   36  N3  UNL     1      27.003 -52.355 -40.829  1.00  0.00    -0.373 N 
HETATM   37  C19 UNL     1      26.061 -52.988 -41.764  1.00  0.00     0.150 C 
HETATM   38  C20 UNL     1      25.854 -54.444 -41.449  1.00  0.00     0.252 C 
HETATM   39  N4  UNL     1      26.846 -54.972 -40.555  1.00  0.00    -0.072 N 
HETATM   40  C21 UNL     1      28.176 -54.496 -40.810  1.00  0.00     0.252 C 
ATOM     41  H42 UNL     1      26.583 -54.798 -39.586  1.00  0.00     0.277 HD
ATOM     42  H41 UNL     1      26.824 -55.992 -40.560  1.00  0.00     0.277 HD
HETATM   43  C22 UNL     1      28.263 -53.010 -40.574  1.00  0.00     0.150 C 
ENDBRANCH  34  36
ENDBRANCH   1  26
TORSDOF 5
ENDMDL
MODEL 4
REMARK VINA RESULT: -3.176512064      0.858      2.129
REMARK  5 active torsions:
REMARK  status: ('A' for Active; 'I' for Inactive)
REMARK    1  A    between atoms: C5_6  and  C6_7 
REMARK    2  A    between atoms: C6_7  and  O1_8 
REMARK    3  A    between atoms: C6_7  and  C7_10 
REMARK    4  A    between atoms: C6_7  and  C13_17 
REMARK    5  A    between atoms: C18_24  and  N3_25 
ROOT
HETATM    1  C6  UNL     1      29.105 -52.531 -35.018  1.00  0.00     0.140 C 
ENDROOT
BRANCH   1   2
HETATM    2  C5  UNL     1      28.437 -53.081 -36.221  1.00  0.00    -0.014 A 
HETATM    3  C4  UNL     1      29.092 -53.194 -37.427  1.00  0.00     0.013 A 
HETATM    4  C3  UNL     1      28.448 -53.723 -38.544  1.00  0.00     0.031 A 
HETATM    5  C2  UNL     1      27.138 -54.150 -38.479  1.00  0.00     0.045 A 
HETATM    6  N1  UNL     1      26.335 -54.690 -39.419  1.00  0.00    -0.349 N 
HETATM    7  C26 UNL     1      26.479 -54.039 -37.271  1.00  0.00     0.004 A 
HETATM    8  C1  UNL     1      26.654 -54.968 -40.805  1.00  0.00     0.156 C 
HETATM    9  C31 UNL     1      25.157 -54.926 -38.817  1.00  0.00     0.061 A 
HETATM   10  C27 UNL     1      25.216 -54.537 -37.498  1.00  0.00     0.006 A 
HETATM   11  C30 UNL     1      23.981 -55.476 -39.321  1.00  0.00     0.118 A 
HETATM   12  C28 UNL     1      24.100 -54.705 -36.715  1.00  0.00     0.031 A 
HETATM   13  C29 UNL     1      22.937 -55.258 -37.250  1.00  0.00     0.088 A 
HETATM   14  N5  UNL     1      22.901 -55.633 -38.544  1.00  0.00    -0.373 N 
ATOM     15  H5  UNL     1      22.049 -56.038 -38.934  1.00  0.00     0.164 HD
HETATM   16  C25 UNL     1      27.124 -53.510 -36.162  1.00  0.00     0.025 A 
ENDBRANCH   1   2
BRANCH   1  17
HETATM   17  O1  UNL     1      30.465 -52.272 -35.354  1.00  0.00    -0.376 OA
ATOM     18  H1  UNL     1      30.939 -53.094 -35.307  1.00  0.00     0.211 HD
ENDBRANCH   1  17
BRANCH   1  19
HETATM   19  C7  UNL     1      29.113 -53.434 -33.856  1.00  0.00    -0.015 A 
HETATM   20  C8  UNL     1      29.838 -54.638 -33.905  1.00  0.00     0.014 A 
HETATM   21  C9  UNL     1      29.858 -55.512 -32.843  1.00  0.00     0.043 A 
HETATM   22  C10 UNL     1      29.169 -55.246 -31.685  1.00  0.00     0.116 A 
HETATM   23  F1  UNL     1      29.167 -56.082 -30.624  1.00  0.00    -0.206 F 
HETATM   24  C11 UNL     1      28.450 -54.080 -31.601  1.00  0.00     0.043 A 
HETATM   25  C12 UNL     1      28.444 -53.220 -32.675  1.00  0.00     0.014 A 
ENDBRANCH   1  19
BRANCH   1  26
HETATM   26  C13 UNL     1      28.556 -51.206 -34.644  1.00  0.00    -0.011 A 
HETATM   27  C14 UNL     1      28.920 -50.580 -33.500  1.00  0.00     0.028 A 
HETATM   28  C15 UNL     1      28.396 -49.356 -33.165  1.00  0.00     0.097 A 
HETATM   29  N2  UNL     1      27.498 -48.771 -34.003  1.00  0.00    -0.328 N 
HETATM   30  C16 UNL     1      26.827 -47.603 -33.945  1.00  0.00     0.141 A 
HETATM   31  C23 UNL     1      27.117 -49.364 -35.144  1.00  0.00     0.069 A 
HETATM   32  C17 UNL     1      26.029 -47.476 -35.054  1.00  0.00     0.161 A 
HETATM   33  F2  UNL     1      25.208 -46.403 -35.315  1.00  0.00    -0.202 F 
HETATM   34  C18 UNL     1      26.197 -48.591 -35.837  1.00  0.00     0.098 A 
HETATM   35  C24 UNL     1      27.644 -50.598 -35.483  1.00  0.00     0.043 A 
BRANCH  34  36
HETATM   36  N3  UNL     1      25.582 -48.905 -37.076  1.00  0.00    -0.373 N 
HETATM   37  C19 UNL     1      24.741 -50.108 -37.136  1.00  0.00     0.150 C 
HETATM   38  C20 UNL     1      25.090 -50.976 -38.315  1.00  0.00     0.252 C 
HETATM   39  N4  UNL     1      25.899 -50.301 -39.289  1.00  0.00    -0.072 N 
HETATM   40  C21 UNL     1      25.525 -48.935 -39.517  1.00  0.00     0.252 C 
ATOM     41  H42 UNL     1      26.886 -50.365 -39.041  1.00  0.00     0.277 HD
ATOM     42  H41 UNL     1      25.909 -50.820 -40.167  1.00  0.00     0.277 HD
HETATM   43  C22 UNL     1      25.735 -48.111 -38.272  1.00  0.00     0.150 C 
ENDBRANCH  34  36
ENDBRANCH   1  26
TORSDOF 5
ENDMDL
MODEL 5
REMARK VINA RESULT: -2.819463342      2.763      7.222
REMARK  5 active torsions:
REMARK  status: ('A' for Active; 'I' for Inactive)
REMARK    1  A    between atoms: C5_6  and  C6_7 
REMARK    2  A    between atoms: C6_7  and  O1_8 
REMARK    3  A    between atoms: C6_7  and  C7_10 
REMARK    4  A    between atoms: C6_7  and  C13_17 
REMARK    5  A    between atoms: C18_24  and  N3_25 
ROOT
HETATM    1  C6  UNL     1      28.148 -50.844 -36.683  1.00  0.00     0.140 C 
ENDROOT
BRANCH   1   2
HETATM    2  C5  UNL     1      28.355 -52.122 -35.963  1.00  0.00    -0.014 A 
HETATM    3  C4  UNL     1      28.516 -53.315 -36.633  1.00  0.00     0.013 A 
HETATM    4  C3  UNL     1      28.720 -54.505 -35.938  1.00  0.00     0.031 A 
HETATM    5  C2  UNL     1      28.770 -54.529 -34.560  1.00  0.00     0.045 A 
HETATM    6  N1  UNL     1      28.959 -55.549 -33.698  1.00  0.00    -0.349 N 
HETATM    7  C26 UNL     1      28.610 -53.335 -33.885  1.00  0.00     0.004 A 
HETATM    8  C1  UNL     1      29.163 -56.949 -34.012  1.00  0.00     0.156 C 
HETATM    9  C31 UNL     1      28.921 -55.013 -32.466  1.00  0.00     0.061 A 
HETATM   10  C27 UNL     1      28.708 -53.656 -32.549  1.00  0.00     0.006 A 
HETATM   11  C30 UNL     1      29.063 -55.613 -31.217  1.00  0.00     0.118 A 
HETATM   12  C28 UNL     1      28.642 -52.930 -31.385  1.00  0.00     0.031 A 
HETATM   13  C29 UNL     1      28.788 -53.561 -30.149  1.00  0.00     0.088 A 
HETATM   14  N5  UNL     1      28.995 -54.891 -30.090  1.00  0.00    -0.373 N 
ATOM     15  H5  UNL     1      29.101 -55.350 -29.186  1.00  0.00     0.164 HD
HETATM   16  C25 UNL     1      28.405 -52.152 -34.582  1.00  0.00     0.025 A 
ENDBRANCH   1   2
BRANCH   1  17
HETATM   17  O1  UNL     1      29.409 -50.416 -37.187  1.00  0.00    -0.376 OA
ATOM     18  H1  UNL     1      29.969 -51.181 -37.260  1.00  0.00     0.211 HD
ENDBRANCH   1  17
BRANCH   1  19
HETATM   19  C7  UNL     1      27.623 -49.751 -35.848  1.00  0.00    -0.015 A 
HETATM   20  C8  UNL     1      28.508 -48.929 -35.128  1.00  0.00     0.014 A 
HETATM   21  C9  UNL     1      28.054 -47.906 -34.329  1.00  0.00     0.043 A 
HETATM   22  C10 UNL     1      26.712 -47.641 -34.200  1.00  0.00     0.116 A 
HETATM   23  F1  UNL     1      26.232 -46.645 -33.424  1.00  0.00    -0.206 F 
HETATM   24  C11 UNL     1      25.819 -48.423 -34.889  1.00  0.00     0.043 A 
HETATM   25  C12 UNL     1      26.295 -49.440 -35.682  1.00  0.00     0.014 A 
ENDBRANCH   1  19
BRANCH   1  26
HETATM   26  C13 UNL     1      27.307 -51.026 -37.890  1.00  0.00    -0.011 A 
HETATM   27  C14 UNL     1      26.406 -50.095 -38.280  1.00  0.00     0.028 A 
HETATM   28  C15 UNL     1      25.630 -50.282 -39.396  1.00  0.00     0.097 A 
HETATM   29  N2  UNL     1      25.778 -51.427 -40.117  1.00  0.00    -0.328 N 
HETATM   30  C16 UNL     1      25.173 -51.884 -41.232  1.00  0.00     0.141 A 
HETATM   31  C23 UNL     1      26.661 -52.370 -39.759  1.00  0.00     0.069 A 
HETATM   32  C17 UNL     1      25.685 -53.113 -41.562  1.00  0.00     0.161 A 
HETATM   33  F2  UNL     1      25.292 -53.865 -42.645  1.00  0.00    -0.202 F 
HETATM   34  C18 UNL     1      26.640 -53.446 -40.634  1.00  0.00     0.098 A 
HETATM   35  C24 UNL     1      27.444 -52.182 -38.634  1.00  0.00     0.043 A 
BRANCH  34  36
HETATM   36  N3  UNL     1      27.437 -54.617 -40.563  1.00  0.00    -0.373 N 
HETATM   37  C19 UNL     1      28.894 -54.460 -40.672  1.00  0.00     0.150 C 
HETATM   38  C20 UNL     1      29.487 -55.414 -41.673  1.00  0.00     0.252 C 
HETATM   39  N4  UNL     1      28.589 -56.473 -42.039  1.00  0.00    -0.072 N 
HETATM   40  C21 UNL     1      27.824 -56.997 -40.944  1.00  0.00     0.252 C 
ATOM     41  H42 UNL     1      27.973 -56.175 -42.795  1.00  0.00     0.277 HD
ATOM     42  H41 UNL     1      29.094 -57.221 -42.514  1.00  0.00     0.277 HD
HETATM   43  C22 UNL     1      26.900 -55.945 -40.388  1.00  0.00     0.150 C 
ENDBRANCH  34  36
ENDBRANCH   1  26
TORSDOF 5
ENDMDL
