MODEL 1
REMARK VINA RESULT: -6.697491161      0.000      0.000
REMARK  5 active torsions:
REMARK  status: ('A' for Active; 'I' for Inactive)
REMARK    1  A    between atoms: C1_2  and  O2_4 
REMARK    2  A    between atoms: O2_4  and  C2_5 
REMARK    3  A    between atoms: C4_7  and  N2_8 
REMARK       I    between atoms: C5_10  and  N4_12 
REMARK    4  A    between atoms: N4_12  and  N5_14 
REMARK    5  A    between atoms: C7_19  and  N6_20 
ROOT
HETATM    1  C2  UNL     1      53.187 -18.937  -6.004  1.00  0.00     0.168 C 
HETATM    2  C3  UNL     1      51.832 -19.269  -6.602  1.00  0.00     0.062 C 
HETATM    3  C4  UNL     1      51.817 -20.785  -6.402  1.00  0.00     0.122 C 
HETATM    4  C6  UNL     1      52.590 -21.020  -5.101  1.00  0.00     0.225 C 
HETATM    5  F1  UNL     1      51.722 -21.515  -4.138  1.00  0.00    -0.245 F 
HETATM    6  C7  UNL     1      53.124 -19.662  -4.690  1.00  0.00     0.248 C 
ENDROOT
BRANCH   3   7
HETATM    7  N2  UNL     1      50.487 -21.295  -6.323  1.00  0.00    -0.356 N 
HETATM    8  C5  UNL     1      50.005 -21.912  -7.345  1.00  0.00     0.208 C 
HETATM    9  N3  UNL     1      48.665 -22.443  -7.307  1.00  0.00    -0.062 NA
HETATM   10  N4  UNL     1      50.753 -22.096  -8.526  1.00  0.00    -0.213 N 
ATOM     11  H4  UNL     1      51.638 -22.601  -8.488  1.00  0.00     0.196 HD
ATOM     12  H2  UNL     1      49.931 -21.173  -5.477  1.00  0.00     0.162 HD
BRANCH  10  13
HETATM   13  N5  UNL     1      50.291 -21.589  -9.761  1.00  0.00    -0.036 N 
HETATM   14  O3  UNL     1      49.776 -22.328 -10.621  1.00  0.00    -0.516 OA
HETATM   15  O4  UNL     1      50.426 -20.227  -9.996  1.00  0.00    -0.516 OA
ENDBRANCH  10  13
ENDBRANCH   3   7
BRANCH   1  16
HETATM   16  O2  UNL     1      53.421 -17.571  -5.897  1.00  0.00    -0.299 OA
BRANCH  16  17
HETATM   17  C1  UNL     1      53.248 -16.770  -7.021  1.00  0.00     0.373 C 
HETATM   18  N1  UNL     1      54.131 -16.745  -8.118  1.00  0.00    -0.032 NA
HETATM   19  O1  UNL     1      52.235 -16.002  -7.089  1.00  0.00    -0.242 OA
ENDBRANCH  16  17
ENDBRANCH   1  16
BRANCH   6  20
HETATM   20  N6  UNL     1      52.156 -19.086  -3.779  1.00  0.00    -0.070 N 
ATOM     21  H63 UNL     1      51.776 -18.216  -4.151  1.00  0.00     0.274 HD
ATOM     22  H62 UNL     1      51.302 -19.643  -3.754  1.00  0.00     0.274 HD
ATOM     23  H61 UNL     1      52.531 -18.949  -2.840  1.00  0.00     0.274 HD
ENDBRANCH   6  20
TORSDOF 5
ENDMDL
MODEL 2
REMARK VINA RESULT: -6.590229875      6.540      7.899
REMARK  5 active torsions:
REMARK  status: ('A' for Active; 'I' for Inactive)
REMARK    1  A    between atoms: C1_2  and  O2_4 
REMARK    2  A    between atoms: O2_4  and  C2_5 
REMARK    3  A    between atoms: C4_7  and  N2_8 
REMARK       I    between atoms: C5_10  and  N4_12 
REMARK    4  A    between atoms: N4_12  and  N5_14 
REMARK    5  A    between atoms: C7_19  and  N6_20 
ROOT
HETATM    1  C2  UNL     1      50.325 -25.629  -9.002  1.00  0.00     0.168 C 
HETATM    2  C3  UNL     1      48.844 -25.954  -9.085  1.00  0.00     0.062 C 
HETATM    3  C4  UNL     1      48.265 -24.744  -8.352  1.00  0.00     0.122 C 
HETATM    4  C6  UNL     1      49.210 -23.587  -8.690  1.00  0.00     0.225 C 
HETATM    5  F1  UNL     1      48.532 -22.655  -9.461  1.00  0.00    -0.245 F 
HETATM    6  C7  UNL     1      50.349 -24.204  -9.476  1.00  0.00     0.248 C 
ENDROOT
BRANCH   3   7
HETATM    7  N2  UNL     1      46.927 -24.468  -8.764  1.00  0.00    -0.356 N 
HETATM    8  C5  UNL     1      45.965 -24.766  -7.962  1.00  0.00     0.208 C 
HETATM    9  N3  UNL     1      44.598 -24.503  -8.340  1.00  0.00    -0.062 NA
HETATM   10  N4  UNL     1      46.199 -25.350  -6.701  1.00  0.00    -0.213 N 
ATOM     11  H4  UNL     1      46.775 -24.859  -6.017  1.00  0.00     0.196 HD
ATOM     12  H2  UNL     1      46.738 -24.044  -9.672  1.00  0.00     0.162 HD
BRANCH  10  13
HETATM   13  N5  UNL     1      45.644 -26.606  -6.372  1.00  0.00    -0.036 N 
HETATM   14  O3  UNL     1      45.766 -27.594  -7.120  1.00  0.00    -0.516 OA
HETATM   15  O4  UNL     1      44.949 -26.716  -5.174  1.00  0.00    -0.516 OA
ENDBRANCH  10  13
ENDBRANCH   3   7
BRANCH   1  16
HETATM   16  O2  UNL     1      51.121 -26.496  -9.742  1.00  0.00    -0.299 OA
BRANCH  16  17
HETATM   17  C1  UNL     1      52.333 -26.917  -9.207  1.00  0.00     0.373 C 
HETATM   18  N1  UNL     1      53.375 -26.048  -8.826  1.00  0.00    -0.032 NA
HETATM   19  O1  UNL     1      52.542 -28.162  -9.039  1.00  0.00    -0.242 OA
ENDBRANCH  16  17
ENDBRANCH   1  16
BRANCH   6  20
HETATM   20  N6  UNL     1      50.011 -24.076 -10.879  1.00  0.00    -0.070 N 
ATOM     21  H63 UNL     1      50.425 -23.234 -11.280  1.00  0.00     0.274 HD
ATOM     22  H62 UNL     1      50.493 -24.780 -11.437  1.00  0.00     0.274 HD
ATOM     23  H61 UNL     1      49.005 -24.103 -11.046  1.00  0.00     0.274 HD
ENDBRANCH   6  20
TORSDOF 5
ENDMDL
MODEL 3
REMARK VINA RESULT: -6.540142232      1.258      1.379
REMARK  5 active torsions:
REMARK  status: ('A' for Active; 'I' for Inactive)
REMARK    1  A    between atoms: C1_2  and  O2_4 
REMARK    2  A    between atoms: O2_4  and  C2_5 
REMARK    3  A    between atoms: C4_7  and  N2_8 
REMARK       I    between atoms: C5_10  and  N4_12 
REMARK    4  A    between atoms: N4_12  and  N5_14 
REMARK    5  A    between atoms: C7_19  and  N6_20 
ROOT
HETATM    1  C2  UNL     1      53.704 -18.401  -6.304  1.00  0.00     0.168 C 
HETATM    2  C3  UNL     1      52.286 -18.864  -6.590  1.00  0.00     0.062 C 
HETATM    3  C4  UNL     1      52.365 -20.298  -6.067  1.00  0.00     0.122 C 
HETATM    4  C6  UNL     1      53.341 -20.237  -4.888  1.00  0.00     0.225 C 
HETATM    5  F1  UNL     1      52.654 -20.513  -3.714  1.00  0.00    -0.245 F 
HETATM    6  C7  UNL     1      53.876 -18.819  -4.872  1.00  0.00     0.248 C 
ENDROOT
BRANCH   3   7
HETATM    7  N2  UNL     1      51.085 -20.785  -5.666  1.00  0.00    -0.356 N 
HETATM    8  C5  UNL     1      50.412 -21.498  -6.501  1.00  0.00     0.208 C 
HETATM    9  N3  UNL     1      49.114 -22.011  -6.135  1.00  0.00    -0.062 NA
HETATM   10  N4  UNL     1      50.904 -21.808  -7.784  1.00  0.00    -0.213 N 
ATOM     11  H4  UNL     1      51.784 -22.315  -7.879  1.00  0.00     0.196 HD
ATOM     12  H2  UNL     1      50.712 -20.574  -4.741  1.00  0.00     0.162 HD
BRANCH  10  13
HETATM   13  N5  UNL     1      50.193 -21.424  -8.943  1.00  0.00    -0.036 N 
HETATM   14  O3  UNL     1      49.398 -22.197  -9.511  1.00  0.00    -0.516 OA
HETATM   15  O4  UNL     1      50.404 -20.145  -9.442  1.00  0.00    -0.516 OA
ENDBRANCH  10  13
ENDBRANCH   3   7
BRANCH   1  16
HETATM   16  O2  UNL     1      53.896 -17.043  -6.535  1.00  0.00    -0.299 OA
BRANCH  16  17
HETATM   17  C1  UNL     1      54.904 -16.646  -7.406  1.00  0.00     0.373 C 
HETATM   18  N1  UNL     1      54.775 -16.622  -8.809  1.00  0.00    -0.032 NA
HETATM   19  O1  UNL     1      56.026 -16.275  -6.932  1.00  0.00    -0.242 OA
ENDBRANCH  16  17
ENDBRANCH   1  16
BRANCH   6  20
HETATM   20  N6  UNL     1      53.039 -18.062  -3.964  1.00  0.00    -0.070 N 
ATOM     21  H63 UNL     1      53.355 -17.095  -3.895  1.00  0.00     0.274 HD
ATOM     22  H62 UNL     1      52.114 -17.907  -4.362  1.00  0.00     0.274 HD
ATOM     23  H61 UNL     1      52.973 -18.491  -3.040  1.00  0.00     0.274 HD
ENDBRANCH   6  20
TORSDOF 5
ENDMDL
MODEL 4
REMARK VINA RESULT: -6.388451375      6.064      7.568
REMARK  5 active torsions:
REMARK  status: ('A' for Active; 'I' for Inactive)
REMARK    1  A    between atoms: C1_2  and  O2_4 
REMARK    2  A    between atoms: O2_4  and  C2_5 
REMARK    3  A    between atoms: C4_7  and  N2_8 
REMARK       I    between atoms: C5_10  and  N4_12 
REMARK    4  A    between atoms: N4_12  and  N5_14 
REMARK    5  A    between atoms: C7_19  and  N6_20 
ROOT
HETATM    1  C2  UNL     1      50.668 -25.093  -9.021  1.00  0.00     0.168 C 
HETATM    2  C3  UNL     1      49.233 -25.562  -9.186  1.00  0.00     0.062 C 
HETATM    3  C4  UNL     1      48.508 -24.492  -8.371  1.00  0.00     0.122 C 
HETATM    4  C6  UNL     1      49.333 -23.216  -8.570  1.00  0.00     0.225 C 
HETATM    5  F1  UNL     1      48.579 -22.293  -9.280  1.00  0.00    -0.245 F 
HETATM    6  C7  UNL     1      50.552 -23.637  -9.366  1.00  0.00     0.248 C 
ENDROOT
BRANCH   3   7
HETATM    7  N2  UNL     1      47.160 -24.320  -8.806  1.00  0.00    -0.356 N 
HETATM    8  C5  UNL     1      46.210 -24.629  -7.993  1.00  0.00     0.208 C 
HETATM    9  N3  UNL     1      44.833 -24.470  -8.392  1.00  0.00    -0.062 NA
HETATM   10  N4  UNL     1      46.467 -25.124  -6.699  1.00  0.00    -0.213 N 
ATOM     11  H4  UNL     1      47.007 -24.561  -6.041  1.00  0.00     0.196 HD
ATOM     12  H2  UNL     1      46.954 -23.961  -9.738  1.00  0.00     0.162 HD
BRANCH  10  13
HETATM   13  N5  UNL     1      45.985 -26.390  -6.300  1.00  0.00    -0.036 N 
HETATM   14  O3  UNL     1      45.188 -26.521  -5.352  1.00  0.00    -0.516 OA
HETATM   15  O4  UNL     1      46.427 -27.504  -7.003  1.00  0.00    -0.516 OA
ENDBRANCH  10  13
ENDBRANCH   3   7
BRANCH   1  16
HETATM   16  O2  UNL     1      51.572 -25.801  -9.805  1.00  0.00    -0.299 OA
BRANCH  16  17
HETATM   17  C1  UNL     1      52.568 -26.542  -9.179  1.00  0.00     0.373 C 
HETATM   18  N1  UNL     1      52.575 -27.948  -9.096  1.00  0.00    -0.032 NA
HETATM   19  O1  UNL     1      53.549 -25.936  -8.638  1.00  0.00    -0.242 OA
ENDBRANCH  16  17
ENDBRANCH   1  16
BRANCH   6  20
HETATM   20  N6  UNL     1      50.239 -23.416 -10.763  1.00  0.00    -0.070 N 
ATOM     21  H63 UNL     1      50.376 -22.438 -11.019  1.00  0.00     0.274 HD
ATOM     22  H62 UNL     1      50.940 -23.844 -11.367  1.00  0.00     0.274 HD
ATOM     23  H61 UNL     1      49.301 -23.730 -11.012  1.00  0.00     0.274 HD
ENDBRANCH   6  20
TORSDOF 5
ENDMDL
MODEL 5
REMARK VINA RESULT: -6.349620501      3.231      5.896
REMARK  5 active torsions:
REMARK  status: ('A' for Active; 'I' for Inactive)
REMARK    1  A    between atoms: C1_2  and  O2_4 
REMARK    2  A    between atoms: O2_4  and  C2_5 
REMARK    3  A    between atoms: C4_7  and  N2_8 
REMARK       I    between atoms: C5_10  and  N4_12 
REMARK    4  A    between atoms: N4_12  and  N5_14 
REMARK    5  A    between atoms: C7_19  and  N6_20 
ROOT
HETATM    1  C2  UNL     1      53.141 -18.598  -5.525  1.00  0.00     0.168 C 
HETATM    2  C3  UNL     1      54.328 -18.406  -6.452  1.00  0.00     0.062 C 
HETATM    3  C4  UNL     1      55.297 -19.428  -5.858  1.00  0.00     0.122 C 
HETATM    4  C6  UNL     1      54.408 -20.565  -5.346  1.00  0.00     0.225 C 
HETATM    5  F1  UNL     1      54.651 -21.706  -6.096  1.00  0.00    -0.245 F 
HETATM    6  C7  UNL     1      52.982 -20.091  -5.541  1.00  0.00     0.248 C 
ENDROOT
BRANCH   3   7
HETATM    7  N2  UNL     1      56.237 -19.890  -6.827  1.00  0.00    -0.356 N 
HETATM    8  C5  UNL     1      57.377 -19.296  -6.907  1.00  0.00     0.208 C 
HETATM    9  N3  UNL     1      58.356 -19.733  -7.872  1.00  0.00    -0.062 NA
HETATM   10  N4  UNL     1      57.715 -18.215  -6.068  1.00  0.00    -0.213 N 
ATOM     11  H4  UNL     1      57.719 -18.344  -5.056  1.00  0.00     0.196 HD
ATOM     12  H2  UNL     1      56.011 -20.672  -7.442  1.00  0.00     0.162 HD
BRANCH  10  13
HETATM   13  N5  UNL     1      58.050 -16.956  -6.612  1.00  0.00    -0.036 N 
HETATM   14  O3  UNL     1      59.168 -16.733  -7.113  1.00  0.00    -0.516 OA
HETATM   15  O4  UNL     1      57.087 -15.955  -6.574  1.00  0.00    -0.516 OA
ENDBRANCH  10  13
ENDBRANCH   3   7
BRANCH   1  16
HETATM   16  O2  UNL     1      52.011 -17.894  -5.926  1.00  0.00    -0.299 OA
BRANCH  16  17
HETATM   17  C1  UNL     1      52.060 -17.158  -7.105  1.00  0.00     0.373 C 
HETATM   18  N1  UNL     1      51.835 -17.701  -8.385  1.00  0.00    -0.032 NA
HETATM   19  O1  UNL     1      52.323 -15.914  -7.052  1.00  0.00    -0.242 OA
ENDBRANCH  16  17
ENDBRANCH   1  16
BRANCH   6  20
HETATM   20  N6  UNL     1      52.544 -20.593  -6.828  1.00  0.00    -0.070 N 
ATOM     21  H63 UNL     1      51.533 -20.732  -6.842  1.00  0.00     0.274 HD
ATOM     22  H62 UNL     1      52.622 -19.874  -7.547  1.00  0.00     0.274 HD
ATOM     23  H61 UNL     1      53.033 -21.444  -7.106  1.00  0.00     0.274 HD
ENDBRANCH   6  20
TORSDOF 5
ENDMDL
