MODEL 1
REMARK VINA RESULT: -6.278856708      0.000      0.000
REMARK  0 active torsions:
REMARK  status: ('A' for Active; 'I' for Inactive)
REMARK       I    between atoms: C2_2  and  N1_4 
REMARK       I    between atoms: N2_8  and  C6_9 
REMARK       I    between atoms: C6_9  and  N4_13 
ROOT
HETATM    1  C1  UNL     1      36.331   4.830  61.105  1.00  0.00     0.117 C 
HETATM    2  C2  UNL     1      35.583   4.483  59.877  1.00  0.00     0.217 C 
HETATM    3  O1  UNL     1      36.232   4.126  58.873  1.00  0.00    -0.274 OA
HETATM    4  N1  UNL     1      34.174   4.554  59.838  1.00  0.00    -0.336 N 
HETATM    5  C3  UNL     1      33.476   4.967  61.006  1.00  0.00     0.129 C 
HETATM    6  C4  UNL     1      31.993   4.998  60.898  1.00  0.00     0.040 C 
HETATM    7  C5  UNL     1      31.453   5.336  59.549  1.00  0.00     0.144 C 
HETATM    8  N2  UNL     1      32.370   5.092  58.465  1.00  0.00    -0.202 N 
HETATM    9  C6  UNL     1      32.116   5.765  57.238  1.00  0.00     0.677 C 
HETATM   10  N3  UNL     1      32.083   7.054  57.207  1.00  0.00    -0.234 N 
ATOM     11  H31 UNL     1      31.901   7.536  56.327  1.00  0.00     0.174 HD
ATOM     12  H32 UNL     1      32.245   7.547  58.084  1.00  0.00     0.174 HD
HETATM   13  N4  UNL     1      31.891   5.076  56.012  1.00  0.00    -0.166 N 
ATOM     14  H4  UNL     1      32.684   4.922  55.389  1.00  0.00     0.186 HD
HETATM   15  C7  UNL     1      30.731   4.637  55.651  1.00  0.00     0.215 C 
HETATM   16  N5  UNL     1      30.657   3.968  54.399  1.00  0.00    -0.066 NA
HETATM   17  N6  UNL     1      29.562   4.797  56.442  1.00  0.00    -0.066 NA
HETATM   18  C8  UNL     1      33.493   4.207  58.623  1.00  0.00     0.270 C 
ENDROOT
TORSDOF 0
ENDMDL
MODEL 2
REMARK VINA RESULT: -6.201658131      3.615      4.792
REMARK  0 active torsions:
REMARK  status: ('A' for Active; 'I' for Inactive)
REMARK       I    between atoms: C2_2  and  N1_4 
REMARK       I    between atoms: N2_8  and  C6_9 
REMARK       I    between atoms: C6_9  and  N4_13 
ROOT
HETATM    1  C1  UNL     1      30.458  10.420  61.362  1.00  0.00     0.117 C 
HETATM    2  C2  UNL     1      30.098   9.645  60.156  1.00  0.00     0.217 C 
HETATM    3  O1  UNL     1      28.889   9.443  59.923  1.00  0.00    -0.274 OA
HETATM    4  N1  UNL     1      31.093   9.142  59.290  1.00  0.00    -0.336 N 
HETATM    5  C3  UNL     1      32.459   9.395  59.596  1.00  0.00     0.129 C 
HETATM    6  C4  UNL     1      33.451   8.852  58.630  1.00  0.00     0.040 C 
HETATM    7  C5  UNL     1      33.062   7.581  57.953  1.00  0.00     0.144 C 
HETATM    8  N2  UNL     1      31.643   7.331  57.932  1.00  0.00    -0.202 N 
HETATM    9  C6  UNL     1      31.226   5.990  57.705  1.00  0.00     0.677 C 
HETATM   10  N3  UNL     1      31.597   5.057  58.514  1.00  0.00    -0.234 N 
ATOM     11  H31 UNL     1      31.297   4.096  58.352  1.00  0.00     0.174 HD
ATOM     12  H32 UNL     1      32.188   5.326  59.299  1.00  0.00     0.174 HD
HETATM   13  N4  UNL     1      30.399   5.613  56.608  1.00  0.00    -0.166 N 
ATOM     14  H4  UNL     1      29.391   5.560  56.756  1.00  0.00     0.186 HD
HETATM   15  C7  UNL     1      30.865   5.336  55.436  1.00  0.00     0.215 C 
HETATM   16  N5  UNL     1      29.920   4.974  54.437  1.00  0.00    -0.066 NA
HETATM   17  N6  UNL     1      32.249   5.380  55.122  1.00  0.00    -0.066 NA
HETATM   18  C8  UNL     1      30.695   8.395  58.132  1.00  0.00     0.270 C 
ENDROOT
TORSDOF 0
ENDMDL
MODEL 3
REMARK VINA RESULT: -5.956985305      1.868      2.568
REMARK  0 active torsions:
REMARK  status: ('A' for Active; 'I' for Inactive)
REMARK       I    between atoms: C2_2  and  N1_4 
REMARK       I    between atoms: N2_8  and  C6_9 
REMARK       I    between atoms: C6_9  and  N4_13 
ROOT
HETATM    1  C1  UNL     1      35.500   5.513  59.224  1.00  0.00     0.117 C 
HETATM    2  C2  UNL     1      34.197   5.023  58.724  1.00  0.00     0.217 C 
HETATM    3  O1  UNL     1      34.083   3.807  58.470  1.00  0.00    -0.274 OA
HETATM    4  N1  UNL     1      33.111   5.904  58.536  1.00  0.00    -0.336 N 
HETATM    5  C3  UNL     1      33.287   7.283  58.838  1.00  0.00     0.129 C 
HETATM    6  C4  UNL     1      32.095   8.148  58.635  1.00  0.00     0.040 C 
HETATM    7  C5  UNL     1      31.182   7.738  57.528  1.00  0.00     0.144 C 
HETATM    8  N2  UNL     1      31.287   6.350  57.158  1.00  0.00    -0.202 N 
HETATM    9  C6  UNL     1      30.793   5.983  55.875  1.00  0.00     0.677 C 
HETATM   10  N3  UNL     1      31.290   6.527  54.816  1.00  0.00    -0.234 N 
ATOM     11  H31 UNL     1      30.935   6.264  53.897  1.00  0.00     0.174 HD
ATOM     12  H32 UNL     1      32.032   7.213  54.947  1.00  0.00     0.174 HD
HETATM   13  N4  UNL     1      29.756   5.025  55.692  1.00  0.00    -0.166 N 
ATOM     14  H4  UNL     1      30.017   4.055  55.510  1.00  0.00     0.186 HD
HETATM   15  C7  UNL     1      28.500   5.324  55.744  1.00  0.00     0.215 C 
HETATM   16  N5  UNL     1      27.576   4.263  55.541  1.00  0.00    -0.066 NA
HETATM   17  N6  UNL     1      28.028   6.640  55.991  1.00  0.00    -0.066 NA
HETATM   18  C8  UNL     1      31.867   5.381  58.050  1.00  0.00     0.270 C 
ENDROOT
TORSDOF 0
ENDMDL
MODEL 4
REMARK VINA RESULT: -5.931056672      2.358      5.504
REMARK  0 active torsions:
REMARK  status: ('A' for Active; 'I' for Inactive)
REMARK       I    between atoms: C2_2  and  N1_4 
REMARK       I    between atoms: N2_8  and  C6_9 
REMARK       I    between atoms: C6_9  and  N4_13 
ROOT
HETATM    1  C1  UNL     1      28.776   5.406  54.870  1.00  0.00     0.117 C 
HETATM    2  C2  UNL     1      30.018   4.899  55.491  1.00  0.00     0.217 C 
HETATM    3  O1  UNL     1      30.394   3.745  55.202  1.00  0.00    -0.274 OA
HETATM    4  N1  UNL     1      30.760   5.696  56.389  1.00  0.00    -0.336 N 
HETATM    5  C3  UNL     1      30.293   7.005  56.691  1.00  0.00     0.129 C 
HETATM    6  C4  UNL     1      31.135   7.794  57.629  1.00  0.00     0.040 C 
HETATM    7  C5  UNL     1      31.857   7.003  58.668  1.00  0.00     0.144 C 
HETATM    8  N2  UNL     1      32.047   5.616  58.329  1.00  0.00    -0.202 N 
HETATM    9  C6  UNL     1      32.326   4.721  59.400  1.00  0.00     0.677 C 
HETATM   10  N3  UNL     1      31.480   4.593  60.366  1.00  0.00    -0.234 N 
ATOM     11  H31 UNL     1      31.679   3.952  61.133  1.00  0.00     0.174 HD
ATOM     12  H32 UNL     1      30.629   5.153  60.320  1.00  0.00     0.174 HD
HETATM   13  N4  UNL     1      33.514   3.939  59.464  1.00  0.00    -0.166 N 
ATOM     14  H4  UNL     1      33.488   2.985  59.102  1.00  0.00     0.186 HD
HETATM   15  C7  UNL     1      34.623   4.379  59.958  1.00  0.00     0.215 C 
HETATM   16  N5  UNL     1      35.728   3.485  59.957  1.00  0.00    -0.066 NA
HETATM   17  N6  UNL     1      34.769   5.689  60.487  1.00  0.00    -0.066 NA
HETATM   18  C8  UNL     1      31.959   5.161  56.967  1.00  0.00     0.270 C 
ENDROOT
TORSDOF 0
ENDMDL
MODEL 5
REMARK VINA RESULT: -5.686732797      2.671      3.420
REMARK  0 active torsions:
REMARK  status: ('A' for Active; 'I' for Inactive)
REMARK       I    between atoms: C2_2  and  N1_4 
REMARK       I    between atoms: N2_8  and  C6_9 
REMARK       I    between atoms: C6_9  and  N4_13 
ROOT
HETATM    1  C1  UNL     1      32.025   6.795  63.248  1.00  0.00     0.117 C 
HETATM    2  C2  UNL     1      31.439   6.399  61.949  1.00  0.00     0.217 C 
HETATM    3  O1  UNL     1      30.439   5.653  61.956  1.00  0.00    -0.274 OA
HETATM    4  N1  UNL     1      31.995   6.849  60.732  1.00  0.00    -0.336 N 
HETATM    5  C3  UNL     1      33.136   7.697  60.772  1.00  0.00     0.129 C 
HETATM    6  C4  UNL     1      33.655   8.147  59.453  1.00  0.00     0.040 C 
HETATM    7  C5  UNL     1      33.483   7.182  58.329  1.00  0.00     0.144 C 
HETATM    8  N2  UNL     1      32.437   6.213  58.535  1.00  0.00    -0.202 N 
HETATM    9  C6  UNL     1      32.485   5.030  57.746  1.00  0.00     0.677 C 
HETATM   10  N3  UNL     1      33.514   4.254  57.815  1.00  0.00    -0.234 N 
ATOM     11  H31 UNL     1      33.548   3.406  57.250  1.00  0.00     0.174 HD
ATOM     12  H32 UNL     1      34.266   4.530  58.447  1.00  0.00     0.174 HD
HETATM   13  N4  UNL     1      31.435   4.645  56.865  1.00  0.00    -0.166 N 
ATOM     14  H4  UNL     1      30.725   3.999  57.209  1.00  0.00     0.186 HD
HETATM   15  C7  UNL     1      31.339   5.076  55.651  1.00  0.00     0.215 C 
HETATM   16  N5  UNL     1      30.237   4.605  54.886  1.00  0.00    -0.066 NA
HETATM   17  N6  UNL     1      32.271   5.977  55.073  1.00  0.00    -0.066 NA
HETATM   18  C8  UNL     1      31.391   6.438  59.497  1.00  0.00     0.270 C 
ENDROOT
TORSDOF 0
ENDMDL
