MODEL 1
REMARK VINA RESULT: -5.629730670      0.000      0.000
REMARK  5 active torsions:
REMARK  status: ('A' for Active; 'I' for Inactive)
REMARK       I    between atoms: C2_2  and  N1_4 
REMARK    1  A    between atoms: N1_4  and  S1_6 
REMARK    2  A    between atoms: S1_6  and  C3_9 
REMARK    3  A    between atoms: C4_14  and  N4_15 
REMARK    4  A    between atoms: N4_15  and  N5_17 
REMARK    5  A    between atoms: N6_22  and  N7_23 
ROOT
HETATM    1  C3  UNL     1     -14.015 -15.586 -31.533  1.00  0.00     0.263 A 
HETATM    2  N2  UNL     1     -15.204 -16.139 -31.137  1.00  0.00    -0.271 N 
ATOM      3  H2  UNL     1     -16.064 -15.789 -31.559  1.00  0.00     0.189 HD
HETATM    4  N3  UNL     1     -15.293 -17.095 -30.244  1.00  0.00    -0.278 N 
ATOM      5  H3  UNL     1     -16.200 -17.479 -29.978  1.00  0.00     0.189 HD
HETATM    6  C4  UNL     1     -14.156 -17.557 -29.685  1.00  0.00     0.205 A 
HETATM    7  C5  UNL     1     -12.954 -17.004 -30.079  1.00  0.00     0.315 A 
HETATM    8  O4  UNL     1     -11.880 -17.428 -29.565  1.00  0.00    -0.262 OA
HETATM    9  N6  UNL     1     -12.899 -16.033 -30.990  1.00  0.00    -0.194 N 
ENDROOT
BRANCH   1  10
HETATM   10  S1  UNL     1     -14.085 -14.360 -32.705  1.00  0.00     0.300 S 
HETATM   11  O2  UNL     1     -13.308 -13.155 -32.181  1.00  0.00    -0.197 OA
HETATM   12  O3  UNL     1     -13.314 -14.806 -33.931  1.00  0.00    -0.197 OA
BRANCH  10  13
HETATM   13  N1  UNL     1     -15.605 -13.817 -33.196  1.00  0.00    -0.248 N 
HETATM   14  C2  UNL     1     -16.420 -14.698 -33.931  1.00  0.00     0.227 C 
HETATM   15  C1  UNL     1     -17.766 -14.298 -34.402  1.00  0.00     0.118 C 
HETATM   16  O1  UNL     1     -16.007 -15.843 -34.196  1.00  0.00    -0.273 OA
ATOM     17  H1  UNL     1     -15.925 -12.876 -32.966  1.00  0.00     0.182 HD
ENDBRANCH  10  13
ENDBRANCH   1  10
BRANCH   9  18
HETATM   18  N7  UNL     1     -11.703 -15.467 -31.392  1.00  0.00    -0.333 N 
ATOM     19  H72 UNL     1     -11.567 -15.095 -32.331  1.00  0.00     0.177 HD
ATOM     20  H71 UNL     1     -10.937 -15.427 -30.718  1.00  0.00     0.177 HD
ENDBRANCH   9  18
BRANCH   6  21
HETATM   21  N4  UNL     1     -14.171 -18.488 -28.806  1.00  0.00    -0.286 N 
ATOM     22  H4  UNL     1     -14.277 -18.239 -27.822  1.00  0.00     0.188 HD
BRANCH  21  23
HETATM   23  N5  UNL     1     -14.049 -19.829 -29.154  1.00  0.00    -0.343 N 
ATOM     24  H52 UNL     1     -14.420 -20.126 -30.056  1.00  0.00     0.176 HD
ATOM     25  H51 UNL     1     -13.603 -20.507 -28.536  1.00  0.00     0.176 HD
ENDBRANCH  21  23
ENDBRANCH   6  21
TORSDOF 5
ENDMDL
MODEL 2
REMARK VINA RESULT: -5.565554284      2.673      3.295
REMARK  5 active torsions:
REMARK  status: ('A' for Active; 'I' for Inactive)
REMARK       I    between atoms: C2_2  and  N1_4 
REMARK    1  A    between atoms: N1_4  and  S1_6 
REMARK    2  A    between atoms: S1_6  and  C3_9 
REMARK    3  A    between atoms: C4_14  and  N4_15 
REMARK    4  A    between atoms: N4_15  and  N5_17 
REMARK    5  A    between atoms: N6_22  and  N7_23 
ROOT
HETATM    1  C3  UNL     1     -13.917 -13.797 -31.871  1.00  0.00     0.263 A 
HETATM    2  N2  UNL     1     -13.694 -15.119 -32.147  1.00  0.00    -0.271 N 
ATOM      3  H2  UNL     1     -14.363 -15.610 -32.740  1.00  0.00     0.189 HD
HETATM    4  N3  UNL     1     -12.664 -15.788 -31.687  1.00  0.00    -0.278 N 
ATOM      5  H3  UNL     1     -12.534 -16.773 -31.918  1.00  0.00     0.189 HD
HETATM    6  C4  UNL     1     -11.779 -15.140 -30.902  1.00  0.00     0.205 A 
HETATM    7  C5  UNL     1     -11.998 -13.807 -30.619  1.00  0.00     0.315 A 
HETATM    8  O4  UNL     1     -11.177 -13.187 -29.885  1.00  0.00    -0.262 OA
HETATM    9  N6  UNL     1     -13.056 -13.157 -31.103  1.00  0.00    -0.194 N 
ENDROOT
BRANCH   1  10
HETATM   10  S1  UNL     1     -15.300 -13.087 -32.554  1.00  0.00     0.300 S 
HETATM   11  O2  UNL     1     -16.136 -12.490 -31.425  1.00  0.00    -0.197 OA
HETATM   12  O3  UNL     1     -14.880 -11.895 -33.389  1.00  0.00    -0.197 OA
BRANCH  10  13
HETATM   13  N1  UNL     1     -16.315 -14.063 -33.485  1.00  0.00    -0.248 N 
HETATM   14  C2  UNL     1     -15.817 -14.574 -34.697  1.00  0.00     0.227 C 
HETATM   15  C1  UNL     1     -16.644 -15.435 -35.574  1.00  0.00     0.118 C 
HETATM   16  O1  UNL     1     -14.654 -14.301 -35.049  1.00  0.00    -0.273 OA
ATOM     17  H1  UNL     1     -17.264 -14.277 -33.176  1.00  0.00     0.182 HD
ENDBRANCH  10  13
ENDBRANCH   1  10
BRANCH   9  18
HETATM   18  N7  UNL     1     -13.290 -11.823 -30.826  1.00  0.00    -0.333 N 
ATOM     19  H72 UNL     1     -13.834 -11.226 -31.449  1.00  0.00     0.177 HD
ATOM     20  H71 UNL     1     -12.901 -11.432 -29.967  1.00  0.00     0.177 HD
ENDBRANCH   9  18
BRANCH   6  21
HETATM   21  N4  UNL     1     -10.752 -15.734 -30.418  1.00  0.00    -0.286 N 
ATOM     22  H4  UNL     1     -10.881 -16.432 -29.685  1.00  0.00     0.188 HD
BRANCH  21  23
HETATM   23  N5  UNL     1      -9.465 -15.454 -30.865  1.00  0.00    -0.343 N 
ATOM     24  H52 UNL     1      -9.362 -14.878 -31.699  1.00  0.00     0.176 HD
ATOM     25  H51 UNL     1      -8.639 -15.809 -30.382  1.00  0.00     0.176 HD
ENDBRANCH  21  23
ENDBRANCH   6  21
TORSDOF 5
ENDMDL
MODEL 3
REMARK VINA RESULT: -5.519537236      1.983      2.286
REMARK  5 active torsions:
REMARK  status: ('A' for Active; 'I' for Inactive)
REMARK       I    between atoms: C2_2  and  N1_4 
REMARK    1  A    between atoms: N1_4  and  S1_6 
REMARK    2  A    between atoms: S1_6  and  C3_9 
REMARK    3  A    between atoms: C4_14  and  N4_15 
REMARK    4  A    between atoms: N4_15  and  N5_17 
REMARK    5  A    between atoms: N6_22  and  N7_23 
ROOT
HETATM    1  C3  UNL     1     -13.475 -15.226 -31.496  1.00  0.00     0.263 A 
HETATM    2  N2  UNL     1     -13.535 -16.592 -31.424  1.00  0.00    -0.271 N 
ATOM      3  H2  UNL     1     -14.153 -17.084 -32.069  1.00  0.00     0.189 HD
HETATM    4  N3  UNL     1     -12.839 -17.300 -30.567  1.00  0.00    -0.278 N 
ATOM      5  H3  UNL     1     -12.913 -18.318 -30.547  1.00  0.00     0.189 HD
HETATM    6  C4  UNL     1     -12.023 -16.650 -29.713  1.00  0.00     0.205 A 
HETATM    7  C5  UNL     1     -11.957 -15.273 -29.780  1.00  0.00     0.315 A 
HETATM    8  O4  UNL     1     -11.196 -14.650 -28.987  1.00  0.00    -0.262 OA
HETATM    9  N6  UNL     1     -12.679 -14.584 -30.663  1.00  0.00    -0.194 N 
ENDROOT
BRANCH   1  10
HETATM   10  S1  UNL     1     -14.442 -14.471 -32.670  1.00  0.00     0.300 S 
HETATM   11  O2  UNL     1     -15.527 -13.673 -31.952  1.00  0.00    -0.197 OA
HETATM   12  O3  UNL     1     -13.614 -13.426 -33.391  1.00  0.00    -0.197 OA
BRANCH  10  13
HETATM   13  N1  UNL     1     -15.197 -15.445 -33.822  1.00  0.00    -0.248 N 
HETATM   14  C2  UNL     1     -16.200 -14.870 -34.624  1.00  0.00     0.227 C 
HETATM   15  C1  UNL     1     -16.914 -15.657 -35.656  1.00  0.00     0.118 C 
HETATM   16  O1  UNL     1     -16.500 -13.672 -34.470  1.00  0.00    -0.273 OA
ATOM     17  H1  UNL     1     -14.934 -16.424 -33.934  1.00  0.00     0.182 HD
ENDBRANCH  10  13
ENDBRANCH   1  10
BRANCH   9  18
HETATM   18  N7  UNL     1     -12.626 -13.204 -30.740  1.00  0.00    -0.333 N 
ATOM     19  H72 UNL     1     -12.022 -12.720 -31.403  1.00  0.00     0.177 HD
ATOM     20  H71 UNL     1     -13.215 -12.662 -30.107  1.00  0.00     0.177 HD
ENDBRANCH   9  18
BRANCH   6  21
HETATM   21  N4  UNL     1     -11.316 -17.281 -28.850  1.00  0.00    -0.286 N 
ATOM     22  H4  UNL     1     -11.767 -17.646 -28.011  1.00  0.00     0.188 HD
BRANCH  21  23
HETATM   23  N5  UNL     1      -9.951 -17.481 -29.025  1.00  0.00    -0.343 N 
ATOM     24  H52 UNL     1      -9.606 -17.632 -29.972  1.00  0.00     0.176 HD
ATOM     25  H51 UNL     1      -9.302 -17.479 -28.238  1.00  0.00     0.176 HD
ENDBRANCH  21  23
ENDBRANCH   6  21
TORSDOF 5
ENDMDL
MODEL 4
REMARK VINA RESULT: -5.509779006      1.813      2.500
REMARK  5 active torsions:
REMARK  status: ('A' for Active; 'I' for Inactive)
REMARK       I    between atoms: C2_2  and  N1_4 
REMARK    1  A    between atoms: N1_4  and  S1_6 
REMARK    2  A    between atoms: S1_6  and  C3_9 
REMARK    3  A    between atoms: C4_14  and  N4_15 
REMARK    4  A    between atoms: N4_15  and  N5_17 
REMARK    5  A    between atoms: N6_22  and  N7_23 
ROOT
HETATM    1  C3  UNL     1     -14.912 -16.162 -30.834  1.00  0.00     0.263 A 
HETATM    2  N2  UNL     1     -13.737 -16.810 -31.109  1.00  0.00    -0.271 N 
ATOM      3  H2  UNL     1     -13.051 -16.339 -31.698  1.00  0.00     0.189 HD
HETATM    4  N3  UNL     1     -13.450 -18.006 -30.654  1.00  0.00    -0.278 N 
ATOM      5  H3  UNL     1     -12.562 -18.453 -30.883  1.00  0.00     0.189 HD
HETATM    6  C4  UNL     1     -14.358 -18.630 -29.877  1.00  0.00     0.205 A 
HETATM    7  C5  UNL     1     -15.544 -17.983 -29.596  1.00  0.00     0.315 A 
HETATM    8  O4  UNL     1     -16.404 -18.555 -28.868  1.00  0.00    -0.262 OA
HETATM    9  N6  UNL     1     -15.804 -16.767 -30.074  1.00  0.00    -0.194 N 
ENDROOT
BRANCH   1  10
HETATM   10  S1  UNL     1     -15.115 -14.614 -31.502  1.00  0.00     0.300 S 
HETATM   11  O2  UNL     1     -15.656 -13.693 -30.412  1.00  0.00    -0.197 OA
HETATM   12  O3  UNL     1     -13.754 -14.043 -31.844  1.00  0.00    -0.197 OA
BRANCH  10  13
HETATM   13  N1  UNL     1     -16.117 -14.458 -32.851  1.00  0.00    -0.248 N 
HETATM   14  C2  UNL     1     -15.806 -15.207 -34.000  1.00  0.00     0.227 C 
HETATM   15  C1  UNL     1     -16.633 -15.125 -35.226  1.00  0.00     0.118 C 
HETATM   16  O1  UNL     1     -14.814 -15.960 -33.995  1.00  0.00    -0.273 OA
ATOM     17  H1  UNL     1     -16.926 -13.837 -32.833  1.00  0.00     0.182 HD
ENDBRANCH  10  13
ENDBRANCH   1  10
BRANCH   9  18
HETATM   18  N7  UNL     1     -16.989 -16.108 -29.804  1.00  0.00    -0.333 N 
ATOM     19  H72 UNL     1     -17.666 -16.463 -29.129  1.00  0.00     0.177 HD
ATOM     20  H71 UNL     1     -17.184 -15.239 -30.303  1.00  0.00     0.177 HD
ENDBRANCH   9  18
BRANCH   6  21
HETATM   21  N4  UNL     1     -14.142 -19.800 -29.401  1.00  0.00    -0.286 N 
ATOM     22  H4  UNL     1     -14.111 -20.597 -30.037  1.00  0.00     0.188 HD
BRANCH  21  23
HETATM   23  N5  UNL     1     -13.948 -20.015 -28.040  1.00  0.00    -0.343 N 
ATOM     24  H52 UNL     1     -14.431 -19.402 -27.385  1.00  0.00     0.176 HD
ATOM     25  H51 UNL     1     -13.342 -20.759 -27.694  1.00  0.00     0.176 HD
ENDBRANCH  21  23
ENDBRANCH   6  21
TORSDOF 5
ENDMDL
MODEL 5
REMARK VINA RESULT: -5.439935632      1.683      2.510
REMARK  5 active torsions:
REMARK  status: ('A' for Active; 'I' for Inactive)
REMARK       I    between atoms: C2_2  and  N1_4 
REMARK    1  A    between atoms: N1_4  and  S1_6 
REMARK    2  A    between atoms: S1_6  and  C3_9 
REMARK    3  A    between atoms: C4_14  and  N4_15 
REMARK    4  A    between atoms: N4_15  and  N5_17 
REMARK    5  A    between atoms: N6_22  and  N7_23 
ROOT
HETATM    1  C3  UNL     1     -14.133 -14.588 -31.686  1.00  0.00     0.263 A 
HETATM    2  N2  UNL     1     -12.804 -14.763 -31.963  1.00  0.00    -0.271 N 
ATOM      3  H2  UNL     1     -12.376 -14.172 -32.675  1.00  0.00     0.189 HD
HETATM    4  N3  UNL     1     -12.053 -15.652 -31.359  1.00  0.00    -0.278 N 
ATOM      5  H3  UNL     1     -11.065 -15.749 -31.596  1.00  0.00     0.189 HD
HETATM    6  C4  UNL     1     -12.618 -16.435 -30.418  1.00  0.00     0.205 A 
HETATM    7  C5  UNL     1     -13.957 -16.264 -30.134  1.00  0.00     0.315 A 
HETATM    8  O4  UNL     1     -14.501 -16.990 -29.254  1.00  0.00    -0.262 OA
HETATM    9  N6  UNL     1     -14.693 -15.350 -30.767  1.00  0.00    -0.194 N 
ENDROOT
BRANCH   1  10
HETATM   10  S1  UNL     1     -14.953 -13.385 -32.560  1.00  0.00     0.300 S 
HETATM   11  O2  UNL     1     -15.658 -12.469 -31.564  1.00  0.00    -0.197 OA
HETATM   12  O3  UNL     1     -13.936 -12.494 -33.245  1.00  0.00    -0.197 OA
BRANCH  10  13
HETATM   13  N1  UNL     1     -16.094 -13.874 -33.704  1.00  0.00    -0.248 N 
HETATM   14  C2  UNL     1     -15.792 -14.988 -34.508  1.00  0.00     0.227 C 
HETATM   15  C1  UNL     1     -16.738 -15.480 -35.538  1.00  0.00     0.118 C 
HETATM   16  O1  UNL     1     -14.708 -15.582 -34.357  1.00  0.00    -0.273 OA
ATOM     17  H1  UNL     1     -16.977 -13.376 -33.810  1.00  0.00     0.182 HD
ENDBRANCH  10  13
ENDBRANCH   1  10
BRANCH   9  18
HETATM   18  N7  UNL     1     -16.037 -15.170 -30.495  1.00  0.00    -0.333 N 
ATOM     19  H72 UNL     1     -16.632 -15.932 -30.170  1.00  0.00     0.177 HD
ATOM     20  H71 UNL     1     -16.437 -14.241 -30.629  1.00  0.00     0.177 HD
ENDBRANCH   9  18
BRANCH   6  21
HETATM   21  N4  UNL     1     -11.942 -17.325 -29.791  1.00  0.00    -0.286 N 
ATOM     22  H4  UNL     1     -12.386 -18.213 -29.560  1.00  0.00     0.188 HD
BRANCH  21  23
HETATM   23  N5  UNL     1     -10.619 -17.113 -29.418  1.00  0.00    -0.343 N 
ATOM     24  H52 UNL     1     -10.087 -16.403 -29.919  1.00  0.00     0.176 HD
ATOM     25  H51 UNL     1     -10.181 -17.645 -28.665  1.00  0.00     0.176 HD
ENDBRANCH  21  23
ENDBRANCH   6  21
TORSDOF 5
ENDMDL
