MODEL 1
REMARK VINA RESULT: -8.403394709      0.000      0.000
REMARK  10 active torsions:
REMARK  status: ('A' for Active; 'I' for Inactive)
REMARK    1  A    between atoms: N1_1  and  C1_4 
REMARK    2  A    between atoms: N3_9  and  C3_10 
REMARK    3  A    between atoms: C5_13  and  O3_14 
REMARK    4  A    between atoms: C5_13  and  C6_16 
REMARK    5  A    between atoms: C6_16  and  O4_17 
REMARK    6  A    between atoms: C6_16  and  C7_19 
REMARK    7  A    between atoms: C8_22  and  O6_23 
REMARK    8  A    between atoms: C9_27  and  C10_28 
REMARK    9  A    between atoms: C10_28  and  O7_29 
REMARK   10  A    between atoms: C10_28  and  O8_31 
ROOT
HETATM    1  C1  UNL     1     -37.360 -55.773  16.783  1.00  0.00     0.132 A 
HETATM    2  N2  UNL     1     -38.107 -55.011  15.962  1.00  0.00    -0.292 N 
ATOM      3  H2  UNL     1     -38.722 -54.282  16.324  1.00  0.00     0.172 HD
HETATM    4  C2  UNL     1     -38.004 -55.256  14.643  1.00  0.00     0.343 A 
HETATM    5  O1  UNL     1     -38.724 -54.517  13.891  1.00  0.00    -0.245 OA
HETATM    6  N3  UNL     1     -37.209 -56.201  14.126  1.00  0.00    -0.233 N 
HETATM    7  N5  UNL     1     -36.495 -56.925  14.960  1.00  0.00    -0.290 N 
ATOM      8  H5  UNL     1     -35.886 -57.648  14.577  1.00  0.00     0.187 HD
HETATM    9  C9  UNL     1     -36.527 -56.759  16.295  1.00  0.00     0.124 A 
ENDROOT
BRANCH   6  10
HETATM   10  C3  UNL     1     -37.196 -56.354  12.692  1.00  0.00     0.171 C 
HETATM   11  C4  UNL     1     -36.618 -57.719  12.376  1.00  0.00     0.202 C 
HETATM   12  O2  UNL     1     -36.282 -57.571  11.032  1.00  0.00    -0.348 OA
HETATM   13  C5  UNL     1     -35.756 -56.317  10.868  1.00  0.00     0.225 C 
HETATM   14  C8  UNL     1     -36.159 -55.465  12.035  1.00  0.00     0.210 C 
BRANCH  13  15
HETATM   15  O3  UNL     1     -36.274 -55.772   9.689  1.00  0.00    -0.361 OA
ATOM     16  H3  UNL     1     -35.578 -55.736   9.044  1.00  0.00     0.213 HD
ENDBRANCH  13  15
BRANCH  13  17
HETATM   17  C6  UNL     1     -34.243 -56.453  10.756  1.00  0.00     0.272 C 
BRANCH  17  18
HETATM   18  O4  UNL     1     -33.596 -55.466  11.454  1.00  0.00    -0.381 OA
ATOM     19  H4  UNL     1     -33.798 -54.605  11.108  1.00  0.00     0.210 HD
ENDBRANCH  17  18
BRANCH  17  20
HETATM   20  C7  UNL     1     -33.896 -56.493   9.324  1.00  0.00     0.265 C 
HETATM   21  N4  UNL     1     -33.691 -57.730   8.668  1.00  0.00    -0.060 NA
HETATM   22  O5  UNL     1     -33.785 -55.423   8.694  1.00  0.00    -0.274 OA
ENDBRANCH  17  20
ENDBRANCH  13  17
BRANCH  14  23
HETATM   23  O6  UNL     1     -36.810 -54.314  11.615  1.00  0.00    -0.388 OA
ATOM     24  H6  UNL     1     -36.158 -53.625  11.562  1.00  0.00     0.210 HD
ENDBRANCH  14  23
ENDBRANCH   6  10
BRANCH   9  25
HETATM   25  C10 UNL     1     -35.688 -57.618  17.196  1.00  0.00     0.310 C 
BRANCH  25  26
HETATM   26  O7  UNL     1     -36.518 -58.361  18.056  1.00  0.00    -0.366 OA
ATOM     27  H7  UNL     1     -36.500 -57.983  18.927  1.00  0.00     0.213 HD
ENDBRANCH  25  26
BRANCH  25  28
HETATM   28  O8  UNL     1     -34.801 -56.876  17.934  1.00  0.00    -0.366 OA
ATOM     29  H8  UNL     1     -34.726 -57.194  18.826  1.00  0.00     0.213 HD
ENDBRANCH  25  28
ENDBRANCH   9  25
BRANCH   1  30
HETATM   30  N1  UNL     1     -37.389 -55.615  18.074  1.00  0.00    -0.384 N 
ATOM     31  H12 UNL     1     -37.508 -54.663  18.418  1.00  0.00     0.157 HD
ATOM     32  H11 UNL     1     -37.297 -56.406  18.712  1.00  0.00     0.157 HD
ENDBRANCH   1  30
TORSDOF 10
ENDMDL
MODEL 2
REMARK VINA RESULT: -8.117003095      1.181      1.346
REMARK  10 active torsions:
REMARK  status: ('A' for Active; 'I' for Inactive)
REMARK    1  A    between atoms: N1_1  and  C1_4 
REMARK    2  A    between atoms: N3_9  and  C3_10 
REMARK    3  A    between atoms: C5_13  and  O3_14 
REMARK    4  A    between atoms: C5_13  and  C6_16 
REMARK    5  A    between atoms: C6_16  and  O4_17 
REMARK    6  A    between atoms: C6_16  and  C7_19 
REMARK    7  A    between atoms: C8_22  and  O6_23 
REMARK    8  A    between atoms: C9_27  and  C10_28 
REMARK    9  A    between atoms: C10_28  and  O7_29 
REMARK   10  A    between atoms: C10_28  and  O8_31 
ROOT
HETATM    1  C1  UNL     1     -36.052 -56.835  17.565  1.00  0.00     0.132 A 
HETATM    2  N2  UNL     1     -36.752 -55.787  17.091  1.00  0.00    -0.292 N 
ATOM      3  H2  UNL     1     -37.176 -55.103  17.717  1.00  0.00     0.172 HD
HETATM    4  C2  UNL     1     -36.866 -55.684  15.754  1.00  0.00     0.343 A 
HETATM    5  O1  UNL     1     -37.535 -54.681  15.337  1.00  0.00    -0.245 OA
HETATM    6  N3  UNL     1     -36.325 -56.560  14.897  1.00  0.00    -0.233 N 
HETATM    7  N5  UNL     1     -35.647 -57.570  15.398  1.00  0.00    -0.290 N 
ATOM      8  H5  UNL     1     -35.231 -58.242  14.753  1.00  0.00     0.187 HD
HETATM    9  C9  UNL     1     -35.477 -57.761  16.719  1.00  0.00     0.124 A 
ENDROOT
BRANCH   6  10
HETATM   10  C3  UNL     1     -36.525 -56.326  13.488  1.00  0.00     0.171 C 
HETATM   11  C4  UNL     1     -36.272 -57.633  12.761  1.00  0.00     0.202 C 
HETATM   12  O2  UNL     1     -36.088 -57.189  11.454  1.00  0.00    -0.348 OA
HETATM   13  C5  UNL     1     -35.350 -56.037  11.504  1.00  0.00     0.225 C 
HETATM   14  C8  UNL     1     -35.424 -55.472  12.891  1.00  0.00     0.210 C 
BRANCH  13  15
HETATM   15  O3  UNL     1     -35.895 -55.123  10.596  1.00  0.00    -0.361 OA
ATOM     16  H3  UNL     1     -35.241 -54.929   9.936  1.00  0.00     0.213 HD
ENDBRANCH  13  15
BRANCH  13  17
HETATM   17  C6  UNL     1     -33.920 -56.377  11.102  1.00  0.00     0.272 C 
BRANCH  17  18
HETATM   18  O4  UNL     1     -33.017 -55.529  11.690  1.00  0.00    -0.381 OA
ATOM     19  H4  UNL     1     -32.969 -55.666  12.628  1.00  0.00     0.210 HD
ENDBRANCH  17  18
BRANCH  17  20
HETATM   20  C7  UNL     1     -33.853 -56.387   9.629  1.00  0.00     0.265 C 
HETATM   21  N4  UNL     1     -33.782 -57.611   8.922  1.00  0.00    -0.060 NA
HETATM   22  O5  UNL     1     -33.860 -55.305   9.012  1.00  0.00    -0.274 OA
ENDBRANCH  17  20
ENDBRANCH  13  17
BRANCH  14  23
HETATM   23  O6  UNL     1     -35.883 -54.163  12.876  1.00  0.00    -0.388 OA
ATOM     24  H6  UNL     1     -35.674 -53.801  12.023  1.00  0.00     0.210 HD
ENDBRANCH  14  23
ENDBRANCH   6  10
BRANCH   9  25
HETATM   25  C10 UNL     1     -34.694 -58.935  17.230  1.00  0.00     0.310 C 
BRANCH  25  26
HETATM   26  O7  UNL     1     -35.535 -59.784  17.972  1.00  0.00    -0.366 OA
ATOM     27  H7  UNL     1     -36.366 -59.887  17.523  1.00  0.00     0.213 HD
ENDBRANCH  25  26
BRANCH  25  28
HETATM   28  O8  UNL     1     -33.629 -58.546  18.002  1.00  0.00    -0.366 OA
ATOM     29  H8  UNL     1     -32.801 -58.657  17.549  1.00  0.00     0.213 HD
ENDBRANCH  25  28
ENDBRANCH   9  25
BRANCH   1  30
HETATM   30  N1  UNL     1     -35.885 -57.023  18.841  1.00  0.00    -0.384 N 
ATOM     31  H12 UNL     1     -35.867 -56.190  19.430  1.00  0.00     0.157 HD
ATOM     32  H11 UNL     1     -35.777 -57.957  19.234  1.00  0.00     0.157 HD
ENDBRANCH   1  30
TORSDOF 10
ENDMDL
MODEL 3
REMARK VINA RESULT: -8.104511748      2.308      3.999
REMARK  10 active torsions:
REMARK  status: ('A' for Active; 'I' for Inactive)
REMARK    1  A    between atoms: N1_1  and  C1_4 
REMARK    2  A    between atoms: N3_9  and  C3_10 
REMARK    3  A    between atoms: C5_13  and  O3_14 
REMARK    4  A    between atoms: C5_13  and  C6_16 
REMARK    5  A    between atoms: C6_16  and  O4_17 
REMARK    6  A    between atoms: C6_16  and  C7_19 
REMARK    7  A    between atoms: C8_22  and  O6_23 
REMARK    8  A    between atoms: C9_27  and  C10_28 
REMARK    9  A    between atoms: C10_28  and  O7_29 
REMARK   10  A    between atoms: C10_28  and  O8_31 
ROOT
HETATM    1  C1  UNL     1     -33.971 -57.502  16.595  1.00  0.00     0.132 A 
HETATM    2  N2  UNL     1     -33.219 -57.391  15.484  1.00  0.00    -0.292 N 
ATOM      3  H2  UNL     1     -32.242 -57.684  15.470  1.00  0.00     0.172 HD
HETATM    4  C2  UNL     1     -33.815 -56.877  14.393  1.00  0.00     0.343 A 
HETATM    5  O1  UNL     1     -33.076 -56.784  13.357  1.00  0.00    -0.245 OA
HETATM    6  N3  UNL     1     -35.094 -56.481  14.367  1.00  0.00    -0.233 N 
HETATM    7  N5  UNL     1     -35.797 -56.606  15.472  1.00  0.00    -0.290 N 
ATOM      8  H5  UNL     1     -36.773 -56.308  15.463  1.00  0.00     0.187 HD
HETATM    9  C9  UNL     1     -35.293 -57.107  16.614  1.00  0.00     0.124 A 
ENDROOT
BRANCH   6  10
HETATM   10  C3  UNL     1     -35.605 -55.949  13.128  1.00  0.00     0.171 C 
HETATM   11  C4  UNL     1     -36.929 -55.271  13.424  1.00  0.00     0.202 C 
HETATM   12  O2  UNL     1     -37.485 -55.186  12.151  1.00  0.00    -0.348 OA
HETATM   13  C5  UNL     1     -37.206 -56.354  11.493  1.00  0.00     0.225 C 
HETATM   14  C8  UNL     1     -36.070 -57.044  12.188  1.00  0.00     0.210 C 
BRANCH  13  15
HETATM   15  O3  UNL     1     -36.834 -56.045  10.181  1.00  0.00    -0.361 OA
ATOM     16  H3  UNL     1     -37.434 -56.481   9.588  1.00  0.00     0.213 HD
ENDBRANCH  13  15
BRANCH  13  17
HETATM   17  C6  UNL     1     -38.471 -57.203  11.487  1.00  0.00     0.272 C 
BRANCH  17  18
HETATM   18  O4  UNL     1     -38.435 -58.153  10.498  1.00  0.00    -0.381 OA
ATOM     19  H4  UNL     1     -39.064 -58.847  10.659  1.00  0.00     0.210 HD
ENDBRANCH  17  18
BRANCH  17  20
HETATM   20  C7  UNL     1     -39.628 -56.294  11.395  1.00  0.00     0.265 C 
HETATM   21  N4  UNL     1     -40.521 -56.156  12.484  1.00  0.00    -0.060 NA
HETATM   22  O5  UNL     1     -39.811 -55.646  10.347  1.00  0.00    -0.274 OA
ENDBRANCH  17  20
ENDBRANCH  13  17
BRANCH  14  23
HETATM   23  O6  UNL     1     -35.027 -57.302  11.310  1.00  0.00    -0.388 OA
ATOM     24  H6  UNL     1     -34.990 -58.243  11.186  1.00  0.00     0.210 HD
ENDBRANCH  14  23
ENDBRANCH   6  10
BRANCH   9  25
HETATM   25  C10 UNL     1     -36.146 -57.224  17.844  1.00  0.00     0.310 C 
BRANCH  25  26
HETATM   26  O7  UNL     1     -35.627 -56.405  18.864  1.00  0.00    -0.366 OA
ATOM     27  H7  UNL     1     -36.138 -55.607  18.927  1.00  0.00     0.213 HD
ENDBRANCH  25  26
BRANCH  25  28
HETATM   28  O8  UNL     1     -36.234 -58.519  18.288  1.00  0.00    -0.366 OA
ATOM     29  H8  UNL     1     -35.409 -58.981  18.205  1.00  0.00     0.213 HD
ENDBRANCH  25  28
ENDBRANCH   9  25
BRANCH   1  30
HETATM   30  N1  UNL     1     -33.487 -57.986  17.700  1.00  0.00    -0.384 N 
ATOM     31  H12 UNL     1     -32.726 -58.660  17.613  1.00  0.00     0.157 HD
ATOM     32  H11 UNL     1     -33.850 -57.706  18.611  1.00  0.00     0.157 HD
ENDBRANCH   1  30
TORSDOF 10
ENDMDL
MODEL 4
REMARK VINA RESULT: -8.079392491      3.126      3.935
REMARK  10 active torsions:
REMARK  status: ('A' for Active; 'I' for Inactive)
REMARK    1  A    between atoms: N1_1  and  C1_4 
REMARK    2  A    between atoms: N3_9  and  C3_10 
REMARK    3  A    between atoms: C5_13  and  O3_14 
REMARK    4  A    between atoms: C5_13  and  C6_16 
REMARK    5  A    between atoms: C6_16  and  O4_17 
REMARK    6  A    between atoms: C6_16  and  C7_19 
REMARK    7  A    between atoms: C8_22  and  O6_23 
REMARK    8  A    between atoms: C9_27  and  C10_28 
REMARK    9  A    between atoms: C10_28  and  O7_29 
REMARK   10  A    between atoms: C10_28  and  O8_31 
ROOT
HETATM    1  C1  UNL     1     -35.232 -56.956  17.781  1.00  0.00     0.132 A 
HETATM    2  N2  UNL     1     -36.208 -56.232  18.358  1.00  0.00    -0.292 N 
ATOM      3  H2  UNL     1     -36.204 -56.032  19.358  1.00  0.00     0.172 HD
HETATM    4  C2  UNL     1     -37.190 -55.782  17.554  1.00  0.00     0.343 A 
HETATM    5  O1  UNL     1     -38.100 -55.098  18.132  1.00  0.00    -0.245 OA
HETATM    6  N3  UNL     1     -37.234 -56.020  16.237  1.00  0.00    -0.233 N 
HETATM    7  N5  UNL     1     -36.261 -56.731  15.710  1.00  0.00    -0.290 N 
ATOM      8  H5  UNL     1     -36.285 -56.918  14.708  1.00  0.00     0.187 HD
HETATM    9  C9  UNL     1     -35.237 -57.226  16.428  1.00  0.00     0.124 A 
ENDROOT
BRANCH   6  10
HETATM   10  C3  UNL     1     -38.345 -55.475  15.496  1.00  0.00     0.171 C 
HETATM   11  C4  UNL     1     -38.864 -56.561  14.574  1.00  0.00     0.202 C 
HETATM   12  O2  UNL     1     -39.609 -55.816  13.664  1.00  0.00    -0.348 OA
HETATM   13  C5  UNL     1     -38.911 -54.670  13.391  1.00  0.00     0.225 C 
HETATM   14  C8  UNL     1     -37.898 -54.449  14.474  1.00  0.00     0.210 C 
BRANCH  13  15
HETATM   15  O3  UNL     1     -39.811 -53.600  13.366  1.00  0.00    -0.361 OA
ATOM     16  H3  UNL     1     -39.373 -52.847  12.989  1.00  0.00     0.213 HD
ENDBRANCH  13  15
BRANCH  13  17
HETATM   17  C6  UNL     1     -38.259 -54.831  12.024  1.00  0.00     0.272 C 
BRANCH  17  18
HETATM   18  O4  UNL     1     -37.997 -53.616  11.444  1.00  0.00    -0.381 OA
ATOM     19  H4  UNL     1     -37.208 -53.224  11.799  1.00  0.00     0.210 HD
ENDBRANCH  17  18
BRANCH  17  20
HETATM   20  C7  UNL     1     -39.124 -55.703  11.208  1.00  0.00     0.265 C 
HETATM   21  N4  UNL     1     -38.731 -57.030  10.911  1.00  0.00    -0.060 NA
HETATM   22  O5  UNL     1     -40.208 -55.260  10.783  1.00  0.00    -0.274 OA
ENDBRANCH  17  20
ENDBRANCH  13  17
BRANCH  14  23
HETATM   23  O6  UNL     1     -38.049 -53.198  15.055  1.00  0.00    -0.388 OA
ATOM     24  H6  UNL     1     -37.368 -53.108  15.711  1.00  0.00     0.210 HD
ENDBRANCH  14  23
ENDBRANCH   6  10
BRANCH   9  25
HETATM   25  C10 UNL     1     -34.156 -58.033  15.768  1.00  0.00     0.310 C 
BRANCH  25  26
HETATM   26  O7  UNL     1     -34.198 -59.359  16.236  1.00  0.00    -0.366 OA
ATOM     27  H7  UNL     1     -33.367 -59.788  16.064  1.00  0.00     0.213 HD
ENDBRANCH  25  26
BRANCH  25  28
HETATM   28  O8  UNL     1     -32.910 -57.502  15.988  1.00  0.00    -0.366 OA
ATOM     29  H8  UNL     1     -32.476 -57.265  15.177  1.00  0.00     0.213 HD
ENDBRANCH  25  28
ENDBRANCH   9  25
BRANCH   1  30
HETATM   30  N1  UNL     1     -34.240 -57.436  18.472  1.00  0.00    -0.384 N 
ATOM     31  H12 UNL     1     -33.959 -56.910  19.300  1.00  0.00     0.157 HD
ATOM     32  H11 UNL     1     -33.765 -58.296  18.200  1.00  0.00     0.157 HD
ENDBRANCH   1  30
TORSDOF 10
ENDMDL
MODEL 5
REMARK VINA RESULT: -8.015492273      2.662      4.224
REMARK  10 active torsions:
REMARK  status: ('A' for Active; 'I' for Inactive)
REMARK    1  A    between atoms: N1_1  and  C1_4 
REMARK    2  A    between atoms: N3_9  and  C3_10 
REMARK    3  A    between atoms: C5_13  and  O3_14 
REMARK    4  A    between atoms: C5_13  and  C6_16 
REMARK    5  A    between atoms: C6_16  and  O4_17 
REMARK    6  A    between atoms: C6_16  and  C7_19 
REMARK    7  A    between atoms: C8_22  and  O6_23 
REMARK    8  A    between atoms: C9_27  and  C10_28 
REMARK    9  A    between atoms: C10_28  and  O7_29 
REMARK   10  A    between atoms: C10_28  and  O8_31 
ROOT
HETATM    1  C1  UNL     1     -33.928 -57.467  17.016  1.00  0.00     0.132 A 
HETATM    2  N2  UNL     1     -33.273 -57.577  15.845  1.00  0.00    -0.292 N 
ATOM      3  H2  UNL     1     -32.354 -58.017  15.788  1.00  0.00     0.172 HD
HETATM    4  C2  UNL     1     -33.885 -57.079  14.755  1.00  0.00     0.343 A 
HETATM    5  O1  UNL     1     -33.237 -57.198  13.661  1.00  0.00    -0.245 OA
HETATM    6  N3  UNL     1     -35.089 -56.495  14.786  1.00  0.00    -0.233 N 
HETATM    7  N5  UNL     1     -35.698 -56.407  15.948  1.00  0.00    -0.290 N 
ATOM      8  H5  UNL     1     -36.617 -55.964  15.982  1.00  0.00     0.187 HD
HETATM    9  C9  UNL     1     -35.171 -56.873  17.095  1.00  0.00     0.124 A 
ENDROOT
BRANCH   6  10
HETATM   10  C3  UNL     1     -35.628 -56.007  13.540  1.00  0.00     0.171 C 
HETATM   11  C4  UNL     1     -36.216 -54.633  13.796  1.00  0.00     0.202 C 
HETATM   12  O2  UNL     1     -37.034 -54.473  12.680  1.00  0.00    -0.348 OA
HETATM   13  C5  UNL     1     -37.643 -55.674  12.432  1.00  0.00     0.225 C 
HETATM   14  C8  UNL     1     -36.876 -56.760  13.127  1.00  0.00     0.210 C 
BRANCH  13  15
HETATM   15  O3  UNL     1     -37.628 -55.899  11.052  1.00  0.00    -0.361 OA
ATOM     16  H3  UNL     1     -38.512 -56.101  10.771  1.00  0.00     0.213 HD
ENDBRANCH  13  15
BRANCH  13  17
HETATM   17  C6  UNL     1     -39.081 -55.584  12.927  1.00  0.00     0.272 C 
BRANCH  17  18
HETATM   18  O4  UNL     1     -39.377 -56.599  13.801  1.00  0.00    -0.381 OA
ATOM     19  H4  UNL     1     -39.709 -56.263  14.625  1.00  0.00     0.210 HD
ENDBRANCH  17  18
BRANCH  17  20
HETATM   20  C7  UNL     1     -39.965 -55.538  11.748  1.00  0.00     0.265 C 
HETATM   21  N4  UNL     1     -40.340 -56.731  11.086  1.00  0.00    -0.060 NA
HETATM   22  O5  UNL     1     -40.381 -54.436  11.341  1.00  0.00    -0.274 OA
ENDBRANCH  17  20
ENDBRANCH  13  17
BRANCH  14  23
HETATM   23  O6  UNL     1     -36.484 -57.747  12.234  1.00  0.00    -0.388 OA
ATOM     24  H6  UNL     1     -36.308 -58.531  12.742  1.00  0.00     0.210 HD
ENDBRANCH  14  23
ENDBRANCH   6  10
BRANCH   9  25
HETATM   25  C10 UNL     1     -35.915 -56.742  18.392  1.00  0.00     0.310 C 
BRANCH  25  26
HETATM   26  O7  UNL     1     -36.434 -57.993  18.772  1.00  0.00    -0.366 OA
ATOM     27  H7  UNL     1     -37.360 -58.034  18.564  1.00  0.00     0.213 HD
ENDBRANCH  25  26
BRANCH  25  28
HETATM   28  O8  UNL     1     -36.931 -55.823  18.311  1.00  0.00    -0.366 OA
ATOM     29  H8  UNL     1     -37.768 -56.232  18.127  1.00  0.00     0.213 HD
ENDBRANCH  25  28
ENDBRANCH   9  25
BRANCH   1  30
HETATM   30  N1  UNL     1     -33.421 -57.916  18.126  1.00  0.00    -0.384 N 
ATOM     31  H12 UNL     1     -33.125 -58.893  18.135  1.00  0.00     0.157 HD
ATOM     32  H11 UNL     1     -33.322 -57.321  18.949  1.00  0.00     0.157 HD
ENDBRANCH   1  30
TORSDOF 10
ENDMDL
