MODEL 1
REMARK VINA RESULT: -8.950055022      0.000      0.000
REMARK  16 active torsions:
REMARK  status: ('A' for Active; 'I' for Inactive)
REMARK    1  A    between atoms: C2_2  and  C3_3 
REMARK    2  A    between atoms: C2_2  and  C13_17 
REMARK    3  A    between atoms: C3_3  and  C4_4 
REMARK    4  A    between atoms: C4_4  and  C5_5 
REMARK    5  A    between atoms: C5_5  and  C6_6 
REMARK    6  A    between atoms: C6_6  and  O1_7 
REMARK    7  A    between atoms: O1_7  and  C7_8 
REMARK    8  A    between atoms: C7_8  and  C8_10 
REMARK    9  A    between atoms: C9_11  and  C10_12 
REMARK   10  A    between atoms: C11_13  and  C12_14 
REMARK   11  A    between atoms: C16_20  and  O5_21 
REMARK   12  A    between atoms: O5_21  and  C17_22 
REMARK   13  A    between atoms: C17_22  and  C18_24 
REMARK   14  A    between atoms: C18_24  and  C19_25 
REMARK   15  A    between atoms: C20_26  and  C22_28 
REMARK   16  A    between atoms: C23_29  and  C24_30 
ROOT
HETATM    1  C13 UNL     1     -48.514  -2.036  58.297  1.00  0.00     0.150 C 
HETATM    2  C14 UNL     1     -49.485  -2.865  57.528  1.00  0.00     0.046 C 
HETATM    3  C15 UNL     1     -50.788  -2.431  58.218  1.00  0.00     0.047 C 
HETATM    4  C16 UNL     1     -52.000  -2.747  57.440  1.00  0.00     0.139 C 
HETATM    5  C27 UNL     1     -52.887  -1.564  57.156  1.00  0.00     0.037 C 
HETATM    6  C28 UNL     1     -52.161  -0.383  56.609  1.00  0.00    -0.014 C 
HETATM    7  C29 UNL     1     -52.067  -0.450  55.079  1.00  0.00     0.010 C 
HETATM    8  C30 UNL     1     -50.833  -0.117  57.224  1.00  0.00     0.037 C 
HETATM    9  C31 UNL     1     -50.502  -0.976  58.404  1.00  0.00     0.129 C 
HETATM   10  O7  UNL     1     -49.161  -0.870  58.670  1.00  0.00    -0.376 OA
ENDROOT
BRANCH   1  11
HETATM   11  C2  UNL     1     -47.205  -1.860  57.667  1.00  0.00    -0.061 C 
HETATM   12  C1  UNL     1     -47.101  -1.776  56.352  1.00  0.00     0.017 C 
BRANCH  11  13
HETATM   13  C3  UNL     1     -45.934  -1.772  58.454  1.00  0.00     0.036 C 
BRANCH  13  14
HETATM   14  C4  UNL     1     -45.993  -2.671  59.698  1.00  0.00     0.006 C 
BRANCH  14  15
HETATM   15  C5  UNL     1     -44.817  -3.581  59.740  1.00  0.00     0.027 C 
BRANCH  15  16
HETATM   16  C6  UNL     1     -45.064  -5.000  60.092  1.00  0.00     0.179 C 
BRANCH  16  17
HETATM   17  O1  UNL     1     -44.039  -5.863  59.993  1.00  0.00    -0.318 OA
BRANCH  17  18
HETATM   18  C7  UNL     1     -42.783  -5.980  60.436  1.00  0.00     0.282 C 
HETATM   19  O2  UNL     1     -42.630  -6.306  61.675  1.00  0.00    -0.260 OA
BRANCH  18  20
HETATM   20  C8  UNL     1     -41.631  -5.764  59.604  1.00  0.00     0.082 C 
HETATM   21  C9  UNL     1     -40.958  -4.665  59.462  1.00  0.00     0.006 C 
BRANCH  21  22
HETATM   22  C10 UNL     1     -41.165  -3.378  60.079  1.00  0.00     0.007 C 
HETATM   23  C11 UNL     1     -41.011  -3.234  61.404  1.00  0.00     0.084 C 
BRANCH  23  24
HETATM   24  C12 UNL     1     -41.219  -1.945  62.015  1.00  0.00     0.198 C 
HETATM   25  O3  UNL     1     -42.217  -1.232  61.680  1.00  0.00    -0.645 OA
HETATM   26  O4  UNL     1     -40.343  -1.456  62.974  1.00  0.00    -0.645 OA
ENDBRANCH  23  24
ENDBRANCH  21  22
ENDBRANCH  18  20
ENDBRANCH  17  18
ENDBRANCH  16  17
ENDBRANCH  15  16
ENDBRANCH  14  15
ENDBRANCH  13  14
ENDBRANCH  11  13
ENDBRANCH   1  11
BRANCH   4  27
HETATM   27  O5  UNL     1     -52.803  -3.666  58.182  1.00  0.00    -0.315 OA
BRANCH  27  28
HETATM   28  C17 UNL     1     -53.865  -4.345  57.642  1.00  0.00     0.262 C 
HETATM   29  O6  UNL     1     -53.630  -5.274  56.834  1.00  0.00    -0.265 OA
BRANCH  28  30
HETATM   30  C18 UNL     1     -55.238  -3.942  58.043  1.00  0.00     0.139 C 
BRANCH  30  31
HETATM   31  C19 UNL     1     -55.426  -4.335  59.446  1.00  0.00    -0.001 C 
HETATM   32  C20 UNL     1     -55.638  -3.405  60.352  1.00  0.00    -0.012 C 
HETATM   33  C21 UNL     1     -55.686  -1.979  59.954  1.00  0.00     0.058 C 
BRANCH  32  34
HETATM   34  C22 UNL     1     -55.814  -3.824  61.709  1.00  0.00    -0.072 C 
HETATM   35  C23 UNL     1     -55.943  -4.171  62.856  1.00  0.00    -0.097 C 
BRANCH  35  36
HETATM   36  C24 UNL     1     -56.078  -4.580  64.267  1.00  0.00     0.065 A 
HETATM   37  C25 UNL     1     -57.429  -5.185  64.683  1.00  0.00     0.018 A 
HETATM   38  C26 UNL     1     -57.029  -3.799  65.113  1.00  0.00     0.018 A 
ENDBRANCH  35  36
ENDBRANCH  32  34
ENDBRANCH  30  31
ENDBRANCH  28  30
ENDBRANCH  27  28
ENDBRANCH   4  27
TORSDOF 16
ENDMDL
MODEL 2
REMARK VINA RESULT: -8.852163617      2.438      3.197
REMARK  16 active torsions:
REMARK  status: ('A' for Active; 'I' for Inactive)
REMARK    1  A    between atoms: C2_2  and  C3_3 
REMARK    2  A    between atoms: C2_2  and  C13_17 
REMARK    3  A    between atoms: C3_3  and  C4_4 
REMARK    4  A    between atoms: C4_4  and  C5_5 
REMARK    5  A    between atoms: C5_5  and  C6_6 
REMARK    6  A    between atoms: C6_6  and  O1_7 
REMARK    7  A    between atoms: O1_7  and  C7_8 
REMARK    8  A    between atoms: C7_8  and  C8_10 
REMARK    9  A    between atoms: C9_11  and  C10_12 
REMARK   10  A    between atoms: C11_13  and  C12_14 
REMARK   11  A    between atoms: C16_20  and  O5_21 
REMARK   12  A    between atoms: O5_21  and  C17_22 
REMARK   13  A    between atoms: C17_22  and  C18_24 
REMARK   14  A    between atoms: C18_24  and  C19_25 
REMARK   15  A    between atoms: C20_26  and  C22_28 
REMARK   16  A    between atoms: C23_29  and  C24_30 
ROOT
HETATM    1  C13 UNL     1     -49.614  -1.982  57.977  1.00  0.00     0.150 C 
HETATM    2  C14 UNL     1     -50.881  -2.590  57.481  1.00  0.00     0.046 C 
HETATM    3  C15 UNL     1     -51.887  -1.828  58.360  1.00  0.00     0.047 C 
HETATM    4  C16 UNL     1     -53.271  -1.882  57.854  1.00  0.00     0.139 C 
HETATM    5  C27 UNL     1     -53.908  -0.535  57.634  1.00  0.00     0.037 C 
HETATM    6  C28 UNL     1     -53.062   0.413  56.856  1.00  0.00    -0.014 C 
HETATM    7  C29 UNL     1     -53.298   0.257  55.347  1.00  0.00     0.010 C 
HETATM    8  C30 UNL     1     -51.612   0.382  57.185  1.00  0.00     0.037 C 
HETATM    9  C31 UNL     1     -51.250  -0.476  58.356  1.00  0.00     0.129 C 
HETATM   10  O7  UNL     1     -49.895  -0.681  58.356  1.00  0.00    -0.376 OA
ENDROOT
BRANCH   1  11
HETATM   11  C2  UNL     1     -48.455  -2.151  57.100  1.00  0.00    -0.061 C 
HETATM   12  C1  UNL     1     -48.605  -2.627  55.876  1.00  0.00     0.017 C 
BRANCH  11  13
HETATM   13  C3  UNL     1     -47.061  -1.809  57.529  1.00  0.00     0.036 C 
BRANCH  13  14
HETATM   14  C4  UNL     1     -46.786  -2.303  58.957  1.00  0.00     0.006 C 
BRANCH  14  15
HETATM   15  C5  UNL     1     -45.449  -1.843  59.420  1.00  0.00     0.027 C 
BRANCH  15  16
HETATM   16  C6  UNL     1     -44.634  -2.797  60.207  1.00  0.00     0.179 C 
BRANCH  16  17
HETATM   17  O1  UNL     1     -44.491  -4.046  59.734  1.00  0.00    -0.318 OA
BRANCH  17  18
HETATM   18  C7  UNL     1     -44.688  -5.302  60.148  1.00  0.00     0.282 C 
HETATM   19  O2  UNL     1     -45.886  -5.616  60.507  1.00  0.00    -0.260 OA
BRANCH  18  20
HETATM   20  C8  UNL     1     -43.642  -6.287  60.204  1.00  0.00     0.082 C 
HETATM   21  C9  UNL     1     -42.430  -6.124  60.634  1.00  0.00     0.006 C 
BRANCH  21  22
HETATM   22  C10 UNL     1     -41.796  -4.942  61.164  1.00  0.00     0.007 C 
HETATM   23  C11 UNL     1     -41.153  -4.098  60.343  1.00  0.00     0.084 C 
BRANCH  23  24
HETATM   24  C12 UNL     1     -40.522  -2.918  60.877  1.00  0.00     0.198 C 
HETATM   25  O3  UNL     1     -41.230  -1.958  61.318  1.00  0.00    -0.645 OA
HETATM   26  O4  UNL     1     -39.140  -2.800  60.921  1.00  0.00    -0.645 OA
ENDBRANCH  23  24
ENDBRANCH  21  22
ENDBRANCH  18  20
ENDBRANCH  17  18
ENDBRANCH  16  17
ENDBRANCH  15  16
ENDBRANCH  14  15
ENDBRANCH  13  14
ENDBRANCH  11  13
ENDBRANCH   1  11
BRANCH   4  27
HETATM   27  O5  UNL     1     -54.092  -2.549  58.813  1.00  0.00    -0.315 OA
BRANCH  27  28
HETATM   28  C17 UNL     1     -55.282  -3.151  58.497  1.00  0.00     0.262 C 
HETATM   29  O6  UNL     1     -56.337  -2.679  58.982  1.00  0.00    -0.265 OA
BRANCH  28  30
HETATM   30  C18 UNL     1     -55.259  -4.333  57.597  1.00  0.00     0.139 C 
BRANCH  30  31
HETATM   31  C19 UNL     1     -55.124  -5.530  58.438  1.00  0.00    -0.001 C 
HETATM   32  C20 UNL     1     -54.665  -6.643  57.905  1.00  0.00    -0.012 C 
HETATM   33  C21 UNL     1     -54.291  -6.679  56.473  1.00  0.00     0.058 C 
BRANCH  32  34
HETATM   34  C22 UNL     1     -54.549  -7.790  58.753  1.00  0.00    -0.072 C 
HETATM   35  C23 UNL     1     -54.444  -8.744  59.483  1.00  0.00    -0.097 C 
BRANCH  35  36
HETATM   36  C24 UNL     1     -54.309  -9.894  60.397  1.00  0.00     0.065 A 
HETATM   37  C25 UNL     1     -55.242 -11.089  60.142  1.00  0.00     0.018 A 
HETATM   38  C26 UNL     1     -55.455 -10.169  61.315  1.00  0.00     0.018 A 
ENDBRANCH  35  36
ENDBRANCH  32  34
ENDBRANCH  30  31
ENDBRANCH  28  30
ENDBRANCH  27  28
ENDBRANCH   4  27
TORSDOF 16
ENDMDL
MODEL 3
REMARK VINA RESULT: -8.811615641      2.876      3.618
REMARK  16 active torsions:
REMARK  status: ('A' for Active; 'I' for Inactive)
REMARK    1  A    between atoms: C2_2  and  C3_3 
REMARK    2  A    between atoms: C2_2  and  C13_17 
REMARK    3  A    between atoms: C3_3  and  C4_4 
REMARK    4  A    between atoms: C4_4  and  C5_5 
REMARK    5  A    between atoms: C5_5  and  C6_6 
REMARK    6  A    between atoms: C6_6  and  O1_7 
REMARK    7  A    between atoms: O1_7  and  C7_8 
REMARK    8  A    between atoms: C7_8  and  C8_10 
REMARK    9  A    between atoms: C9_11  and  C10_12 
REMARK   10  A    between atoms: C11_13  and  C12_14 
REMARK   11  A    between atoms: C16_20  and  O5_21 
REMARK   12  A    between atoms: O5_21  and  C17_22 
REMARK   13  A    between atoms: C17_22  and  C18_24 
REMARK   14  A    between atoms: C18_24  and  C19_25 
REMARK   15  A    between atoms: C20_26  and  C22_28 
REMARK   16  A    between atoms: C23_29  and  C24_30 
ROOT
HETATM    1  C13 UNL     1     -49.519  -2.468  57.769  1.00  0.00     0.150 C 
HETATM    2  C14 UNL     1     -50.281  -2.825  56.539  1.00  0.00     0.046 C 
HETATM    3  C15 UNL     1     -51.713  -2.651  57.071  1.00  0.00     0.047 C 
HETATM    4  C16 UNL     1     -52.726  -2.527  56.006  1.00  0.00     0.139 C 
HETATM    5  C27 UNL     1     -53.573  -1.285  56.092  1.00  0.00     0.037 C 
HETATM    6  C28 UNL     1     -52.788  -0.031  56.269  1.00  0.00    -0.014 C 
HETATM    7  C29 UNL     1     -52.377   0.562  54.914  1.00  0.00     0.010 C 
HETATM    8  C30 UNL     1     -51.627  -0.137  57.191  1.00  0.00     0.037 C 
HETATM    9  C31 UNL     1     -51.521  -1.439  57.922  1.00  0.00     0.129 C 
HETATM   10  O7  UNL     1     -50.268  -1.540  58.471  1.00  0.00    -0.376 OA
ENDROOT
BRANCH   1  11
HETATM   11  C2  UNL     1     -48.115  -2.119  57.556  1.00  0.00    -0.061 C 
HETATM   12  C1  UNL     1     -47.609  -2.097  56.334  1.00  0.00     0.017 C 
BRANCH  11  13
HETATM   13  C3  UNL     1     -47.186  -1.779  58.680  1.00  0.00     0.036 C 
BRANCH  13  14
HETATM   14  C4  UNL     1     -45.721  -1.863  58.230  1.00  0.00     0.006 C 
BRANCH  14  15
HETATM   15  C5  UNL     1     -44.807  -1.688  59.391  1.00  0.00     0.027 C 
BRANCH  15  16
HETATM   16  C6  UNL     1     -44.650  -2.835  60.316  1.00  0.00     0.179 C 
BRANCH  16  17
HETATM   17  O1  UNL     1     -44.493  -4.058  59.785  1.00  0.00    -0.318 OA
BRANCH  17  18
HETATM   18  C7  UNL     1     -44.650  -5.336  60.148  1.00  0.00     0.282 C 
HETATM   19  O2  UNL     1     -45.841  -5.708  60.474  1.00  0.00    -0.260 OA
BRANCH  18  20
HETATM   20  C8  UNL     1     -43.568  -6.282  60.187  1.00  0.00     0.082 C 
HETATM   21  C9  UNL     1     -42.298  -6.026  60.196  1.00  0.00     0.006 C 
BRANCH  21  22
HETATM   22  C10 UNL     1     -41.619  -4.753  60.170  1.00  0.00     0.007 C 
HETATM   23  C11 UNL     1     -41.309  -4.133  61.319  1.00  0.00     0.084 C 
BRANCH  23  24
HETATM   24  C12 UNL     1     -40.631  -2.862  61.288  1.00  0.00     0.198 C 
HETATM   25  O3  UNL     1     -41.274  -1.789  61.517  1.00  0.00    -0.645 OA
HETATM   26  O4  UNL     1     -39.274  -2.778  61.010  1.00  0.00    -0.645 OA
ENDBRANCH  23  24
ENDBRANCH  21  22
ENDBRANCH  18  20
ENDBRANCH  17  18
ENDBRANCH  16  17
ENDBRANCH  15  16
ENDBRANCH  14  15
ENDBRANCH  13  14
ENDBRANCH  11  13
ENDBRANCH   1  11
BRANCH   4  27
HETATM   27  O5  UNL     1     -53.635  -3.626  56.098  1.00  0.00    -0.315 OA
BRANCH  27  28
HETATM   28  C17 UNL     1     -53.978  -4.410  55.028  1.00  0.00     0.262 C 
HETATM   29  O6  UNL     1     -54.779  -3.949  54.182  1.00  0.00    -0.265 OA
BRANCH  28  30
HETATM   30  C18 UNL     1     -53.384  -5.769  54.929  1.00  0.00     0.139 C 
BRANCH  30  31
HETATM   31  C19 UNL     1     -53.883  -6.557  56.064  1.00  0.00    -0.001 C 
HETATM   32  C20 UNL     1     -53.719  -7.863  56.063  1.00  0.00    -0.012 C 
HETATM   33  C21 UNL     1     -53.037  -8.523  54.925  1.00  0.00     0.058 C 
BRANCH  32  34
HETATM   34  C22 UNL     1     -54.220  -8.599  57.183  1.00  0.00    -0.072 C 
HETATM   35  C23 UNL     1     -54.624  -9.214  58.138  1.00  0.00    -0.097 C 
BRANCH  35  36
HETATM   36  C24 UNL     1     -55.098  -9.955  59.322  1.00  0.00     0.065 A 
HETATM   37  C25 UNL     1     -55.473  -9.116  60.555  1.00  0.00     0.018 A 
HETATM   38  C26 UNL     1     -54.217  -9.946  60.527  1.00  0.00     0.018 A 
ENDBRANCH  35  36
ENDBRANCH  32  34
ENDBRANCH  30  31
ENDBRANCH  28  30
ENDBRANCH  27  28
ENDBRANCH   4  27
TORSDOF 16
ENDMDL
MODEL 4
REMARK VINA RESULT: -8.777464010      3.600      6.953
REMARK  16 active torsions:
REMARK  status: ('A' for Active; 'I' for Inactive)
REMARK    1  A    between atoms: C2_2  and  C3_3 
REMARK    2  A    between atoms: C2_2  and  C13_17 
REMARK    3  A    between atoms: C3_3  and  C4_4 
REMARK    4  A    between atoms: C4_4  and  C5_5 
REMARK    5  A    between atoms: C5_5  and  C6_6 
REMARK    6  A    between atoms: C6_6  and  O1_7 
REMARK    7  A    between atoms: O1_7  and  C7_8 
REMARK    8  A    between atoms: C7_8  and  C8_10 
REMARK    9  A    between atoms: C9_11  and  C10_12 
REMARK   10  A    between atoms: C11_13  and  C12_14 
REMARK   11  A    between atoms: C16_20  and  O5_21 
REMARK   12  A    between atoms: O5_21  and  C17_22 
REMARK   13  A    between atoms: C17_22  and  C18_24 
REMARK   14  A    between atoms: C18_24  and  C19_25 
REMARK   15  A    between atoms: C20_26  and  C22_28 
REMARK   16  A    between atoms: C23_29  and  C24_30 
ROOT
HETATM    1  C13 UNL     1     -48.950  -2.591  57.207  1.00  0.00     0.150 C 
HETATM    2  C14 UNL     1     -49.763  -2.135  56.045  1.00  0.00     0.046 C 
HETATM    3  C15 UNL     1     -51.159  -2.555  56.534  1.00  0.00     0.047 C 
HETATM    4  C16 UNL     1     -52.260  -1.891  55.812  1.00  0.00     0.139 C 
HETATM    5  C27 UNL     1     -53.229  -1.152  56.696  1.00  0.00     0.037 C 
HETATM    6  C28 UNL     1     -52.576  -0.244  57.682  1.00  0.00    -0.014 C 
HETATM    7  C29 UNL     1     -52.341   1.148  57.081  1.00  0.00     0.010 C 
HETATM    8  C30 UNL     1     -51.340  -0.781  58.311  1.00  0.00     0.037 C 
HETATM    9  C31 UNL     1     -51.034  -2.208  57.981  1.00  0.00     0.129 C 
HETATM   10  O7  UNL     1     -49.739  -2.479  58.340  1.00  0.00    -0.376 OA
ENDROOT
BRANCH   1  11
HETATM   11  C2  UNL     1     -47.614  -2.003  57.305  1.00  0.00    -0.061 C 
HETATM   12  C1  UNL     1     -46.928  -1.715  56.213  1.00  0.00     0.017 C 
BRANCH  11  13
HETATM   13  C3  UNL     1     -46.956  -1.704  58.617  1.00  0.00     0.036 C 
BRANCH  13  14
HETATM   14  C4  UNL     1     -46.005  -2.837  59.029  1.00  0.00     0.006 C 
BRANCH  14  15
HETATM   15  C5  UNL     1     -45.243  -2.462  60.250  1.00  0.00     0.027 C 
BRANCH  15  16
HETATM   16  C6  UNL     1     -44.216  -1.402  60.116  1.00  0.00     0.179 C 
BRANCH  16  17
HETATM   17  O1  UNL     1     -42.925  -1.759  60.207  1.00  0.00    -0.318 OA
BRANCH  17  18
HETATM   18  C7  UNL     1     -42.071  -2.201  61.136  1.00  0.00     0.282 C 
HETATM   19  O2  UNL     1     -42.244  -1.769  62.339  1.00  0.00    -0.260 OA
BRANCH  18  20
HETATM   20  C8  UNL     1     -40.998  -3.114  60.850  1.00  0.00     0.082 C 
HETATM   21  C9  UNL     1     -41.082  -4.269  60.268  1.00  0.00     0.006 C 
BRANCH  21  22
HETATM   22  C10 UNL     1     -42.243  -4.954  59.754  1.00  0.00     0.007 C 
HETATM   23  C11 UNL     1     -43.102  -5.548  60.596  1.00  0.00     0.084 C 
BRANCH  23  24
HETATM   24  C12 UNL     1     -44.260  -6.231  60.076  1.00  0.00     0.198 C 
HETATM   25  O3  UNL     1     -44.122  -7.175  59.236  1.00  0.00    -0.645 OA
HETATM   26  O4  UNL     1     -45.541  -5.877  60.477  1.00  0.00    -0.645 OA
ENDBRANCH  23  24
ENDBRANCH  21  22
ENDBRANCH  18  20
ENDBRANCH  17  18
ENDBRANCH  16  17
ENDBRANCH  15  16
ENDBRANCH  14  15
ENDBRANCH  13  14
ENDBRANCH  11  13
ENDBRANCH   1  11
BRANCH   4  27
HETATM   27  O5  UNL     1     -53.032  -2.880  55.129  1.00  0.00    -0.315 OA
BRANCH  27  28
HETATM   28  C17 UNL     1     -53.005  -3.050  53.769  1.00  0.00     0.262 C 
HETATM   29  O6  UNL     1     -52.426  -4.061  53.306  1.00  0.00    -0.265 OA
BRANCH  28  30
HETATM   30  C18 UNL     1     -53.661  -2.026  52.916  1.00  0.00     0.139 C 
BRANCH  30  31
HETATM   31  C19 UNL     1     -52.611  -1.360  52.132  1.00  0.00    -0.001 C 
HETATM   32  C20 UNL     1     -52.365  -0.084  52.339  1.00  0.00    -0.012 C 
HETATM   33  C21 UNL     1     -53.141   0.666  53.353  1.00  0.00     0.058 C 
BRANCH  32  34
HETATM   34  C22 UNL     1     -51.337   0.532  51.556  1.00  0.00    -0.072 C 
HETATM   35  C23 UNL     1     -50.457   1.039  50.907  1.00  0.00    -0.097 C 
BRANCH  35  36
HETATM   36  C24 UNL     1     -49.362   1.640  50.123  1.00  0.00     0.065 A 
HETATM   37  C25 UNL     1     -48.490   0.675  49.303  1.00  0.00     0.018 A 
HETATM   38  C26 UNL     1     -47.966   1.328  50.554  1.00  0.00     0.018 A 
ENDBRANCH  35  36
ENDBRANCH  32  34
ENDBRANCH  30  31
ENDBRANCH  28  30
ENDBRANCH  27  28
ENDBRANCH   4  27
TORSDOF 16
ENDMDL
MODEL 5
REMARK VINA RESULT: -8.691513877      2.210      2.800
REMARK  16 active torsions:
REMARK  status: ('A' for Active; 'I' for Inactive)
REMARK    1  A    between atoms: C2_2  and  C3_3 
REMARK    2  A    between atoms: C2_2  and  C13_17 
REMARK    3  A    between atoms: C3_3  and  C4_4 
REMARK    4  A    between atoms: C4_4  and  C5_5 
REMARK    5  A    between atoms: C5_5  and  C6_6 
REMARK    6  A    between atoms: C6_6  and  O1_7 
REMARK    7  A    between atoms: O1_7  and  C7_8 
REMARK    8  A    between atoms: C7_8  and  C8_10 
REMARK    9  A    between atoms: C9_11  and  C10_12 
REMARK   10  A    between atoms: C11_13  and  C12_14 
REMARK   11  A    between atoms: C16_20  and  O5_21 
REMARK   12  A    between atoms: O5_21  and  C17_22 
REMARK   13  A    between atoms: C17_22  and  C18_24 
REMARK   14  A    between atoms: C18_24  and  C19_25 
REMARK   15  A    between atoms: C20_26  and  C22_28 
REMARK   16  A    between atoms: C23_29  and  C24_30 
ROOT
HETATM    1  C13 UNL     1     -49.775  -1.737  58.273  1.00  0.00     0.150 C 
HETATM    2  C14 UNL     1     -50.898  -2.704  58.112  1.00  0.00     0.046 C 
HETATM    3  C15 UNL     1     -52.084  -1.749  58.325  1.00  0.00     0.047 C 
HETATM    4  C16 UNL     1     -53.367  -2.286  57.833  1.00  0.00     0.139 C 
HETATM    5  C27 UNL     1     -54.074  -1.400  56.842  1.00  0.00     0.037 C 
HETATM    6  C28 UNL     1     -53.204  -0.920  55.732  1.00  0.00    -0.014 C 
HETATM    7  C29 UNL     1     -53.196  -1.916  54.564  1.00  0.00     0.010 C 
HETATM    8  C30 UNL     1     -51.823  -0.541  56.131  1.00  0.00     0.037 C 
HETATM    9  C31 UNL     1     -51.571  -0.544  57.606  1.00  0.00     0.129 C 
HETATM   10  O7  UNL     1     -50.218  -0.503  57.827  1.00  0.00    -0.376 OA
ENDROOT
BRANCH   1  11
HETATM   11  C2  UNL     1     -48.487  -2.179  57.738  1.00  0.00    -0.061 C 
HETATM   12  C1  UNL     1     -48.352  -2.443  56.450  1.00  0.00     0.017 C 
BRANCH  11  13
HETATM   13  C3  UNL     1     -47.274  -2.359  58.598  1.00  0.00     0.036 C 
BRANCH  13  14
HETATM   14  C4  UNL     1     -46.028  -1.767  57.924  1.00  0.00     0.006 C 
BRANCH  14  15
HETATM   15  C5  UNL     1     -44.876  -1.764  58.867  1.00  0.00     0.027 C 
BRANCH  15  16
HETATM   16  C6  UNL     1     -44.879  -2.774  59.952  1.00  0.00     0.179 C 
BRANCH  16  17
HETATM   17  O1  UNL     1     -44.497  -4.025  59.651  1.00  0.00    -0.318 OA
BRANCH  17  18
HETATM   18  C7  UNL     1     -44.712  -5.270  60.089  1.00  0.00     0.282 C 
HETATM   19  O2  UNL     1     -45.918  -5.566  60.437  1.00  0.00    -0.260 OA
BRANCH  18  20
HETATM   20  C8  UNL     1     -43.677  -6.264  60.182  1.00  0.00     0.082 C 
HETATM   21  C9  UNL     1     -42.475  -6.107  60.642  1.00  0.00     0.006 C 
BRANCH  21  22
HETATM   22  C10 UNL     1     -41.846  -4.925  61.178  1.00  0.00     0.007 C 
HETATM   23  C11 UNL     1     -41.255  -4.046  60.354  1.00  0.00     0.084 C 
BRANCH  23  24
HETATM   24  C12 UNL     1     -40.628  -2.866  60.895  1.00  0.00     0.198 C 
HETATM   25  O3  UNL     1     -41.338  -1.888  61.288  1.00  0.00    -0.645 OA
HETATM   26  O4  UNL     1     -39.247  -2.770  60.996  1.00  0.00    -0.645 OA
ENDBRANCH  23  24
ENDBRANCH  21  22
ENDBRANCH  18  20
ENDBRANCH  17  18
ENDBRANCH  16  17
ENDBRANCH  15  16
ENDBRANCH  14  15
ENDBRANCH  13  14
ENDBRANCH  11  13
ENDBRANCH   1  11
BRANCH   4  27
HETATM   27  O5  UNL     1     -54.264  -2.432  58.935  1.00  0.00    -0.315 OA
BRANCH  27  28
HETATM   28  C17 UNL     1     -54.573  -3.642  59.500  1.00  0.00     0.262 C 
HETATM   29  O6  UNL     1     -53.980  -4.664  59.081  1.00  0.00    -0.265 OA
BRANCH  28  30
HETATM   30  C18 UNL     1     -55.596  -3.678  60.577  1.00  0.00     0.139 C 
BRANCH  30  31
HETATM   31  C19 UNL     1     -56.127  -5.047  60.640  1.00  0.00    -0.001 C 
HETATM   32  C20 UNL     1     -56.461  -5.554  61.808  1.00  0.00    -0.012 C 
HETATM   33  C21 UNL     1     -56.301  -4.748  63.040  1.00  0.00     0.058 C 
BRANCH  32  34
HETATM   34  C22 UNL     1     -56.973  -6.891  61.832  1.00  0.00    -0.072 C 
HETATM   35  C23 UNL     1     -57.407  -8.015  61.831  1.00  0.00    -0.097 C 
BRANCH  35  36
HETATM   36  C24 UNL     1     -57.936  -9.392  61.803  1.00  0.00     0.065 A 
HETATM   37  C25 UNL     1     -56.900 -10.528  61.784  1.00  0.00     0.018 A 
HETATM   38  C26 UNL     1     -57.704 -10.183  60.558  1.00  0.00     0.018 A 
ENDBRANCH  35  36
ENDBRANCH  32  34
ENDBRANCH  30  31
ENDBRANCH  28  30
ENDBRANCH  27  28
ENDBRANCH   4  27
TORSDOF 16
ENDMDL
