MODEL 1
REMARK VINA RESULT: -5.039302127      0.000      0.000
REMARK  5 active torsions:
REMARK  status: ('A' for Active; 'I' for Inactive)
REMARK       I    between atoms: C1_4  and  N3_6 
REMARK    1  A    between atoms: N4_9  and  C4_10 
REMARK    2  A    between atoms: C4_10  and  C5_11 
REMARK    3  A    between atoms: C5_11  and  C6_12 
REMARK    4  A    between atoms: C6_12  and  C7_13 
REMARK    5  A    between atoms: C7_13  and  N5_14 
ROOT
HETATM    1  N1  UNL     1       9.021  16.362  13.281  1.00  0.00    -0.374 N 
ATOM      2  H11 UNL     1       8.374  15.722  12.820  1.00  0.00     0.158 HD
ATOM      3  H12 UNL     1       9.358  17.223  12.851  1.00  0.00     0.158 HD
HETATM    4  C1  UNL     1       9.401  16.007  14.479  1.00  0.00     0.185 C 
HETATM    5  N2  UNL     1      10.311  16.907  15.127  1.00  0.00    -0.064 NA
HETATM    6  N3  UNL     1       8.936  14.817  15.072  1.00  0.00    -0.338 N 
HETATM    7  C2  UNL     1       8.961  14.472  16.471  1.00  0.00     0.147 C 
HETATM    8  C3  UNL     1       9.275  12.950  16.376  1.00  0.00     0.143 C 
HETATM    9  N4  UNL     1       8.742  12.571  15.161  1.00  0.00    -0.376 N 
HETATM   10  C8  UNL     1       8.341  13.713  14.376  1.00  0.00     0.250 C 
ENDROOT
BRANCH   9  11
HETATM   11  C4  UNL     1       8.154  11.373  14.823  1.00  0.00     0.060 C 
BRANCH  11  12
HETATM   12  C5  UNL     1       8.674  10.184  15.528  1.00  0.00     0.046 C 
BRANCH  12  13
HETATM   13  C6  UNL     1       9.347   9.200  14.657  1.00  0.00     0.032 C 
BRANCH  13  14
HETATM   14  C7  UNL     1       9.684   9.731  13.277  1.00  0.00     0.230 C 
BRANCH  14  15
HETATM   15  N5  UNL     1       9.626   8.663  12.291  1.00  0.00    -0.079 N 
ATOM     16  H53 UNL     1      10.373   7.981  12.426  1.00  0.00     0.274 HD
ATOM     17  H52 UNL     1       8.829   8.046  12.445  1.00  0.00     0.274 HD
ATOM     18  H51 UNL     1       9.631   9.047  11.346  1.00  0.00     0.274 HD
ENDBRANCH  14  15
ENDBRANCH  13  14
ENDBRANCH  12  13
ENDBRANCH  11  12
ENDBRANCH   9  11
TORSDOF 5
ENDMDL
MODEL 2
REMARK VINA RESULT: -5.012454489      7.191      8.792
REMARK  5 active torsions:
REMARK  status: ('A' for Active; 'I' for Inactive)
REMARK       I    between atoms: C1_4  and  N3_6 
REMARK    1  A    between atoms: N4_9  and  C4_10 
REMARK    2  A    between atoms: C4_10  and  C5_11 
REMARK    3  A    between atoms: C5_11  and  C6_12 
REMARK    4  A    between atoms: C6_12  and  C7_13 
REMARK    5  A    between atoms: C7_13  and  N5_14 
ROOT
HETATM    1  N1  UNL     1      12.963  21.906  17.251  1.00  0.00    -0.374 N 
ATOM      2  H11 UNL     1      12.394  22.248  18.025  1.00  0.00     0.158 HD
ATOM      3  H12 UNL     1      13.085  22.417  16.377  1.00  0.00     0.158 HD
HETATM    4  C1  UNL     1      13.541  20.751  17.447  1.00  0.00     0.185 C 
HETATM    5  N2  UNL     1      14.341  20.270  16.358  1.00  0.00    -0.064 NA
HETATM    6  N3  UNL     1      13.373  20.044  18.654  1.00  0.00    -0.338 N 
HETATM    7  C2  UNL     1      14.197  18.978  19.163  1.00  0.00     0.147 C 
HETATM    8  C3  UNL     1      13.110  18.073  19.815  1.00  0.00     0.143 C 
HETATM    9  N4  UNL     1      12.110  18.953  20.172  1.00  0.00    -0.376 N 
HETATM   10  C8  UNL     1      12.329  20.264  19.614  1.00  0.00     0.250 C 
ENDROOT
BRANCH   9  11
HETATM   11  C4  UNL     1      11.273  18.897  21.265  1.00  0.00     0.060 C 
BRANCH  11  12
HETATM   12  C5  UNL     1      10.433  17.687  21.367  1.00  0.00     0.046 C 
BRANCH  12  13
HETATM   13  C6  UNL     1       8.987  17.929  21.193  1.00  0.00     0.032 C 
BRANCH  13  14
HETATM   14  C7  UNL     1       8.304  16.931  20.278  1.00  0.00     0.230 C 
BRANCH  14  15
HETATM   15  N5  UNL     1       9.102  16.703  19.083  1.00  0.00    -0.079 N 
ATOM     16  H53 UNL     1      10.098  16.642  19.298  1.00  0.00     0.274 HD
ATOM     17  H52 UNL     1       8.969  15.763  18.711  1.00  0.00     0.274 HD
ATOM     18  H51 UNL     1       8.910  17.419  18.382  1.00  0.00     0.274 HD
ENDBRANCH  14  15
ENDBRANCH  13  14
ENDBRANCH  12  13
ENDBRANCH  11  12
ENDBRANCH   9  11
TORSDOF 5
ENDMDL
MODEL 3
REMARK VINA RESULT: -4.827035930      7.304      8.795
REMARK  5 active torsions:
REMARK  status: ('A' for Active; 'I' for Inactive)
REMARK       I    between atoms: C1_4  and  N3_6 
REMARK    1  A    between atoms: N4_9  and  C4_10 
REMARK    2  A    between atoms: C4_10  and  C5_11 
REMARK    3  A    between atoms: C5_11  and  C6_12 
REMARK    4  A    between atoms: C6_12  and  C7_13 
REMARK    5  A    between atoms: C7_13  and  N5_14 
ROOT
HETATM    1  N1  UNL     1      12.651  21.479  18.269  1.00  0.00    -0.374 N 
ATOM      2  H11 UNL     1      12.237  21.861  19.120  1.00  0.00     0.158 HD
ATOM      3  H12 UNL     1      12.788  22.026  17.420  1.00  0.00     0.158 HD
HETATM    4  C1  UNL     1      13.003  20.223  18.333  1.00  0.00     0.185 C 
HETATM    5  N2  UNL     1      13.585  19.686  17.136  1.00  0.00    -0.064 NA
HETATM    6  N3  UNL     1      12.813  19.468  19.507  1.00  0.00    -0.338 N 
HETATM    7  C2  UNL     1      13.454  18.226  19.858  1.00  0.00     0.147 C 
HETATM    8  C3  UNL     1      12.276  17.497  20.570  1.00  0.00     0.143 C 
HETATM    9  N4  UNL     1      11.509  18.521  21.086  1.00  0.00    -0.376 N 
HETATM   10  C8  UNL     1      11.930  19.807  20.586  1.00  0.00     0.250 C 
ENDROOT
BRANCH   9  11
HETATM   11  C4  UNL     1      10.786  18.540  22.258  1.00  0.00     0.060 C 
BRANCH  11  12
HETATM   12  C5  UNL     1       9.577  17.694  22.277  1.00  0.00     0.046 C 
BRANCH  12  13
HETATM   13  C6  UNL     1       8.565  18.047  21.261  1.00  0.00     0.032 C 
BRANCH  13  14
HETATM   14  C7  UNL     1       8.080  16.868  20.441  1.00  0.00     0.230 C 
BRANCH  14  15
HETATM   15  N5  UNL     1       8.924  16.679  19.270  1.00  0.00    -0.079 N 
ATOM     16  H53 UNL     1       8.372  16.528  18.425  1.00  0.00     0.274 HD
ATOM     17  H52 UNL     1       9.390  17.544  18.995  1.00  0.00     0.274 HD
ATOM     18  H51 UNL     1       9.590  15.923  19.428  1.00  0.00     0.274 HD
ENDBRANCH  14  15
ENDBRANCH  13  14
ENDBRANCH  12  13
ENDBRANCH  11  12
ENDBRANCH   9  11
TORSDOF 5
ENDMDL
MODEL 4
REMARK VINA RESULT: -4.694006406      7.262      9.370
REMARK  5 active torsions:
REMARK  status: ('A' for Active; 'I' for Inactive)
REMARK       I    between atoms: C1_4  and  N3_6 
REMARK    1  A    between atoms: N4_9  and  C4_10 
REMARK    2  A    between atoms: C4_10  and  C5_11 
REMARK    3  A    between atoms: C5_11  and  C6_12 
REMARK    4  A    between atoms: C6_12  and  C7_13 
REMARK    5  A    between atoms: C7_13  and  N5_14 
ROOT
HETATM    1  N1  UNL     1       8.282  16.222  19.346  1.00  0.00    -0.374 N 
ATOM      2  H11 UNL     1       9.114  15.971  18.812  1.00  0.00     0.158 HD
ATOM      3  H12 UNL     1       7.345  15.898  19.109  1.00  0.00     0.158 HD
HETATM    4  C1  UNL     1       8.491  16.999  20.376  1.00  0.00     0.185 C 
HETATM    5  N2  UNL     1       7.322  17.352  21.127  1.00  0.00    -0.064 NA
HETATM    6  N3  UNL     1       9.786  17.447  20.703  1.00  0.00    -0.338 N 
HETATM    7  C2  UNL     1      10.230  17.985  21.964  1.00  0.00     0.147 C 
HETATM    8  C3  UNL     1      11.220  19.079  21.467  1.00  0.00     0.143 C 
HETATM    9  N4  UNL     1      11.676  18.596  20.258  1.00  0.00    -0.376 N 
HETATM   10  C8  UNL     1      10.919  17.449  19.822  1.00  0.00     0.250 C 
ENDROOT
BRANCH   9  11
HETATM   11  C4  UNL     1      12.926  18.739  19.698  1.00  0.00     0.060 C 
BRANCH  11  12
HETATM   12  C5  UNL     1      13.184  20.031  19.031  1.00  0.00     0.046 C 
BRANCH  12  13
HETATM   13  C6  UNL     1      13.877  19.921  17.732  1.00  0.00     0.032 C 
BRANCH  13  14
HETATM   14  C7  UNL     1      13.979  21.233  16.978  1.00  0.00     0.230 C 
BRANCH  14  15
HETATM   15  N5  UNL     1      12.746  21.995  17.111  1.00  0.00    -0.079 N 
ATOM     16  H53 UNL     1      12.927  22.993  17.220  1.00  0.00     0.274 HD
ATOM     17  H52 UNL     1      12.226  22.030  16.234  1.00  0.00     0.274 HD
ATOM     18  H51 UNL     1      12.178  21.627  17.874  1.00  0.00     0.274 HD
ENDBRANCH  14  15
ENDBRANCH  13  14
ENDBRANCH  12  13
ENDBRANCH  11  12
ENDBRANCH   9  11
TORSDOF 5
ENDMDL
MODEL 5
REMARK VINA RESULT: -4.655058419      8.667      9.226
REMARK  5 active torsions:
REMARK  status: ('A' for Active; 'I' for Inactive)
REMARK       I    between atoms: C1_4  and  N3_6 
REMARK    1  A    between atoms: N4_9  and  C4_10 
REMARK    2  A    between atoms: C4_10  and  C5_11 
REMARK    3  A    between atoms: C5_11  and  C6_12 
REMARK    4  A    between atoms: C6_12  and  C7_13 
REMARK    5  A    between atoms: C7_13  and  N5_14 
ROOT
HETATM    1  N1  UNL     1      12.917  21.912  17.219  1.00  0.00    -0.374 N 
ATOM      2  H11 UNL     1      12.385  22.286  18.004  1.00  0.00     0.158 HD
ATOM      3  H12 UNL     1      13.022  22.401  16.330  1.00  0.00     0.158 HD
HETATM    4  C1  UNL     1      13.470  20.746  17.421  1.00  0.00     0.185 C 
HETATM    5  N2  UNL     1      14.219  20.221  16.317  1.00  0.00    -0.064 NA
HETATM    6  N3  UNL     1      13.325  20.071  18.649  1.00  0.00    -0.338 N 
HETATM    7  C2  UNL     1      14.138  18.993  19.153  1.00  0.00     0.147 C 
HETATM    8  C3  UNL     1      13.051  18.133  19.862  1.00  0.00     0.143 C 
HETATM    9  N4  UNL     1      12.087  19.048  20.234  1.00  0.00    -0.376 N 
HETATM   10  C8  UNL     1      12.321  20.340  19.638  1.00  0.00     0.250 C 
ENDROOT
BRANCH   9  11
HETATM   11  C4  UNL     1      11.288  19.039  21.355  1.00  0.00     0.060 C 
BRANCH  11  12
HETATM   12  C5  UNL     1      10.628  17.754  21.660  1.00  0.00     0.046 C 
BRANCH  12  13
HETATM   13  C6  UNL     1       9.177  17.729  21.387  1.00  0.00     0.032 C 
BRANCH  13  14
HETATM   14  C7  UNL     1       8.336  17.295  22.571  1.00  0.00     0.230 C 
BRANCH  14  15
HETATM   15  N5  UNL     1       7.267  16.408  22.140  1.00  0.00    -0.079 N 
ATOM     16  H53 UNL     1       6.503  16.378  22.816  1.00  0.00     0.274 HD
ATOM     17  H52 UNL     1       6.752  16.791  21.347  1.00  0.00     0.274 HD
ATOM     18  H51 UNL     1       7.632  15.477  21.940  1.00  0.00     0.274 HD
ENDBRANCH  14  15
ENDBRANCH  13  14
ENDBRANCH  12  13
ENDBRANCH  11  12
ENDBRANCH   9  11
TORSDOF 5
ENDMDL
