MODEL 1
REMARK VINA RESULT: -4.588527396      0.000      0.000
REMARK  6 active torsions:
REMARK  status: ('A' for Active; 'I' for Inactive)
REMARK    1  A    between atoms: N1_2  and  C2_3 
REMARK    2  A    between atoms: C2_3  and  C3_4 
REMARK    3  A    between atoms: C3_4  and  N2_5 
REMARK    4  A    between atoms: C6_11  and  N3_12 
REMARK    5  A    between atoms: C6_11  and  C7_16 
REMARK    6  A    between atoms: C7_16  and  C8_17 
ROOT
HETATM    1  C1  UNL     1      12.727  17.151  21.444  1.00  0.00     0.272 C 
HETATM    2  N1  UNL     1      12.181  17.632  20.207  1.00  0.00    -0.067 N 
HETATM    3  C4  UNL     1      12.576  16.765  19.087  1.00  0.00     0.239 C 
HETATM    4  C5  UNL     1      13.875  17.326  18.574  1.00  0.00     0.068 C 
HETATM    5  C6  UNL     1      13.966  18.741  19.097  1.00  0.00     0.153 C 
HETATM    6  C9  UNL     1      12.728  18.924  19.927  1.00  0.00     0.275 C 
ENDROOT
BRANCH   5   7
HETATM    7  N3  UNL     1      15.113  18.855  19.910  1.00  0.00    -0.068 N 
ATOM      8  H33 UNL     1      15.590  17.963  20.037  1.00  0.00     0.275 HD
ATOM      9  H32 UNL     1      15.870  19.357  19.446  1.00  0.00     0.275 HD
ATOM     10  H31 UNL     1      14.848  19.284  20.797  1.00  0.00     0.275 HD
ENDBRANCH   5   7
BRANCH   5  11
HETATM   11  C7  UNL     1      13.923  19.712  17.939  1.00  0.00     0.084 C 
BRANCH  11  12
HETATM   12  C8  UNL     1      13.089  20.884  18.297  1.00  0.00     0.055 C 
HETATM   13  N4  UNL     1      12.703  21.755  17.444  1.00  0.00    -0.411 N 
ATOM     14  H42 UNL     1      12.992  21.622  16.475  1.00  0.00     0.155 HD
ATOM     15  H41 UNL     1      12.129  22.561  17.692  1.00  0.00     0.155 HD
ENDBRANCH  11  12
ENDBRANCH   5  11
BRANCH   2  16
HETATM   16  C2  UNL     1      10.742  17.660  20.190  1.00  0.00     0.264 C 
BRANCH  16  17
HETATM   17  C3  UNL     1      10.155  17.056  18.940  1.00  0.00     0.257 C 
BRANCH  17  18
HETATM   18  N2  UNL     1       8.831  16.513  19.170  1.00  0.00    -0.078 N 
ATOM     19  H23 UNL     1       8.661  15.692  18.588  1.00  0.00     0.274 HD
ATOM     20  H22 UNL     1       8.765  16.075  20.089  1.00  0.00     0.274 HD
ATOM     21  H21 UNL     1       8.103  17.216  19.041  1.00  0.00     0.274 HD
ENDBRANCH  17  18
ENDBRANCH  16  17
ENDBRANCH   2  16
TORSDOF 6
ENDMDL
MODEL 2
REMARK VINA RESULT: -4.519112395      2.473      4.075
REMARK  6 active torsions:
REMARK  status: ('A' for Active; 'I' for Inactive)
REMARK    1  A    between atoms: N1_2  and  C2_3 
REMARK    2  A    between atoms: C2_3  and  C3_4 
REMARK    3  A    between atoms: C3_4  and  N2_5 
REMARK    4  A    between atoms: C6_11  and  N3_12 
REMARK    5  A    between atoms: C6_11  and  C7_16 
REMARK    6  A    between atoms: C7_16  and  C8_17 
ROOT
HETATM    1  C1  UNL     1      12.782  17.570  18.095  1.00  0.00     0.272 C 
HETATM    2  N1  UNL     1      13.973  18.327  18.353  1.00  0.00    -0.067 N 
HETATM    3  C4  UNL     1      13.645  19.643  18.922  1.00  0.00     0.239 C 
HETATM    4  C5  UNL     1      13.475  20.566  17.746  1.00  0.00     0.068 C 
HETATM    5  C6  UNL     1      14.146  19.891  16.572  1.00  0.00     0.153 C 
HETATM    6  C9  UNL     1      14.641  18.581  17.114  1.00  0.00     0.275 C 
ENDROOT
BRANCH   5   7
HETATM    7  N3  UNL     1      13.185  19.664  15.565  1.00  0.00    -0.068 N 
ATOM      8  H33 UNL     1      12.591  18.861  15.769  1.00  0.00     0.275 HD
ATOM      9  H32 UNL     1      12.458  20.379  15.552  1.00  0.00     0.275 HD
ATOM     10  H31 UNL     1      13.661  19.576  14.667  1.00  0.00     0.275 HD
ENDBRANCH   5   7
BRANCH   5  11
HETATM   11  C7  UNL     1      15.334  20.713  16.126  1.00  0.00     0.084 C 
BRANCH  11  12
HETATM   12  C8  UNL     1      15.078  22.149  16.390  1.00  0.00     0.055 C 
HETATM   13  N4  UNL     1      15.986  22.962  16.778  1.00  0.00    -0.411 N 
ATOM     14  H42 UNL     1      16.926  22.587  16.907  1.00  0.00     0.155 HD
ATOM     15  H41 UNL     1      15.809  23.949  16.960  1.00  0.00     0.155 HD
ENDBRANCH  11  12
ENDBRANCH   5  11
BRANCH   2  16
HETATM   16  C2  UNL     1      14.855  17.701  19.303  1.00  0.00     0.264 C 
BRANCH  16  17
HETATM   17  C3  UNL     1      14.819  18.353  20.661  1.00  0.00     0.257 C 
BRANCH  17  18
HETATM   18  N2  UNL     1      16.143  18.481  21.236  1.00  0.00    -0.078 N 
ATOM     19  H23 UNL     1      16.164  18.143  22.198  1.00  0.00     0.274 HD
ATOM     20  H22 UNL     1      16.794  17.816  20.818  1.00  0.00     0.274 HD
ATOM     21  H21 UNL     1      16.496  19.436  21.171  1.00  0.00     0.274 HD
ENDBRANCH  17  18
ENDBRANCH  16  17
ENDBRANCH   2  16
TORSDOF 6
ENDMDL
MODEL 3
REMARK VINA RESULT: -4.441056804      1.317      4.189
REMARK  6 active torsions:
REMARK  status: ('A' for Active; 'I' for Inactive)
REMARK    1  A    between atoms: N1_2  and  C2_3 
REMARK    2  A    between atoms: C2_3  and  C3_4 
REMARK    3  A    between atoms: C3_4  and  N2_5 
REMARK    4  A    between atoms: C6_11  and  N3_12 
REMARK    5  A    between atoms: C6_11  and  C7_16 
REMARK    6  A    between atoms: C7_16  and  C8_17 
ROOT
HETATM    1  C1  UNL     1      14.611  18.822  20.747  1.00  0.00     0.272 C 
HETATM    2  N1  UNL     1      13.562  18.893  19.771  1.00  0.00    -0.067 N 
HETATM    3  C4  UNL     1      12.630  19.987  20.081  1.00  0.00     0.239 C 
HETATM    4  C5  UNL     1      11.576  19.386  20.971  1.00  0.00     0.068 C 
HETATM    5  C6  UNL     1      11.662  17.889  20.786  1.00  0.00     0.153 C 
HETATM    6  C9  UNL     1      12.796  17.686  19.822  1.00  0.00     0.275 C 
ENDROOT
BRANCH   5   7
HETATM    7  N3  UNL     1      11.971  17.291  22.026  1.00  0.00    -0.068 N 
ATOM      8  H33 UNL     1      12.696  16.579  21.944  1.00  0.00     0.275 HD
ATOM      9  H32 UNL     1      12.466  17.927  22.651  1.00  0.00     0.275 HD
ATOM     10  H31 UNL     1      11.113  16.927  22.440  1.00  0.00     0.275 HD
ENDBRANCH   5   7
BRANCH   5  11
HETATM   11  C7  UNL     1      10.387  17.383  20.150  1.00  0.00     0.084 C 
BRANCH  11  12
HETATM   12  C8  UNL     1      10.635  17.043  18.729  1.00  0.00     0.055 C 
HETATM   13  N4  UNL     1       9.704  16.718  17.915  1.00  0.00    -0.411 N 
ATOM     14  H42 UNL     1       8.751  16.695  18.278  1.00  0.00     0.155 HD
ATOM     15  H41 UNL     1       9.876  16.484  16.937  1.00  0.00     0.155 HD
ENDBRANCH  11  12
ENDBRANCH   5  11
BRANCH   2  16
HETATM   16  C2  UNL     1      14.038  19.153  18.437  1.00  0.00     0.264 C 
BRANCH  16  17
HETATM   17  C3  UNL     1      13.634  20.509  17.920  1.00  0.00     0.257 C 
BRANCH  17  18
HETATM   18  N2  UNL     1      13.418  20.501  16.487  1.00  0.00    -0.078 N 
ATOM     19  H23 UNL     1      14.118  21.064  16.003  1.00  0.00     0.274 HD
ATOM     20  H22 UNL     1      13.638  19.590  16.084  1.00  0.00     0.274 HD
ATOM     21  H21 UNL     1      12.472  20.794  16.243  1.00  0.00     0.274 HD
ENDBRANCH  17  18
ENDBRANCH  16  17
ENDBRANCH   2  16
TORSDOF 6
ENDMDL
MODEL 4
REMARK VINA RESULT: -4.440125118      1.801      3.669
REMARK  6 active torsions:
REMARK  status: ('A' for Active; 'I' for Inactive)
REMARK    1  A    between atoms: N1_2  and  C2_3 
REMARK    2  A    between atoms: C2_3  and  C3_4 
REMARK    3  A    between atoms: C3_4  and  N2_5 
REMARK    4  A    between atoms: C6_11  and  N3_12 
REMARK    5  A    between atoms: C6_11  and  C7_16 
REMARK    6  A    between atoms: C7_16  and  C8_17 
ROOT
HETATM    1  C1  UNL     1      12.684  20.113  22.076  1.00  0.00     0.272 C 
HETATM    2  N1  UNL     1      12.395  19.716  20.728  1.00  0.00    -0.067 N 
HETATM    3  C4  UNL     1      11.159  18.922  20.668  1.00  0.00     0.239 C 
HETATM    4  C5  UNL     1      11.583  17.490  20.855  1.00  0.00     0.068 C 
HETATM    5  C6  UNL     1      13.065  17.442  20.563  1.00  0.00     0.153 C 
HETATM    6  C9  UNL     1      13.443  18.862  20.258  1.00  0.00     0.275 C 
ENDROOT
BRANCH   5   7
HETATM    7  N3  UNL     1      13.744  16.999  21.717  1.00  0.00    -0.068 N 
ATOM      8  H33 UNL     1      13.118  16.566  22.395  1.00  0.00     0.275 HD
ATOM      9  H32 UNL     1      14.337  16.189  21.534  1.00  0.00     0.275 HD
ATOM     10  H31 UNL     1      14.266  17.780  22.114  1.00  0.00     0.275 HD
ENDBRANCH   5   7
BRANCH   5  11
HETATM   11  C7  UNL     1      13.312  16.598  19.333  1.00  0.00     0.084 C 
BRANCH  11  12
HETATM   12  C8  UNL     1      12.163  16.718  18.404  1.00  0.00     0.055 C 
HETATM   13  N4  UNL     1      12.210  17.386  17.315  1.00  0.00    -0.411 N 
ATOM     14  H42 UNL     1      13.089  17.854  17.090  1.00  0.00     0.155 HD
ATOM     15  H41 UNL     1      11.419  17.469  16.676  1.00  0.00     0.155 HD
ENDBRANCH  11  12
ENDBRANCH   5  11
BRANCH   2  16
HETATM   16  C2  UNL     1      12.188  20.827  19.835  1.00  0.00     0.264 C 
BRANCH  16  17
HETATM   17  C3  UNL     1      13.000  20.726  18.570  1.00  0.00     0.257 C 
BRANCH  17  18
HETATM   18  N2  UNL     1      12.625  21.740  17.604  1.00  0.00    -0.078 N 
ATOM     19  H23 UNL     1      12.994  22.655  17.864  1.00  0.00     0.274 HD
ATOM     20  H22 UNL     1      13.122  21.613  16.722  1.00  0.00     0.274 HD
ATOM     21  H21 UNL     1      11.616  21.774  17.459  1.00  0.00     0.274 HD
ENDBRANCH  17  18
ENDBRANCH  16  17
ENDBRANCH   2  16
TORSDOF 6
ENDMDL
MODEL 5
REMARK VINA RESULT: -4.416817961      2.067      3.862
REMARK  6 active torsions:
REMARK  status: ('A' for Active; 'I' for Inactive)
REMARK    1  A    between atoms: N1_2  and  C2_3 
REMARK    2  A    between atoms: C2_3  and  C3_4 
REMARK    3  A    between atoms: C3_4  and  N2_5 
REMARK    4  A    between atoms: C6_11  and  N3_12 
REMARK    5  A    between atoms: C6_11  and  C7_16 
REMARK    6  A    between atoms: C7_16  and  C8_17 
ROOT
HETATM    1  C1  UNL     1      12.387  19.368  20.318  1.00  0.00     0.272 C 
HETATM    2  N1  UNL     1      12.579  17.946  20.300  1.00  0.00    -0.067 N 
HETATM    3  C4  UNL     1      11.965  17.318  21.479  1.00  0.00     0.239 C 
HETATM    4  C5  UNL     1      13.031  17.312  22.541  1.00  0.00     0.068 C 
HETATM    5  C6  UNL     1      14.348  17.510  21.826  1.00  0.00     0.153 C 
HETATM    6  C9  UNL     1      13.979  17.663  20.378  1.00  0.00     0.275 C 
ENDROOT
BRANCH   5   7
HETATM    7  N3  UNL     1      14.951  18.694  22.298  1.00  0.00    -0.068 N 
ATOM      8  H33 UNL     1      15.965  18.686  22.184  1.00  0.00     0.275 HD
ATOM      9  H32 UNL     1      14.748  19.497  21.704  1.00  0.00     0.275 HD
ATOM     10  H31 UNL     1      14.670  18.845  23.267  1.00  0.00     0.275 HD
ENDBRANCH   5   7
BRANCH   5  11
HETATM   11  C7  UNL     1      15.200  16.270  21.982  1.00  0.00     0.084 C 
BRANCH  11  12
HETATM   12  C8  UNL     1      15.451  15.663  20.653  1.00  0.00     0.055 C 
HETATM   13  N4  UNL     1      15.964  14.503  20.500  1.00  0.00    -0.411 N 
ATOM     14  H42 UNL     1      16.208  13.983  21.344  1.00  0.00     0.155 HD
ATOM     15  H41 UNL     1      16.137  14.085  19.586  1.00  0.00     0.155 HD
ENDBRANCH  11  12
ENDBRANCH   5  11
BRANCH   2  16
HETATM   16  C2  UNL     1      11.980  17.302  19.159  1.00  0.00     0.264 C 
BRANCH  16  17
HETATM   17  C3  UNL     1      10.478  17.215  19.253  1.00  0.00     0.257 C 
BRANCH  17  18
HETATM   18  N2  UNL     1       9.882  16.781  18.005  1.00  0.00    -0.078 N 
ATOM     19  H23 UNL     1      10.002  15.778  17.865  1.00  0.00     0.274 HD
ATOM     20  H22 UNL     1       8.864  16.816  18.049  1.00  0.00     0.274 HD
ATOM     21  H21 UNL     1      10.237  17.312  17.209  1.00  0.00     0.274 HD
ENDBRANCH  17  18
ENDBRANCH  16  17
ENDBRANCH   2  16
TORSDOF 6
ENDMDL
