MODEL 1
REMARK VINA RESULT: -5.014284863      0.000      0.000
REMARK  4 active torsions:
REMARK  status: ('A' for Active; 'I' for Inactive)
REMARK       I    between atoms: C1_4  and  N2_5 
REMARK       I    between atoms: C1_4  and  N4_12 
REMARK    1  A    between atoms: N2_5  and  C2_7 
REMARK    2  A    between atoms: C2_7  and  C3_8 
REMARK    3  A    between atoms: C3_8  and  N3_9 
REMARK    4  A    between atoms: N4_12  and  C6_14 
ROOT
HETATM    1  N1  UNL     1       7.905  13.356  15.524  1.00  0.00    -0.235 N 
ATOM      2  H11 UNL     1       7.985  12.606  16.211  1.00  0.00     0.174 HD
ATOM      3  H12 UNL     1       7.298  14.157  15.704  1.00  0.00     0.174 HD
HETATM    4  C1  UNL     1       8.580  13.284  14.430  1.00  0.00     0.667 C 
HETATM    5  N2  UNL     1       8.468  14.331  13.472  1.00  0.00    -0.225 N 
ATOM      6  H2  UNL     1       8.933  14.220  12.571  1.00  0.00     0.177 HD
HETATM    7  N4  UNL     1       9.431  12.162  14.178  1.00  0.00    -0.222 N 
ATOM      8  H4  UNL     1      10.327  12.297  13.710  1.00  0.00     0.178 HD
ENDROOT
BRANCH   5   9
HETATM    9  C2  UNL     1       7.728  15.540  13.719  1.00  0.00     0.168 C 
BRANCH   9  10
HETATM   10  C3  UNL     1       8.695  16.658  14.013  1.00  0.00     0.292 C 
BRANCH  10  11
HETATM   11  N3  UNL     1       9.921  16.088  14.544  1.00  0.00     0.093 N 
HETATM   12  C4  UNL     1      11.024  16.950  14.884  1.00  0.00     0.302 A 
HETATM   13  C5  UNL     1      10.163  16.360  15.928  1.00  0.00     0.302 A 
ENDBRANCH  10  11
ENDBRANCH   9  10
ENDBRANCH   5   9
BRANCH   7  14
HETATM   14  C6  UNL     1       9.029  10.858  14.580  1.00  0.00     0.099 A 
HETATM   15  C7  UNL     1       9.982   9.860  15.117  1.00  0.00     0.028 A 
HETATM   16  C8  UNL     1       9.566   9.729  13.700  1.00  0.00     0.028 A 
ENDBRANCH   7  14
TORSDOF 4
ENDMDL
MODEL 2
REMARK VINA RESULT: -4.983817892      2.354      3.045
REMARK  4 active torsions:
REMARK  status: ('A' for Active; 'I' for Inactive)
REMARK       I    between atoms: C1_4  and  N2_5 
REMARK       I    between atoms: C1_4  and  N4_12 
REMARK    1  A    between atoms: N2_5  and  C2_7 
REMARK    2  A    between atoms: C2_7  and  C3_8 
REMARK    3  A    between atoms: C3_8  and  N3_9 
REMARK    4  A    between atoms: N4_12  and  C6_14 
ROOT
HETATM    1  N1  UNL     1       9.069  14.583  14.480  1.00  0.00    -0.235 N 
ATOM      2  H11 UNL     1       8.666  14.035  13.719  1.00  0.00     0.174 HD
ATOM      3  H12 UNL     1       9.472  15.502  14.296  1.00  0.00     0.174 HD
HETATM    4  C1  UNL     1       9.061  14.102  15.675  1.00  0.00     0.667 C 
HETATM    5  N2  UNL     1       9.624  14.867  16.737  1.00  0.00    -0.225 N 
ATOM      6  H2  UNL     1       9.696  14.439  17.659  1.00  0.00     0.177 HD
HETATM    7  N4  UNL     1       8.496  12.814  15.932  1.00  0.00    -0.222 N 
ATOM      8  H4  UNL     1       7.970  12.651  16.790  1.00  0.00     0.178 HD
ENDROOT
BRANCH   5   9
HETATM    9  C2  UNL     1      10.094  16.216  16.564  1.00  0.00     0.168 C 
BRANCH   9  10
HETATM   10  C3  UNL     1      10.509  16.768  17.903  1.00  0.00     0.292 C 
BRANCH  10  11
HETATM   11  N3  UNL     1      11.928  16.515  18.092  1.00  0.00     0.093 N 
HETATM   12  C4  UNL     1      12.861  17.612  18.068  1.00  0.00     0.302 A 
HETATM   13  C5  UNL     1      12.461  16.974  19.338  1.00  0.00     0.302 A 
ENDBRANCH  10  11
ENDBRANCH   9  10
ENDBRANCH   5   9
BRANCH   7  14
HETATM   14  C6  UNL     1       8.669  11.759  14.993  1.00  0.00     0.099 A 
HETATM   15  C7  UNL     1       8.442  10.338  15.340  1.00  0.00     0.028 A 
HETATM   16  C8  UNL     1       9.842  10.826  15.294  1.00  0.00     0.028 A 
ENDBRANCH   7  14
TORSDOF 4
ENDMDL
MODEL 3
REMARK VINA RESULT: -4.931350443      2.444      5.897
REMARK  4 active torsions:
REMARK  status: ('A' for Active; 'I' for Inactive)
REMARK       I    between atoms: C1_4  and  N2_5 
REMARK       I    between atoms: C1_4  and  N4_12 
REMARK    1  A    between atoms: N2_5  and  C2_7 
REMARK    2  A    between atoms: C2_7  and  C3_8 
REMARK    3  A    between atoms: C3_8  and  N3_9 
REMARK    4  A    between atoms: N4_12  and  C6_14 
ROOT
HETATM    1  N1  UNL     1      10.152  17.006  15.818  1.00  0.00    -0.235 N 
ATOM      2  H11 UNL     1      10.695  17.848  16.010  1.00  0.00     0.174 HD
ATOM      3  H12 UNL     1       9.574  16.947  14.980  1.00  0.00     0.174 HD
HETATM    4  C1  UNL     1      10.207  16.019  16.643  1.00  0.00     0.667 C 
HETATM    5  N2  UNL     1       9.448  14.844  16.375  1.00  0.00    -0.225 N 
ATOM      6  H2  UNL     1       9.425  14.108  17.080  1.00  0.00     0.177 HD
HETATM    7  N4  UNL     1      11.017  16.104  17.819  1.00  0.00    -0.222 N 
ATOM      8  H4  UNL     1      11.527  15.284  18.146  1.00  0.00     0.178 HD
ENDROOT
BRANCH   5   9
HETATM    9  C2  UNL     1       8.714  14.651  15.153  1.00  0.00     0.168 C 
BRANCH   9  10
HETATM   10  C3  UNL     1       8.051  13.298  15.186  1.00  0.00     0.292 C 
BRANCH  10  11
HETATM   11  N3  UNL     1       9.052  12.295  15.505  1.00  0.00     0.093 N 
HETATM   12  C4  UNL     1       8.741  10.897  15.345  1.00  0.00     0.302 A 
HETATM   13  C5  UNL     1       9.598  11.607  14.375  1.00  0.00     0.302 A 
ENDBRANCH  10  11
ENDBRANCH   9  10
ENDBRANCH   5   9
BRANCH   7  14
HETATM   14  C6  UNL     1      11.113  17.331  18.532  1.00  0.00     0.099 A 
HETATM   15  C7  UNL     1      11.970  17.493  19.729  1.00  0.00     0.028 A 
HETATM   16  C8  UNL     1      10.515  17.296  19.939  1.00  0.00     0.028 A 
ENDBRANCH   7  14
TORSDOF 4
ENDMDL
MODEL 4
REMARK VINA RESULT: -4.907726089      3.718      5.216
REMARK  4 active torsions:
REMARK  status: ('A' for Active; 'I' for Inactive)
REMARK       I    between atoms: C1_4  and  N2_5 
REMARK       I    between atoms: C1_4  and  N4_12 
REMARK    1  A    between atoms: N2_5  and  C2_7 
REMARK    2  A    between atoms: C2_7  and  C3_8 
REMARK    3  A    between atoms: C3_8  and  N3_9 
REMARK    4  A    between atoms: N4_12  and  C6_14 
ROOT
HETATM    1  N1  UNL     1      10.024  17.033  15.930  1.00  0.00    -0.235 N 
ATOM      2  H11 UNL     1       9.323  17.032  15.189  1.00  0.00     0.174 HD
ATOM      3  H12 UNL     1      10.617  17.850  16.077  1.00  0.00     0.174 HD
HETATM    4  C1  UNL     1      10.150  15.994  16.680  1.00  0.00     0.667 C 
HETATM    5  N2  UNL     1      11.128  15.996  17.715  1.00  0.00    -0.225 N 
ATOM      6  H2  UNL     1      11.283  15.136  18.241  1.00  0.00     0.177 HD
HETATM    7  N4  UNL     1       9.318  14.849  16.474  1.00  0.00    -0.222 N 
ATOM      8  H4  UNL     1       8.973  14.319  17.274  1.00  0.00     0.178 HD
ENDROOT
BRANCH   5   9
HETATM    9  C2  UNL     1      11.907  17.158  18.051  1.00  0.00     0.168 C 
BRANCH   9  10
HETATM   10  C3  UNL     1      12.953  16.773  19.065  1.00  0.00     0.292 C 
BRANCH  10  11
HETATM   11  N3  UNL     1      12.845  17.663  20.209  1.00  0.00     0.093 N 
HETATM   12  C4  UNL     1      11.864  17.399  21.231  1.00  0.00     0.302 A 
HETATM   13  C5  UNL     1      13.295  17.108  21.449  1.00  0.00     0.302 A 
ENDBRANCH  10  11
ENDBRANCH   9  10
ENDBRANCH   5   9
BRANCH   7  14
HETATM   14  C6  UNL     1       8.971  14.448  15.154  1.00  0.00     0.099 A 
HETATM   15  C7  UNL     1       7.720  13.719  14.844  1.00  0.00     0.028 A 
HETATM   16  C8  UNL     1       8.976  12.936  14.928  1.00  0.00     0.028 A 
ENDBRANCH   7  14
TORSDOF 4
ENDMDL
MODEL 5
REMARK VINA RESULT: -4.858333572      3.301      6.316
REMARK  4 active torsions:
REMARK  status: ('A' for Active; 'I' for Inactive)
REMARK       I    between atoms: C1_4  and  N2_5 
REMARK       I    between atoms: C1_4  and  N4_12 
REMARK    1  A    between atoms: N2_5  and  C2_7 
REMARK    2  A    between atoms: C2_7  and  C3_8 
REMARK    3  A    between atoms: C3_8  and  N3_9 
REMARK    4  A    between atoms: N4_12  and  C6_14 
ROOT
HETATM    1  N1  UNL     1      12.015  17.087  17.383  1.00  0.00    -0.235 N 
ATOM      2  H11 UNL     1      12.697  17.274  18.118  1.00  0.00     0.174 HD
ATOM      3  H12 UNL     1      12.302  17.082  16.404  1.00  0.00     0.174 HD
HETATM    4  C1  UNL     1      10.790  16.855  17.704  1.00  0.00     0.667 C 
HETATM    5  N2  UNL     1       9.838  16.594  16.677  1.00  0.00    -0.225 N 
ATOM      6  H2  UNL     1       8.856  16.503  16.935  1.00  0.00     0.177 HD
HETATM    7  N4  UNL     1      10.389  16.862  19.077  1.00  0.00    -0.222 N 
ATOM      8  H4  UNL     1       9.700  16.187  19.409  1.00  0.00     0.178 HD
ENDROOT
BRANCH   5   9
HETATM    9  C2  UNL     1      10.203  16.451  15.292  1.00  0.00     0.168 C 
BRANCH   9  10
HETATM   10  C3  UNL     1       9.123  15.682  14.575  1.00  0.00     0.292 C 
BRANCH  10  11
HETATM   11  N3  UNL     1       8.843  14.466  15.320  1.00  0.00     0.093 N 
HETATM   12  C4  UNL     1       7.710  13.652  14.961  1.00  0.00     0.302 A 
HETATM   13  C5  UNL     1       9.086  13.251  14.603  1.00  0.00     0.302 A 
ENDBRANCH  10  11
ENDBRANCH   9  10
ENDBRANCH   5   9
BRANCH   7  14
HETATM   14  C6  UNL     1      10.949  17.809  19.979  1.00  0.00     0.099 A 
HETATM   15  C7  UNL     1      11.772  17.411  21.143  1.00  0.00     0.028 A 
HETATM   16  C8  UNL     1      10.355  17.772  21.387  1.00  0.00     0.028 A 
ENDBRANCH   7  14
TORSDOF 4
ENDMDL
