MODEL 1
REMARK VINA RESULT: -8.053816605      0.000      0.000
REMARK  3 active torsions:
REMARK  status: ('A' for Active; 'I' for Inactive)
REMARK       I    between atoms: C2_2  and  N1_4 
REMARK    1  A    between atoms: N1_4  and  C3_6 
REMARK    2  A    between atoms: C10_15  and  C11_16 
REMARK    3  A    between atoms: C11_16  and  O2_17 
ROOT
HETATM    1  C3  UNL     1     -87.165  -4.723   1.582  1.00  0.00     0.105 C 
HETATM    2  N2  UNL     1     -86.970  -3.480   1.139  1.00  0.00    -0.348 N 
ATOM      3  H2  UNL     1     -86.050  -3.302   0.737  1.00  0.00     0.167 HD
HETATM    4  C4  UNL     1     -87.836  -2.389   1.145  1.00  0.00     0.012 C 
HETATM    5  C5  UNL     1     -87.522  -1.046   0.601  1.00  0.00     0.068 C 
HETATM    6  C6  UNL     1     -89.034  -2.574   1.676  1.00  0.00    -0.042 C 
HETATM    7  C7  UNL     1     -89.998  -1.471   1.697  1.00  0.00     0.050 C 
HETATM    8  C8  UNL     1     -89.316  -3.795   2.340  1.00  0.00     0.008 C 
HETATM    9  C9  UNL     1     -88.487  -5.059   2.036  1.00  0.00     0.110 C 
HETATM   10  C10 UNL     1     -88.744  -5.868   3.233  1.00  0.00     0.001 C 
HETATM   11  C12 UNL     1     -89.254  -7.217   3.028  1.00  0.00     0.087 C 
HETATM   12  N3  UNL     1     -89.175  -8.263   3.784  1.00  0.00    -0.287 N 
ATOM     13  H3  UNL     1     -88.696  -8.222   4.684  1.00  0.00     0.178 HD
HETATM   14  C13 UNL     1     -89.761  -9.447   3.340  1.00  0.00     0.182 C 
HETATM   15  N4  UNL     1     -90.249 -10.433   2.949  1.00  0.00    -0.172 NA
HETATM   16  S1  UNL     1     -90.063  -7.152   1.446  1.00  0.00    -0.067 SA
HETATM   17  C14 UNL     1     -89.250  -5.668   0.841  1.00  0.00     0.189 C 
HETATM   18 CL1  UNL     1     -90.447  -4.522   0.180  1.00  0.00    -0.087 Cl
HETATM   19 CL2  UNL     1     -88.148  -6.196  -0.452  1.00  0.00    -0.087 Cl
ENDROOT
BRANCH  10  20
HETATM   20  C11 UNL     1     -87.842  -5.675   4.411  1.00  0.00     0.203 C 
BRANCH  20  21
HETATM   21  O2  UNL     1     -88.557  -6.163   5.534  1.00  0.00    -0.397 OA
ATOM     22  H2  UNL     1     -89.473  -6.154   5.285  1.00  0.00     0.209 HD
ENDBRANCH  20  21
ENDBRANCH  10  20
BRANCH   1  23
HETATM   23  N1  UNL     1     -85.982  -5.459   1.369  1.00  0.00    -0.316 N 
HETATM   24  C2  UNL     1     -84.696  -5.163   1.072  1.00  0.00     0.218 C 
HETATM   25  C1  UNL     1     -83.671  -6.324   0.918  1.00  0.00     0.117 C 
HETATM   26  O1  UNL     1     -84.143  -4.094   0.889  1.00  0.00    -0.274 OA
ATOM     27  H1  UNL     1     -86.133  -6.463   1.462  1.00  0.00     0.170 HD
ENDBRANCH   1  23
TORSDOF 3
ENDMDL
MODEL 2
REMARK VINA RESULT: -8.036000972      2.941      3.969
REMARK  3 active torsions:
REMARK  status: ('A' for Active; 'I' for Inactive)
REMARK       I    between atoms: C2_2  and  N1_4 
REMARK    1  A    between atoms: N1_4  and  C3_6 
REMARK    2  A    between atoms: C10_15  and  C11_16 
REMARK    3  A    between atoms: C11_16  and  O2_17 
ROOT
HETATM    1  C3  UNL     1     -90.012  -2.151   1.452  1.00  0.00     0.105 C 
HETATM    2  N2  UNL     1     -90.862  -1.262   0.937  1.00  0.00    -0.348 N 
ATOM      3  H2  UNL     1     -90.619  -0.917   0.008  1.00  0.00     0.167 HD
HETATM    4  C4  UNL     1     -92.033  -0.736   1.478  1.00  0.00     0.012 C 
HETATM    5  C5  UNL     1     -92.923   0.239   0.803  1.00  0.00     0.068 C 
HETATM    6  C6  UNL     1     -92.373  -1.144   2.690  1.00  0.00    -0.042 C 
HETATM    7  C7  UNL     1     -93.602  -0.641   3.308  1.00  0.00     0.050 C 
HETATM    8  C8  UNL     1     -91.472  -1.956   3.426  1.00  0.00     0.008 C 
HETATM    9  C9  UNL     1     -90.379  -2.766   2.699  1.00  0.00     0.110 C 
HETATM   10  C10 UNL     1     -89.425  -3.005   3.789  1.00  0.00     0.001 C 
HETATM   11  C12 UNL     1     -89.046  -4.387   4.050  1.00  0.00     0.087 C 
HETATM   12  N3  UNL     1     -87.980  -4.870   4.599  1.00  0.00    -0.287 N 
ATOM     13  H3  UNL     1     -87.238  -4.254   4.930  1.00  0.00     0.178 HD
HETATM   14  C13 UNL     1     -87.871  -6.254   4.728  1.00  0.00     0.182 C 
HETATM   15  N4  UNL     1     -87.791  -7.415   4.820  1.00  0.00    -0.172 NA
HETATM   16  S1  UNL     1     -90.412  -5.347   3.438  1.00  0.00    -0.067 SA
HETATM   17  C14 UNL     1     -91.114  -4.082   2.372  1.00  0.00     0.189 C 
HETATM   18 CL1  UNL     1     -92.871  -3.933   2.647  1.00  0.00    -0.087 Cl
HETATM   19 CL2  UNL     1     -90.812  -4.614   0.702  1.00  0.00    -0.087 Cl
ENDROOT
BRANCH  10  20
HETATM   20  C11 UNL     1     -88.369  -1.974   4.029  1.00  0.00     0.203 C 
BRANCH  20  21
HETATM   21  O2  UNL     1     -87.924  -2.173   5.360  1.00  0.00    -0.397 OA
ATOM     22  H2  UNL     1     -86.995  -1.977   5.357  1.00  0.00     0.209 HD
ENDBRANCH  20  21
ENDBRANCH  10  20
BRANCH   1  23
HETATM   23  N1  UNL     1     -88.968  -2.352   0.527  1.00  0.00    -0.316 N 
HETATM   24  C2  UNL     1     -87.793  -1.745   0.244  1.00  0.00     0.218 C 
HETATM   25  C1  UNL     1     -86.906  -2.313  -0.902  1.00  0.00     0.117 C 
HETATM   26  O1  UNL     1     -87.253  -0.775   0.744  1.00  0.00    -0.274 OA
ATOM     27  H1  UNL     1     -89.140  -3.154  -0.078  1.00  0.00     0.170 HD
ENDBRANCH   1  23
TORSDOF 3
ENDMDL
MODEL 3
REMARK VINA RESULT: -7.927067136      3.452      4.330
REMARK  3 active torsions:
REMARK  status: ('A' for Active; 'I' for Inactive)
REMARK       I    between atoms: C2_2  and  N1_4 
REMARK    1  A    between atoms: N1_4  and  C3_6 
REMARK    2  A    between atoms: C10_15  and  C11_16 
REMARK    3  A    between atoms: C11_16  and  O2_17 
ROOT
HETATM    1  C3  UNL     1     -90.038  -4.448   3.157  1.00  0.00     0.105 C 
HETATM    2  N2  UNL     1     -89.215  -3.663   3.853  1.00  0.00    -0.348 N 
ATOM      3  H2  UNL     1     -88.365  -4.115   4.189  1.00  0.00     0.167 HD
HETATM    4  C4  UNL     1     -89.344  -2.317   4.189  1.00  0.00     0.012 C 
HETATM    5  C5  UNL     1     -88.349  -1.529   4.954  1.00  0.00     0.068 C 
HETATM    6  C6  UNL     1     -90.443  -1.700   3.788  1.00  0.00    -0.042 C 
HETATM    7  C7  UNL     1     -90.632  -0.279   4.095  1.00  0.00     0.050 C 
HETATM    8  C8  UNL     1     -91.483  -2.455   3.187  1.00  0.00     0.008 C 
HETATM    9  C9  UNL     1     -91.183  -3.827   2.550  1.00  0.00     0.110 C 
HETATM   10  C10 UNL     1     -92.518  -4.437   2.539  1.00  0.00     0.001 C 
HETATM   11  C12 UNL     1     -93.013  -4.931   1.262  1.00  0.00     0.087 C 
HETATM   12  N3  UNL     1     -93.889  -5.846   1.003  1.00  0.00    -0.287 N 
ATOM     13  H3  UNL     1     -94.354  -6.351   1.758  1.00  0.00     0.178 HD
HETATM   14  C13 UNL     1     -94.182  -6.126  -0.330  1.00  0.00     0.182 C 
HETATM   15  N4  UNL     1     -94.409  -6.354  -1.452  1.00  0.00    -0.172 NA
HETATM   16  S1  UNL     1     -92.137  -3.976   0.044  1.00  0.00    -0.067 SA
HETATM   17  C14 UNL     1     -90.794  -3.436   1.109  1.00  0.00     0.189 C 
HETATM   18 CL1  UNL     1     -90.541  -1.676   0.956  1.00  0.00    -0.087 Cl
HETATM   19 CL2  UNL     1     -89.341  -4.301   0.556  1.00  0.00    -0.087 Cl
ENDROOT
BRANCH  10  20
HETATM   20  C11 UNL     1     -92.945  -5.200   3.752  1.00  0.00     0.203 C 
BRANCH  20  21
HETATM   21  O2  UNL     1     -92.588  -6.551   3.510  1.00  0.00    -0.397 OA
ATOM     22  H2  UNL     1     -92.810  -7.026   4.301  1.00  0.00     0.209 HD
ENDBRANCH  20  21
ENDBRANCH  10  20
BRANCH   1  23
HETATM   23  N1  UNL     1     -89.474  -5.739   3.098  1.00  0.00    -0.316 N 
HETATM   24  C2  UNL     1     -88.331  -6.318   3.532  1.00  0.00     0.218 C 
HETATM   25  C1  UNL     1     -88.095  -7.829   3.244  1.00  0.00     0.117 C 
HETATM   26  O1  UNL     1     -87.385  -5.859   4.146  1.00  0.00    -0.274 OA
ATOM     27  H1  UNL     1     -90.077  -6.399   2.608  1.00  0.00     0.170 HD
ENDBRANCH   1  23
TORSDOF 3
ENDMDL
MODEL 4
REMARK VINA RESULT: -7.884070356      3.112      4.851
REMARK  3 active torsions:
REMARK  status: ('A' for Active; 'I' for Inactive)
REMARK       I    between atoms: C2_2  and  N1_4 
REMARK    1  A    between atoms: N1_4  and  C3_6 
REMARK    2  A    between atoms: C10_15  and  C11_16 
REMARK    3  A    between atoms: C11_16  and  O2_17 
ROOT
HETATM    1  C3  UNL     1     -89.274  -2.491   3.717  1.00  0.00     0.105 C 
HETATM    2  N2  UNL     1     -90.458  -1.884   3.807  1.00  0.00    -0.348 N 
ATOM      3  H2  UNL     1     -90.520  -1.157   4.520  1.00  0.00     0.167 HD
HETATM    4  C4  UNL     1     -91.622  -2.095   3.072  1.00  0.00     0.012 C 
HETATM    5  C5  UNL     1     -92.887  -1.340   3.241  1.00  0.00     0.068 C 
HETATM    6  C6  UNL     1     -91.589  -3.044   2.151  1.00  0.00    -0.042 C 
HETATM    7  C7  UNL     1     -92.776  -3.303   1.332  1.00  0.00     0.050 C 
HETATM    8  C8  UNL     1     -90.451  -3.886   2.063  1.00  0.00     0.008 C 
HETATM    9  C9  UNL     1     -89.096  -3.429   2.642  1.00  0.00     0.110 C 
HETATM   10  C10 UNL     1     -88.404  -4.714   2.802  1.00  0.00     0.001 C 
HETATM   11  C12 UNL     1     -87.098  -4.848   2.173  1.00  0.00     0.087 C 
HETATM   12  N3  UNL     1     -86.106  -5.625   2.465  1.00  0.00    -0.287 N 
ATOM     13  H3  UNL     1     -86.167  -6.278   3.246  1.00  0.00     0.178 HD
HETATM   14  C13 UNL     1     -84.953  -5.549   1.686  1.00  0.00     0.182 C 
HETATM   15  N4  UNL     1     -83.991  -5.467   1.029  1.00  0.00    -0.172 NA
HETATM   16  S1  UNL     1     -87.123  -3.674   0.837  1.00  0.00    -0.067 SA
HETATM   17  C14 UNL     1     -88.477  -2.666   1.453  1.00  0.00     0.189 C 
HETATM   18 CL1  UNL     1     -89.679  -2.375   0.167  1.00  0.00    -0.087 Cl
HETATM   19 CL2  UNL     1     -87.756  -1.120   1.960  1.00  0.00    -0.087 Cl
ENDROOT
BRANCH  10  20
HETATM   20  C11 UNL     1     -88.597  -5.454   4.088  1.00  0.00     0.203 C 
BRANCH  20  21
HETATM   21  O2  UNL     1     -87.540  -5.041   4.938  1.00  0.00    -0.397 OA
ATOM     22  H2  UNL     1     -86.814  -5.626   4.755  1.00  0.00     0.209 HD
ENDBRANCH  20  21
ENDBRANCH  10  20
BRANCH   1  23
HETATM   23  N1  UNL     1     -88.417  -1.936   4.689  1.00  0.00    -0.316 N 
HETATM   24  C2  UNL     1     -88.333  -0.759   5.348  1.00  0.00     0.218 C 
HETATM   25  C1  UNL     1     -87.186  -0.551   6.379  1.00  0.00     0.117 C 
HETATM   26  O1  UNL     1     -89.027   0.241   5.292  1.00  0.00    -0.274 OA
ATOM     27  H1  UNL     1     -87.677  -2.583   4.962  1.00  0.00     0.170 HD
ENDBRANCH   1  23
TORSDOF 3
ENDMDL
MODEL 5
REMARK VINA RESULT: -7.845652535      3.018      5.431
REMARK  3 active torsions:
REMARK  status: ('A' for Active; 'I' for Inactive)
REMARK       I    between atoms: C2_2  and  N1_4 
REMARK    1  A    between atoms: N1_4  and  C3_6 
REMARK    2  A    between atoms: C10_15  and  C11_16 
REMARK    3  A    between atoms: C11_16  and  O2_17 
ROOT
HETATM    1  C3  UNL     1     -88.812  -5.497   0.727  1.00  0.00     0.105 C 
HETATM    2  N2  UNL     1     -89.974  -5.105   1.250  1.00  0.00    -0.348 N 
ATOM      3  H2  UNL     1     -90.518  -5.842   1.700  1.00  0.00     0.167 HD
HETATM    4  C4  UNL     1     -90.557  -3.840   1.272  1.00  0.00     0.012 C 
HETATM    5  C5  UNL     1     -91.856  -3.509   1.906  1.00  0.00     0.068 C 
HETATM    6  C6  UNL     1     -89.892  -2.861   0.681  1.00  0.00    -0.042 C 
HETATM    7  C7  UNL     1     -90.444  -1.503   0.684  1.00  0.00     0.050 C 
HETATM    8  C8  UNL     1     -88.725  -3.167  -0.066  1.00  0.00     0.008 C 
HETATM    9  C9  UNL     1     -87.950  -4.474   0.199  1.00  0.00     0.110 C 
HETATM   10  C10 UNL     1     -87.200  -4.622  -1.053  1.00  0.00     0.001 C 
HETATM   11  C12 UNL     1     -85.755  -4.773  -0.950  1.00  0.00     0.087 C 
HETATM   12  N3  UNL     1     -84.913  -5.323  -1.761  1.00  0.00    -0.287 N 
ATOM     13  H3  UNL     1     -85.228  -5.742  -2.636  1.00  0.00     0.178 HD
HETATM   14  C13 UNL     1     -83.563  -5.330  -1.412  1.00  0.00     0.182 C 
HETATM   15  N4  UNL     1     -82.438  -5.334  -1.101  1.00  0.00    -0.172 NA
HETATM   16  S1  UNL     1     -85.336  -4.004   0.598  1.00  0.00    -0.067 SA
HETATM   17  C14 UNL     1     -86.981  -4.053   1.323  1.00  0.00     0.189 C 
HETATM   18 CL1  UNL     1     -87.417  -2.461   2.000  1.00  0.00    -0.087 Cl
HETATM   19 CL2  UNL     1     -86.913  -5.261   2.628  1.00  0.00    -0.087 Cl
ENDROOT
BRANCH  10  20
HETATM   20  C11 UNL     1     -87.861  -5.353  -2.179  1.00  0.00     0.203 C 
BRANCH  20  21
HETATM   21  O2  UNL     1     -87.693  -4.536  -3.326  1.00  0.00    -0.397 OA
ATOM     22  H2  UNL     1     -87.406  -5.117  -4.020  1.00  0.00     0.209 HD
ENDBRANCH  20  21
ENDBRANCH  10  20
BRANCH   1  23
HETATM   23  N1  UNL     1     -88.672  -6.882   0.946  1.00  0.00    -0.316 N 
HETATM   24  C2  UNL     1     -89.203  -7.787   1.799  1.00  0.00     0.218 C 
HETATM   25  C1  UNL     1     -88.756  -9.274   1.697  1.00  0.00     0.117 C 
HETATM   26  O1  UNL     1     -90.019  -7.660   2.694  1.00  0.00    -0.274 OA
ATOM     27  H1  UNL     1     -88.006  -7.307   0.302  1.00  0.00     0.170 HD
ENDBRANCH   1  23
TORSDOF 3
ENDMDL
