MODEL 1
REMARK VINA RESULT: -9.009530604      0.000      0.000
REMARK  14 active torsions:
REMARK  status: ('A' for Active; 'I' for Inactive)
REMARK    1  A    between atoms: C2_2  and  O1_4 
REMARK    2  A    between atoms: O1_4  and  C4_5 
REMARK    3  A    between atoms: C4_5  and  C5_7 
REMARK    4  A    between atoms: C7_9  and  O3_10 
REMARK    5  A    between atoms: O3_10  and  C8_11 
REMARK    6  A    between atoms: C8_11  and  C9_13 
REMARK    7  A    between atoms: C9_13  and  C10_14 
REMARK    8  A    between atoms: C15_19  and  C16_20 
REMARK    9  A    between atoms: C16_20  and  O5_21 
REMARK   10  A    between atoms: O5_21  and  C17_22 
REMARK   11  A    between atoms: C17_22  and  C18_24 
REMARK   12  A    between atoms: C22_28  and  O7_29 
REMARK   13  A    between atoms: C22_28  and  C23_31 
REMARK   14  A    between atoms: C23_31  and  C24_33 
ROOT
HETATM    1  C5  UNL     1      26.623 -32.893  -6.244  1.00  0.00     0.130 C 
HETATM    2  C6  UNL     1      27.196 -34.120  -5.510  1.00  0.00     0.055 C 
HETATM    3  C7  UNL     1      28.332 -33.660  -4.606  1.00  0.00     0.161 C 
HETATM    4  C14 UNL     1      29.369 -33.127  -5.515  1.00  0.00    -0.049 C 
HETATM    5  C15 UNL     1      30.551 -33.604  -5.786  1.00  0.00     0.005 C 
HETATM    6  C21 UNL     1      28.892 -31.837  -6.207  1.00  0.00     0.083 C 
HETATM    7  C22 UNL     1      27.698 -32.285  -7.084  1.00  0.00     0.135 C 
ENDROOT
BRANCH   3   8
HETATM    8  O3  UNL     1      28.693 -34.640  -3.711  1.00  0.00    -0.311 OA
BRANCH   8   9
HETATM    9  C8  UNL     1      28.753 -34.453  -2.335  1.00  0.00     0.260 C 
HETATM   10  O4  UNL     1      29.698 -35.028  -1.737  1.00  0.00    -0.265 OA
BRANCH   9  11
HETATM   11  C9  UNL     1      27.795 -33.645  -1.578  1.00  0.00     0.119 C 
BRANCH  11  12
HETATM   12  C10 UNL     1      26.544 -34.424  -1.319  1.00  0.00    -0.043 C 
HETATM   13  C11 UNL     1      25.497 -33.925  -2.318  1.00  0.00     0.015 C 
HETATM   14  C12 UNL     1      26.698 -35.901  -1.521  1.00  0.00     0.015 C 
HETATM   15  C13 UNL     1      25.998 -34.197   0.075  1.00  0.00     0.015 C 
ENDBRANCH  11  12
ENDBRANCH   9  11
ENDBRANCH   8   9
ENDBRANCH   3   8
BRANCH   1  16
HETATM   16  C4  UNL     1      25.548 -33.437  -7.086  1.00  0.00     0.266 C 
HETATM   17  O2  UNL     1      25.752 -34.464  -7.769  1.00  0.00    -0.265 OA
BRANCH  16  18
HETATM   18  O1  UNL     1      24.279 -32.841  -7.158  1.00  0.00    -0.316 OA
BRANCH  18  19
HETATM   19  C2  UNL     1      23.783 -32.202  -5.999  1.00  0.00     0.123 C 
HETATM   20  C1  UNL     1      22.675 -31.225  -6.397  1.00  0.00     0.040 C 
HETATM   21  C3  UNL     1      23.206 -33.192  -5.012  1.00  0.00     0.040 C 
ENDBRANCH  18  19
ENDBRANCH  16  18
ENDBRANCH   1  16
BRANCH   5  22
HETATM   22  C16 UNL     1      31.244 -34.798  -5.303  1.00  0.00     0.206 C 
BRANCH  22  23
HETATM   23  O5  UNL     1      32.263 -35.222  -6.173  1.00  0.00    -0.317 OA
BRANCH  23  24
HETATM   24  C17 UNL     1      32.080 -35.685  -7.450  1.00  0.00     0.262 C 
HETATM   25  O6  UNL     1      31.435 -36.752  -7.616  1.00  0.00    -0.265 OA
BRANCH  24  26
HETATM   26  C18 UNL     1      32.612 -34.981  -8.650  1.00  0.00     0.077 C 
HETATM   27  C19 UNL     1      31.510 -34.131  -9.296  1.00  0.00     0.020 C 
HETATM   28  C20 UNL     1      33.829 -34.158  -8.345  1.00  0.00     0.020 C 
ENDBRANCH  24  26
ENDBRANCH  23  24
ENDBRANCH  22  23
ENDBRANCH   5  22
BRANCH   7  29
HETATM   29  O7  UNL     1      28.250 -33.377  -7.802  1.00  0.00    -0.381 OA
ATOM     30  H7  UNL     1      28.570 -32.993  -8.610  1.00  0.00     0.211 HD
ENDBRANCH   7  29
BRANCH   7  31
HETATM   31  C23 UNL     1      27.302 -31.213  -7.996  1.00  0.00     0.169 C 
HETATM   32  O8  UNL     1      27.604 -31.380  -9.200  1.00  0.00    -0.294 OA
BRANCH  31  33
HETATM   33  C24 UNL     1      26.600 -29.972  -7.693  1.00  0.00     0.013 C 
HETATM   34  C25 UNL     1      26.098 -29.793  -6.296  1.00  0.00     0.023 C 
HETATM   35  C26 UNL     1      27.447 -28.732  -7.997  1.00  0.00     0.023 C 
HETATM   36  C27 UNL     1      25.367 -29.797  -8.596  1.00  0.00     0.023 C 
ENDBRANCH  31  33
ENDBRANCH   7  31
TORSDOF 14
ENDMDL
MODEL 2
REMARK VINA RESULT: -8.880363063      0.881      1.308
REMARK  14 active torsions:
REMARK  status: ('A' for Active; 'I' for Inactive)
REMARK    1  A    between atoms: C2_2  and  O1_4 
REMARK    2  A    between atoms: O1_4  and  C4_5 
REMARK    3  A    between atoms: C4_5  and  C5_7 
REMARK    4  A    between atoms: C7_9  and  O3_10 
REMARK    5  A    between atoms: O3_10  and  C8_11 
REMARK    6  A    between atoms: C8_11  and  C9_13 
REMARK    7  A    between atoms: C9_13  and  C10_14 
REMARK    8  A    between atoms: C15_19  and  C16_20 
REMARK    9  A    between atoms: C16_20  and  O5_21 
REMARK   10  A    between atoms: O5_21  and  C17_22 
REMARK   11  A    between atoms: C17_22  and  C18_24 
REMARK   12  A    between atoms: C22_28  and  O7_29 
REMARK   13  A    between atoms: C22_28  and  C23_31 
REMARK   14  A    between atoms: C23_31  and  C24_33 
ROOT
HETATM    1  C5  UNL     1      26.847 -32.932  -6.652  1.00  0.00     0.130 C 
HETATM    2  C6  UNL     1      27.532 -34.218  -6.152  1.00  0.00     0.055 C 
HETATM    3  C7  UNL     1      28.587 -33.839  -5.122  1.00  0.00     0.161 C 
HETATM    4  C14 UNL     1      29.582 -33.028  -5.854  1.00  0.00    -0.049 C 
HETATM    5  C15 UNL     1      30.815 -33.316  -6.159  1.00  0.00     0.005 C 
HETATM    6  C21 UNL     1      28.984 -31.680  -6.295  1.00  0.00     0.083 C 
HETATM    7  C22 UNL     1      27.870 -32.058  -7.300  1.00  0.00     0.135 C 
ENDROOT
BRANCH   3   8
HETATM    8  O3  UNL     1      29.030 -34.939  -4.426  1.00  0.00    -0.311 OA
BRANCH   8   9
HETATM    9  C8  UNL     1      29.046 -35.027  -3.039  1.00  0.00     0.260 C 
HETATM   10  O4  UNL     1      30.131 -34.731  -2.476  1.00  0.00    -0.265 OA
BRANCH   9  11
HETATM   11  C9  UNL     1      27.895 -35.437  -2.232  1.00  0.00     0.119 C 
BRANCH  11  12
HETATM   12  C10 UNL     1      27.049 -34.250  -1.890  1.00  0.00    -0.043 C 
HETATM   13  C11 UNL     1      26.391 -34.550  -0.541  1.00  0.00     0.015 C 
HETATM   14  C12 UNL     1      27.825 -32.977  -1.745  1.00  0.00     0.015 C 
HETATM   15  C13 UNL     1      25.946 -34.014  -2.900  1.00  0.00     0.015 C 
ENDBRANCH  11  12
ENDBRANCH   9  11
ENDBRANCH   8   9
ENDBRANCH   3   8
BRANCH   1  16
HETATM   16  C4  UNL     1      25.860 -33.399  -7.637  1.00  0.00     0.266 C 
HETATM   17  O2  UNL     1      26.234 -33.727  -8.784  1.00  0.00    -0.265 OA
BRANCH  16  18
HETATM   18  O1  UNL     1      24.492 -33.493  -7.339  1.00  0.00    -0.316 OA
BRANCH  18  19
HETATM   19  C2  UNL     1      23.898 -32.431  -6.621  1.00  0.00     0.123 C 
HETATM   20  C1  UNL     1      22.752 -31.843  -7.446  1.00  0.00     0.040 C 
HETATM   21  C3  UNL     1      23.333 -32.892  -5.295  1.00  0.00     0.040 C 
ENDBRANCH  18  19
ENDBRANCH  16  18
ENDBRANCH   1  16
BRANCH   5  22
HETATM   22  C16 UNL     1      31.622 -34.506  -5.892  1.00  0.00     0.206 C 
BRANCH  22  23
HETATM   23  O5  UNL     1      32.081 -35.123  -7.069  1.00  0.00    -0.317 OA
BRANCH  23  24
HETATM   24  C17 UNL     1      33.035 -34.620  -7.914  1.00  0.00     0.262 C 
HETATM   25  O6  UNL     1      34.076 -34.117  -7.416  1.00  0.00    -0.265 OA
BRANCH  24  26
HETATM   26  C18 UNL     1      32.896 -34.643  -9.398  1.00  0.00     0.077 C 
HETATM   27  C19 UNL     1      31.558 -34.015  -9.812  1.00  0.00     0.020 C 
HETATM   28  C20 UNL     1      34.049 -33.984 -10.096  1.00  0.00     0.020 C 
ENDBRANCH  24  26
ENDBRANCH  23  24
ENDBRANCH  22  23
ENDBRANCH   5  22
BRANCH   7  29
HETATM   29  O7  UNL     1      28.557 -32.917  -8.196  1.00  0.00    -0.381 OA
ATOM     30  H7  UNL     1      29.474 -32.818  -7.966  1.00  0.00     0.211 HD
ENDBRANCH   7  29
BRANCH   7  31
HETATM   31  C23 UNL     1      27.382 -30.868  -7.996  1.00  0.00     0.169 C 
HETATM   32  O8  UNL     1      27.688 -30.780  -9.208  1.00  0.00    -0.294 OA
BRANCH  31  33
HETATM   33  C24 UNL     1      26.584 -29.767  -7.470  1.00  0.00     0.013 C 
HETATM   34  C25 UNL     1      26.011 -29.932  -6.099  1.00  0.00     0.023 C 
HETATM   35  C26 UNL     1      27.357 -28.445  -7.445  1.00  0.00     0.023 C 
HETATM   36  C27 UNL     1      25.383 -29.466  -8.382  1.00  0.00     0.023 C 
ENDBRANCH  31  33
ENDBRANCH   7  31
TORSDOF 14
ENDMDL
MODEL 3
REMARK VINA RESULT: -8.060681714      1.009      1.456
REMARK  14 active torsions:
REMARK  status: ('A' for Active; 'I' for Inactive)
REMARK    1  A    between atoms: C2_2  and  O1_4 
REMARK    2  A    between atoms: O1_4  and  C4_5 
REMARK    3  A    between atoms: C4_5  and  C5_7 
REMARK    4  A    between atoms: C7_9  and  O3_10 
REMARK    5  A    between atoms: O3_10  and  C8_11 
REMARK    6  A    between atoms: C8_11  and  C9_13 
REMARK    7  A    between atoms: C9_13  and  C10_14 
REMARK    8  A    between atoms: C15_19  and  C16_20 
REMARK    9  A    between atoms: C16_20  and  O5_21 
REMARK   10  A    between atoms: O5_21  and  C17_22 
REMARK   11  A    between atoms: C17_22  and  C18_24 
REMARK   12  A    between atoms: C22_28  and  O7_29 
REMARK   13  A    between atoms: C22_28  and  C23_31 
REMARK   14  A    between atoms: C23_31  and  C24_33 
ROOT
HETATM    1  C5  UNL     1      26.355 -32.928  -5.853  1.00  0.00     0.130 C 
HETATM    2  C6  UNL     1      27.196 -34.184  -5.553  1.00  0.00     0.055 C 
HETATM    3  C7  UNL     1      28.355 -33.790  -4.647  1.00  0.00     0.161 C 
HETATM    4  C14 UNL     1      29.175 -32.851  -5.440  1.00  0.00    -0.049 C 
HETATM    5  C15 UNL     1      30.372 -33.015  -5.930  1.00  0.00     0.005 C 
HETATM    6  C21 UNL     1      28.425 -31.530  -5.689  1.00  0.00     0.083 C 
HETATM    7  C22 UNL     1      27.212 -31.930  -6.562  1.00  0.00     0.135 C 
ENDROOT
BRANCH   3   8
HETATM    8  O3  UNL     1      28.970 -34.894  -4.106  1.00  0.00    -0.311 OA
BRANCH   8   9
HETATM    9  C8  UNL     1      28.965 -35.202  -2.750  1.00  0.00     0.260 C 
HETATM   10  O4  UNL     1      30.071 -35.116  -2.157  1.00  0.00    -0.265 OA
BRANCH   9  11
HETATM   11  C9  UNL     1      27.770 -35.607  -2.009  1.00  0.00     0.119 C 
BRANCH  11  12
HETATM   12  C10 UNL     1      27.008 -34.404  -1.548  1.00  0.00    -0.043 C 
HETATM   13  C11 UNL     1      26.528 -34.702  -0.125  1.00  0.00     0.015 C 
HETATM   14  C12 UNL     1      27.829 -33.152  -1.498  1.00  0.00     0.015 C 
HETATM   15  C13 UNL     1      25.786 -34.130  -2.399  1.00  0.00     0.015 C 
ENDBRANCH  11  12
ENDBRANCH   9  11
ENDBRANCH   8   9
ENDBRANCH   3   8
BRANCH   1  16
HETATM   16  C4  UNL     1      25.277 -33.407  -6.730  1.00  0.00     0.266 C 
HETATM   17  O2  UNL     1      25.546 -34.161  -7.690  1.00  0.00    -0.265 OA
BRANCH  16  18
HETATM   18  O1  UNL     1      23.935 -33.048  -6.531  1.00  0.00    -0.316 OA
BRANCH  18  19
HETATM   19  C2  UNL     1      23.603 -32.375  -5.333  1.00  0.00     0.123 C 
HETATM   20  C1  UNL     1      22.811 -31.110  -5.669  1.00  0.00     0.040 C 
HETATM   21  C3  UNL     1      22.753 -33.233  -4.421  1.00  0.00     0.040 C 
ENDBRANCH  18  19
ENDBRANCH  16  18
ENDBRANCH   1  16
BRANCH   5  22
HETATM   22  C16 UNL     1      31.293 -34.149  -5.869  1.00  0.00     0.206 C 
BRANCH  22  23
HETATM   23  O5  UNL     1      32.137 -34.222  -6.991  1.00  0.00    -0.317 OA
BRANCH  23  24
HETATM   24  C17 UNL     1      32.011 -35.110  -8.027  1.00  0.00     0.262 C 
HETATM   25  O6  UNL     1      31.643 -36.285  -7.771  1.00  0.00    -0.265 OA
BRANCH  24  26
HETATM   26  C18 UNL     1      32.292 -34.745  -9.444  1.00  0.00     0.077 C 
HETATM   27  C19 UNL     1      31.214 -33.786  -9.967  1.00  0.00     0.020 C 
HETATM   28  C20 UNL     1      33.667 -34.177  -9.632  1.00  0.00     0.020 C 
ENDBRANCH  24  26
ENDBRANCH  23  24
ENDBRANCH  22  23
ENDBRANCH   5  22
BRANCH   7  29
HETATM   29  O7  UNL     1      27.827 -32.667  -7.607  1.00  0.00    -0.381 OA
ATOM     30  H7  UNL     1      28.446 -32.059  -7.994  1.00  0.00     0.211 HD
ENDBRANCH   7  29
BRANCH   7  31
HETATM   31  C23 UNL     1      26.545 -30.741  -7.090  1.00  0.00     0.169 C 
HETATM   32  O8  UNL     1      26.065 -29.959  -6.237  1.00  0.00    -0.294 OA
BRANCH  31  33
HETATM   33  C24 UNL     1      26.363 -30.340  -8.480  1.00  0.00     0.013 C 
HETATM   34  C25 UNL     1      25.308 -31.054  -9.264  1.00  0.00     0.023 C 
HETATM   35  C26 UNL     1      26.053 -28.847  -8.622  1.00  0.00     0.023 C 
HETATM   36  C27 UNL     1      27.661 -30.517  -9.284  1.00  0.00     0.023 C 
ENDBRANCH  31  33
ENDBRANCH   7  31
TORSDOF 14
ENDMDL
MODEL 4
REMARK VINA RESULT: -8.046675516      0.989      1.506
REMARK  14 active torsions:
REMARK  status: ('A' for Active; 'I' for Inactive)
REMARK    1  A    between atoms: C2_2  and  O1_4 
REMARK    2  A    between atoms: O1_4  and  C4_5 
REMARK    3  A    between atoms: C4_5  and  C5_7 
REMARK    4  A    between atoms: C7_9  and  O3_10 
REMARK    5  A    between atoms: O3_10  and  C8_11 
REMARK    6  A    between atoms: C8_11  and  C9_13 
REMARK    7  A    between atoms: C9_13  and  C10_14 
REMARK    8  A    between atoms: C15_19  and  C16_20 
REMARK    9  A    between atoms: C16_20  and  O5_21 
REMARK   10  A    between atoms: O5_21  and  C17_22 
REMARK   11  A    between atoms: C17_22  and  C18_24 
REMARK   12  A    between atoms: C22_28  and  O7_29 
REMARK   13  A    between atoms: C22_28  and  C23_31 
REMARK   14  A    between atoms: C23_31  and  C24_33 
ROOT
HETATM    1  C5  UNL     1      26.319 -32.569  -6.334  1.00  0.00     0.130 C 
HETATM    2  C6  UNL     1      26.742 -33.839  -5.572  1.00  0.00     0.055 C 
HETATM    3  C7  UNL     1      27.784 -33.458  -4.529  1.00  0.00     0.161 C 
HETATM    4  C14 UNL     1      28.945 -32.958  -5.294  1.00  0.00    -0.049 C 
HETATM    5  C15 UNL     1      30.127 -33.488  -5.438  1.00  0.00     0.005 C 
HETATM    6  C21 UNL     1      28.615 -31.630  -6.001  1.00  0.00     0.083 C 
HETATM    7  C22 UNL     1      27.514 -31.997  -7.024  1.00  0.00     0.135 C 
ENDROOT
BRANCH   3   8
HETATM    8  O3  UNL     1      27.989 -34.475  -3.626  1.00  0.00    -0.311 OA
BRANCH   8   9
HETATM    9  C8  UNL     1      27.917 -34.317  -2.247  1.00  0.00     0.260 C 
HETATM   10  O4  UNL     1      28.398 -33.252  -1.783  1.00  0.00    -0.265 OA
BRANCH   9  11
HETATM   11  C9  UNL     1      27.325 -35.304  -1.343  1.00  0.00     0.119 C 
BRANCH  11  12
HETATM   12  C10 UNL     1      25.918 -34.924  -1.002  1.00  0.00    -0.043 C 
HETATM   13  C11 UNL     1      25.980 -34.118   0.299  1.00  0.00     0.015 C 
HETATM   14  C12 UNL     1      25.257 -34.067  -2.037  1.00  0.00     0.015 C 
HETATM   15  C13 UNL     1      25.034 -36.129  -0.757  1.00  0.00     0.015 C 
ENDBRANCH  11  12
ENDBRANCH   9  11
ENDBRANCH   8   9
ENDBRANCH   3   8
BRANCH   1  16
HETATM   16  C4  UNL     1      25.327 -33.038  -7.311  1.00  0.00     0.266 C 
HETATM   17  O2  UNL     1      25.395 -34.205  -7.754  1.00  0.00    -0.265 OA
BRANCH  16  18
HETATM   18  O1  UNL     1      24.288 -32.217  -7.777  1.00  0.00    -0.316 OA
BRANCH  18  19
HETATM   19  C2  UNL     1      23.018 -32.354  -7.173  1.00  0.00     0.123 C 
HETATM   20  C1  UNL     1      23.057 -31.741  -5.772  1.00  0.00     0.040 C 
HETATM   21  C3  UNL     1      21.938 -31.649  -7.964  1.00  0.00     0.040 C 
ENDBRANCH  18  19
ENDBRANCH  16  18
ENDBRANCH   1  16
BRANCH   5  22
HETATM   22  C16 UNL     1      30.700 -34.725  -4.911  1.00  0.00     0.206 C 
BRANCH  22  23
HETATM   23  O5  UNL     1      32.023 -34.934  -5.337  1.00  0.00    -0.317 OA
BRANCH  23  24
HETATM   24  C17 UNL     1      32.450 -34.940  -6.640  1.00  0.00     0.262 C 
HETATM   25  O6  UNL     1      33.514 -34.332  -6.927  1.00  0.00    -0.265 OA
BRANCH  24  26
HETATM   26  C18 UNL     1      31.712 -35.636  -7.731  1.00  0.00     0.077 C 
HETATM   27  C19 UNL     1      32.314 -35.270  -9.094  1.00  0.00     0.020 C 
HETATM   28  C20 UNL     1      31.661 -37.122  -7.536  1.00  0.00     0.020 C 
ENDBRANCH  24  26
ENDBRANCH  23  24
ENDBRANCH  22  23
ENDBRANCH   5  22
BRANCH   7  29
HETATM   29  O7  UNL     1      28.095 -33.099  -7.704  1.00  0.00    -0.381 OA
ATOM     30  H7  UNL     1      28.085 -32.846  -8.619  1.00  0.00     0.211 HD
ENDBRANCH   7  29
BRANCH   7  31
HETATM   31  C23 UNL     1      27.280 -30.886  -7.945  1.00  0.00     0.169 C 
HETATM   32  O8  UNL     1      27.708 -31.044  -9.112  1.00  0.00    -0.294 OA
BRANCH  31  33
HETATM   33  C24 UNL     1      26.614 -29.615  -7.690  1.00  0.00     0.013 C 
HETATM   34  C25 UNL     1      25.760 -29.524  -6.465  1.00  0.00     0.023 C 
HETATM   35  C26 UNL     1      27.599 -28.445  -7.602  1.00  0.00     0.023 C 
HETATM   36  C27 UNL     1      25.694 -29.225  -8.859  1.00  0.00     0.023 C 
ENDBRANCH  31  33
ENDBRANCH   7  31
TORSDOF 14
ENDMDL
MODEL 5
REMARK VINA RESULT: -7.690018999      1.484      5.975
REMARK  14 active torsions:
REMARK  status: ('A' for Active; 'I' for Inactive)
REMARK    1  A    between atoms: C2_2  and  O1_4 
REMARK    2  A    between atoms: O1_4  and  C4_5 
REMARK    3  A    between atoms: C4_5  and  C5_7 
REMARK    4  A    between atoms: C7_9  and  O3_10 
REMARK    5  A    between atoms: O3_10  and  C8_11 
REMARK    6  A    between atoms: C8_11  and  C9_13 
REMARK    7  A    between atoms: C9_13  and  C10_14 
REMARK    8  A    between atoms: C15_19  and  C16_20 
REMARK    9  A    between atoms: C16_20  and  O5_21 
REMARK   10  A    between atoms: O5_21  and  C17_22 
REMARK   11  A    between atoms: C17_22  and  C18_24 
REMARK   12  A    between atoms: C22_28  and  O7_29 
REMARK   13  A    between atoms: C22_28  and  C23_31 
REMARK   14  A    between atoms: C23_31  and  C24_33 
ROOT
HETATM    1  C5  UNL     1      28.083 -32.230  -6.613  1.00  0.00     0.130 C 
HETATM    2  C6  UNL     1      29.232 -32.455  -5.612  1.00  0.00     0.055 C 
HETATM    3  C7  UNL     1      29.448 -33.954  -5.448  1.00  0.00     0.161 C 
HETATM    4  C14 UNL     1      28.197 -34.471  -4.854  1.00  0.00    -0.049 C 
HETATM    5  C15 UNL     1      27.990 -34.956  -3.663  1.00  0.00     0.005 C 
HETATM    6  C21 UNL     1      27.025 -34.365  -5.848  1.00  0.00     0.083 C 
HETATM    7  C22 UNL     1      26.836 -32.845  -6.067  1.00  0.00     0.135 C 
ENDROOT
BRANCH   3   8
HETATM    8  O3  UNL     1      30.633 -34.225  -4.805  1.00  0.00    -0.311 OA
BRANCH   8   9
HETATM    9  C8  UNL     1      31.663 -34.977  -5.357  1.00  0.00     0.260 C 
HETATM   10  O4  UNL     1      32.749 -34.983  -4.723  1.00  0.00    -0.265 OA
BRANCH   9  11
HETATM   11  C9  UNL     1      31.543 -35.737  -6.603  1.00  0.00     0.119 C 
BRANCH  11  12
HETATM   12  C10 UNL     1      32.054 -34.932  -7.757  1.00  0.00    -0.043 C 
HETATM   13  C11 UNL     1      32.206 -35.896  -8.936  1.00  0.00     0.015 C 
HETATM   14  C12 UNL     1      31.130 -33.833  -8.183  1.00  0.00     0.015 C 
HETATM   15  C13 UNL     1      33.412 -34.321  -7.481  1.00  0.00     0.015 C 
ENDBRANCH  11  12
ENDBRANCH   9  11
ENDBRANCH   8   9
ENDBRANCH   3   8
BRANCH   1  16
HETATM   16  C4  UNL     1      27.949 -30.769  -6.698  1.00  0.00     0.266 C 
HETATM   17  O2  UNL     1      28.159 -30.065  -5.686  1.00  0.00    -0.265 OA
BRANCH  16  18
HETATM   18  O1  UNL     1      27.590 -30.117  -7.888  1.00  0.00    -0.316 OA
BRANCH  18  19
HETATM   19  C2  UNL     1      26.532 -29.183  -7.836  1.00  0.00     0.123 C 
HETATM   20  C1  UNL     1      27.102 -27.767  -7.944  1.00  0.00     0.040 C 
HETATM   21  C3  UNL     1      25.548 -29.380  -8.969  1.00  0.00     0.040 C 
ENDBRANCH  18  19
ENDBRANCH  16  18
ENDBRANCH   1  16
BRANCH   5  22
HETATM   22  C16 UNL     1      28.893 -35.152  -2.530  1.00  0.00     0.206 C 
BRANCH  22  23
HETATM   23  O5  UNL     1      28.237 -35.056  -1.291  1.00  0.00    -0.317 OA
BRANCH  23  24
HETATM   24  C17 UNL     1      26.890 -35.214  -1.087  1.00  0.00     0.262 C 
HETATM   25  O6  UNL     1      26.396 -36.365  -1.201  1.00  0.00    -0.265 OA
BRANCH  24  26
HETATM   26  C18 UNL     1      25.987 -34.083  -0.735  1.00  0.00     0.077 C 
HETATM   27  C19 UNL     1      25.131 -33.693  -1.947  1.00  0.00     0.020 C 
HETATM   28  C20 UNL     1      25.134 -34.377   0.464  1.00  0.00     0.020 C 
ENDBRANCH  24  26
ENDBRANCH  23  24
ENDBRANCH  22  23
ENDBRANCH   5  22
BRANCH   7  29
HETATM   29  O7  UNL     1      26.754 -32.361  -4.735  1.00  0.00    -0.381 OA
ATOM     30  H7  UNL     1      27.612 -31.991  -4.563  1.00  0.00     0.211 HD
ENDBRANCH   7  29
BRANCH   7  31
HETATM   31  C23 UNL     1      25.594 -32.582  -6.791  1.00  0.00     0.169 C 
HETATM   32  O8  UNL     1      25.633 -32.766  -8.029  1.00  0.00    -0.294 OA
BRANCH  31  33
HETATM   33  C24 UNL     1      24.310 -32.132  -6.265  1.00  0.00     0.013 C 
HETATM   34  C25 UNL     1      23.633 -33.015  -5.266  1.00  0.00     0.023 C 
HETATM   35  C26 UNL     1      24.398 -30.749  -5.612  1.00  0.00     0.023 C 
HETATM   36  C27 UNL     1      23.287 -31.933  -7.396  1.00  0.00     0.023 C 
ENDBRANCH  31  33
ENDBRANCH   7  31
TORSDOF 14
ENDMDL
