MODEL 1
REMARK VINA RESULT: -7.080612933      0.000      0.000
REMARK  7 active torsions:
REMARK  status: ('A' for Active; 'I' for Inactive)
REMARK    1  A    between atoms: O1_2  and  C2_3 
REMARK    2  A    between atoms: C6_7  and  N1_9 
REMARK       I    between atoms: N2_12  and  C10_13 
REMARK    3  A    between atoms: C10_13  and  C11_15 
REMARK    4  A    between atoms: C11_15  and  C12_16 
REMARK    5  A    between atoms: C12_16  and  C13_17 
REMARK    6  A    between atoms: C18_22  and  C19_23 
REMARK    7  A    between atoms: N5_29  and  C21_31 
ROOT
HETATM    1  C11 UNL     1      10.214  -5.122 -11.703  1.00  0.00     0.078 C 
HETATM    2  N5  UNL     1      10.761  -5.212 -10.459  1.00  0.00    -0.380 N 
ATOM      3  H5  UNL     1      10.815  -4.309  -9.988  1.00  0.00     0.160 HD
ENDROOT
BRANCH   1   4
HETATM    4  C10 UNL     1      10.835  -5.663 -12.918  1.00  0.00     0.266 C 
HETATM    5  N2  UNL     1      12.083  -5.291 -13.466  1.00  0.00    -0.344 N 
HETATM    6  C9  UNL     1      12.469  -5.998 -14.719  1.00  0.00     0.145 C 
HETATM    7  C25 UNL     1      12.956  -4.318 -12.921  1.00  0.00     0.145 C 
HETATM    8  C8  UNL     1      13.668  -5.256 -15.314  1.00  0.00     0.137 C 
HETATM    9  N1  UNL     1      14.699  -5.332 -14.344  1.00  0.00    -0.401 N 
HETATM   10  C26 UNL     1      14.419  -4.627 -13.122  1.00  0.00     0.137 C 
HETATM   11  O2  UNL     1      10.225  -6.549 -13.568  1.00  0.00    -0.266 OA
BRANCH   9  12
HETATM   12  C6  UNL     1      16.041  -5.216 -14.782  1.00  0.00     0.024 C 
HETATM   13  C5  UNL     1      16.797  -6.516 -14.820  1.00  0.00     0.033 C 
HETATM   14  C4  UNL     1      17.782  -6.601 -13.686  1.00  0.00     0.040 C 
HETATM   15  C2  UNL     1      18.949  -5.631 -13.924  1.00  0.00     0.057 C 
HETATM   16  C3  UNL     1      19.723  -6.191 -15.085  1.00  0.00     0.046 C 
HETATM   17  C28 UNL     1      18.345  -4.302 -14.318  1.00  0.00     0.040 C 
HETATM   18  C27 UNL     1      16.867  -4.246 -13.969  1.00  0.00     0.033 C 
HETATM   19  C7  UNL     1      15.982  -4.630 -16.202  1.00  0.00     0.038 C 
BRANCH  15  20
HETATM   20  O1  UNL     1      19.638  -5.578 -12.741  1.00  0.00    -0.385 OA
HETATM   21  C1  UNL     1      19.308  -6.497 -11.783  1.00  0.00     0.202 C 
ENDBRANCH  15  20
ENDBRANCH   9  12
ENDBRANCH   1   4
BRANCH   1  22
HETATM   22  C12 UNL     1       8.707  -5.125 -11.808  1.00  0.00     0.101 C 
BRANCH  22  23
HETATM   23  C13 UNL     1       8.132  -3.792 -12.072  1.00  0.00    -0.051 A 
HETATM   24  C14 UNL     1       7.373  -3.050 -11.203  1.00  0.00     0.014 A 
HETATM   25  C15 UNL     1       6.866  -1.806 -11.490  1.00  0.00    -0.061 A 
HETATM   26  C16 UNL     1       6.045  -1.052 -10.491  1.00  0.00     0.048 C 
HETATM   27  C17 UNL     1       7.107  -1.225 -12.718  1.00  0.00     0.021 A 
HETATM   28  C18 UNL     1       7.872  -1.932 -13.642  1.00  0.00     0.005 A 
HETATM   29  C20 UNL     1       8.360  -3.170 -13.317  1.00  0.00     0.022 A 
BRANCH  28  30
HETATM   30  C19 UNL     1       8.112  -1.308 -14.936  1.00  0.00     0.120 C 
HETATM   31  N3  UNL     1       9.213  -1.474 -15.583  1.00  0.00    -0.387 N 
ATOM     32  H32 UNL     1       9.919  -2.066 -15.144  1.00  0.00     0.157 HD
ATOM     33  H31 UNL     1       9.382  -1.037 -16.490  1.00  0.00     0.157 HD
HETATM   34  N4  UNL     1       7.133  -0.487 -15.545  1.00  0.00    -0.082 NA
ENDBRANCH  28  30
ENDBRANCH  22  23
ENDBRANCH   1  22
BRANCH   2  35
HETATM   35  C21 UNL     1      11.255  -6.235  -9.695  1.00  0.00     0.019 C 
HETATM   36  C22 UNL     1      11.310  -5.952  -8.174  1.00  0.00     0.037 C 
HETATM   37  C23 UNL     1      12.615  -6.832 -10.045  1.00  0.00     0.037 C 
HETATM   38  C24 UNL     1      10.301  -7.430  -9.812  1.00  0.00     0.037 C 
ENDBRANCH   2  35
TORSDOF 7
ENDMDL
MODEL 2
REMARK VINA RESULT: -6.993117167      2.280      3.268
REMARK  7 active torsions:
REMARK  status: ('A' for Active; 'I' for Inactive)
REMARK    1  A    between atoms: O1_2  and  C2_3 
REMARK    2  A    between atoms: C6_7  and  N1_9 
REMARK       I    between atoms: N2_12  and  C10_13 
REMARK    3  A    between atoms: C10_13  and  C11_15 
REMARK    4  A    between atoms: C11_15  and  C12_16 
REMARK    5  A    between atoms: C12_16  and  C13_17 
REMARK    6  A    between atoms: C18_22  and  C19_23 
REMARK    7  A    between atoms: N5_29  and  C21_31 
ROOT
HETATM    1  C11 UNL     1       9.118  -5.828 -10.956  1.00  0.00     0.078 C 
HETATM    2  N5  UNL     1       7.963  -6.054 -11.642  1.00  0.00    -0.380 N 
ATOM      3  H5  UNL     1       7.137  -5.735 -11.135  1.00  0.00     0.160 HD
ENDROOT
BRANCH   1   4
HETATM    4  C10 UNL     1      10.131  -6.855 -10.685  1.00  0.00     0.266 C 
HETATM    5  N2  UNL     1      11.396  -6.975 -11.302  1.00  0.00    -0.344 N 
HETATM    6  C9  UNL     1      12.227  -8.124 -10.843  1.00  0.00     0.145 C 
HETATM    7  C25 UNL     1      11.904  -6.107 -12.300  1.00  0.00     0.145 C 
HETATM    8  C8  UNL     1      13.394  -8.267 -11.822  1.00  0.00     0.137 C 
HETATM    9  N1  UNL     1      14.118  -7.050 -11.753  1.00  0.00    -0.401 N 
HETATM   10  C26 UNL     1      13.397  -5.901 -12.230  1.00  0.00     0.137 C 
HETATM   11  O2  UNL     1       9.885  -7.738  -9.826  1.00  0.00    -0.266 OA
BRANCH   9  12
HETATM   12  C6  UNL     1      15.487  -7.063 -12.116  1.00  0.00     0.024 C 
HETATM   13  C5  UNL     1      15.881  -8.205 -13.013  1.00  0.00     0.033 C 
HETATM   14  C4  UNL     1      16.667  -9.241 -12.256  1.00  0.00     0.040 C 
HETATM   15  C2  UNL     1      18.064  -8.701 -11.915  1.00  0.00     0.057 C 
HETATM   16  C3  UNL     1      18.801  -8.609 -13.223  1.00  0.00     0.046 C 
HETATM   17  C28 UNL     1      17.876  -7.314 -11.347  1.00  0.00     0.040 C 
HETATM   18  C27 UNL     1      16.431  -7.080 -10.936  1.00  0.00     0.033 C 
HETATM   19  C7  UNL     1      15.752  -5.738 -12.848  1.00  0.00     0.038 C 
BRANCH  15  20
HETATM   20  O1  UNL     1      18.596  -9.583 -11.013  1.00  0.00    -0.385 OA
HETATM   21  C1  UNL     1      17.720 -10.373 -10.319  1.00  0.00     0.202 C 
ENDBRANCH  15  20
ENDBRANCH   9  12
ENDBRANCH   1   4
BRANCH   1  22
HETATM   22  C12 UNL     1       9.742  -4.456 -11.067  1.00  0.00     0.101 C 
BRANCH  22  23
HETATM   23  C13 UNL     1       8.807  -3.422 -11.551  1.00  0.00    -0.051 A 
HETATM   24  C14 UNL     1       7.797  -2.840 -10.829  1.00  0.00     0.014 A 
HETATM   25  C15 UNL     1       6.955  -1.872 -11.320  1.00  0.00    -0.061 A 
HETATM   26  C16 UNL     1       5.873  -1.279 -10.472  1.00  0.00     0.048 C 
HETATM   27  C17 UNL     1       7.094  -1.426 -12.618  1.00  0.00     0.021 A 
HETATM   28  C18 UNL     1       8.103  -1.981 -13.400  1.00  0.00     0.005 A 
HETATM   29  C20 UNL     1       8.922  -2.944 -12.872  1.00  0.00     0.022 A 
BRANCH  28  30
HETATM   30  C19 UNL     1       8.233  -1.505 -14.770  1.00  0.00     0.120 C 
HETATM   31  N3  UNL     1       9.253  -1.792 -15.503  1.00  0.00    -0.387 N 
ATOM     32  H32 UNL     1       9.976  -2.372 -15.075  1.00  0.00     0.157 HD
ATOM     33  H31 UNL     1       9.344  -1.458 -16.463  1.00  0.00     0.157 HD
HETATM   34  N4  UNL     1       7.229  -0.700 -15.363  1.00  0.00    -0.082 NA
ENDBRANCH  28  30
ENDBRANCH  22  23
ENDBRANCH   1  22
BRANCH   2  35
HETATM   35  C21 UNL     1       7.655  -6.611 -12.854  1.00  0.00     0.019 C 
HETATM   36  C22 UNL     1       7.257  -8.107 -12.807  1.00  0.00     0.037 C 
HETATM   37  C23 UNL     1       8.657  -6.495 -13.999  1.00  0.00     0.037 C 
HETATM   38  C24 UNL     1       6.404  -5.914 -13.402  1.00  0.00     0.037 C 
ENDBRANCH   2  35
TORSDOF 7
ENDMDL
MODEL 3
REMARK VINA RESULT: -6.851626781      1.678      2.583
REMARK  7 active torsions:
REMARK  status: ('A' for Active; 'I' for Inactive)
REMARK    1  A    between atoms: O1_2  and  C2_3 
REMARK    2  A    between atoms: C6_7  and  N1_9 
REMARK       I    between atoms: N2_12  and  C10_13 
REMARK    3  A    between atoms: C10_13  and  C11_15 
REMARK    4  A    between atoms: C11_15  and  C12_16 
REMARK    5  A    between atoms: C12_16  and  C13_17 
REMARK    6  A    between atoms: C18_22  and  C19_23 
REMARK    7  A    between atoms: N5_29  and  C21_31 
ROOT
HETATM    1  C11 UNL     1       9.353  -5.658 -10.859  1.00  0.00     0.078 C 
HETATM    2  N5  UNL     1       8.106  -5.917 -11.343  1.00  0.00    -0.380 N 
ATOM      3  H5  UNL     1       7.375  -5.751 -10.652  1.00  0.00     0.160 HD
ENDROOT
BRANCH   1   4
HETATM    4  C10 UNL     1      10.477  -6.599 -10.929  1.00  0.00     0.266 C 
HETATM    5  N2  UNL     1      11.585  -6.526 -11.802  1.00  0.00    -0.344 N 
HETATM    6  C9  UNL     1      12.581  -7.626 -11.667  1.00  0.00     0.145 C 
HETATM    7  C25 UNL     1      11.797  -5.513 -12.770  1.00  0.00     0.145 C 
HETATM    8  C8  UNL     1      13.518  -7.549 -12.874  1.00  0.00     0.137 C 
HETATM    9  N1  UNL     1      14.143  -6.278 -12.807  1.00  0.00    -0.401 N 
HETATM   10  C26 UNL     1      13.250  -5.165 -12.983  1.00  0.00     0.137 C 
HETATM   11  O2  UNL     1      10.491  -7.587 -10.152  1.00  0.00    -0.266 OA
BRANCH   9  12
HETATM   12  C6  UNL     1      15.399  -6.115 -13.442  1.00  0.00     0.024 C 
HETATM   13  C5  UNL     1      16.484  -7.014 -12.915  1.00  0.00     0.033 C 
HETATM   14  C4  UNL     1      17.460  -6.243 -12.069  1.00  0.00     0.040 C 
HETATM   15  C2  UNL     1      18.313  -5.321 -12.953  1.00  0.00     0.057 C 
HETATM   16  C3  UNL     1      19.205  -6.226 -13.756  1.00  0.00     0.046 C 
HETATM   17  C28 UNL     1      17.365  -4.598 -13.881  1.00  0.00     0.040 C 
HETATM   18  C27 UNL     1      15.930  -4.701 -13.391  1.00  0.00     0.033 C 
HETATM   19  C7  UNL     1      15.173  -6.424 -14.931  1.00  0.00     0.038 C 
BRANCH  15  20
HETATM   20  O1  UNL     1      18.967  -4.479 -12.093  1.00  0.00    -0.385 OA
HETATM   21  C1  UNL     1      20.092  -3.856 -12.560  1.00  0.00     0.202 C 
ENDBRANCH  15  20
ENDBRANCH   9  12
ENDBRANCH   1   4
BRANCH   1  22
HETATM   22  C12 UNL     1       9.833  -4.225 -10.890  1.00  0.00     0.101 C 
BRANCH  22  23
HETATM   23  C13 UNL     1       8.826  -3.279 -11.408  1.00  0.00    -0.051 A 
HETATM   24  C14 UNL     1       7.793  -2.725 -10.698  1.00  0.00     0.014 A 
HETATM   25  C15 UNL     1       6.884  -1.838 -11.221  1.00  0.00    -0.061 A 
HETATM   26  C16 UNL     1       5.779  -1.271 -10.385  1.00  0.00     0.048 C 
HETATM   27  C17 UNL     1       6.974  -1.453 -12.543  1.00  0.00     0.021 A 
HETATM   28  C18 UNL     1       8.004  -1.984 -13.315  1.00  0.00     0.005 A 
HETATM   29  C20 UNL     1       8.891  -2.864 -12.754  1.00  0.00     0.022 A 
BRANCH  28  30
HETATM   30  C19 UNL     1       8.082  -1.572 -14.710  1.00  0.00     0.120 C 
HETATM   31  N3  UNL     1       7.523  -0.493 -15.139  1.00  0.00    -0.387 N 
ATOM     32  H32 UNL     1       7.015   0.065 -14.452  1.00  0.00     0.157 HD
ATOM     33  H31 UNL     1       7.578  -0.205 -16.116  1.00  0.00     0.157 HD
HETATM   34  N4  UNL     1       8.787  -2.347 -15.663  1.00  0.00    -0.082 NA
ENDBRANCH  28  30
ENDBRANCH  22  23
ENDBRANCH   1  22
BRANCH   2  35
HETATM   35  C21 UNL     1       7.609  -6.350 -12.543  1.00  0.00     0.019 C 
HETATM   36  C22 UNL     1       7.204  -7.843 -12.586  1.00  0.00     0.037 C 
HETATM   37  C23 UNL     1       8.424  -6.115 -13.811  1.00  0.00     0.037 C 
HETATM   38  C24 UNL     1       6.298  -5.605 -12.820  1.00  0.00     0.037 C 
ENDBRANCH   2  35
TORSDOF 7
ENDMDL
MODEL 4
REMARK VINA RESULT: -6.721534609      2.129      3.223
REMARK  7 active torsions:
REMARK  status: ('A' for Active; 'I' for Inactive)
REMARK    1  A    between atoms: O1_2  and  C2_3 
REMARK    2  A    between atoms: C6_7  and  N1_9 
REMARK       I    between atoms: N2_12  and  C10_13 
REMARK    3  A    between atoms: C10_13  and  C11_15 
REMARK    4  A    between atoms: C11_15  and  C12_16 
REMARK    5  A    between atoms: C12_16  and  C13_17 
REMARK    6  A    between atoms: C18_22  and  C19_23 
REMARK    7  A    between atoms: N5_29  and  C21_31 
ROOT
HETATM    1  C11 UNL     1      10.286  -5.823 -10.036  1.00  0.00     0.078 C 
HETATM    2  N5  UNL     1       9.212  -6.423 -10.621  1.00  0.00    -0.380 N 
ATOM      3  H5  UNL     1       8.326  -6.125 -10.211  1.00  0.00     0.160 HD
ENDROOT
BRANCH   1   4
HETATM    4  C10 UNL     1      11.448  -6.546  -9.507  1.00  0.00     0.266 C 
HETATM    5  N2  UNL     1      12.546  -7.038 -10.248  1.00  0.00    -0.344 N 
HETATM    6  C9  UNL     1      13.588  -7.748  -9.455  1.00  0.00     0.145 C 
HETATM    7  C25 UNL     1      12.708  -6.908 -11.650  1.00  0.00     0.145 C 
HETATM    8  C8  UNL     1      14.512  -8.462 -10.445  1.00  0.00     0.137 C 
HETATM    9  N1  UNL     1      15.084  -7.446 -11.252  1.00  0.00    -0.401 N 
HETATM   10  C26 UNL     1      14.143  -6.749 -12.087  1.00  0.00     0.137 C 
HETATM   11  O2  UNL     1      11.510  -6.775  -8.273  1.00  0.00    -0.266 OA
BRANCH   9  12
HETATM   12  C6  UNL     1      16.327  -7.709 -11.879  1.00  0.00     0.024 C 
HETATM   13  C5  UNL     1      17.469  -6.873 -11.370  1.00  0.00     0.033 C 
HETATM   14  C4  UNL     1      17.847  -5.810 -12.366  1.00  0.00     0.040 C 
HETATM   15  C2  UNL     1      18.532  -6.447 -13.585  1.00  0.00     0.057 C 
HETATM   16  C3  UNL     1      19.866  -6.942 -13.097  1.00  0.00     0.046 C 
HETATM   17  C28 UNL     1      17.683  -7.625 -14.003  1.00  0.00     0.040 C 
HETATM   18  C27 UNL     1      16.298  -7.553 -13.382  1.00  0.00     0.033 C 
HETATM   19  C7  UNL     1      16.636  -9.192 -11.617  1.00  0.00     0.038 C 
BRANCH  15  20
HETATM   20  O1  UNL     1      18.592  -5.464 -14.536  1.00  0.00    -0.385 OA
HETATM   21  C1  UNL     1      17.950  -4.288 -14.262  1.00  0.00     0.202 C 
ENDBRANCH  15  20
ENDBRANCH   9  12
ENDBRANCH   1   4
BRANCH   1  22
HETATM   22  C12 UNL     1      10.673  -4.446 -10.526  1.00  0.00     0.101 C 
BRANCH  22  23
HETATM   23  C13 UNL     1       9.574  -3.734 -11.208  1.00  0.00    -0.051 A 
HETATM   24  C14 UNL     1       8.447  -3.227 -10.616  1.00  0.00     0.014 A 
HETATM   25  C15 UNL     1       7.452  -2.562 -11.292  1.00  0.00    -0.061 A 
HETATM   26  C16 UNL     1       6.247  -2.033 -10.579  1.00  0.00     0.048 C 
HETATM   27  C17 UNL     1       7.550  -2.369 -12.654  1.00  0.00     0.021 A 
HETATM   28  C18 UNL     1       8.673  -2.864 -13.311  1.00  0.00     0.005 A 
HETATM   29  C20 UNL     1       9.643  -3.521 -12.600  1.00  0.00     0.022 A 
BRANCH  28  30
HETATM   30  C19 UNL     1       8.758  -2.659 -14.750  1.00  0.00     0.120 C 
HETATM   31  N3  UNL     1       9.827  -2.220 -15.319  1.00  0.00    -0.387 N 
ATOM     32  H32 UNL     1      10.621  -2.018 -14.709  1.00  0.00     0.157 HD
ATOM     33  H31 UNL     1       9.886  -2.076 -16.327  1.00  0.00     0.157 HD
HETATM   34  N4  UNL     1       7.657  -2.940 -15.595  1.00  0.00    -0.082 NA
ENDBRANCH  28  30
ENDBRANCH  22  23
ENDBRANCH   1  22
BRANCH   2  35
HETATM   35  C21 UNL     1       9.047  -7.333 -11.630  1.00  0.00     0.019 C 
HETATM   36  C22 UNL     1       9.403  -8.793 -11.262  1.00  0.00     0.037 C 
HETATM   37  C23 UNL     1       9.721  -7.078 -12.975  1.00  0.00     0.037 C 
HETATM   38  C24 UNL     1       7.557  -7.395 -11.985  1.00  0.00     0.037 C 
ENDBRANCH   2  35
TORSDOF 7
ENDMDL
MODEL 5
REMARK VINA RESULT: -6.700074538      2.617      3.813
REMARK  7 active torsions:
REMARK  status: ('A' for Active; 'I' for Inactive)
REMARK    1  A    between atoms: O1_2  and  C2_3 
REMARK    2  A    between atoms: C6_7  and  N1_9 
REMARK       I    between atoms: N2_12  and  C10_13 
REMARK    3  A    between atoms: C10_13  and  C11_15 
REMARK    4  A    between atoms: C11_15  and  C12_16 
REMARK    5  A    between atoms: C12_16  and  C13_17 
REMARK    6  A    between atoms: C18_22  and  C19_23 
REMARK    7  A    between atoms: N5_29  and  C21_31 
ROOT
HETATM    1  C11 UNL     1      11.241  -6.314  -9.734  1.00  0.00     0.078 C 
HETATM    2  N5  UNL     1      10.111  -6.877 -10.247  1.00  0.00    -0.380 N 
ATOM      3  H5  UNL     1       9.299  -6.743  -9.645  1.00  0.00     0.160 HD
ENDROOT
BRANCH   1   4
HETATM    4  C10 UNL     1      12.514  -7.026  -9.565  1.00  0.00     0.266 C 
HETATM    5  N2  UNL     1      13.538  -7.163 -10.528  1.00  0.00    -0.344 N 
HETATM    6  C9  UNL     1      14.726  -7.949 -10.093  1.00  0.00     0.145 C 
HETATM    7  C25 UNL     1      13.505  -6.624 -11.838  1.00  0.00     0.145 C 
HETATM    8  C8  UNL     1      15.562  -8.247 -11.339  1.00  0.00     0.137 C 
HETATM    9  N1  UNL     1      15.946  -6.987 -11.866  1.00  0.00    -0.401 N 
HETATM   10  C26 UNL     1      14.854  -6.190 -12.356  1.00  0.00     0.137 C 
HETATM   11  O2  UNL     1      12.754  -7.587  -8.467  1.00  0.00    -0.266 OA
BRANCH   9  12
HETATM   12  C6  UNL     1      17.112  -6.923 -12.667  1.00  0.00     0.024 C 
HETATM   13  C5  UNL     1      18.033  -5.781 -12.336  1.00  0.00     0.033 C 
HETATM   14  C4  UNL     1      17.954  -4.702 -13.381  1.00  0.00     0.040 C 
HETATM   15  C2  UNL     1      18.612  -5.178 -14.685  1.00  0.00     0.057 C 
HETATM   16  C3  UNL     1      20.086  -5.261 -14.397  1.00  0.00     0.046 C 
HETATM   17  C28 UNL     1      18.078  -6.563 -14.969  1.00  0.00     0.040 C 
HETATM   18  C27 UNL     1      16.830  -6.849 -14.151  1.00  0.00     0.033 C 
HETATM   19  C7  UNL     1      17.859  -8.248 -12.448  1.00  0.00     0.038 C 
BRANCH  15  20
HETATM   20  O1  UNL     1      18.260  -4.261 -15.638  1.00  0.00    -0.385 OA
HETATM   21  C1  UNL     1      19.042  -3.145 -15.753  1.00  0.00     0.202 C 
ENDBRANCH  15  20
ENDBRANCH   9  12
ENDBRANCH   1   4
BRANCH   1  22
HETATM   22  C12 UNL     1      11.464  -4.840  -9.982  1.00  0.00     0.101 C 
BRANCH  22  23
HETATM   23  C13 UNL     1      10.410  -4.215 -10.804  1.00  0.00    -0.051 A 
HETATM   24  C14 UNL     1      10.445  -4.027 -12.161  1.00  0.00     0.014 A 
HETATM   25  C15 UNL     1       9.433  -3.447 -12.887  1.00  0.00    -0.061 A 
HETATM   26  C16 UNL     1       9.539  -3.275 -14.370  1.00  0.00     0.048 C 
HETATM   27  C17 UNL     1       8.289  -3.008 -12.253  1.00  0.00     0.021 A 
HETATM   28  C18 UNL     1       8.197  -3.172 -10.873  1.00  0.00     0.005 A 
HETATM   29  C20 UNL     1       9.228  -3.756 -10.186  1.00  0.00     0.022 A 
BRANCH  28  30
HETATM   30  C19 UNL     1       6.986  -2.697 -10.217  1.00  0.00     0.120 C 
HETATM   31  N3  UNL     1       5.838  -3.246 -10.417  1.00  0.00    -0.387 N 
ATOM     32  H32 UNL     1       5.813  -4.034 -11.064  1.00  0.00     0.157 HD
ATOM     33  H31 UNL     1       4.990  -2.913  -9.957  1.00  0.00     0.157 HD
HETATM   34  N4  UNL     1       7.022  -1.603  -9.319  1.00  0.00    -0.082 NA
ENDBRANCH  28  30
ENDBRANCH  22  23
ENDBRANCH   1  22
BRANCH   2  35
HETATM   35  C21 UNL     1       9.816  -7.581 -11.384  1.00  0.00     0.019 C 
HETATM   36  C22 UNL     1       9.904  -9.120 -11.244  1.00  0.00     0.037 C 
HETATM   37  C23 UNL     1      10.557  -7.248 -12.675  1.00  0.00     0.037 C 
HETATM   38  C24 UNL     1       8.346  -7.327 -11.740  1.00  0.00     0.037 C 
ENDBRANCH   2  35
TORSDOF 7
ENDMDL
