MODEL 1
REMARK VINA RESULT: -9.697455533      0.000      0.000
REMARK  4 active torsions:
REMARK  status: ('A' for Active; 'I' for Inactive)
REMARK    1  A    between atoms: C2_2  and  C3_3 
REMARK    2  A    between atoms: C3_3  and  C4_4 
REMARK    3  A    between atoms: C3_3  and  C15_18 
REMARK       I    between atoms: C4_4  and  N1_6 
REMARK    4  A    between atoms: N1_6  and  C5_8 
ROOT
HETATM    1  C4  UNL     1      63.389  47.619  29.110  1.00  0.00     0.222 C 
HETATM    2  O1  UNL     1      63.500  48.303  30.168  1.00  0.00    -0.273 OA
HETATM    3  N1  UNL     1      64.393  46.678  28.754  1.00  0.00    -0.351 N 
ATOM      4  H1  UNL     1      64.266  46.145  27.893  1.00  0.00     0.163 HD
ENDROOT
BRANCH   3   5
HETATM    5  C5  UNL     1      65.571  46.430  29.528  1.00  0.00     0.034 C 
HETATM    6  C6  UNL     1      65.936  44.969  29.388  1.00  0.00     0.035 C 
HETATM    7  C7  UNL     1      67.199  44.604  30.100  1.00  0.00    -0.012 C 
HETATM    8  C8  UNL     1      67.017  44.918  31.567  1.00  0.00     0.009 C 
HETATM    9  C12 UNL     1      68.367  45.424  29.597  1.00  0.00     0.009 C 
HETATM   10  C9  UNL     1      66.684  46.374  31.706  1.00  0.00    -0.012 C 
HETATM   11  C10 UNL     1      67.808  47.231  31.172  1.00  0.00     0.009 C 
HETATM   12  C14 UNL     1      65.380  46.701  31.000  1.00  0.00     0.035 C 
HETATM   13  C11 UNL     1      68.014  46.873  29.731  1.00  0.00    -0.012 C 
HETATM   14  C13 UNL     1      66.755  47.217  28.976  1.00  0.00     0.035 C 
ENDBRANCH   3   5
BRANCH   1  15
HETATM   15  C3  UNL     1      62.215  47.810  28.261  1.00  0.00     0.081 C 
BRANCH  15  16
HETATM   16  C2  UNL     1      62.144  49.235  27.704  1.00  0.00     0.010 C 
HETATM   17  C1  UNL     1      63.254  49.467  26.702  1.00  0.00     0.006 C 
ENDBRANCH  15  16
BRANCH  15  18
HETATM   18  C15 UNL     1      60.911  47.573  28.981  1.00  0.00    -0.002 C 
HETATM   19  C16 UNL     1      59.735  47.841  28.100  1.00  0.00     0.005 C 
HETATM   20  C17 UNL     1      58.659  46.786  28.229  1.00  0.00     0.000 C 
HETATM   21  C18 UNL     1      58.357  46.458  29.667  1.00  0.00     0.000 C 
HETATM   22  C19 UNL     1      59.593  46.175  30.467  1.00  0.00     0.000 C 
HETATM   23  C20 UNL     1      60.785  46.178  29.534  1.00  0.00     0.005 C 
ENDBRANCH  15  18
ENDBRANCH   1  15
TORSDOF 4
ENDMDL
MODEL 2
REMARK VINA RESULT: -9.687628551      0.117      1.576
REMARK  4 active torsions:
REMARK  status: ('A' for Active; 'I' for Inactive)
REMARK    1  A    between atoms: C2_2  and  C3_3 
REMARK    2  A    between atoms: C3_3  and  C4_4 
REMARK    3  A    between atoms: C3_3  and  C15_18 
REMARK       I    between atoms: C4_4  and  N1_6 
REMARK    4  A    between atoms: N1_6  and  C5_8 
ROOT
HETATM    1  C4  UNL     1      63.406  47.595  28.990  1.00  0.00     0.222 C 
HETATM    2  O1  UNL     1      63.562  48.286  30.037  1.00  0.00    -0.273 OA
HETATM    3  N1  UNL     1      64.388  46.640  28.607  1.00  0.00    -0.351 N 
ATOM      4  H1  UNL     1      64.225  46.102  27.755  1.00  0.00     0.163 HD
ENDROOT
BRANCH   3   5
HETATM    5  C5  UNL     1      65.589  46.386  29.341  1.00  0.00     0.034 C 
HETATM    6  C6  UNL     1      65.343  46.727  30.794  1.00  0.00     0.035 C 
HETATM    7  C7  UNL     1      66.514  46.434  31.676  1.00  0.00    -0.012 C 
HETATM    8  C8  UNL     1      67.688  47.246  31.182  1.00  0.00     0.009 C 
HETATM    9  C12 UNL     1      66.902  44.974  31.603  1.00  0.00     0.009 C 
HETATM   10  C9  UNL     1      67.950  46.885  29.750  1.00  0.00    -0.012 C 
HETATM   11  C10 UNL     1      68.298  45.420  29.625  1.00  0.00     0.009 C 
HETATM   12  C14 UNL     1      66.755  47.227  28.878  1.00  0.00     0.035 C 
HETATM   13  C11 UNL     1      67.147  44.626  30.167  1.00  0.00    -0.012 C 
HETATM   14  C13 UNL     1      65.940  44.902  29.307  1.00  0.00     0.035 C 
ENDBRANCH   3   5
BRANCH   1  15
HETATM   15  C3  UNL     1      62.206  47.791  28.181  1.00  0.00     0.081 C 
BRANCH  15  16
HETATM   16  C2  UNL     1      62.129  49.214  27.617  1.00  0.00     0.010 C 
HETATM   17  C1  UNL     1      63.322  49.497  26.730  1.00  0.00     0.006 C 
ENDBRANCH  15  16
BRANCH  15  18
HETATM   18  C15 UNL     1      60.926  47.571  28.946  1.00  0.00    -0.002 C 
HETATM   19  C16 UNL     1      59.722  47.795  28.090  1.00  0.00     0.005 C 
HETATM   20  C17 UNL     1      58.660  46.737  28.291  1.00  0.00     0.000 C 
HETATM   21  C18 UNL     1      58.403  46.462  29.748  1.00  0.00     0.000 C 
HETATM   22  C19 UNL     1      59.664  46.222  30.523  1.00  0.00     0.000 C 
HETATM   23  C20 UNL     1      60.829  46.198  29.556  1.00  0.00     0.005 C 
ENDBRANCH  15  18
ENDBRANCH   1  15
TORSDOF 4
ENDMDL
MODEL 3
REMARK VINA RESULT: -9.585330952      0.097      1.570
REMARK  4 active torsions:
REMARK  status: ('A' for Active; 'I' for Inactive)
REMARK    1  A    between atoms: C2_2  and  C3_3 
REMARK    2  A    between atoms: C3_3  and  C4_4 
REMARK    3  A    between atoms: C3_3  and  C15_18 
REMARK       I    between atoms: C4_4  and  N1_6 
REMARK    4  A    between atoms: N1_6  and  C5_8 
ROOT
HETATM    1  C4  UNL     1      63.403  47.556  29.057  1.00  0.00     0.222 C 
HETATM    2  O1  UNL     1      63.560  48.238  30.109  1.00  0.00    -0.273 OA
HETATM    3  N1  UNL     1      64.357  46.567  28.692  1.00  0.00    -0.351 N 
ATOM      4  H1  UNL     1      64.194  46.038  27.835  1.00  0.00     0.163 HD
ENDROOT
BRANCH   3   5
HETATM    5  C5  UNL     1      65.531  46.266  29.453  1.00  0.00     0.034 C 
HETATM    6  C6  UNL     1      66.668  47.119  28.935  1.00  0.00     0.035 C 
HETATM    7  C7  UNL     1      67.938  46.942  29.704  1.00  0.00    -0.012 C 
HETATM    8  C8  UNL     1      68.343  45.489  29.610  1.00  0.00     0.009 C 
HETATM    9  C12 UNL     1      67.741  47.270  31.167  1.00  0.00     0.009 C 
HETATM   10  C9  UNL     1      67.227  44.646  30.151  1.00  0.00    -0.012 C 
HETATM   11  C10 UNL     1      66.967  44.975  31.603  1.00  0.00     0.009 C 
HETATM   12  C14 UNL     1      65.964  44.825  29.328  1.00  0.00     0.035 C 
HETATM   13  C11 UNL     1      66.617  46.430  31.689  1.00  0.00    -0.012 C 
HETATM   14  C13 UNL     1      65.342  46.654  30.915  1.00  0.00     0.035 C 
ENDBRANCH   3   5
BRANCH   1  15
HETATM   15  C3  UNL     1      62.230  47.799  28.221  1.00  0.00     0.081 C 
BRANCH  15  16
HETATM   16  C2  UNL     1      62.193  49.240  27.701  1.00  0.00     0.010 C 
HETATM   17  C1  UNL     1      63.375  49.505  26.794  1.00  0.00     0.006 C 
ENDBRANCH  15  16
BRANCH  15  18
HETATM   18  C15 UNL     1      60.925  47.578  28.943  1.00  0.00    -0.002 C 
HETATM   19  C16 UNL     1      59.750  47.857  28.063  1.00  0.00     0.005 C 
HETATM   20  C17 UNL     1      58.662  46.814  28.196  1.00  0.00     0.000 C 
HETATM   21  C18 UNL     1      58.359  46.492  29.635  1.00  0.00     0.000 C 
HETATM   22  C19 UNL     1      59.594  46.198  30.434  1.00  0.00     0.000 C 
HETATM   23  C20 UNL     1      60.784  46.185  29.499  1.00  0.00     0.005 C 
ENDBRANCH  15  18
ENDBRANCH   1  15
TORSDOF 4
ENDMDL
MODEL 4
REMARK VINA RESULT: -9.362567067      1.420      1.910
REMARK  4 active torsions:
REMARK  status: ('A' for Active; 'I' for Inactive)
REMARK    1  A    between atoms: C2_2  and  C3_3 
REMARK    2  A    between atoms: C3_3  and  C4_4 
REMARK    3  A    between atoms: C3_3  and  C15_18 
REMARK       I    between atoms: C4_4  and  N1_6 
REMARK    4  A    between atoms: N1_6  and  C5_8 
ROOT
HETATM    1  C4  UNL     1      64.412  47.840  29.941  1.00  0.00     0.222 C 
HETATM    2  O1  UNL     1      64.432  48.904  30.623  1.00  0.00    -0.273 OA
HETATM    3  N1  UNL     1      65.253  46.748  30.288  1.00  0.00    -0.351 N 
ATOM      4  H1  UNL     1      65.208  45.906  29.713  1.00  0.00     0.163 HD
ENDROOT
BRANCH   3   5
HETATM    5  C5  UNL     1      66.160  46.754  31.396  1.00  0.00     0.034 C 
HETATM    6  C6  UNL     1      66.562  45.326  31.693  1.00  0.00     0.035 C 
HETATM    7  C7  UNL     1      67.568  45.212  32.792  1.00  0.00    -0.012 C 
HETATM    8  C8  UNL     1      66.967  45.814  34.042  1.00  0.00     0.009 C 
HETATM    9  C12 UNL     1      68.824  45.989  32.467  1.00  0.00     0.009 C 
HETATM   10  C9  UNL     1      66.597  47.239  33.754  1.00  0.00    -0.012 C 
HETATM   11  C10 UNL     1      67.821  48.043  33.379  1.00  0.00     0.009 C 
HETATM   12  C14 UNL     1      65.550  47.316  32.657  1.00  0.00     0.035 C 
HETATM   13  C11 UNL     1      68.437  47.404  32.170  1.00  0.00    -0.012 C 
HETATM   14  C13 UNL     1      67.446  47.490  31.037  1.00  0.00     0.035 C 
ENDBRANCH   3   5
BRANCH   1  15
HETATM   15  C3  UNL     1      63.514  47.749  28.792  1.00  0.00     0.081 C 
BRANCH  15  16
HETATM   16  C2  UNL     1      63.629  48.978  27.884  1.00  0.00     0.010 C 
HETATM   17  C1  UNL     1      64.906  48.919  27.073  1.00  0.00     0.006 C 
ENDBRANCH  15  16
BRANCH  15  18
HETATM   18  C15 UNL     1      62.060  47.643  29.176  1.00  0.00    -0.002 C 
HETATM   19  C16 UNL     1      61.169  48.255  28.146  1.00  0.00     0.005 C 
HETATM   20  C17 UNL     1      59.952  47.407  27.850  1.00  0.00     0.000 C 
HETATM   21  C18 UNL     1      59.284  46.917  29.108  1.00  0.00     0.000 C 
HETATM   22  C19 UNL     1      60.250  46.293  30.070  1.00  0.00     0.000 C 
HETATM   23  C20 UNL     1      61.612  46.225  29.413  1.00  0.00     0.005 C 
ENDBRANCH  15  18
ENDBRANCH   1  15
TORSDOF 4
ENDMDL
MODEL 5
REMARK VINA RESULT: -9.300703394      1.410      2.472
REMARK  4 active torsions:
REMARK  status: ('A' for Active; 'I' for Inactive)
REMARK    1  A    between atoms: C2_2  and  C3_3 
REMARK    2  A    between atoms: C3_3  and  C4_4 
REMARK    3  A    between atoms: C3_3  and  C15_18 
REMARK       I    between atoms: C4_4  and  N1_6 
REMARK    4  A    between atoms: N1_6  and  C5_8 
ROOT
HETATM    1  C4  UNL     1      64.500  47.764  29.862  1.00  0.00     0.222 C 
HETATM    2  O1  UNL     1      64.535  48.813  30.566  1.00  0.00    -0.273 OA
HETATM    3  N1  UNL     1      65.350  46.666  30.165  1.00  0.00    -0.351 N 
ATOM      4  H1  UNL     1      65.291  45.837  29.572  1.00  0.00     0.163 HD
ENDROOT
BRANCH   3   5
HETATM    5  C5  UNL     1      66.284  46.649  31.249  1.00  0.00     0.034 C 
HETATM    6  C6  UNL     1      65.609  47.233  32.470  1.00  0.00     0.035 C 
HETATM    7  C7  UNL     1      66.469  47.203  33.692  1.00  0.00    -0.012 C 
HETATM    8  C8  UNL     1      67.720  48.002  33.404  1.00  0.00     0.009 C 
HETATM    9  C12 UNL     1      66.894  45.791  34.028  1.00  0.00     0.009 C 
HETATM   10  C9  UNL     1      68.404  47.403  32.211  1.00  0.00    -0.012 C 
HETATM   11  C10 UNL     1      68.806  45.973  32.488  1.00  0.00     0.009 C 
HETATM   12  C14 UNL     1      67.515  47.480  30.982  1.00  0.00     0.035 C 
HETATM   13  C11 UNL     1      67.563  45.204  32.824  1.00  0.00    -0.012 C 
HETATM   14  C13 UNL     1      66.660  45.218  31.616  1.00  0.00     0.035 C 
ENDBRANCH   3   5
BRANCH   1  15
HETATM   15  C3  UNL     1      63.573  47.697  28.734  1.00  0.00     0.081 C 
BRANCH  15  16
HETATM   16  C2  UNL     1      63.693  48.927  27.828  1.00  0.00     0.010 C 
HETATM   17  C1  UNL     1      65.001  48.899  27.067  1.00  0.00     0.006 C 
ENDBRANCH  15  16
BRANCH  15  18
HETATM   18  C15 UNL     1      62.127  47.619  29.151  1.00  0.00    -0.002 C 
HETATM   19  C16 UNL     1      61.223  48.236  28.134  1.00  0.00     0.005 C 
HETATM   20  C17 UNL     1      59.986  47.405  27.875  1.00  0.00     0.000 C 
HETATM   21  C18 UNL     1      59.338  46.939  29.152  1.00  0.00     0.000 C 
HETATM   22  C19 UNL     1      60.315  46.309  30.100  1.00  0.00     0.000 C 
HETATM   23  C20 UNL     1      61.661  46.211  29.413  1.00  0.00     0.005 C 
ENDBRANCH  15  18
ENDBRANCH   1  15
TORSDOF 4
ENDMDL
