MODEL 1
REMARK VINA RESULT: -7.503250548      0.000      0.000
REMARK  3 active torsions:
REMARK  status: ('A' for Active; 'I' for Inactive)
REMARK    1  A    between atoms: C2_2  and  C3_3 
REMARK    2  A    between atoms: C5_11  and  S1_12 
REMARK    3  A    between atoms: S1_12  and  C6_13 
ROOT
HETATM    1  C1  UNL     1      25.236   5.169  49.704  1.00  0.00     0.092 C 
HETATM    2  C2  UNL     1      24.534   6.390  49.111  1.00  0.00     0.255 C 
HETATM    3  O3  UNL     1      24.086   7.185  50.160  1.00  0.00    -0.319 OA
HETATM    4  C4  UNL     1      23.062   8.028  49.756  1.00  0.00     0.407 C 
HETATM    5  N1  UNL     1      21.854   7.244  49.455  1.00  0.00    -0.018 N 
ATOM      6  H11 UNL     1      21.299   7.621  48.686  1.00  0.00     0.283 HD
ATOM      7  H12 UNL     1      21.129   7.313  50.170  1.00  0.00     0.283 HD
HETATM    8  C5  UNL     1      22.327   5.887  49.227  1.00  0.00     0.396 C 
HETATM    9  O4  UNL     1      23.425   6.002  48.360  1.00  0.00    -0.304 OA
ENDROOT
BRANCH   8  10
HETATM   10  S1  UNL     1      21.048   4.959  48.398  1.00  0.00    -0.070 SA
BRANCH  10  11
HETATM   11  C6  UNL     1      20.213   5.862  47.135  1.00  0.00     0.004 A 
HETATM   12  C7  UNL     1      20.708   5.744  45.838  1.00  0.00     0.018 A 
HETATM   13  C8  UNL     1      20.114   6.415  44.798  1.00  0.00     0.001 A 
HETATM   14  C9  UNL     1      19.010   7.229  44.980  1.00  0.00     0.000 A 
HETATM   15  C10 UNL     1      18.525   7.339  46.284  1.00  0.00     0.001 A 
HETATM   16  C11 UNL     1      19.117   6.667  47.336  1.00  0.00     0.018 A 
ENDBRANCH  10  11
ENDBRANCH   8  10
BRANCH   2  17
HETATM   17  C3  UNL     1      25.547   7.106  48.292  1.00  0.00     0.238 C 
HETATM   18  O1  UNL     1      26.757   6.833  48.488  1.00  0.00    -0.644 OA
HETATM   19  O2  UNL     1      25.146   8.052  47.335  1.00  0.00    -0.644 OA
ENDBRANCH   2  17
TORSDOF 3
ENDMDL
MODEL 2
REMARK VINA RESULT: -7.457235953      0.066      1.149
REMARK  3 active torsions:
REMARK  status: ('A' for Active; 'I' for Inactive)
REMARK    1  A    between atoms: C2_2  and  C3_3 
REMARK    2  A    between atoms: C5_11  and  S1_12 
REMARK    3  A    between atoms: S1_12  and  C6_13 
ROOT
HETATM    1  C1  UNL     1      25.212   5.166  49.709  1.00  0.00     0.092 C 
HETATM    2  C2  UNL     1      24.516   6.387  49.110  1.00  0.00     0.255 C 
HETATM    3  O3  UNL     1      24.073   7.191  50.154  1.00  0.00    -0.319 OA
HETATM    4  C4  UNL     1      23.052   8.036  49.745  1.00  0.00     0.407 C 
HETATM    5  N1  UNL     1      21.841   7.256  49.449  1.00  0.00    -0.018 N 
ATOM      6  H11 UNL     1      21.287   7.631  48.678  1.00  0.00     0.283 HD
ATOM      7  H12 UNL     1      21.117   7.333  50.164  1.00  0.00     0.283 HD
HETATM    8  C5  UNL     1      22.306   5.895  49.229  1.00  0.00     0.396 C 
HETATM    9  O4  UNL     1      23.405   5.999  48.362  1.00  0.00    -0.304 OA
ENDROOT
BRANCH   8  10
HETATM   10  S1  UNL     1      21.023   4.969  48.408  1.00  0.00    -0.070 SA
BRANCH  10  11
HETATM   11  C6  UNL     1      20.263   5.830  47.070  1.00  0.00     0.004 A 
HETATM   12  C7  UNL     1      19.144   6.603  47.368  1.00  0.00     0.018 A 
HETATM   13  C8  UNL     1      18.494   7.304  46.383  1.00  0.00     0.001 A 
HETATM   14  C9  UNL     1      18.911   7.281  45.064  1.00  0.00     0.000 A 
HETATM   15  C10 UNL     1      20.034   6.503  44.779  1.00  0.00     0.001 A 
HETATM   16  C11 UNL     1      20.693   5.794  45.764  1.00  0.00     0.018 A 
ENDBRANCH  10  11
ENDBRANCH   8  10
BRANCH   2  17
HETATM   17  C3  UNL     1      25.532   7.093  48.285  1.00  0.00     0.238 C 
HETATM   18  O1  UNL     1      26.740   6.800  48.467  1.00  0.00    -0.644 OA
HETATM   19  O2  UNL     1      25.136   8.052  47.339  1.00  0.00    -0.644 OA
ENDBRANCH   2  17
TORSDOF 3
ENDMDL
MODEL 3
REMARK VINA RESULT: -7.448248346      1.498      2.607
REMARK  3 active torsions:
REMARK  status: ('A' for Active; 'I' for Inactive)
REMARK    1  A    between atoms: C2_2  and  C3_3 
REMARK    2  A    between atoms: C5_11  and  S1_12 
REMARK    3  A    between atoms: S1_12  and  C6_13 
ROOT
HETATM    1  C1  UNL     1      23.019   7.475  51.383  1.00  0.00     0.092 C 
HETATM    2  C2  UNL     1      23.763   6.460  50.517  1.00  0.00     0.255 C 
HETATM    3  O3  UNL     1      24.432   7.152  49.514  1.00  0.00    -0.319 OA
HETATM    4  C4  UNL     1      24.726   6.328  48.439  1.00  0.00     0.407 C 
HETATM    5  N1  UNL     1      23.487   5.943  47.745  1.00  0.00    -0.018 N 
ATOM      6  H11 UNL     1      23.506   4.998  47.362  1.00  0.00     0.283 HD
ATOM      7  H12 UNL     1      23.344   6.428  46.858  1.00  0.00     0.283 HD
HETATM    8  C5  UNL     1      22.424   6.163  48.713  1.00  0.00     0.396 C 
HETATM    9  O4  UNL     1      22.866   5.581  49.911  1.00  0.00    -0.304 OA
ENDROOT
BRANCH   8  10
HETATM   10  S1  UNL     1      20.960   5.300  48.172  1.00  0.00    -0.070 SA
BRANCH  10  11
HETATM   11  C6  UNL     1      20.138   6.065  46.812  1.00  0.00     0.004 A 
HETATM   12  C7  UNL     1      19.035   6.861  47.105  1.00  0.00     0.018 A 
HETATM   13  C8  UNL     1      18.340   7.492  46.102  1.00  0.00     0.001 A 
HETATM   14  C9  UNL     1      18.697   7.372  44.771  1.00  0.00     0.000 A 
HETATM   15  C10 UNL     1      19.804   6.570  44.492  1.00  0.00     0.001 A 
HETATM   16  C11 UNL     1      20.508   5.932  45.494  1.00  0.00     0.018 A 
ENDBRANCH  10  11
ENDBRANCH   8  10
BRANCH   2  17
HETATM   17  C3  UNL     1      24.721   5.759  51.412  1.00  0.00     0.238 C 
HETATM   18  O1  UNL     1      25.614   6.446  51.967  1.00  0.00    -0.644 OA
HETATM   19  O2  UNL     1      24.614   4.374  51.621  1.00  0.00    -0.644 OA
ENDBRANCH   2  17
TORSDOF 3
ENDMDL
MODEL 4
REMARK VINA RESULT: -7.419948962      1.463      2.297
REMARK  3 active torsions:
REMARK  status: ('A' for Active; 'I' for Inactive)
REMARK    1  A    between atoms: C2_2  and  C3_3 
REMARK    2  A    between atoms: C5_11  and  S1_12 
REMARK    3  A    between atoms: S1_12  and  C6_13 
ROOT
HETATM    1  C1  UNL     1      23.218   7.822  51.224  1.00  0.00     0.092 C 
HETATM    2  C2  UNL     1      23.938   6.721  50.447  1.00  0.00     0.255 C 
HETATM    3  O3  UNL     1      24.595   7.308  49.371  1.00  0.00    -0.319 OA
HETATM    4  C4  UNL     1      24.864   6.382  48.375  1.00  0.00     0.407 C 
HETATM    5  N1  UNL     1      23.609   5.946  47.742  1.00  0.00    -0.018 N 
ATOM      6  H11 UNL     1      23.613   4.968  47.451  1.00  0.00     0.283 HD
ATOM      7  H12 UNL     1      23.456   6.345  46.815  1.00  0.00     0.283 HD
HETATM    8  C5  UNL     1      22.565   6.268  48.701  1.00  0.00     0.396 C 
HETATM    9  O4  UNL     1      23.023   5.798  49.942  1.00  0.00    -0.304 OA
ENDROOT
BRANCH   8  10
HETATM   10  S1  UNL     1      21.084   5.372  48.270  1.00  0.00    -0.070 SA
BRANCH  10  11
HETATM   11  C6  UNL     1      20.139   6.127  46.987  1.00  0.00     0.004 A 
HETATM   12  C7  UNL     1      20.572   5.927  45.679  1.00  0.00     0.018 A 
HETATM   13  C8  UNL     1      19.891   6.481  44.623  1.00  0.00     0.001 A 
HETATM   14  C9  UNL     1      18.757   7.253  44.801  1.00  0.00     0.000 A 
HETATM   15  C10 UNL     1      18.335   7.446  46.117  1.00  0.00     0.001 A 
HETATM   16  C11 UNL     1      19.014   6.893  47.185  1.00  0.00     0.018 A 
ENDBRANCH  10  11
ENDBRANCH   8  10
BRANCH   2  17
HETATM   17  C3  UNL     1      24.905   6.099  51.389  1.00  0.00     0.238 C 
HETATM   18  O1  UNL     1      25.888   6.788  51.759  1.00  0.00    -0.644 OA
HETATM   19  O2  UNL     1      24.709   4.784  51.842  1.00  0.00    -0.644 OA
ENDBRANCH   2  17
TORSDOF 3
ENDMDL
MODEL 5
REMARK VINA RESULT: -7.281936893      1.722      2.432
REMARK  3 active torsions:
REMARK  status: ('A' for Active; 'I' for Inactive)
REMARK    1  A    between atoms: C2_2  and  C3_3 
REMARK    2  A    between atoms: C5_11  and  S1_12 
REMARK    3  A    between atoms: S1_12  and  C6_13 
ROOT
HETATM    1  C1  UNL     1      24.595   9.166  47.668  1.00  0.00     0.092 C 
HETATM    2  C2  UNL     1      25.106   8.177  48.714  1.00  0.00     0.255 C 
HETATM    3  O3  UNL     1      25.924   7.253  48.075  1.00  0.00    -0.319 OA
HETATM    4  C4  UNL     1      26.041   6.084  48.812  1.00  0.00     0.407 C 
HETATM    5  N1  UNL     1      24.757   5.368  48.828  1.00  0.00    -0.018 N 
ATOM      6  H11 UNL     1      24.570   4.877  49.702  1.00  0.00     0.283 HD
ATOM      7  H12 UNL     1      24.737   4.546  48.223  1.00  0.00     0.283 HD
HETATM    8  C5  UNL     1      23.757   6.369  48.492  1.00  0.00     0.396 C 
HETATM    9  O4  UNL     1      24.043   7.485  49.294  1.00  0.00    -0.304 OA
ENDROOT
BRANCH   8  10
HETATM   10  S1  UNL     1      22.144   5.752  48.939  1.00  0.00    -0.070 SA
BRANCH  10  11
HETATM   11  C6  UNL     1      20.872   6.179  47.795  1.00  0.00     0.004 A 
HETATM   12  C7  UNL     1      21.155   6.020  46.442  1.00  0.00     0.018 A 
HETATM   13  C8  UNL     1      20.218   6.331  45.488  1.00  0.00     0.001 A 
HETATM   14  C9  UNL     1      18.962   6.809  45.817  1.00  0.00     0.000 A 
HETATM   15  C10 UNL     1      18.691   6.965  47.177  1.00  0.00     0.001 A 
HETATM   16  C11 UNL     1      19.629   6.655  48.143  1.00  0.00     0.018 A 
ENDBRANCH  10  11
ENDBRANCH   8  10
BRANCH   2  17
HETATM   17  C3  UNL     1      25.872   8.971  49.710  1.00  0.00     0.238 C 
HETATM   18  O1  UNL     1      26.783   9.724  49.284  1.00  0.00    -0.644 OA
HETATM   19  O2  UNL     1      25.573   8.871  51.079  1.00  0.00    -0.644 OA
ENDBRANCH   2  17
TORSDOF 3
ENDMDL
