MODEL 1
REMARK VINA RESULT: -7.605605387      0.000      0.000
REMARK  4 active torsions:
REMARK  status: ('A' for Active; 'I' for Inactive)
REMARK    1  A    between atoms: C2_2  and  C3_3 
REMARK    2  A    between atoms: C3_3  and  C4_4 
REMARK    3  A    between atoms: C4_4  and  N1_5 
REMARK    4  A    between atoms: N1_5  and  C5_8 
ROOT
HETATM    1  C5  UNL     1      62.612  48.522  28.611  1.00  0.00     0.194 C 
HETATM    2  C6  UNL     1      63.210  49.794  28.149  1.00  0.00     0.034 C 
HETATM    3  C7  UNL     1      64.533  49.685  27.438  1.00  0.00     0.002 C 
HETATM    4  C8  UNL     1      65.388  48.614  28.006  1.00  0.00     0.006 C 
HETATM    5  C9  UNL     1      64.915  48.205  29.367  1.00  0.00     0.000 C 
HETATM    6  C10 UNL     1      65.994  47.327  29.974  1.00  0.00    -0.005 C 
HETATM    7  C11 UNL     1      66.028  47.447  31.504  1.00  0.00     0.014 C 
HETATM    8  C12 UNL     1      67.370  46.854  31.961  1.00  0.00    -0.047 C 
HETATM    9  C13 UNL     1      68.546  47.560  31.366  1.00  0.00     0.015 C 
HETATM   10  C14 UNL     1      67.399  47.028  33.486  1.00  0.00     0.015 C 
HETATM   11  C15 UNL     1      67.336  45.402  31.599  1.00  0.00     0.009 C 
HETATM   12  C16 UNL     1      66.157  45.022  30.766  1.00  0.00     0.005 C 
HETATM   13  C17 UNL     1      65.994  45.922  29.531  1.00  0.00    -0.010 C 
HETATM   14  C18 UNL     1      64.897  45.446  28.687  1.00  0.00     0.006 C 
HETATM   15  C19 UNL     1      63.738  46.313  28.425  1.00  0.00     0.012 C 
HETATM   16  C20 UNL     1      63.601  47.547  29.245  1.00  0.00    -0.012 C 
HETATM   17  C21 UNL     1      63.005  47.142  30.587  1.00  0.00     0.018 C 
ENDROOT
BRANCH   1  18
HETATM   18  N1  UNL     1      61.759  47.861  27.651  1.00  0.00    -0.070 N 
ATOM     19  H12 UNL     1      62.044  46.893  27.501  1.00  0.00     0.277 HD
ATOM     20  H11 UNL     1      61.911  48.218  26.707  1.00  0.00     0.277 HD
BRANCH  18  21
HETATM   21  C4  UNL     1      60.369  47.952  28.035  1.00  0.00     0.232 C 
BRANCH  21  22
HETATM   22  C3  UNL     1      59.950  46.765  28.884  1.00  0.00     0.027 C 
BRANCH  22  23
HETATM   23  C2  UNL     1      58.454  46.686  29.088  1.00  0.00    -0.003 C 
HETATM   24  C1  UNL     1      58.211  46.407  30.568  1.00  0.00     0.005 C 
ENDBRANCH  22  23
ENDBRANCH  21  22
ENDBRANCH  18  21
ENDBRANCH   1  18
TORSDOF 4
ENDMDL
MODEL 2
REMARK VINA RESULT: -6.748304072      2.416      4.208
REMARK  4 active torsions:
REMARK  status: ('A' for Active; 'I' for Inactive)
REMARK    1  A    between atoms: C2_2  and  C3_3 
REMARK    2  A    between atoms: C3_3  and  C4_4 
REMARK    3  A    between atoms: C4_4  and  N1_5 
REMARK    4  A    between atoms: N1_5  and  C5_8 
ROOT
HETATM    1  C5  UNL     1      65.429  48.092  29.440  1.00  0.00     0.194 C 
HETATM    2  C6  UNL     1      66.718  47.370  29.513  1.00  0.00     0.034 C 
HETATM    3  C7  UNL     1      66.721  46.100  30.322  1.00  0.00     0.002 C 
HETATM    4  C8  UNL     1      65.841  46.191  31.513  1.00  0.00     0.006 C 
HETATM    5  C9  UNL     1      65.511  47.616  31.836  1.00  0.00     0.000 C 
HETATM    6  C10 UNL     1      64.856  47.627  33.205  1.00  0.00    -0.005 C 
HETATM    7  C11 UNL     1      65.134  48.937  33.956  1.00  0.00     0.014 C 
HETATM    8  C12 UNL     1      64.781  48.682  35.430  1.00  0.00    -0.047 C 
HETATM    9  C13 UNL     1      65.579  47.569  36.031  1.00  0.00     0.015 C 
HETATM   10  C14 UNL     1      65.110  49.989  36.164  1.00  0.00     0.015 C 
HETATM   11  C15 UNL     1      63.309  48.413  35.472  1.00  0.00     0.009 C 
HETATM   12  C16 UNL     1      62.687  48.280  34.121  1.00  0.00     0.005 C 
HETATM   13  C17 UNL     1      63.427  47.270  33.229  1.00  0.00    -0.010 C 
HETATM   14  C18 UNL     1      62.722  47.089  31.961  1.00  0.00     0.006 C 
HETATM   15  C19 UNL     1      63.390  47.417  30.692  1.00  0.00     0.012 C 
HETATM   16  C20 UNL     1      64.669  48.173  30.762  1.00  0.00    -0.012 C 
HETATM   17  C21 UNL     1      64.324  49.642  30.969  1.00  0.00     0.018 C 
ENDROOT
BRANCH   1  18
HETATM   18  N1  UNL     1      64.563  47.693  28.355  1.00  0.00    -0.070 N 
ATOM     19  H12 UNL     1      63.643  47.412  28.695  1.00  0.00     0.277 HD
ATOM     20  H11 UNL     1      64.858  46.806  27.947  1.00  0.00     0.277 HD
BRANCH  18  21
HETATM   21  C4  UNL     1      64.465  48.731  27.354  1.00  0.00     0.232 C 
BRANCH  21  22
HETATM   22  C3  UNL     1      63.035  48.910  26.879  1.00  0.00     0.027 C 
BRANCH  22  23
HETATM   23  C2  UNL     1      62.073  49.214  28.007  1.00  0.00    -0.003 C 
HETATM   24  C1  UNL     1      61.115  48.032  28.117  1.00  0.00     0.005 C 
ENDBRANCH  22  23
ENDBRANCH  21  22
ENDBRANCH  18  21
ENDBRANCH   1  18
TORSDOF 4
ENDMDL
MODEL 3
REMARK VINA RESULT: -6.533852239      2.013      3.764
REMARK  4 active torsions:
REMARK  status: ('A' for Active; 'I' for Inactive)
REMARK    1  A    between atoms: C2_2  and  C3_3 
REMARK    2  A    between atoms: C3_3  and  C4_4 
REMARK    3  A    between atoms: C4_4  and  N1_5 
REMARK    4  A    between atoms: N1_5  and  C5_8 
ROOT
HETATM    1  C5  UNL     1      63.857  46.742  28.661  1.00  0.00     0.194 C 
HETATM    2  C6  UNL     1      62.768  47.414  29.401  1.00  0.00     0.034 C 
HETATM    3  C7  UNL     1      63.166  48.607  30.229  1.00  0.00     0.002 C 
HETATM    4  C8  UNL     1      64.505  48.441  30.846  1.00  0.00     0.006 C 
HETATM    5  C9  UNL     1      64.929  47.004  30.842  1.00  0.00     0.000 C 
HETATM    6  C10 UNL     1      66.155  46.894  31.729  1.00  0.00    -0.005 C 
HETATM    7  C11 UNL     1      66.249  45.515  32.398  1.00  0.00     0.014 C 
HETATM    8  C12 UNL     1      67.263  45.651  33.545  1.00  0.00    -0.047 C 
HETATM    9  C13 UNL     1      66.861  46.681  34.552  1.00  0.00     0.015 C 
HETATM   10  C14 UNL     1      67.304  44.275  34.223  1.00  0.00     0.015 C 
HETATM   11  C15 UNL     1      68.582  45.962  32.909  1.00  0.00     0.009 C 
HETATM   12  C16 UNL     1      68.490  46.232  31.443  1.00  0.00     0.005 C 
HETATM   13  C17 UNL     1      67.429  47.293  31.106  1.00  0.00    -0.010 C 
HETATM   14  C18 UNL     1      67.450  47.606  29.678  1.00  0.00     0.006 C 
HETATM   15  C19 UNL     1      66.256  47.369  28.852  1.00  0.00     0.012 C 
HETATM   16  C20 UNL     1      65.152  46.570  29.450  1.00  0.00    -0.012 C 
HETATM   17  C21 UNL     1      65.535  45.100  29.333  1.00  0.00     0.018 C 
ENDROOT
BRANCH   1  18
HETATM   18  N1  UNL     1      64.110  47.262  27.337  1.00  0.00    -0.070 N 
ATOM     19  H12 UNL     1      64.190  46.513  26.649  1.00  0.00     0.277 HD
ATOM     20  H11 UNL     1      65.051  47.647  27.259  1.00  0.00     0.277 HD
BRANCH  18  21
HETATM   21  C4  UNL     1      63.107  48.230  26.954  1.00  0.00     0.232 C 
BRANCH  21  22
HETATM   22  C3  UNL     1      63.739  49.533  26.499  1.00  0.00     0.027 C 
BRANCH  22  23
HETATM   23  C2  UNL     1      64.903  49.957  27.367  1.00  0.00    -0.003 C 
HETATM   24  C1  UNL     1      66.154  49.929  26.494  1.00  0.00     0.005 C 
ENDBRANCH  22  23
ENDBRANCH  21  22
ENDBRANCH  18  21
ENDBRANCH   1  18
TORSDOF 4
ENDMDL
MODEL 4
REMARK VINA RESULT: -6.019717889      2.483      4.926
REMARK  4 active torsions:
REMARK  status: ('A' for Active; 'I' for Inactive)
REMARK    1  A    between atoms: C2_2  and  C3_3 
REMARK    2  A    between atoms: C3_3  and  C4_4 
REMARK    3  A    between atoms: C4_4  and  N1_5 
REMARK    4  A    between atoms: N1_5  and  C5_8 
ROOT
HETATM    1  C5  UNL     1      65.162  48.037  29.447  1.00  0.00     0.194 C 
HETATM    2  C6  UNL     1      66.450  47.312  29.461  1.00  0.00     0.034 C 
HETATM    3  C7  UNL     1      66.498  46.064  30.302  1.00  0.00     0.002 C 
HETATM    4  C8  UNL     1      65.691  46.189  31.541  1.00  0.00     0.006 C 
HETATM    5  C9  UNL     1      65.385  47.624  31.845  1.00  0.00     0.000 C 
HETATM    6  C10 UNL     1      64.813  47.673  33.250  1.00  0.00    -0.005 C 
HETATM    7  C11 UNL     1      65.138  49.001  33.948  1.00  0.00     0.014 C 
HETATM    8  C12 UNL     1      64.873  48.786  35.447  1.00  0.00    -0.047 C 
HETATM    9  C13 UNL     1      65.702  47.686  36.028  1.00  0.00     0.015 C 
HETATM   10  C14 UNL     1      65.249  50.111  36.125  1.00  0.00     0.015 C 
HETATM   11  C15 UNL     1      63.405  48.525  35.583  1.00  0.00     0.009 C 
HETATM   12  C16 UNL     1      62.704  48.360  34.275  1.00  0.00     0.005 C 
HETATM   13  C17 UNL     1      63.386  47.323  33.368  1.00  0.00    -0.010 C 
HETATM   14  C18 UNL     1      62.606  47.112  32.149  1.00  0.00     0.006 C 
HETATM   15  C19 UNL     1      63.198  47.404  30.834  1.00  0.00     0.012 C 
HETATM   16  C20 UNL     1      64.482  48.156  30.808  1.00  0.00    -0.012 C 
HETATM   17  C21 UNL     1      64.153  49.632  30.997  1.00  0.00     0.018 C 
ENDROOT
BRANCH   1  18
HETATM   18  N1  UNL     1      64.231  47.614  28.426  1.00  0.00    -0.070 N 
ATOM     19  H12 UNL     1      63.277  47.895  28.649  1.00  0.00     0.277 HD
ATOM     20  H11 UNL     1      64.102  46.602  28.433  1.00  0.00     0.277 HD
BRANCH  18  21
HETATM   21  C4  UNL     1      64.633  48.089  27.121  1.00  0.00     0.232 C 
BRANCH  21  22
HETATM   22  C3  UNL     1      64.312  49.561  26.944  1.00  0.00     0.027 C 
BRANCH  22  23
HETATM   23  C2  UNL     1      65.519  50.454  27.130  1.00  0.00    -0.003 C 
HETATM   24  C1  UNL     1      66.697  49.775  26.436  1.00  0.00     0.005 C 
ENDBRANCH  22  23
ENDBRANCH  21  22
ENDBRANCH  18  21
ENDBRANCH   1  18
TORSDOF 4
ENDMDL
MODEL 5
REMARK VINA RESULT: -5.624053064      3.092      6.286
REMARK  4 active torsions:
REMARK  status: ('A' for Active; 'I' for Inactive)
REMARK    1  A    between atoms: C2_2  and  C3_3 
REMARK    2  A    between atoms: C3_3  and  C4_4 
REMARK    3  A    between atoms: C4_4  and  N1_5 
REMARK    4  A    between atoms: N1_5  and  C5_8 
ROOT
HETATM    1  C5  UNL     1      64.278  49.214  33.913  1.00  0.00     0.194 C 
HETATM    2  C6  UNL     1      62.971  48.693  34.368  1.00  0.00     0.034 C 
HETATM    3  C7  UNL     1      62.618  47.301  33.916  1.00  0.00     0.002 C 
HETATM    4  C8  UNL     1      63.105  47.016  32.544  1.00  0.00     0.006 C 
HETATM    5  C9  UNL     1      63.442  48.279  31.815  1.00  0.00     0.000 C 
HETATM    6  C10 UNL     1      63.654  47.915  30.357  1.00  0.00    -0.005 C 
HETATM    7  C11 UNL     1      63.276  49.072  29.421  1.00  0.00     0.014 C 
HETATM    8  C12 UNL     1      63.148  48.473  28.012  1.00  0.00    -0.047 C 
HETATM    9  C13 UNL     1      62.116  47.394  27.934  1.00  0.00     0.015 C 
HETATM   10  C14 UNL     1      62.725  49.639  27.107  1.00  0.00     0.015 C 
HETATM   11  C15 UNL     1      64.512  47.984  27.635  1.00  0.00     0.009 C 
HETATM   12  C16 UNL     1      65.496  48.036  28.756  1.00  0.00     0.005 C 
HETATM   13  C17 UNL     1      64.976  47.350  30.029  1.00  0.00    -0.010 C 
HETATM   14  C18 UNL     1      66.011  47.327  31.062  1.00  0.00     0.006 C 
HETATM   15  C19 UNL     1      65.784  48.002  32.349  1.00  0.00     0.012 C 
HETATM   16  C20 UNL     1      64.611  48.911  32.454  1.00  0.00    -0.012 C 
HETATM   17  C21 UNL     1      65.001  50.238  31.817  1.00  0.00     0.018 C 
ENDROOT
BRANCH   1  18
HETATM   18  N1  UNL     1      65.393  48.918  34.782  1.00  0.00    -0.070 N 
ATOM     19  H12 UNL     1      66.004  49.726  34.896  1.00  0.00     0.277 HD
ATOM     20  H11 UNL     1      66.055  48.282  34.339  1.00  0.00     0.277 HD
BRANCH  18  21
HETATM   21  C4  UNL     1      64.941  48.409  36.058  1.00  0.00     0.232 C 
BRANCH  21  22
HETATM   22  C3  UNL     1      65.827  47.280  36.550  1.00  0.00     0.027 C 
BRANCH  22  23
HETATM   23  C2  UNL     1      65.041  46.087  37.045  1.00  0.00    -0.003 C 
HETATM   24  C1  UNL     1      63.574  46.502  37.102  1.00  0.00     0.005 C 
ENDBRANCH  22  23
ENDBRANCH  21  22
ENDBRANCH  18  21
ENDBRANCH   1  18
TORSDOF 4
ENDMDL
