MODEL 1
REMARK VINA RESULT: -7.831393007      0.000      0.000
REMARK  5 active torsions:
REMARK  status: ('A' for Active; 'I' for Inactive)
REMARK    1  A    between atoms: C2_2  and  C4_4 
REMARK    2  A    between atoms: C4_4  and  O1_5 
REMARK    3  A    between atoms: C14_16  and  C16_18 
REMARK    4  A    between atoms: C16_18  and  C17_19 
REMARK    5  A    between atoms: C17_19  and  N1_20 
ROOT
HETATM    1  C4  UNL     1      64.593  48.234  33.692  1.00  0.00     0.062 C 
HETATM    2  C5  UNL     1      65.313  46.931  33.571  1.00  0.00     0.044 C 
HETATM    3  C6  UNL     1      66.333  47.059  32.491  1.00  0.00     0.001 C 
HETATM    4  C7  UNL     1      65.749  47.269  31.130  1.00  0.00    -0.001 C 
HETATM    5  C8  UNL     1      66.876  47.743  30.240  1.00  0.00     0.006 C 
HETATM    6  C9  UNL     1      68.051  46.806  30.259  1.00  0.00     0.001 C 
HETATM    7  C10 UNL     1      68.488  46.409  31.635  1.00  0.00     0.009 C 
HETATM    8  C11 UNL     1      67.321  45.913  32.461  1.00  0.00    -0.044 C 
HETATM    9  C12 UNL     1      67.740  45.579  33.863  1.00  0.00     0.015 C 
HETATM   10  C13 UNL     1      66.752  44.671  31.834  1.00  0.00     0.015 C 
HETATM   11  C14 UNL     1      64.609  48.231  31.158  1.00  0.00    -0.036 C 
HETATM   12  C15 UNL     1      63.331  47.415  30.886  1.00  0.00     0.016 C 
HETATM   13  C20 UNL     1      64.460  49.007  32.426  1.00  0.00     0.047 C 
ENDROOT
BRANCH  11  14
HETATM   14  C16 UNL     1      64.668  49.230  30.012  1.00  0.00     0.040 C 
BRANCH  14  15
HETATM   15  C17 UNL     1      63.547  48.978  29.033  1.00  0.00     0.272 C 
BRANCH  15  16
HETATM   16  N1  UNL     1      64.039  48.973  27.667  1.00  0.00     0.080 N 
HETATM   17  C18 UNL     1      64.414  47.587  27.371  1.00  0.00     0.309 C 
HETATM   18  C19 UNL     1      65.225  49.775  27.500  1.00  0.00     0.309 C 
ENDBRANCH  15  16
ENDBRANCH  14  15
ENDBRANCH  11  14
BRANCH   1  19
HETATM   19  C2  UNL     1      65.306  49.112  34.702  1.00  0.00     0.012 C 
HETATM   20  C1  UNL     1      66.239  48.261  35.517  1.00  0.00     0.012 C 
HETATM   21  C3  UNL     1      64.338  49.879  35.567  1.00  0.00     0.012 C 
ENDBRANCH   1  19
BRANCH   1  22
HETATM   22  O1  UNL     1      63.329  47.944  34.257  1.00  0.00    -0.389 OA
ATOM     23  H1  UNL     1      63.506  47.440  35.043  1.00  0.00     0.210 HD
ENDBRANCH   1  22
TORSDOF 5
ENDMDL
MODEL 2
REMARK VINA RESULT: -7.668800570      1.851      4.109
REMARK  5 active torsions:
REMARK  status: ('A' for Active; 'I' for Inactive)
REMARK    1  A    between atoms: C2_2  and  C4_4 
REMARK    2  A    between atoms: C4_4  and  O1_5 
REMARK    3  A    between atoms: C14_16  and  C16_18 
REMARK    4  A    between atoms: C16_18  and  C17_19 
REMARK    5  A    between atoms: C17_19  and  N1_20 
ROOT
HETATM    1  C4  UNL     1      66.970  46.931  31.185  1.00  0.00     0.062 C 
HETATM    2  C5  UNL     1      67.088  47.709  32.455  1.00  0.00     0.044 C 
HETATM    3  C6  UNL     1      65.773  47.661  33.157  1.00  0.00     0.001 C 
HETATM    4  C7  UNL     1      64.669  48.351  32.420  1.00  0.00    -0.001 C 
HETATM    5  C8  UNL     1      63.373  47.900  33.055  1.00  0.00     0.006 C 
HETATM    6  C9  UNL     1      63.352  48.135  34.539  1.00  0.00     0.001 C 
HETATM    7  C10 UNL     1      64.579  47.649  35.247  1.00  0.00     0.009 C 
HETATM    8  C11 UNL     1      65.837  48.162  34.583  1.00  0.00    -0.044 C 
HETATM    9  C12 UNL     1      67.071  47.622  35.246  1.00  0.00     0.015 C 
HETATM   10  C13 UNL     1      65.877  49.662  34.672  1.00  0.00     0.015 C 
HETATM   11  C14 UNL     1      64.713  48.060  30.957  1.00  0.00    -0.036 C 
HETATM   12  C15 UNL     1      65.139  49.364  30.256  1.00  0.00     0.016 C 
HETATM   13  C20 UNL     1      65.621  46.943  30.555  1.00  0.00     0.047 C 
ENDROOT
BRANCH  11  14
HETATM   14  C16 UNL     1      63.335  47.760  30.386  1.00  0.00     0.040 C 
BRANCH  14  15
HETATM   15  C17 UNL     1      63.428  47.457  28.910  1.00  0.00     0.272 C 
BRANCH  15  16
HETATM   16  N1  UNL     1      62.218  47.863  28.218  1.00  0.00     0.080 N 
HETATM   17  C18 UNL     1      62.262  49.326  28.139  1.00  0.00     0.309 C 
HETATM   18  C19 UNL     1      61.021  47.515  28.940  1.00  0.00     0.309 C 
ENDBRANCH  15  16
ENDBRANCH  14  15
ENDBRANCH  11  14
BRANCH   1  19
HETATM   19  C2  UNL     1      67.351  45.486  31.443  1.00  0.00     0.012 C 
HETATM   20  C1  UNL     1      66.658  44.610  30.436  1.00  0.00     0.012 C 
HETATM   21  C3  UNL     1      67.048  45.066  32.860  1.00  0.00     0.012 C 
ENDBRANCH   1  19
BRANCH   1  22
HETATM   22  O1  UNL     1      67.957  47.440  30.309  1.00  0.00    -0.389 OA
ATOM     23  H1  UNL     1      68.199  46.717  29.742  1.00  0.00     0.210 HD
ENDBRANCH   1  22
TORSDOF 5
ENDMDL
MODEL 3
REMARK VINA RESULT: -7.615834654      0.874      1.126
REMARK  5 active torsions:
REMARK  status: ('A' for Active; 'I' for Inactive)
REMARK    1  A    between atoms: C2_2  and  C4_4 
REMARK    2  A    between atoms: C4_4  and  O1_5 
REMARK    3  A    between atoms: C14_16  and  C16_18 
REMARK    4  A    between atoms: C16_18  and  C17_19 
REMARK    5  A    between atoms: C17_19  and  N1_20 
ROOT
HETATM    1  C4  UNL     1      64.243  48.381  33.083  1.00  0.00     0.062 C 
HETATM    2  C5  UNL     1      65.012  47.142  33.408  1.00  0.00     0.044 C 
HETATM    3  C6  UNL     1      66.280  47.159  32.624  1.00  0.00     0.001 C 
HETATM    4  C7  UNL     1      66.077  47.072  31.144  1.00  0.00    -0.001 C 
HETATM    5  C8  UNL     1      67.386  47.472  30.501  1.00  0.00     0.006 C 
HETATM    6  C9  UNL     1      68.543  46.655  31.004  1.00  0.00     0.001 C 
HETATM    7  C10 UNL     1      68.606  46.548  32.497  1.00  0.00     0.009 C 
HETATM    8  C11 UNL     1      67.276  46.113  33.073  1.00  0.00    -0.044 C 
HETATM    9  C12 UNL     1      67.313  46.071  34.573  1.00  0.00     0.015 C 
HETATM   10  C13 UNL     1      66.939  44.736  32.575  1.00  0.00     0.015 C 
HETATM   11  C14 UNL     1      64.940  47.925  30.690  1.00  0.00    -0.036 C 
HETATM   12  C15 UNL     1      63.811  46.971  30.261  1.00  0.00     0.016 C 
HETATM   13  C20 UNL     1      64.431  48.901  31.700  1.00  0.00     0.047 C 
ENDROOT
BRANCH  11  14
HETATM   14  C16 UNL     1      65.273  48.705  29.426  1.00  0.00     0.040 C 
BRANCH  14  15
HETATM   15  C17 UNL     1      64.667  48.034  28.217  1.00  0.00     0.272 C 
BRANCH  15  16
HETATM   16  N1  UNL     1      64.473  48.985  27.137  1.00  0.00     0.080 N 
HETATM   17  C18 UNL     1      65.411  50.084  27.384  1.00  0.00     0.309 C 
HETATM   18  C19 UNL     1      63.149  49.554  27.127  1.00  0.00     0.309 C 
ENDBRANCH  15  16
ENDBRANCH  14  15
ENDBRANCH  11  14
BRANCH   1  19
HETATM   19  C2  UNL     1      64.630  49.482  34.052  1.00  0.00     0.012 C 
HETATM   20  C1  UNL     1      66.106  49.398  34.323  1.00  0.00     0.012 C 
HETATM   21  C3  UNL     1      63.817  49.428  35.321  1.00  0.00     0.012 C 
ENDBRANCH   1  19
BRANCH   1  22
HETATM   22  O1  UNL     1      62.884  48.092  33.348  1.00  0.00    -0.389 OA
ATOM     23  H1  UNL     1      62.396  48.441  32.612  1.00  0.00     0.210 HD
ENDBRANCH   1  22
TORSDOF 5
ENDMDL
MODEL 4
REMARK VINA RESULT: -7.514792992      1.782      4.007
REMARK  5 active torsions:
REMARK  status: ('A' for Active; 'I' for Inactive)
REMARK    1  A    between atoms: C2_2  and  C4_4 
REMARK    2  A    between atoms: C4_4  and  O1_5 
REMARK    3  A    between atoms: C14_16  and  C16_18 
REMARK    4  A    between atoms: C16_18  and  C17_19 
REMARK    5  A    between atoms: C17_19  and  N1_20 
ROOT
HETATM    1  C4  UNL     1      67.362  46.883  31.302  1.00  0.00     0.062 C 
HETATM    2  C5  UNL     1      67.022  47.808  32.425  1.00  0.00     0.044 C 
HETATM    3  C6  UNL     1      65.569  47.665  32.725  1.00  0.00     0.001 C 
HETATM    4  C7  UNL     1      64.674  48.114  31.613  1.00  0.00    -0.001 C 
HETATM    5  C8  UNL     1      63.297  47.569  31.916  1.00  0.00     0.006 C 
HETATM    6  C9  UNL     1      62.813  47.965  33.282  1.00  0.00     0.001 C 
HETATM    7  C10 UNL     1      63.813  47.729  34.371  1.00  0.00     0.009 C 
HETATM    8  C11 UNL     1      65.158  48.328  34.022  1.00  0.00    -0.044 C 
HETATM    9  C12 UNL     1      66.183  48.035  35.079  1.00  0.00     0.015 C 
HETATM   10  C13 UNL     1      65.028  49.820  33.897  1.00  0.00     0.015 C 
HETATM   11  C14 UNL     1      65.180  47.669  30.282  1.00  0.00    -0.036 C 
HETATM   12  C15 UNL     1      65.669  48.930  29.547  1.00  0.00     0.016 C 
HETATM   13  C20 UNL     1      66.266  46.644  30.321  1.00  0.00     0.047 C 
ENDROOT
BRANCH  11  14
HETATM   14  C16 UNL     1      64.068  47.125  29.396  1.00  0.00     0.040 C 
BRANCH  14  15
HETATM   15  C17 UNL     1      64.208  47.654  27.988  1.00  0.00     0.272 C 
BRANCH  15  16
HETATM   16  N1  UNL     1      62.933  48.126  27.480  1.00  0.00     0.080 N 
HETATM   17  C18 UNL     1      63.155  49.504  27.033  1.00  0.00     0.309 C 
HETATM   18  C19 UNL     1      61.911  48.172  28.496  1.00  0.00     0.309 C 
ENDBRANCH  15  16
ENDBRANCH  14  15
ENDBRANCH  11  14
BRANCH   1  19
HETATM   19  C2  UNL     1      67.783  45.540  31.866  1.00  0.00     0.012 C 
HETATM   20  C1  UNL     1      66.745  44.512  31.509  1.00  0.00     0.012 C 
HETATM   21  C3  UNL     1      68.027  45.603  33.353  1.00  0.00     0.012 C 
ENDBRANCH   1  19
BRANCH   1  22
HETATM   22  O1  UNL     1      68.512  47.417  30.675  1.00  0.00    -0.389 OA
ATOM     23  H1  UNL     1      68.191  47.963  29.967  1.00  0.00     0.210 HD
ENDBRANCH   1  22
TORSDOF 5
ENDMDL
MODEL 5
REMARK VINA RESULT: -7.132223265      1.812      3.994
REMARK  5 active torsions:
REMARK  status: ('A' for Active; 'I' for Inactive)
REMARK    1  A    between atoms: C2_2  and  C4_4 
REMARK    2  A    between atoms: C4_4  and  O1_5 
REMARK    3  A    between atoms: C14_16  and  C16_18 
REMARK    4  A    between atoms: C16_18  and  C17_19 
REMARK    5  A    between atoms: C17_19  and  N1_20 
ROOT
HETATM    1  C4  UNL     1      67.608  46.123  32.140  1.00  0.00     0.062 C 
HETATM    2  C5  UNL     1      67.427  47.163  33.198  1.00  0.00     0.044 C 
HETATM    3  C6  UNL     1      65.965  47.383  33.391  1.00  0.00     0.001 C 
HETATM    4  C7  UNL     1      65.279  47.968  32.199  1.00  0.00    -0.001 C 
HETATM    5  C8  UNL     1      63.794  47.781  32.415  1.00  0.00     0.006 C 
HETATM    6  C9  UNL     1      63.330  48.354  33.724  1.00  0.00     0.001 C 
HETATM    7  C10 UNL     1      64.172  47.949  34.895  1.00  0.00     0.009 C 
HETATM    8  C11 UNL     1      65.641  48.193  34.627  1.00  0.00    -0.044 C 
HETATM    9  C12 UNL     1      66.495  47.725  35.770  1.00  0.00     0.015 C 
HETATM   10  C13 UNL     1      65.880  49.665  34.437  1.00  0.00     0.015 C 
HETATM   11  C14 UNL     1      65.748  47.344  30.927  1.00  0.00    -0.036 C 
HETATM   12  C15 UNL     1      66.572  48.413  30.184  1.00  0.00     0.016 C 
HETATM   13  C20 UNL     1      66.554  46.096  31.088  1.00  0.00     0.047 C 
ENDROOT
BRANCH  11  14
HETATM   14  C16 UNL     1      64.600  47.030  29.980  1.00  0.00     0.040 C 
BRANCH  14  15
HETATM   15  C17 UNL     1      65.022  47.248  28.547  1.00  0.00     0.272 C 
BRANCH  15  16
HETATM   16  N1  UNL     1      63.933  47.800  27.761  1.00  0.00     0.080 N 
HETATM   17  C18 UNL     1      64.390  49.111  27.290  1.00  0.00     0.309 C 
HETATM   18  C19 UNL     1      62.742  48.025  28.541  1.00  0.00     0.309 C 
ENDBRANCH  15  16
ENDBRANCH  14  15
ENDBRANCH  11  14
BRANCH   1  19
HETATM   19  C2  UNL     1      67.658  44.752  32.785  1.00  0.00     0.012 C 
HETATM   20  C1  UNL     1      66.610  43.877  32.155  1.00  0.00     0.012 C 
HETATM   21  C3  UNL     1      67.507  44.826  34.283  1.00  0.00     0.012 C 
ENDBRANCH   1  19
BRANCH   1  22
HETATM   22  O1  UNL     1      68.891  46.336  31.583  1.00  0.00    -0.389 OA
ATOM     23  H1  UNL     1      69.200  45.480  31.310  1.00  0.00     0.210 HD
ENDBRANCH   1  22
TORSDOF 5
ENDMDL
