MODEL 1
REMARK VINA RESULT: -6.694880205      0.000      0.000
REMARK  4 active torsions:
REMARK  status: ('A' for Active; 'I' for Inactive)
REMARK    1  A    between atoms: N1_1  and  N2_4 
REMARK    2  A    between atoms: C1_6  and  O1_7 
REMARK    3  A    between atoms: O1_7  and  N3_8 
REMARK    4  A    between atoms: C2_10  and  C3_11 
ROOT
HETATM    1  C3  UNL     1      17.603  20.634  -5.585  1.00  0.00    -0.008 A 
HETATM    2  C4  UNL     1      16.550  21.509  -5.450  1.00  0.00     0.014 A 
HETATM    3  C5  UNL     1      16.199  22.367  -6.478  1.00  0.00     0.002 A 
HETATM    4  C6  UNL     1      16.905  22.350  -7.650  1.00  0.00     0.012 A 
HETATM    5  C7  UNL     1      17.959  21.480  -7.796  1.00  0.00    -0.025 A 
HETATM    6  C8  UNL     1      18.640  21.491  -8.979  1.00  0.00     0.012 A 
HETATM    7  C9  UNL     1      19.686  20.649  -9.165  1.00  0.00     0.001 A 
HETATM    8  C10 UNL     1      20.048  19.799  -8.171  1.00  0.00     0.001 A 
HETATM    9  C11 UNL     1      19.371  19.765  -6.953  1.00  0.00     0.013 A 
HETATM   10  C12 UNL     1      18.313  20.615  -6.762  1.00  0.00    -0.014 A 
ENDROOT
BRANCH   1  11
HETATM   11  C2  UNL     1      17.932  19.762  -4.493  1.00  0.00     0.126 C 
HETATM   12  N3  UNL     1      18.626  20.276  -3.493  1.00  0.00    -0.271 N 
ATOM     13  H3  UNL     1      18.906  21.256  -3.519  1.00  0.00     0.194 HD
BRANCH  12  14
HETATM   14  O1  UNL     1      18.971  19.494  -2.418  1.00  0.00    -0.232 OA
BRANCH  14  15
HETATM   15  C1  UNL     1      18.856  18.121  -2.563  1.00  0.00     0.274 C 
HETATM   16  N2  UNL     1      19.862  17.371  -2.318  1.00  0.00    -0.295 N 
ATOM     17  H2  UNL     1      20.744  17.787  -2.018  1.00  0.00     0.187 HD
BRANCH  16  18
HETATM   18  N1  UNL     1      19.759  15.980  -2.460  1.00  0.00    -0.344 N 
ATOM     19  H12 UNL     1      20.347  15.511  -3.149  1.00  0.00     0.176 HD
ATOM     20  H11 UNL     1      19.105  15.451  -1.882  1.00  0.00     0.176 HD
ENDBRANCH  16  18
ENDBRANCH  14  15
ENDBRANCH  12  14
ENDBRANCH   1  11
TORSDOF 4
ENDMDL
MODEL 2
REMARK VINA RESULT: -6.568681864      7.931      9.906
REMARK  4 active torsions:
REMARK  status: ('A' for Active; 'I' for Inactive)
REMARK    1  A    between atoms: N1_1  and  N2_4 
REMARK    2  A    between atoms: C1_6  and  O1_7 
REMARK    3  A    between atoms: O1_7  and  N3_8 
REMARK    4  A    between atoms: C2_10  and  C3_11 
ROOT
HETATM    1  C3  UNL     1      12.685  23.436  -9.820  1.00  0.00    -0.008 A 
HETATM    2  C4  UNL     1      13.725  22.535  -9.866  1.00  0.00     0.014 A 
HETATM    3  C5  UNL     1      13.803  21.488  -8.966  1.00  0.00     0.002 A 
HETATM    4  C6  UNL     1      12.834  21.337  -8.010  1.00  0.00     0.012 A 
HETATM    5  C7  UNL     1      11.791  22.230  -7.954  1.00  0.00    -0.025 A 
HETATM    6  C8  UNL     1      10.843  22.049  -6.989  1.00  0.00     0.012 A 
HETATM    7  C9  UNL     1       9.797  22.907  -6.898  1.00  0.00     0.001 A 
HETATM    8  C10 UNL     1       9.700  23.942  -7.771  1.00  0.00     0.001 A 
HETATM    9  C11 UNL     1      10.652  24.152  -8.767  1.00  0.00     0.013 A 
HETATM   10  C12 UNL     1      11.711  23.286  -8.862  1.00  0.00    -0.014 A 
ENDROOT
BRANCH   1  11
HETATM   11  C2  UNL     1      12.645  24.507 -10.773  1.00  0.00     0.126 C 
HETATM   12  N3  UNL     1      13.800  24.963 -11.225  1.00  0.00    -0.271 N 
ATOM     13  H3  UNL     1      14.673  24.554 -10.893  1.00  0.00     0.194 HD
BRANCH  12  14
HETATM   14  O1  UNL     1      13.828  25.987 -12.140  1.00  0.00    -0.232 OA
BRANCH  14  15
HETATM   15  C1  UNL     1      14.381  27.191 -11.735  1.00  0.00     0.274 C 
HETATM   16  N2  UNL     1      15.451  27.194 -11.036  1.00  0.00    -0.295 N 
ATOM     17  H2  UNL     1      15.892  26.310 -10.779  1.00  0.00     0.187 HD
BRANCH  16  18
HETATM   18  N1  UNL     1      16.022  28.405 -10.620  1.00  0.00    -0.344 N 
ATOM     19  H12 UNL     1      16.381  28.479  -9.668  1.00  0.00     0.176 HD
ATOM     20  H11 UNL     1      16.075  29.196 -11.262  1.00  0.00     0.176 HD
ENDBRANCH  16  18
ENDBRANCH  14  15
ENDBRANCH  12  14
ENDBRANCH   1  11
TORSDOF 4
ENDMDL
MODEL 3
REMARK VINA RESULT: -6.517853108      3.434      6.652
REMARK  4 active torsions:
REMARK  status: ('A' for Active; 'I' for Inactive)
REMARK    1  A    between atoms: N1_1  and  N2_4 
REMARK    2  A    between atoms: C1_6  and  O1_7 
REMARK    3  A    between atoms: O1_7  and  N3_8 
REMARK    4  A    between atoms: C2_10  and  C3_11 
ROOT
HETATM    1  C3  UNL     1      18.919  17.692  -2.658  1.00  0.00    -0.008 A 
HETATM    2  C4  UNL     1      19.432  16.565  -2.057  1.00  0.00     0.014 A 
HETATM    3  C5  UNL     1      19.656  16.524  -0.692  1.00  0.00     0.002 A 
HETATM    4  C6  UNL     1      19.368  17.617   0.079  1.00  0.00     0.012 A 
HETATM    5  C7  UNL     1      18.856  18.748  -0.511  1.00  0.00    -0.025 A 
HETATM    6  C8  UNL     1      18.579  19.819   0.290  1.00  0.00     0.012 A 
HETATM    7  C9  UNL     1      18.073  20.954  -0.251  1.00  0.00     0.001 A 
HETATM    8  C10 UNL     1      17.844  21.018  -1.587  1.00  0.00     0.001 A 
HETATM    9  C11 UNL     1      18.116  19.941  -2.429  1.00  0.00     0.013 A 
HETATM   10  C12 UNL     1      18.627  18.791  -1.885  1.00  0.00    -0.014 A 
ENDROOT
BRANCH   1  11
HETATM   11  C2  UNL     1      18.702  17.691  -4.077  1.00  0.00     0.126 C 
HETATM   12  N3  UNL     1      19.521  16.964  -4.817  1.00  0.00    -0.271 N 
ATOM     13  H3  UNL     1      20.272  16.434  -4.374  1.00  0.00     0.194 HD
BRANCH  12  14
HETATM   14  O1  UNL     1      19.365  16.921  -6.181  1.00  0.00    -0.232 OA
BRANCH  14  15
HETATM   15  C1  UNL     1      19.626  18.080  -6.891  1.00  0.00     0.274 C 
HETATM   16  N2  UNL     1      19.552  18.072  -8.167  1.00  0.00    -0.295 N 
ATOM     17  H2  UNL     1      19.303  17.211  -8.656  1.00  0.00     0.187 HD
BRANCH  16  18
HETATM   18  N1  UNL     1      19.813  19.239  -8.899  1.00  0.00    -0.344 N 
ATOM     19  H12 UNL     1      19.400  20.118  -8.587  1.00  0.00     0.176 HD
ATOM     20  H11 UNL     1      20.406  19.205  -9.729  1.00  0.00     0.176 HD
ENDBRANCH  16  18
ENDBRANCH  14  15
ENDBRANCH  12  14
ENDBRANCH   1  11
TORSDOF 4
ENDMDL
MODEL 4
REMARK VINA RESULT: -6.516444913      1.294      2.913
REMARK  4 active torsions:
REMARK  status: ('A' for Active; 'I' for Inactive)
REMARK    1  A    between atoms: N1_1  and  N2_4 
REMARK    2  A    between atoms: C1_6  and  O1_7 
REMARK    3  A    between atoms: O1_7  and  N3_8 
REMARK    4  A    between atoms: C2_10  and  C3_11 
ROOT
HETATM    1  C3  UNL     1      17.655  21.286  -5.463  1.00  0.00    -0.008 A 
HETATM    2  C4  UNL     1      18.786  21.620  -6.172  1.00  0.00     0.014 A 
HETATM    3  C5  UNL     1      18.706  22.045  -7.486  1.00  0.00     0.002 A 
HETATM    4  C6  UNL     1      17.486  22.137  -8.099  1.00  0.00     0.012 A 
HETATM    5  C7  UNL     1      16.349  21.806  -7.401  1.00  0.00    -0.025 A 
HETATM    6  C8  UNL     1      15.150  21.909  -8.045  1.00  0.00     0.012 A 
HETATM    7  C9  UNL     1      14.004  21.593  -7.394  1.00  0.00     0.001 A 
HETATM    8  C10 UNL     1      14.058  21.174  -6.104  1.00  0.00     0.001 A 
HETATM    9  C11 UNL     1      15.268  21.058  -5.421  1.00  0.00     0.013 A 
HETATM   10  C12 UNL     1      16.428  21.378  -6.077  1.00  0.00    -0.014 A 
ENDROOT
BRANCH   1  11
HETATM   11  C2  UNL     1      17.785  20.850  -4.102  1.00  0.00     0.126 C 
HETATM   12  N3  UNL     1      18.728  19.965  -3.835  1.00  0.00    -0.271 N 
ATOM     13  H3  UNL     1      19.328  19.618  -4.584  1.00  0.00     0.194 HD
BRANCH  12  14
HETATM   14  O1  UNL     1      18.904  19.509  -2.551  1.00  0.00    -0.232 OA
BRANCH  14  15
HETATM   15  C1  UNL     1      18.840  18.141  -2.344  1.00  0.00     0.274 C 
HETATM   16  N2  UNL     1      19.793  17.393  -2.751  1.00  0.00    -0.295 N 
ATOM     17  H2  UNL     1      20.596  17.806  -3.226  1.00  0.00     0.187 HD
BRANCH  16  18
HETATM   18  N1  UNL     1      19.741  16.006  -2.547  1.00  0.00    -0.344 N 
ATOM     19  H12 UNL     1      19.256  15.426  -3.232  1.00  0.00     0.176 HD
ATOM     20  H11 UNL     1      20.182  15.589  -1.727  1.00  0.00     0.176 HD
ENDBRANCH  16  18
ENDBRANCH  14  15
ENDBRANCH  12  14
ENDBRANCH   1  11
TORSDOF 4
ENDMDL
MODEL 5
REMARK VINA RESULT: -6.505016200      1.000      1.107
REMARK  4 active torsions:
REMARK  status: ('A' for Active; 'I' for Inactive)
REMARK    1  A    between atoms: N1_1  and  N2_4 
REMARK    2  A    between atoms: C1_6  and  O1_7 
REMARK    3  A    between atoms: O1_7  and  N3_8 
REMARK    4  A    between atoms: C2_10  and  C3_11 
ROOT
HETATM    1  C3  UNL     1      17.376  20.685  -5.657  1.00  0.00    -0.008 A 
HETATM    2  C4  UNL     1      16.388  21.644  -5.632  1.00  0.00     0.014 A 
HETATM    3  C5  UNL     1      16.204  22.506  -6.698  1.00  0.00     0.002 A 
HETATM    4  C6  UNL     1      17.013  22.412  -7.799  1.00  0.00     0.012 A 
HETATM    5  C7  UNL     1      18.002  21.459  -7.834  1.00  0.00    -0.025 A 
HETATM    6  C8  UNL     1      18.789  21.394  -8.948  1.00  0.00     0.012 A 
HETATM    7  C9  UNL     1      19.777  20.469  -9.024  1.00  0.00     0.001 A 
HETATM    8  C10 UNL     1      19.976  19.612  -7.991  1.00  0.00     0.001 A 
HETATM    9  C11 UNL     1      19.189  19.654  -6.842  1.00  0.00     0.013 A 
HETATM   10  C12 UNL     1      18.188  20.588  -6.761  1.00  0.00    -0.014 A 
ENDROOT
BRANCH   1  11
HETATM   11  C2  UNL     1      17.531  19.812  -4.529  1.00  0.00     0.126 C 
HETATM   12  N3  UNL     1      18.065  20.323  -3.433  1.00  0.00    -0.271 N 
ATOM     13  H3  UNL     1      18.349  21.302  -3.415  1.00  0.00     0.194 HD
BRANCH  12  14
HETATM   14  O1  UNL     1      18.239  19.538  -2.320  1.00  0.00    -0.232 OA
BRANCH  14  15
HETATM   15  C1  UNL     1      19.503  19.503  -1.754  1.00  0.00     0.274 C 
HETATM   16  N2  UNL     1      20.447  18.879  -2.349  1.00  0.00    -0.295 N 
ATOM     17  H2  UNL     1      20.264  18.410  -3.237  1.00  0.00     0.187 HD
BRANCH  16  18
HETATM   18  N1  UNL     1      21.731  18.836  -1.788  1.00  0.00    -0.344 N 
ATOM     19  H12 UNL     1      22.292  19.688  -1.777  1.00  0.00     0.176 HD
ATOM     20  H11 UNL     1      22.094  17.965  -1.400  1.00  0.00     0.176 HD
ENDBRANCH  16  18
ENDBRANCH  14  15
ENDBRANCH  12  14
ENDBRANCH   1  11
TORSDOF 4
ENDMDL
