MODEL 1
REMARK VINA RESULT: -6.768745042      0.000      0.000
REMARK  3 active torsions:
REMARK  status: ('A' for Active; 'I' for Inactive)
REMARK    1  A    between atoms: C3_4  and  C4_5 
REMARK    2  A    between atoms: C4_5  and  C5_6 
REMARK    3  A    between atoms: C5_6  and  C6_7 
ROOT
HETATM    1  N1  UNL     1      18.564  19.454  -4.163  1.00  0.00    -0.191 NA
HETATM    2  C1  UNL     1      18.825  19.422  -5.300  1.00  0.00     0.107 C 
HETATM    3  C2  UNL     1      19.146  19.408  -6.682  1.00  0.00     0.137 A 
HETATM    4  C3  UNL     1      19.100  20.493  -7.565  1.00  0.00     0.052 A 
HETATM    5  N3  UNL     1      19.485  19.976  -8.743  1.00  0.00    -0.300 N 
ATOM      6  H3  UNL     1      19.562  20.505  -9.612  1.00  0.00     0.186 HD
HETATM    7  N4  UNL     1      19.752  18.678  -8.621  1.00  0.00    -0.265 N 
ATOM      8  H4  UNL     1      20.063  18.074  -9.382  1.00  0.00     0.190 HD
HETATM    9  C11 UNL     1      19.557  18.278  -7.363  1.00  0.00     0.282 A 
HETATM   10  O1  UNL     1      19.703  17.128  -6.859  1.00  0.00    -0.265 OA
ENDROOT
BRANCH   4  11
HETATM   11  C4  UNL     1      18.703  21.884  -7.226  1.00  0.00     0.065 C 
BRANCH  11  12
HETATM   12  C5  UNL     1      17.508  22.257  -8.067  1.00  0.00     0.044 C 
BRANCH  12  13
HETATM   13  C6  UNL     1      16.228  22.058  -7.388  1.00  0.00    -0.055 A 
HETATM   14  C7  UNL     1      16.098  22.099  -6.019  1.00  0.00     0.024 A 
HETATM   15  C8  UNL     1      14.886  21.905  -5.391  1.00  0.00     0.088 A 
HETATM   16  N2  UNL     1      13.790  21.667  -6.140  1.00  0.00    -0.375 N 
HETATM   17  C9  UNL     1      13.854  21.616  -7.487  1.00  0.00     0.088 A 
ATOM     18  H2  UNL     1      12.892  21.523  -5.677  1.00  0.00     0.164 HD
HETATM   19  C10 UNL     1      15.084  21.813  -8.118  1.00  0.00     0.024 A 
ENDBRANCH  12  13
ENDBRANCH  11  12
ENDBRANCH   4  11
TORSDOF 3
ENDMDL
MODEL 2
REMARK VINA RESULT: -6.765670813      0.022      1.175
REMARK  3 active torsions:
REMARK  status: ('A' for Active; 'I' for Inactive)
REMARK    1  A    between atoms: C3_4  and  C4_5 
REMARK    2  A    between atoms: C4_5  and  C5_6 
REMARK    3  A    between atoms: C5_6  and  C6_7 
ROOT
HETATM    1  N1  UNL     1      18.571  19.433  -4.152  1.00  0.00    -0.191 NA
HETATM    2  C1  UNL     1      18.829  19.406  -5.289  1.00  0.00     0.107 C 
HETATM    3  C2  UNL     1      19.146  19.398  -6.672  1.00  0.00     0.137 A 
HETATM    4  C3  UNL     1      19.091  20.486  -7.552  1.00  0.00     0.052 A 
HETATM    5  N3  UNL     1      19.476  19.974  -8.733  1.00  0.00    -0.300 N 
ATOM      6  H3  UNL     1      19.547  20.507  -9.600  1.00  0.00     0.186 HD
HETATM    7  N4  UNL     1      19.752  18.678  -8.616  1.00  0.00    -0.265 N 
ATOM      8  H4  UNL     1      20.065  18.078  -9.379  1.00  0.00     0.190 HD
HETATM    9  C11 UNL     1      19.563  18.273  -7.358  1.00  0.00     0.282 A 
HETATM   10  O1  UNL     1      19.718  17.122  -6.858  1.00  0.00    -0.265 OA
ENDROOT
BRANCH   4  11
HETATM   11  C4  UNL     1      18.686  21.872  -7.208  1.00  0.00     0.065 C 
BRANCH  11  12
HETATM   12  C5  UNL     1      17.502  22.249  -8.062  1.00  0.00     0.044 C 
BRANCH  12  13
HETATM   13  C6  UNL     1      16.212  22.047  -7.401  1.00  0.00    -0.055 A 
HETATM   14  C7  UNL     1      15.051  21.799  -8.096  1.00  0.00     0.024 A 
HETATM   15  C8  UNL     1      13.841  21.616  -7.461  1.00  0.00     0.088 A 
HETATM   16  N2  UNL     1      13.790  21.680  -6.115  1.00  0.00    -0.375 N 
HETATM   17  C9  UNL     1      14.896  21.919  -5.379  1.00  0.00     0.088 A 
ATOM     18  H2  UNL     1      12.896  21.545  -5.643  1.00  0.00     0.164 HD
HETATM   19  C10 UNL     1      16.119  22.105  -6.028  1.00  0.00     0.024 A 
ENDBRANCH  12  13
ENDBRANCH  11  12
ENDBRANCH   4  11
TORSDOF 3
ENDMDL
MODEL 3
REMARK VINA RESULT: -6.761547790      3.248      5.763
REMARK  3 active torsions:
REMARK  status: ('A' for Active; 'I' for Inactive)
REMARK    1  A    between atoms: C3_4  and  C4_5 
REMARK    2  A    between atoms: C4_5  and  C5_6 
REMARK    3  A    between atoms: C5_6  and  C6_7 
ROOT
HETATM    1  N1  UNL     1      20.005  17.078  -6.659  1.00  0.00    -0.191 NA
HETATM    2  C1  UNL     1      19.768  18.201  -6.455  1.00  0.00     0.107 C 
HETATM    3  C2  UNL     1      19.470  19.562  -6.185  1.00  0.00     0.137 A 
HETATM    4  C3  UNL     1      18.522  20.049  -5.277  1.00  0.00     0.052 A 
HETATM    5  N3  UNL     1      18.614  21.385  -5.389  1.00  0.00    -0.300 N 
ATOM      6  H3  UNL     1      18.054  22.051  -4.858  1.00  0.00     0.186 HD
HETATM    7  N4  UNL     1      19.538  21.718  -6.286  1.00  0.00    -0.265 N 
ATOM      8  H4  UNL     1      19.785  22.675  -6.540  1.00  0.00     0.190 HD
HETATM    9  C11 UNL     1      20.097  20.624  -6.809  1.00  0.00     0.282 A 
HETATM   10  O1  UNL     1      21.004  20.531  -7.684  1.00  0.00    -0.265 OA
ENDROOT
BRANCH   4  11
HETATM   11  C4  UNL     1      17.635  19.231  -4.412  1.00  0.00     0.065 C 
BRANCH  11  12
HETATM   12  C5  UNL     1      17.968  19.527  -2.971  1.00  0.00     0.044 C 
BRANCH  12  13
HETATM   13  C6  UNL     1      18.858  18.539  -2.360  1.00  0.00    -0.055 A 
HETATM   14  C7  UNL     1      19.917  18.891  -1.555  1.00  0.00     0.024 A 
HETATM   15  C8  UNL     1      20.751  17.950  -0.990  1.00  0.00     0.088 A 
HETATM   16  N2  UNL     1      20.525  16.643  -1.230  1.00  0.00    -0.375 N 
HETATM   17  C9  UNL     1      19.502  16.237  -2.010  1.00  0.00     0.088 A 
ATOM     18  H2  UNL     1      21.141  15.945  -0.812  1.00  0.00     0.164 HD
HETATM   19  C10 UNL     1      18.660  17.194  -2.581  1.00  0.00     0.024 A 
ENDBRANCH  12  13
ENDBRANCH  11  12
ENDBRANCH   4  11
TORSDOF 3
ENDMDL
MODEL 4
REMARK VINA RESULT: -6.724443223      2.595      3.859
REMARK  3 active torsions:
REMARK  status: ('A' for Active; 'I' for Inactive)
REMARK    1  A    between atoms: C3_4  and  C4_5 
REMARK    2  A    between atoms: C4_5  and  C5_6 
REMARK    3  A    between atoms: C5_6  and  C6_7 
ROOT
HETATM    1  N1  UNL     1      15.656  22.715  -8.631  1.00  0.00    -0.191 NA
HETATM    2  C1  UNL     1      16.490  22.397  -7.881  1.00  0.00     0.107 C 
HETATM    3  C2  UNL     1      17.488  21.997  -6.955  1.00  0.00     0.137 A 
HETATM    4  C3  UNL     1      17.283  21.516  -5.656  1.00  0.00     0.052 A 
HETATM    5  N3  UNL     1      18.521  21.282  -5.193  1.00  0.00    -0.300 N 
ATOM      6  H3  UNL     1      18.734  20.921  -4.262  1.00  0.00     0.186 HD
HETATM    7  N4  UNL     1      19.433  21.586  -6.113  1.00  0.00    -0.265 N 
ATOM      8  H4  UNL     1      20.441  21.490  -5.987  1.00  0.00     0.190 HD
HETATM    9  C11 UNL     1      18.843  22.034  -7.223  1.00  0.00     0.282 A 
HETATM   10  O1  UNL     1      19.368  22.419  -8.307  1.00  0.00    -0.265 OA
ENDROOT
BRANCH   4  11
HETATM   11  C4  UNL     1      15.970  21.329  -4.987  1.00  0.00     0.065 C 
BRANCH  11  12
HETATM   12  C5  UNL     1      15.406  19.995  -5.408  1.00  0.00     0.044 C 
BRANCH  12  13
HETATM   13  C6  UNL     1      14.126  20.095  -6.109  1.00  0.00    -0.055 A 
HETATM   14  C7  UNL     1      13.402  21.264  -6.174  1.00  0.00     0.024 A 
HETATM   15  C8  UNL     1      12.194  21.342  -6.833  1.00  0.00     0.088 A 
HETATM   16  N2  UNL     1      11.701  20.241  -7.434  1.00  0.00    -0.375 N 
HETATM   17  C9  UNL     1      12.365  19.066  -7.405  1.00  0.00     0.088 A 
ATOM     18  H2  UNL     1      10.808  20.297  -7.922  1.00  0.00     0.164 HD
HETATM   19  C10 UNL     1      13.589  18.992  -6.736  1.00  0.00     0.024 A 
ENDBRANCH  12  13
ENDBRANCH  11  12
ENDBRANCH   4  11
TORSDOF 3
ENDMDL
MODEL 5
REMARK VINA RESULT: -6.696102091      2.732      5.215
REMARK  3 active torsions:
REMARK  status: ('A' for Active; 'I' for Inactive)
REMARK    1  A    between atoms: C3_4  and  C4_5 
REMARK    2  A    between atoms: C4_5  and  C5_6 
REMARK    3  A    between atoms: C5_6  and  C6_7 
ROOT
HETATM    1  N1  UNL     1      19.955  20.181  -9.045  1.00  0.00    -0.191 NA
HETATM    2  C1  UNL     1      19.247  21.040  -8.699  1.00  0.00     0.107 C 
HETATM    3  C2  UNL     1      18.378  22.072  -8.258  1.00  0.00     0.137 A 
HETATM    4  C3  UNL     1      17.321  21.947  -7.349  1.00  0.00     0.052 A 
HETATM    5  N3  UNL     1      16.811  23.187  -7.265  1.00  0.00    -0.300 N 
ATOM      6  H3  UNL     1      16.017  23.450  -6.680  1.00  0.00     0.186 HD
HETATM    7  N4  UNL     1      17.484  24.026  -8.048  1.00  0.00    -0.265 N 
ATOM      8  H4  UNL     1      17.279  25.020  -8.148  1.00  0.00     0.190 HD
HETATM    9  C11 UNL     1      18.465  23.383  -8.685  1.00  0.00     0.282 A 
HETATM   10  O1  UNL     1      19.312  23.834  -9.508  1.00  0.00    -0.265 OA
ENDROOT
BRANCH   4  11
HETATM   11  C4  UNL     1      16.895  20.700  -6.664  1.00  0.00     0.065 C 
BRANCH  11  12
HETATM   12  C5  UNL     1      17.570  20.643  -5.316  1.00  0.00     0.044 C 
BRANCH  12  13
HETATM   13  C6  UNL     1      18.221  19.362  -5.040  1.00  0.00    -0.055 A 
HETATM   14  C7  UNL     1      18.845  18.619  -6.016  1.00  0.00     0.024 A 
HETATM   15  C8  UNL     1      19.450  17.411  -5.743  1.00  0.00     0.088 A 
HETATM   16  N2  UNL     1      19.431  16.938  -4.481  1.00  0.00    -0.375 N 
HETATM   17  C9  UNL     1      18.835  17.621  -3.481  1.00  0.00     0.088 A 
ATOM     18  H2  UNL     1      19.878  16.044  -4.277  1.00  0.00     0.164 HD
HETATM   19  C10 UNL     1      18.224  18.844  -3.763  1.00  0.00     0.024 A 
ENDBRANCH  12  13
ENDBRANCH  11  12
ENDBRANCH   4  11
TORSDOF 3
ENDMDL
