MODEL 1
REMARK VINA RESULT: -9.261750360      0.000      0.000
REMARK  1 active torsions:
REMARK  status: ('A' for Active; 'I' for Inactive)
REMARK       I    between atoms: C2_4  and  N2_5 
REMARK       I    between atoms: C2_4  and  N8_31 
REMARK    1  A    between atoms: C6_14  and  C7_15 
ROOT
HETATM    1  C1  UNL     1      12.864  -1.493  20.225  1.00  0.00     0.165 C 
HETATM    2  N1  UNL     1      12.542  -0.091  20.154  1.00  0.00    -0.230 N 
ATOM      3  H1  UNL     1      13.233   0.590  20.467  1.00  0.00     0.177 HD
HETATM    4  C2  UNL     1      11.387   0.337  19.698  1.00  0.00     0.688 C 
HETATM    5  N2  UNL     1      11.094   1.720  19.638  1.00  0.00    -0.174 N 
ATOM      6  H2  UNL     1      11.097   2.188  18.732  1.00  0.00     0.186 HD
HETATM    7  C3  UNL     1      10.822   2.405  20.695  1.00  0.00     0.151 A 
HETATM    8  N3  UNL     1      10.797   1.856  21.920  1.00  0.00    -0.326 N 
ATOM      9  H3  UNL     1      11.000   0.861  22.009  1.00  0.00     0.169 HD
HETATM   10  C4  UNL     1      10.517   2.557  23.039  1.00  0.00     0.119 A 
HETATM   11  N4  UNL     1      10.497   1.989  24.256  1.00  0.00    -0.351 N 
ATOM     12  H4  UNL     1      10.704   0.993  24.326  1.00  0.00     0.166 HD
HETATM   13  C5  UNL     1      10.221   2.662  25.390  1.00  0.00     0.102 A 
HETATM   14  C6  UNL     1       9.937   4.006  25.348  1.00  0.00    -0.008 A 
HETATM   15  C12 UNL     1       9.945   4.629  24.123  1.00  0.00     0.031 A 
HETATM   16  C13 UNL     1      10.235   3.909  22.960  1.00  0.00     0.038 A 
HETATM   17  C14 UNL     1      10.247   4.515  21.741  1.00  0.00     0.078 A 
HETATM   18  N6  UNL     1      10.016   5.787  21.371  1.00  0.00    -0.350 N 
ATOM     19  H6  UNL     1       9.778   6.562  21.991  1.00  0.00     0.166 HD
HETATM   20  C15 UNL     1      10.157   5.853  20.034  1.00  0.00     0.181 A 
HETATM   21  N7  UNL     1      10.479   4.606  19.581  1.00  0.00    -0.347 N 
ATOM     22  H7  UNL     1      10.645   4.360  18.605  1.00  0.00     0.167 HD
HETATM   23  C16 UNL     1      10.541   3.755  20.613  1.00  0.00     0.106 A 
HETATM   24  N8  UNL     1      10.401  -0.580  19.251  1.00  0.00    -0.126 N 
ATOM     25  H8  UNL     1      10.645  -1.349  18.626  1.00  0.00     0.197 HD
HETATM   26  C17 UNL     1       9.086  -0.400  19.691  1.00  0.00     0.196 C 
HETATM   27  N9  UNL     1       7.989  -0.266  20.068  1.00  0.00    -0.171 NA
ENDROOT
BRANCH  14  28
HETATM   28  C7  UNL     1       9.634   4.771  26.541  1.00  0.00    -0.009 A 
HETATM   29  C8  UNL     1       8.559   5.637  26.627  1.00  0.00     0.015 A 
HETATM   30  C9  UNL     1       8.302   6.347  27.782  1.00  0.00     0.018 A 
HETATM   31  C10 UNL     1       9.120   6.209  28.885  1.00  0.00     0.087 A 
HETATM   32  N5  UNL     1      10.158   5.371  28.794  1.00  0.00    -0.374 N 
HETATM   33  C11 UNL     1      10.417   4.680  27.688  1.00  0.00     0.100 A 
ATOM     34  H5  UNL     1      10.772   5.258  29.600  1.00  0.00     0.164 HD
ENDBRANCH  14  28
TORSDOF 1
ENDMDL
MODEL 2
REMARK VINA RESULT: -9.258571587      0.711      1.051
REMARK  1 active torsions:
REMARK  status: ('A' for Active; 'I' for Inactive)
REMARK       I    between atoms: C2_4  and  N2_5 
REMARK       I    between atoms: C2_4  and  N8_31 
REMARK    1  A    between atoms: C6_14  and  C7_15 
ROOT
HETATM    1  C1  UNL     1      11.958  -1.962  20.119  1.00  0.00     0.165 C 
HETATM    2  N1  UNL     1      11.774  -0.536  20.051  1.00  0.00    -0.230 N 
ATOM      3  H1  UNL     1      12.553   0.075  20.296  1.00  0.00     0.177 HD
HETATM    4  C2  UNL     1      10.634   0.004  19.685  1.00  0.00     0.688 C 
HETATM    5  N2  UNL     1      10.477   1.409  19.627  1.00  0.00    -0.174 N 
ATOM      6  H2  UNL     1      10.453   1.868  18.716  1.00  0.00     0.186 HD
HETATM    7  C3  UNL     1      10.364   2.126  20.691  1.00  0.00     0.151 A 
HETATM    8  N3  UNL     1      10.386   1.592  21.923  1.00  0.00    -0.326 N 
ATOM      9  H3  UNL     1      10.494   0.582  22.011  1.00  0.00     0.169 HD
HETATM   10  C4  UNL     1      10.271   2.327  23.050  1.00  0.00     0.119 A 
HETATM   11  N4  UNL     1      10.295   1.773  24.274  1.00  0.00    -0.351 N 
ATOM     12  H4  UNL     1      10.405   0.761  24.342  1.00  0.00     0.166 HD
HETATM   13  C5  UNL     1      10.183   2.478  25.415  1.00  0.00     0.102 A 
HETATM   14  C6  UNL     1      10.033   3.844  25.375  1.00  0.00    -0.008 A 
HETATM   15  C12 UNL     1      10.002   4.453  24.143  1.00  0.00     0.031 A 
HETATM   16  C13 UNL     1      10.121   3.699  22.973  1.00  0.00     0.038 A 
HETATM   17  C14 UNL     1      10.092   4.292  21.747  1.00  0.00     0.078 A 
HETATM   18  N6  UNL     1       9.961   5.578  21.377  1.00  0.00    -0.350 N 
ATOM     19  H6  UNL     1       9.854   6.377  22.002  1.00  0.00     0.166 HD
HETATM   20  C15 UNL     1       9.997   5.619  20.032  1.00  0.00     0.181 A 
HETATM   21  N7  UNL     1      10.153   4.343  19.574  1.00  0.00    -0.347 N 
ATOM     22  H7  UNL     1      10.213   4.074  18.592  1.00  0.00     0.167 HD
HETATM   23  C16 UNL     1      10.215   3.497  20.611  1.00  0.00     0.106 A 
HETATM   24  N8  UNL     1       9.527  -0.812  19.334  1.00  0.00    -0.126 N 
ATOM     25  H8  UNL     1       9.640  -1.606  18.703  1.00  0.00     0.197 HD
HETATM   26  C17 UNL     1       8.278  -0.495  19.877  1.00  0.00     0.196 C 
HETATM   27  N9  UNL     1       7.235  -0.248  20.340  1.00  0.00    -0.171 NA
ENDROOT
BRANCH  14  28
HETATM   28  C7  UNL     1       9.907   4.645  26.576  1.00  0.00    -0.009 A 
HETATM   29  C8  UNL     1      10.952   4.850  27.458  1.00  0.00     0.015 A 
HETATM   30  C9  UNL     1      10.793   5.621  28.592  1.00  0.00     0.018 A 
HETATM   31  C10 UNL     1       9.576   6.208  28.873  1.00  0.00     0.087 A 
HETATM   32  N5  UNL     1       8.569   6.005  28.016  1.00  0.00    -0.374 N 
HETATM   33  C11 UNL     1       8.709   5.265  26.920  1.00  0.00     0.100 A 
ATOM     34  H5  UNL     1       7.663   6.431  28.210  1.00  0.00     0.164 HD
ENDBRANCH  14  28
TORSDOF 1
ENDMDL
MODEL 3
REMARK VINA RESULT: -8.987116122      2.788      7.986
REMARK  1 active torsions:
REMARK  status: ('A' for Active; 'I' for Inactive)
REMARK       I    between atoms: C2_4  and  N2_5 
REMARK       I    between atoms: C2_4  and  N8_31 
REMARK    1  A    between atoms: C6_14  and  C7_15 
ROOT
HETATM    1  C1  UNL     1       7.155   9.762  25.597  1.00  0.00     0.165 C 
HETATM    2  N1  UNL     1       7.875   8.566  25.950  1.00  0.00    -0.230 N 
ATOM      3  H1  UNL     1       8.885   8.619  26.086  1.00  0.00     0.177 HD
HETATM    4  C2  UNL     1       7.274   7.409  26.104  1.00  0.00     0.688 C 
HETATM    5  N2  UNL     1       8.003   6.247  26.451  1.00  0.00    -0.174 N 
ATOM      6  H2  UNL     1       7.933   5.883  27.401  1.00  0.00     0.186 HD
HETATM    7  C3  UNL     1       8.754   5.635  25.601  1.00  0.00     0.151 A 
HETATM    8  N3  UNL     1       8.894   6.054  24.334  1.00  0.00    -0.326 N 
ATOM      9  H3  UNL     1       8.383   6.886  24.040  1.00  0.00     0.169 HD
HETATM   10  C4  UNL     1       9.677   5.429  23.429  1.00  0.00     0.119 A 
HETATM   11  N4  UNL     1       9.804   5.865  22.165  1.00  0.00    -0.351 N 
ATOM     12  H4  UNL     1       9.287   6.699  21.889  1.00  0.00     0.166 HD
HETATM   13  C5  UNL     1      10.577   5.262  21.241  1.00  0.00     0.102 A 
HETATM   14  C6  UNL     1      11.294   4.135  21.564  1.00  0.00    -0.008 A 
HETATM   15  C12 UNL     1      11.193   3.653  22.847  1.00  0.00     0.031 A 
HETATM   16  C13 UNL     1      10.385   4.296  23.788  1.00  0.00     0.038 A 
HETATM   17  C14 UNL     1      10.278   3.828  25.063  1.00  0.00     0.078 A 
HETATM   18  N6  UNL     1      10.838   2.772  25.679  1.00  0.00    -0.350 N 
ATOM     19  H6  UNL     1      11.482   2.101  25.260  1.00  0.00     0.166 HD
HETATM   20  C15 UNL     1      10.394   2.761  26.950  1.00  0.00     0.181 A 
HETATM   21  N7  UNL     1       9.554   3.824  27.113  1.00  0.00    -0.347 N 
ATOM     22  H7  UNL     1       9.070   4.063  27.979  1.00  0.00     0.167 HD
HETATM   23  C16 UNL     1       9.460   4.504  25.963  1.00  0.00     0.106 A 
HETATM   24  N8  UNL     1       5.870   7.294  25.927  1.00  0.00    -0.126 N 
ATOM     25  H8  UNL     1       5.231   7.964  26.354  1.00  0.00     0.197 HD
HETATM   26  C17 UNL     1       5.389   6.235  25.150  1.00  0.00     0.196 C 
HETATM   27  N9  UNL     1       4.980   5.364  24.488  1.00  0.00    -0.171 NA
ENDROOT
BRANCH  14  28
HETATM   28  C7  UNL     1      12.137   3.452  20.604  1.00  0.00    -0.009 A 
HETATM   29  C8  UNL     1      13.447   3.096  20.871  1.00  0.00     0.015 A 
HETATM   30  C9  UNL     1      14.218   2.445  19.929  1.00  0.00     0.018 A 
HETATM   31  C10 UNL     1      13.695   2.133  18.690  1.00  0.00     0.087 A 
HETATM   32  N5  UNL     1      12.429   2.482  18.439  1.00  0.00    -0.374 N 
HETATM   33  C11 UNL     1      11.674   3.109  19.337  1.00  0.00     0.100 A 
ATOM     34  H5  UNL     1      12.028   2.259  17.528  1.00  0.00     0.164 HD
ENDBRANCH  14  28
TORSDOF 1
ENDMDL
MODEL 4
REMARK VINA RESULT: -8.927038010      1.220      1.359
REMARK  1 active torsions:
REMARK  status: ('A' for Active; 'I' for Inactive)
REMARK       I    between atoms: C2_4  and  N2_5 
REMARK       I    between atoms: C2_4  and  N8_31 
REMARK    1  A    between atoms: C6_14  and  C7_15 
ROOT
HETATM    1  C1  UNL     1      10.757  -1.993  20.524  1.00  0.00     0.165 C 
HETATM    2  N1  UNL     1      10.829  -0.568  20.326  1.00  0.00    -0.230 N 
ATOM      3  H1  UNL     1      11.727  -0.098  20.441  1.00  0.00     0.177 HD
HETATM    4  C2  UNL     1       9.775   0.146  20.001  1.00  0.00     0.688 C 
HETATM    5  N2  UNL     1       9.871   1.545  19.812  1.00  0.00    -0.174 N 
ATOM      6  H2  UNL     1       9.839   1.920  18.864  1.00  0.00     0.186 HD
HETATM    7  C3  UNL     1       9.998   2.358  20.803  1.00  0.00     0.151 A 
HETATM    8  N3  UNL     1      10.045   1.938  22.077  1.00  0.00    -0.326 N 
ATOM      9  H3  UNL     1       9.976   0.937  22.259  1.00  0.00     0.169 HD
HETATM   10  C4  UNL     1      10.179   2.774  23.128  1.00  0.00     0.119 A 
HETATM   11  N4  UNL     1      10.226   2.333  24.396  1.00  0.00    -0.351 N 
ATOM     12  H4  UNL     1      10.157   1.328  24.559  1.00  0.00     0.166 HD
HETATM   13  C5  UNL     1      10.359   3.142  25.465  1.00  0.00     0.102 A 
HETATM   14  C6  UNL     1      10.456   4.503  25.297  1.00  0.00    -0.008 A 
HETATM   15  C12 UNL     1      10.413   4.999  24.015  1.00  0.00     0.031 A 
HETATM   16  C13 UNL     1      10.274   4.138  22.923  1.00  0.00     0.038 A 
HETATM   17  C14 UNL     1      10.231   4.619  21.649  1.00  0.00     0.078 A 
HETATM   18  N6  UNL     1      10.299   5.869  21.161  1.00  0.00    -0.350 N 
ATOM     19  H6  UNL     1      10.402   6.725  21.707  1.00  0.00     0.166 HD
HETATM   20  C15 UNL     1      10.206   5.788  19.820  1.00  0.00     0.181 A 
HETATM   21  N7  UNL     1      10.081   4.471  19.485  1.00  0.00    -0.347 N 
ATOM     22  H7  UNL     1       9.992   4.112  18.534  1.00  0.00     0.167 HD
HETATM   23  C16 UNL     1      10.092   3.721  20.595  1.00  0.00     0.106 A 
HETATM   24  N8  UNL     1       8.509  -0.472  19.829  1.00  0.00    -0.126 N 
ATOM     25  H8  UNL     1       8.411  -1.324  19.276  1.00  0.00     0.197 HD
HETATM   26  C17 UNL     1       7.399   0.122  20.438  1.00  0.00     0.196 C 
HETATM   27  N9  UNL     1       6.470   0.602  20.958  1.00  0.00    -0.171 NA
ENDROOT
BRANCH  14  28
HETATM   28  C7  UNL     1      10.599   5.413  26.415  1.00  0.00    -0.009 A 
HETATM   29  C8  UNL     1      10.787   6.774  26.259  1.00  0.00     0.015 A 
HETATM   30  C9  UNL     1      10.918   7.608  27.351  1.00  0.00     0.018 A 
HETATM   31  C10 UNL     1      10.865   7.098  28.633  1.00  0.00     0.087 A 
HETATM   32  N5  UNL     1      10.685   5.781  28.775  1.00  0.00    -0.374 N 
HETATM   33  C11 UNL     1      10.557   4.965  27.733  1.00  0.00     0.100 A 
ATOM     34  H5  UNL     1      10.645   5.388  29.715  1.00  0.00     0.164 HD
ENDBRANCH  14  28
TORSDOF 1
ENDMDL
MODEL 5
REMARK VINA RESULT: -8.874088805      2.394      8.436
REMARK  1 active torsions:
REMARK  status: ('A' for Active; 'I' for Inactive)
REMARK       I    between atoms: C2_4  and  N2_5 
REMARK       I    between atoms: C2_4  and  N8_31 
REMARK    1  A    between atoms: C6_14  and  C7_15 
ROOT
HETATM    1  C1  UNL     1      11.979   4.736  25.137  1.00  0.00     0.165 C 
HETATM    2  N1  UNL     1      11.143   3.777  24.461  1.00  0.00    -0.230 N 
ATOM      3  H1  UNL     1      11.222   2.791  24.710  1.00  0.00     0.177 HD
HETATM    4  C2  UNL     1      10.283   4.132  23.535  1.00  0.00     0.688 C 
HETATM    5  N2  UNL     1       9.472   3.172  22.885  1.00  0.00    -0.174 N 
ATOM      6  H2  UNL     1       8.483   3.114  23.125  1.00  0.00     0.186 HD
HETATM    7  C3  UNL     1       9.949   2.367  21.999  1.00  0.00     0.151 A 
HETATM    8  N3  UNL     1      11.240   2.385  21.631  1.00  0.00    -0.326 N 
ATOM      9  H3  UNL     1      11.859   3.065  22.072  1.00  0.00     0.169 HD
HETATM   10  C4  UNL     1      11.758   1.550  20.706  1.00  0.00     0.119 A 
HETATM   11  N4  UNL     1      13.054   1.584  20.352  1.00  0.00    -0.351 N 
ATOM     12  H4  UNL     1      13.658   2.269  20.805  1.00  0.00     0.166 HD
HETATM   13  C5  UNL     1      13.600   0.764  19.434  1.00  0.00     0.102 A 
HETATM   14  C6  UNL     1      12.826  -0.176  18.795  1.00  0.00    -0.008 A 
HETATM   15  C12 UNL     1      11.493  -0.246  19.126  1.00  0.00     0.031 A 
HETATM   16  C13 UNL     1      10.951   0.616  20.083  1.00  0.00     0.038 A 
HETATM   17  C14 UNL     1       9.632   0.555  20.419  1.00  0.00     0.078 A 
HETATM   18  N6  UNL     1       8.633  -0.235  19.987  1.00  0.00    -0.350 N 
ATOM     19  H6  UNL     1       8.708  -0.972  19.285  1.00  0.00     0.166 HD
HETATM   20  C15 UNL     1       7.517   0.123  20.649  1.00  0.00     0.181 A 
HETATM   21  N7  UNL     1       7.838   1.143  21.496  1.00  0.00    -0.347 N 
ATOM     22  H7  UNL     1       7.185   1.613  22.124  1.00  0.00     0.167 HD
HETATM   23  C16 UNL     1       9.140   1.435  21.378  1.00  0.00     0.106 A 
HETATM   24  N8  UNL     1      10.142   5.494  23.163  1.00  0.00    -0.126 N 
ATOM     25  H8  UNL     1      10.061   6.226  23.870  1.00  0.00     0.197 HD
HETATM   26  C17 UNL     1      10.116   5.805  21.800  1.00  0.00     0.196 C 
HETATM   27  N9  UNL     1      10.111   6.075  20.664  1.00  0.00    -0.171 NA
ENDROOT
BRANCH  14  28
HETATM   28  C7  UNL     1      13.368  -1.078  17.800  1.00  0.00    -0.009 A 
HETATM   29  C8  UNL     1      14.035  -2.245  18.125  1.00  0.00     0.015 A 
HETATM   30  C9  UNL     1      14.536  -3.080  17.146  1.00  0.00     0.018 A 
HETATM   31  C10 UNL     1      14.382  -2.765  15.811  1.00  0.00     0.087 A 
HETATM   32  N5  UNL     1      13.737  -1.634  15.505  1.00  0.00    -0.374 N 
HETATM   33  C11 UNL     1      13.249  -0.821  16.437  1.00  0.00     0.100 A 
ATOM     34  H5  UNL     1      13.615  -1.387  14.523  1.00  0.00     0.164 HD
ENDBRANCH  14  28
TORSDOF 1
ENDMDL
