MODEL 1
REMARK VINA RESULT: -10.069167681      0.000      0.000
REMARK  4 active torsions:
REMARK  status: ('A' for Active; 'I' for Inactive)
REMARK    1  A    between atoms: C5_5  and  C6_6 
REMARK    2  A    between atoms: C7_7  and  C8_8 
REMARK    3  A    between atoms: C9_9  and  C10_10 
REMARK    4  A    between atoms: C10_10  and  N1_12 
ROOT
HETATM    1  C10 UNL     1       8.908   6.626  21.686  1.00  0.00     0.269 C 
HETATM    2  C11 UNL     1       8.776   8.114  22.016  1.00  0.00     0.078 C 
HETATM    3  C12 UNL     1      10.343   6.336  21.821  1.00  0.00     0.112 C 
HETATM    4  N2  UNL     1      11.471   6.104  21.947  1.00  0.00    -0.194 NA
ENDROOT
BRANCH   1   5
HETATM    5  C9  UNL     1       8.139   5.845  22.656  1.00  0.00    -0.047 C 
HETATM    6  C8  UNL     1       7.489   5.255  23.508  1.00  0.00    -0.063 C 
BRANCH   6   7
HETATM    7  C7  UNL     1       6.712   4.628  24.591  1.00  0.00     0.026 A 
HETATM    8  C6  UNL     1       7.284   4.433  25.836  1.00  0.00    -0.007 A 
HETATM    9  C16 UNL     1       6.398   3.964  26.806  1.00  0.00     0.052 A 
HETATM   10  C15 UNL     1       5.045   3.732  26.494  1.00  0.00     0.004 A 
HETATM   11  N3  UNL     1       6.525   3.606  28.081  1.00  0.00    -0.354 N 
HETATM   12  C14 UNL     1       4.555   3.951  25.231  1.00  0.00     0.016 A 
HETATM   13  C22 UNL     1       4.414   3.252  27.598  1.00  0.00     0.003 A 
HETATM   14  C13 UNL     1       5.401   4.405  24.264  1.00  0.00     0.022 A 
HETATM   15  C17 UNL     1       5.367   3.175  28.608  1.00  0.00     0.043 A 
HETATM   16  C21 UNL     1       3.123   2.882  27.885  1.00  0.00     0.014 A 
HETATM   17  C18 UNL     1       5.005   2.732  29.890  1.00  0.00     0.030 A 
HETATM   18  C19 UNL     1       3.704   2.365  30.159  1.00  0.00     0.002 A 
HETATM   19  C20 UNL     1       2.776   2.449  29.128  1.00  0.00     0.001 A 
ATOM     20  H3  UNL     1       7.403   3.653  28.600  1.00  0.00     0.166 HD
BRANCH   8  21
HETATM   21  C5  UNL     1       8.656   4.649  26.059  1.00  0.00     0.037 C 
HETATM   22  C4  UNL     1       9.441   3.342  25.335  1.00  0.00     0.052 C 
HETATM   23  C3  UNL     1      10.682   3.985  25.449  1.00  0.00    -0.007 C 
HETATM   24  C2  UNL     1      11.753   4.423  25.145  1.00  0.00    -0.053 C 
HETATM   25  C32 UNL     1      11.163   4.382  26.879  1.00  0.00     0.173 C 
HETATM   26  C1  UNL     1      13.084   4.969  24.776  1.00  0.00     0.046 C 
HETATM   27  C31 UNL     1      10.932   5.577  26.197  1.00  0.00     0.075 C 
HETATM   28  C23 UNL     1       9.557   5.663  25.499  1.00  0.00     0.052 C 
HETATM   29  C30 UNL     1      11.578   6.815  26.127  1.00  0.00     0.008 C 
HETATM   30  C24 UNL     1       9.290   7.105  25.608  1.00  0.00    -0.042 A 
HETATM   31  C25 UNL     1       8.170   7.870  25.396  1.00  0.00     0.008 A 
HETATM   32  C29 UNL     1      10.436   7.801  25.935  1.00  0.00    -0.032 A 
HETATM   33  C26 UNL     1       8.168   9.258  25.497  1.00  0.00     0.001 A 
HETATM   34  C27 UNL     1       9.328   9.898  25.824  1.00  0.00     0.001 A 
HETATM   35  C28 UNL     1      10.500   9.166  26.051  1.00  0.00     0.011 A 
HETATM   36  O1  UNL     1      11.532   3.988  27.974  1.00  0.00    -0.291 OA
ENDBRANCH   8  21
ENDBRANCH   6   7
ENDBRANCH   1   5
BRANCH   1  37
HETATM   37  N1  UNL     1       8.418   6.365  20.379  1.00  0.00    -0.046 N 
ATOM     38  H13 UNL     1       7.413   6.523  20.304  1.00  0.00     0.277 HD
ATOM     39  H12 UNL     1       8.726   7.065  19.704  1.00  0.00     0.277 HD
ATOM     40  H11 UNL     1       8.682   5.420  20.102  1.00  0.00     0.277 HD
ENDBRANCH   1  37
TORSDOF 4
ENDMDL
MODEL 2
REMARK VINA RESULT: -9.507851973      2.115      3.511
REMARK  4 active torsions:
REMARK  status: ('A' for Active; 'I' for Inactive)
REMARK    1  A    between atoms: C5_5  and  C6_6 
REMARK    2  A    between atoms: C7_7  and  C8_8 
REMARK    3  A    between atoms: C9_9  and  C10_10 
REMARK    4  A    between atoms: C10_10  and  N1_12 
ROOT
HETATM    1  C10 UNL     1      10.564  10.138  24.766  1.00  0.00     0.269 C 
HETATM    2  C11 UNL     1      11.837   9.696  24.042  1.00  0.00     0.078 C 
HETATM    3  C12 UNL     1       9.840  10.960  23.787  1.00  0.00     0.112 C 
HETATM    4  N2  UNL     1       9.259  11.591  23.007  1.00  0.00    -0.194 NA
ENDROOT
BRANCH   1   5
HETATM    5  C9  UNL     1       9.775   8.958  25.122  1.00  0.00    -0.047 C 
HETATM    6  C8  UNL     1       9.067   7.991  25.363  1.00  0.00    -0.063 C 
BRANCH   6   7
HETATM    7  C7  UNL     1       8.146   6.864  25.591  1.00  0.00     0.026 A 
HETATM    8  C6  UNL     1       8.643   5.589  25.801  1.00  0.00    -0.007 A 
HETATM    9  C16 UNL     1       7.674   4.647  26.146  1.00  0.00     0.052 A 
HETATM   10  C15 UNL     1       6.320   5.015  26.263  1.00  0.00     0.004 A 
HETATM   11  N3  UNL     1       7.698   3.337  26.383  1.00  0.00    -0.354 N 
HETATM   12  C14 UNL     1       5.908   6.304  26.037  1.00  0.00     0.016 A 
HETATM   13  C22 UNL     1       5.588   3.912  26.574  1.00  0.00     0.003 A 
HETATM   14  C13 UNL     1       6.834   7.243  25.695  1.00  0.00     0.022 A 
HETATM   15  C17 UNL     1       6.476   2.844  26.649  1.00  0.00     0.043 A 
HETATM   16  C21 UNL     1       4.259   3.678  26.827  1.00  0.00     0.014 A 
HETATM   17  C18 UNL     1       6.014   1.561  26.982  1.00  0.00     0.030 A 
HETATM   18  C19 UNL     1       4.676   1.346  27.232  1.00  0.00     0.002 A 
HETATM   19  C20 UNL     1       3.813   2.432  27.146  1.00  0.00     0.001 A 
ATOM     20  H3  UNL     1       8.547   2.772  26.364  1.00  0.00     0.166 HD
BRANCH   8  21
HETATM   21  C5  UNL     1      10.006   5.291  25.625  1.00  0.00     0.037 C 
HETATM   22  C4  UNL     1      10.245   3.807  26.394  1.00  0.00     0.052 C 
HETATM   23  C3  UNL     1      11.506   3.666  25.797  1.00  0.00    -0.007 C 
HETATM   24  C2  UNL     1      12.419   3.174  25.201  1.00  0.00    -0.053 C 
HETATM   25  C32 UNL     1      12.567   4.776  26.078  1.00  0.00     0.173 C 
HETATM   26  C1  UNL     1      13.556   2.571  24.460  1.00  0.00     0.046 C 
HETATM   27  C31 UNL     1      12.255   4.865  24.721  1.00  0.00     0.075 C 
HETATM   28  C23 UNL     1      10.744   4.923  24.411  1.00  0.00     0.052 C 
HETATM   29  C30 UNL     1      12.989   5.091  23.553  1.00  0.00     0.008 C 
HETATM   30  C24 UNL     1      10.750   5.763  23.204  1.00  0.00    -0.042 A 
HETATM   31  C25 UNL     1       9.759   6.403  22.502  1.00  0.00     0.008 A 
HETATM   32  C29 UNL     1      12.017   5.855  22.666  1.00  0.00    -0.032 A 
HETATM   33  C26 UNL     1       9.993   7.103  21.322  1.00  0.00     0.001 A 
HETATM   34  C27 UNL     1      11.266   7.164  20.833  1.00  0.00     0.001 A 
HETATM   35  C28 UNL     1      12.315   6.528  21.509  1.00  0.00     0.011 A 
HETATM   36  O1  UNL     1      13.280   5.313  26.910  1.00  0.00    -0.291 OA
ENDBRANCH   8  21
ENDBRANCH   6   7
ENDBRANCH   1   5
BRANCH   1  37
HETATM   37  N1  UNL     1      10.892  10.857  25.946  1.00  0.00    -0.046 N 
ATOM     38  H13 UNL     1      11.858  11.184  25.943  1.00  0.00     0.277 HD
ATOM     39  H12 UNL     1      10.431  11.766  25.986  1.00  0.00     0.277 HD
ATOM     40  H11 UNL     1      10.682  10.282  26.761  1.00  0.00     0.277 HD
ENDBRANCH   1  37
TORSDOF 4
ENDMDL
MODEL 3
REMARK VINA RESULT: -9.410340875      2.858      5.216
REMARK  4 active torsions:
REMARK  status: ('A' for Active; 'I' for Inactive)
REMARK    1  A    between atoms: C5_5  and  C6_6 
REMARK    2  A    between atoms: C7_7  and  C8_8 
REMARK    3  A    between atoms: C9_9  and  C10_10 
REMARK    4  A    between atoms: C10_10  and  N1_12 
ROOT
HETATM    1  C10 UNL     1      12.252  11.747  26.350  1.00  0.00     0.269 C 
HETATM    2  C11 UNL     1      13.628  11.146  26.645  1.00  0.00     0.078 C 
HETATM    3  C12 UNL     1      12.473  12.651  25.213  1.00  0.00     0.112 C 
HETATM    4  N2  UNL     1      12.643  13.349  24.302  1.00  0.00    -0.194 NA
ENDROOT
BRANCH   1   5
HETATM    5  C9  UNL     1      11.327  10.677  25.976  1.00  0.00    -0.047 C 
HETATM    6  C8  UNL     1      10.538   9.774  25.736  1.00  0.00    -0.063 C 
BRANCH   6   7
HETATM    7  C7  UNL     1       9.583   8.668  25.547  1.00  0.00     0.026 A 
HETATM    8  C6  UNL     1      10.031   7.359  25.511  1.00  0.00    -0.007 A 
HETATM    9  C16 UNL     1       9.012   6.407  25.472  1.00  0.00     0.052 A 
HETATM   10  C15 UNL     1       7.660   6.797  25.476  1.00  0.00     0.004 A 
HETATM   11  N3  UNL     1       8.988   5.079  25.384  1.00  0.00    -0.354 N 
HETATM   12  C14 UNL     1       7.298   8.121  25.514  1.00  0.00     0.016 A 
HETATM   13  C22 UNL     1       6.879   5.687  25.400  1.00  0.00     0.003 A 
HETATM   14  C13 UNL     1       8.274   9.071  25.548  1.00  0.00     0.022 A 
HETATM   15  C17 UNL     1       7.736   4.592  25.342  1.00  0.00     0.043 A 
HETATM   16  C21 UNL     1       5.525   5.460  25.393  1.00  0.00     0.014 A 
HETATM   17  C18 UNL     1       7.217   3.289  25.282  1.00  0.00     0.030 A 
HETATM   18  C19 UNL     1       5.855   3.082  25.275  1.00  0.00     0.002 A 
HETATM   19  C20 UNL     1       5.025   4.195  25.331  1.00  0.00     0.001 A 
ATOM     20  H3  UNL     1       9.825   4.496  25.352  1.00  0.00     0.166 HD
BRANCH   8  21
HETATM   21  C5  UNL     1      11.402   7.050  25.467  1.00  0.00     0.037 C 
HETATM   22  C4  UNL     1      11.635   5.868  26.650  1.00  0.00     0.052 C 
HETATM   23  C3  UNL     1      12.916   5.582  26.156  1.00  0.00    -0.007 C 
HETATM   24  C2  UNL     1      13.852   4.953  25.757  1.00  0.00    -0.053 C 
HETATM   25  C32 UNL     1      13.953   6.747  26.120  1.00  0.00     0.173 C 
HETATM   26  C1  UNL     1      15.019   4.180  25.261  1.00  0.00     0.046 C 
HETATM   27  C31 UNL     1      13.683   6.420  24.791  1.00  0.00     0.075 C 
HETATM   28  C23 UNL     1      12.182   6.352  24.438  1.00  0.00     0.052 C 
HETATM   29  C30 UNL     1      14.450   6.303  23.627  1.00  0.00     0.008 C 
HETATM   30  C24 UNL     1      12.215   6.794  23.036  1.00  0.00    -0.042 A 
HETATM   31  C25 UNL     1      11.238   7.175  22.150  1.00  0.00     0.008 A 
HETATM   32  C29 UNL     1      13.497   6.747  22.528  1.00  0.00    -0.032 A 
HETATM   33  C26 UNL     1      11.501   7.496  20.821  1.00  0.00     0.001 A 
HETATM   34  C27 UNL     1      12.788   7.435  20.369  1.00  0.00     0.001 A 
HETATM   35  C28 UNL     1      13.823   7.052  21.231  1.00  0.00     0.011 A 
HETATM   36  O1  UNL     1      14.635   7.522  26.771  1.00  0.00    -0.291 OA
ENDBRANCH   8  21
ENDBRANCH   6   7
ENDBRANCH   1   5
BRANCH   1  37
HETATM   37  N1  UNL     1      11.752  12.421  27.495  1.00  0.00    -0.046 N 
ATOM     38  H13 UNL     1      10.876  12.020  27.829  1.00  0.00     0.277 HD
ATOM     39  H12 UNL     1      12.318  12.244  28.325  1.00  0.00     0.277 HD
ATOM     40  H11 UNL     1      11.668  13.416  27.291  1.00  0.00     0.277 HD
ENDBRANCH   1  37
TORSDOF 4
ENDMDL
MODEL 4
REMARK VINA RESULT: -9.254960877      2.538      4.743
REMARK  4 active torsions:
REMARK  status: ('A' for Active; 'I' for Inactive)
REMARK    1  A    between atoms: C5_5  and  C6_6 
REMARK    2  A    between atoms: C7_7  and  C8_8 
REMARK    3  A    between atoms: C9_9  and  C10_10 
REMARK    4  A    between atoms: C10_10  and  N1_12 
ROOT
HETATM    1  C10 UNL     1      13.013   6.914  21.821  1.00  0.00     0.269 C 
HETATM    2  C11 UNL     1      14.006   5.869  21.308  1.00  0.00     0.078 C 
HETATM    3  C12 UNL     1      12.525   7.594  20.613  1.00  0.00     0.112 C 
HETATM    4  N2  UNL     1      12.124   8.116  19.658  1.00  0.00    -0.194 NA
ENDROOT
BRANCH   1   5
HETATM    5  C9  UNL     1      11.910   6.238  22.504  1.00  0.00    -0.047 C 
HETATM    6  C8  UNL     1      10.941   5.701  23.023  1.00  0.00    -0.063 C 
BRANCH   6   7
HETATM    7  C7  UNL     1       9.716   5.108  23.585  1.00  0.00     0.026 A 
HETATM    8  C6  UNL     1       9.779   4.330  24.728  1.00  0.00    -0.007 A 
HETATM    9  C16 UNL     1       8.535   3.952  25.233  1.00  0.00     0.052 A 
HETATM   10  C15 UNL     1       7.346   4.360  24.599  1.00  0.00     0.004 A 
HETATM   11  N3  UNL     1       8.140   3.191  26.251  1.00  0.00    -0.354 N 
HETATM   12  C14 UNL     1       7.369   5.133  23.466  1.00  0.00     0.016 A 
HETATM   13  C22 UNL     1       6.286   3.834  25.269  1.00  0.00     0.003 A 
HETATM   14  C13 UNL     1       8.572   5.513  22.950  1.00  0.00     0.022 A 
HETATM   15  C17 UNL     1       6.802   3.088  26.323  1.00  0.00     0.043 A 
HETATM   16  C21 UNL     1       4.922   3.910  25.125  1.00  0.00     0.014 A 
HETATM   17  C18 UNL     1       5.939   2.436  27.218  1.00  0.00     0.030 A 
HETATM   18  C19 UNL     1       4.574   2.524  27.059  1.00  0.00     0.002 A 
HETATM   19  C20 UNL     1       4.088   3.274  25.993  1.00  0.00     0.001 A 
ATOM     20  H3  UNL     1       8.781   2.737  26.903  1.00  0.00     0.166 HD
BRANCH   8  21
HETATM   21  C5  UNL     1      11.009   3.929  25.280  1.00  0.00     0.037 C 
HETATM   22  C4  UNL     1      10.712   3.706  26.927  1.00  0.00     0.052 C 
HETATM   23  C3  UNL     1      11.943   3.056  27.092  1.00  0.00    -0.007 C 
HETATM   24  C2  UNL     1      12.742   2.229  27.422  1.00  0.00    -0.053 C 
HETATM   25  C32 UNL     1      13.235   3.848  26.718  1.00  0.00     0.173 C 
HETATM   26  C1  UNL     1      13.741   1.206  27.826  1.00  0.00     0.046 C 
HETATM   27  C31 UNL     1      13.135   2.802  25.799  1.00  0.00     0.075 C 
HETATM   28  C23 UNL     1      11.755   2.676  25.117  1.00  0.00     0.052 C 
HETATM   29  C30 UNL     1      14.043   1.923  25.201  1.00  0.00     0.008 C 
HETATM   30  C24 UNL     1      12.154   2.160  23.799  1.00  0.00    -0.042 A 
HETATM   31  C25 UNL     1      11.485   2.009  22.610  1.00  0.00     0.008 A 
HETATM   32  C29 UNL     1      13.451   1.689  23.819  1.00  0.00    -0.032 A 
HETATM   33  C26 UNL     1      12.057   1.420  21.486  1.00  0.00     0.001 A 
HETATM   34  C27 UNL     1      13.345   0.971  21.558  1.00  0.00     0.001 A 
HETATM   35  C28 UNL     1      14.073   1.100  22.747  1.00  0.00     0.011 A 
HETATM   36  O1  UNL     1      13.963   4.789  26.985  1.00  0.00    -0.291 OA
ENDBRANCH   8  21
ENDBRANCH   6   7
ENDBRANCH   1   5
BRANCH   1  37
HETATM   37  N1  UNL     1      13.654   7.801  22.726  1.00  0.00    -0.046 N 
ATOM     38  H13 UNL     1      14.621   7.990  22.463  1.00  0.00     0.277 HD
ATOM     39  H12 UNL     1      13.295   8.753  22.652  1.00  0.00     0.277 HD
ATOM     40  H11 UNL     1      13.576   7.431  23.673  1.00  0.00     0.277 HD
ENDBRANCH   1  37
TORSDOF 4
ENDMDL
MODEL 5
REMARK VINA RESULT: -9.109077394      2.447      4.677
REMARK  4 active torsions:
REMARK  status: ('A' for Active; 'I' for Inactive)
REMARK    1  A    between atoms: C5_5  and  C6_6 
REMARK    2  A    between atoms: C7_7  and  C8_8 
REMARK    3  A    between atoms: C9_9  and  C10_10 
REMARK    4  A    between atoms: C10_10  and  N1_12 
ROOT
HETATM    1  C10 UNL     1      12.055  11.212  25.745  1.00  0.00     0.269 C 
HETATM    2  C11 UNL     1      12.094  11.702  27.195  1.00  0.00     0.078 C 
HETATM    3  C12 UNL     1      13.382  10.624  25.512  1.00  0.00     0.112 C 
HETATM    4  N2  UNL     1      14.422  10.142  25.335  1.00  0.00    -0.194 NA
ENDROOT
BRANCH   1   5
HETATM    5  C9  UNL     1      11.016  10.191  25.606  1.00  0.00    -0.047 C 
HETATM    6  C8  UNL     1      10.195   9.289  25.523  1.00  0.00    -0.063 C 
BRANCH   6   7
HETATM    7  C7  UNL     1       9.278   8.139  25.452  1.00  0.00     0.026 A 
HETATM    8  C6  UNL     1       9.775   6.848  25.498  1.00  0.00    -0.007 A 
HETATM    9  C16 UNL     1       8.793   5.859  25.567  1.00  0.00     0.052 A 
HETATM   10  C15 UNL     1       7.427   6.200  25.592  1.00  0.00     0.004 A 
HETATM   11  N3  UNL     1       8.817   4.528  25.579  1.00  0.00    -0.354 N 
HETATM   12  C14 UNL     1       7.016   7.508  25.544  1.00  0.00     0.016 A 
HETATM   13  C22 UNL     1       6.689   5.059  25.628  1.00  0.00     0.003 A 
HETATM   14  C13 UNL     1       7.955   8.493  25.472  1.00  0.00     0.022 A 
HETATM   15  C17 UNL     1       7.585   3.995  25.620  1.00  0.00     0.043 A 
HETATM   16  C21 UNL     1       5.344   4.784  25.687  1.00  0.00     0.014 A 
HETATM   17  C18 UNL     1       7.115   2.673  25.676  1.00  0.00     0.030 A 
HETATM   18  C19 UNL     1       5.763   2.417  25.735  1.00  0.00     0.002 A 
HETATM   19  C20 UNL     1       4.892   3.501  25.738  1.00  0.00     0.001 A 
ATOM     20  H3  UNL     1       9.675   3.976  25.560  1.00  0.00     0.166 HD
BRANCH   8  21
HETATM   21  C5  UNL     1      11.155   6.586  25.427  1.00  0.00     0.037 C 
HETATM   22  C4  UNL     1      11.430   5.324  26.514  1.00  0.00     0.052 C 
HETATM   23  C3  UNL     1      12.716   5.117  25.995  1.00  0.00    -0.007 C 
HETATM   24  C2  UNL     1      13.669   4.550  25.547  1.00  0.00    -0.053 C 
HETATM   25  C32 UNL     1      13.717   6.313  26.048  1.00  0.00     0.173 C 
HETATM   26  C1  UNL     1      14.858   3.856  24.989  1.00  0.00     0.046 C 
HETATM   27  C31 UNL     1      13.451   6.082  24.698  1.00  0.00     0.075 C 
HETATM   28  C23 UNL     1      11.951   5.994  24.344  1.00  0.00     0.052 C 
HETATM   29  C30 UNL     1      14.216   6.080  23.527  1.00  0.00     0.008 C 
HETATM   30  C24 UNL     1      11.963   6.545  22.981  1.00  0.00    -0.042 A 
HETATM   31  C25 UNL     1      10.971   6.963  22.129  1.00  0.00     0.008 A 
HETATM   32  C29 UNL     1      13.244   6.578  22.468  1.00  0.00    -0.032 A 
HETATM   33  C26 UNL     1      11.218   7.394  20.829  1.00  0.00     0.001 A 
HETATM   34  C27 UNL     1      12.503   7.409  20.370  1.00  0.00     0.001 A 
HETATM   35  C28 UNL     1      13.554   6.992  21.198  1.00  0.00     0.011 A 
HETATM   36  O1  UNL     1      14.377   7.056  26.756  1.00  0.00    -0.291 OA
ENDBRANCH   8  21
ENDBRANCH   6   7
ENDBRANCH   1   5
BRANCH   1  37
HETATM   37  N1  UNL     1      11.774  12.292  24.867  1.00  0.00    -0.046 N 
ATOM     38  H13 UNL     1      10.787  12.549  24.873  1.00  0.00     0.277 HD
ATOM     39  H12 UNL     1      12.156  13.175  25.206  1.00  0.00     0.277 HD
ATOM     40  H11 UNL     1      12.107  12.061  23.931  1.00  0.00     0.277 HD
ENDBRANCH   1  37
TORSDOF 4
ENDMDL
