MODEL 1
REMARK VINA RESULT: -7.980075225      0.000      0.000
REMARK  13 active torsions:
REMARK  status: ('A' for Active; 'I' for Inactive)
REMARK    1  A    between atoms: S1_2  and  C2_3 
REMARK    2  A    between atoms: C2_3  and  C3_4 
REMARK    3  A    between atoms: C3_4  and  C4_5 
REMARK    4  A    between atoms: C4_5  and  S2_6 
REMARK    5  A    between atoms: C4_5  and  C11_33 
REMARK    6  A    between atoms: S2_6  and  C5_7 
REMARK    7  A    between atoms: C7_13  and  N3_14 
REMARK    8  A    between atoms: C8_19  and  N5_20 
REMARK    9  A    between atoms: C10_26  and  N8_27 
REMARK   10  A    between atoms: N8_27  and  N9_29 
REMARK   11  A    between atoms: N9_29  and  N10_30 
REMARK   12  A    between atoms: C11_33  and  O1_34 
REMARK   13  A    between atoms: N11_36  and  O2_38 
ROOT
HETATM    1  C5  UNL     1      16.042  33.252  -9.334  1.00  0.00     0.119 A 
HETATM    2  N1  UNL     1      16.621  32.019  -9.247  1.00  0.00    -0.182 N 
ATOM      3  H1  UNL     1      17.257  31.731  -9.990  1.00  0.00     0.185 HD
HETATM    4  C6  UNL     1      16.398  31.165  -8.234  1.00  0.00     0.720 A 
HETATM    5  N2  UNL     1      16.978  29.957  -8.171  1.00  0.00    -0.021 N 
ATOM      6  H2  UNL     1      17.615  29.679  -8.919  1.00  0.00     0.203 HD
HETATM    7  C7  UNL     1      16.751  29.100  -7.161  1.00  0.00     0.705 A 
HETATM    8  N4  UNL     1      15.923  29.445  -6.173  1.00  0.00    -0.021 N 
ATOM      9  H4  UNL     1      15.740  28.806  -5.400  1.00  0.00     0.203 HD
HETATM   10  C8  UNL     1      15.340  30.641  -6.216  1.00  0.00     0.713 A 
HETATM   11  N6  UNL     1      15.553  31.522  -7.227  1.00  0.00     0.039 N 
HETATM   12  C9  UNL     1      14.966  32.727  -7.280  1.00  0.00     0.189 A 
HETATM   13  N7  UNL     1      14.080  33.131  -6.246  1.00  0.00    -0.078 NA
HETATM   14  C10 UNL     1      15.193  33.626  -8.332  1.00  0.00     0.139 A 
ENDROOT
BRANCH   1  15
HETATM   15  S2  UNL     1      16.413  34.345 -10.672  1.00  0.00    -0.096 SA
BRANCH  15  16
HETATM   16  C4  UNL     1      18.139  34.661 -10.955  1.00  0.00     0.131 C 
BRANCH  16  17
HETATM   17  C3  UNL     1      18.593  34.857 -12.359  1.00  0.00     0.034 C 
BRANCH  17  18
HETATM   18  C2  UNL     1      17.523  35.384 -13.238  1.00  0.00     0.075 C 
BRANCH  18  19
HETATM   19  S1  UNL     1      17.997  35.350 -14.996  1.00  0.00    -0.173 SA
HETATM   20  C1  UNL     1      18.730  33.800 -15.503  1.00  0.00     0.089 C 
ENDBRANCH  18  19
ENDBRANCH  17  18
ENDBRANCH  16  17
BRANCH  16  21
HETATM   21  C11 UNL     1      18.590  35.748 -10.014  1.00  0.00     0.149 C 
HETATM   22  N11 UNL     1      19.816  36.119  -9.998  1.00  0.00    -0.250 N 
ATOM     23  H11 UNL     1      20.468  35.660 -10.634  1.00  0.00     0.196 HD
BRANCH  21  24
HETATM   24  O1  UNL     1      17.711  36.376  -9.146  1.00  0.00    -0.347 OA
ATOM     25  H1  UNL     1      17.848  37.269  -8.853  1.00  0.00     0.219 HD
ENDBRANCH  21  24
BRANCH  22  26
HETATM   26  O2  UNL     1      20.299  37.097  -9.174  1.00  0.00    -0.288 OA
ATOM     27  H2  UNL     1      21.162  37.484  -9.267  1.00  0.00     0.244 HD
ENDBRANCH  22  26
ENDBRANCH  16  21
ENDBRANCH  15  16
ENDBRANCH   1  15
BRANCH  14  28
HETATM   28  N8  UNL     1      14.533  34.891  -8.254  1.00  0.00    -0.210 N 
ATOM     29  H8  UNL     1      13.593  35.040  -8.622  1.00  0.00     0.204 HD
BRANCH  28  30
HETATM   30  N9  UNL     1      15.191  35.805  -7.702  1.00  0.00    -0.243 NA
BRANCH  30  31
HETATM   31  N10 UNL     1      15.954  36.457  -6.964  1.00  0.00    -0.260 N 
ATOM     32 2H10 UNL     1      15.961  35.745  -6.234  1.00  0.00     0.193 HD
ATOM     33 1H10 UNL     1      16.563  37.171  -6.567  1.00  0.00     0.193 HD
ENDBRANCH  30  31
ENDBRANCH  28  30
ENDBRANCH  14  28
BRANCH   7  34
HETATM   34  N3  UNL     1      17.332  27.926  -7.139  1.00  0.00    -0.234 N 
ATOM     35  H32 UNL     1      17.174  27.270  -7.904  1.00  0.00     0.174 HD
ATOM     36  H31 UNL     1      17.944  27.663  -6.366  1.00  0.00     0.174 HD
ENDBRANCH   7  34
BRANCH  10  37
HETATM   37  N5  UNL     1      14.523  31.058  -5.291  1.00  0.00    -0.233 N 
ATOM     38  H52 UNL     1      14.969  31.315  -4.410  1.00  0.00     0.174 HD
ATOM     39  H51 UNL     1      13.515  31.120  -5.434  1.00  0.00     0.174 HD
ENDBRANCH  10  37
TORSDOF 13
ENDMDL
MODEL 2
REMARK VINA RESULT: -7.936805537      3.926      7.384
REMARK  13 active torsions:
REMARK  status: ('A' for Active; 'I' for Inactive)
REMARK    1  A    between atoms: S1_2  and  C2_3 
REMARK    2  A    between atoms: C2_3  and  C3_4 
REMARK    3  A    between atoms: C3_4  and  C4_5 
REMARK    4  A    between atoms: C4_5  and  S2_6 
REMARK    5  A    between atoms: C4_5  and  C11_33 
REMARK    6  A    between atoms: S2_6  and  C5_7 
REMARK    7  A    between atoms: C7_13  and  N3_14 
REMARK    8  A    between atoms: C8_19  and  N5_20 
REMARK    9  A    between atoms: C10_26  and  N8_27 
REMARK   10  A    between atoms: N8_27  and  N9_29 
REMARK   11  A    between atoms: N9_29  and  N10_30 
REMARK   12  A    between atoms: C11_33  and  O1_34 
REMARK   13  A    between atoms: N11_36  and  O2_38 
ROOT
HETATM    1  C5  UNL     1      15.052  34.410  -8.307  1.00  0.00     0.119 A 
HETATM    2  N1  UNL     1      15.494  35.605  -7.815  1.00  0.00    -0.182 N 
ATOM      3  H1  UNL     1      14.920  36.082  -7.120  1.00  0.00     0.185 HD
HETATM    4  C6  UNL     1      16.643  36.185  -8.198  1.00  0.00     0.720 A 
HETATM    5  N2  UNL     1      17.055  37.361  -7.701  1.00  0.00    -0.021 N 
ATOM      6  H2  UNL     1      16.476  37.829  -7.004  1.00  0.00     0.203 HD
HETATM    7  C7  UNL     1      18.203  37.945  -8.087  1.00  0.00     0.705 A 
HETATM    8  N4  UNL     1      18.976  37.347  -8.997  1.00  0.00    -0.021 N 
ATOM      9  H4  UNL     1      19.850  37.778  -9.301  1.00  0.00     0.203 HD
HETATM   10  C8  UNL     1      18.586  36.179  -9.500  1.00  0.00     0.713 A 
HETATM   11  N6  UNL     1      17.430  35.571  -9.125  1.00  0.00     0.039 N 
HETATM   12  C9  UNL     1      17.027  34.396  -9.631  1.00  0.00     0.189 A 
HETATM   13  N7  UNL     1      17.824  33.729 -10.598  1.00  0.00    -0.078 NA
HETATM   14  C10 UNL     1      15.829  33.782  -9.237  1.00  0.00     0.139 A 
ENDROOT
BRANCH   1  15
HETATM   15  S2  UNL     1      13.550  33.681  -7.728  1.00  0.00    -0.096 SA
BRANCH  15  16
HETATM   16  C4  UNL     1      13.731  32.433  -6.476  1.00  0.00     0.131 C 
BRANCH  16  17
HETATM   17  C3  UNL     1      15.081  32.223  -5.886  1.00  0.00     0.034 C 
BRANCH  17  18
HETATM   18  C2  UNL     1      15.437  30.789  -5.765  1.00  0.00     0.075 C 
BRANCH  18  19
HETATM   19  S1  UNL     1      14.432  29.737  -6.860  1.00  0.00    -0.173 SA
HETATM   20  C1  UNL     1      15.245  28.214  -7.325  1.00  0.00     0.089 C 
ENDBRANCH  18  19
ENDBRANCH  17  18
ENDBRANCH  16  17
BRANCH  16  21
HETATM   21  C11 UNL     1      12.643  32.619  -5.450  1.00  0.00     0.149 C 
HETATM   22  N11 UNL     1      12.943  32.859  -4.228  1.00  0.00    -0.250 N 
ATOM     23  H11 UNL     1      13.929  32.919  -3.976  1.00  0.00     0.196 HD
BRANCH  21  24
HETATM   24  O1  UNL     1      11.300  32.538  -5.784  1.00  0.00    -0.347 OA
ATOM     25  H1  UNL     1      10.688  32.016  -5.278  1.00  0.00     0.219 HD
ENDBRANCH  21  24
BRANCH  22  26
HETATM   26  O2  UNL     1      12.013  33.040  -3.243  1.00  0.00    -0.288 OA
ATOM     27  H2  UNL     1      12.232  33.129  -2.322  1.00  0.00     0.244 HD
ENDBRANCH  22  26
ENDBRANCH  16  21
ENDBRANCH  15  16
ENDBRANCH   1  15
BRANCH  14  28
HETATM   28  N8  UNL     1      15.530  32.514  -9.825  1.00  0.00    -0.210 N 
ATOM     29  H8  UNL     1      14.793  32.396 -10.521  1.00  0.00     0.204 HD
BRANCH  28  30
HETATM   30  N9  UNL     1      16.237  31.559  -9.425  1.00  0.00    -0.243 NA
BRANCH  30  31
HETATM   31  N10 UNL     1      17.184  30.791  -9.168  1.00  0.00    -0.260 N 
ATOM     32 2H10 UNL     1      17.754  31.132  -9.943  1.00  0.00     0.193 HD
ATOM     33 1H10 UNL     1      17.792  30.084  -8.755  1.00  0.00     0.193 HD
ENDBRANCH  30  31
ENDBRANCH  28  30
ENDBRANCH  14  28
BRANCH   7  34
HETATM   34  N3  UNL     1      18.568  39.097  -7.583  1.00  0.00    -0.234 N 
ATOM     35  H32 UNL     1      18.873  39.149  -6.611  1.00  0.00     0.174 HD
ATOM     36  H31 UNL     1      18.553  39.943  -8.154  1.00  0.00     0.174 HD
ENDBRANCH   7  34
BRANCH  10  37
HETATM   37  N5  UNL     1      19.283  35.527 -10.387  1.00  0.00    -0.233 N 
ATOM     38  H52 UNL     1      20.294  35.611 -10.282  1.00  0.00     0.174 HD
ATOM     39  H51 UNL     1      18.852  34.978 -11.130  1.00  0.00     0.174 HD
ENDBRANCH  10  37
TORSDOF 13
ENDMDL
MODEL 3
REMARK VINA RESULT: -7.766821248      3.870      7.458
REMARK  13 active torsions:
REMARK  status: ('A' for Active; 'I' for Inactive)
REMARK    1  A    between atoms: S1_2  and  C2_3 
REMARK    2  A    between atoms: C2_3  and  C3_4 
REMARK    3  A    between atoms: C3_4  and  C4_5 
REMARK    4  A    between atoms: C4_5  and  S2_6 
REMARK    5  A    between atoms: C4_5  and  C11_33 
REMARK    6  A    between atoms: S2_6  and  C5_7 
REMARK    7  A    between atoms: C7_13  and  N3_14 
REMARK    8  A    between atoms: C8_19  and  N5_20 
REMARK    9  A    between atoms: C10_26  and  N8_27 
REMARK   10  A    between atoms: N8_27  and  N9_29 
REMARK   11  A    between atoms: N9_29  and  N10_30 
REMARK   12  A    between atoms: C11_33  and  O1_34 
REMARK   13  A    between atoms: N11_36  and  O2_38 
ROOT
HETATM    1  C5  UNL     1      15.230  34.700  -8.212  1.00  0.00     0.119 A 
HETATM    2  N1  UNL     1      15.703  35.862  -7.674  1.00  0.00    -0.182 N 
ATOM      3  H1  UNL     1      15.153  36.315  -6.944  1.00  0.00     0.185 HD
HETATM    4  C6  UNL     1      16.853  36.441  -8.055  1.00  0.00     0.720 A 
HETATM    5  N2  UNL     1      17.296  37.585  -7.512  1.00  0.00    -0.021 N 
ATOM      6  H2  UNL     1      16.741  38.029  -6.781  1.00  0.00     0.203 HD
HETATM    7  C7  UNL     1      18.446  38.168  -7.896  1.00  0.00     0.705 A 
HETATM    8  N4  UNL     1      19.188  37.602  -8.850  1.00  0.00    -0.021 N 
ATOM      9  H4  UNL     1      20.062  38.033  -9.153  1.00  0.00     0.203 HD
HETATM   10  C8  UNL     1      18.767  36.466  -9.399  1.00  0.00     0.713 A 
HETATM   11  N6  UNL     1      17.609  35.860  -9.028  1.00  0.00     0.039 N 
HETATM   12  C9  UNL     1      17.176  34.717  -9.579  1.00  0.00     0.189 A 
HETATM   13  N7  UNL     1      17.939  34.084 -10.595  1.00  0.00    -0.078 NA
HETATM   14  C10 UNL     1      15.976  34.104  -9.188  1.00  0.00     0.139 A 
ENDROOT
BRANCH   1  15
HETATM   15  S2  UNL     1      13.729  33.968  -7.635  1.00  0.00    -0.096 SA
BRANCH  15  16
HETATM   16  C4  UNL     1      13.789  32.217  -7.334  1.00  0.00     0.131 C 
BRANCH  16  17
HETATM   17  C3  UNL     1      13.673  31.745  -5.928  1.00  0.00     0.034 C 
BRANCH  17  18
HETATM   18  C2  UNL     1      14.961  31.255  -5.381  1.00  0.00     0.075 C 
BRANCH  18  19
HETATM   19  S1  UNL     1      15.726  29.994  -6.448  1.00  0.00    -0.173 SA
HETATM   20  C1  UNL     1      14.604  28.682  -6.915  1.00  0.00     0.089 C 
ENDBRANCH  18  19
ENDBRANCH  17  18
ENDBRANCH  16  17
BRANCH  16  21
HETATM   21  C11 UNL     1      12.841  31.533  -8.284  1.00  0.00     0.149 C 
HETATM   22  N11 UNL     1      11.575  31.622  -8.109  1.00  0.00    -0.250 N 
ATOM     23  H11 UNL     1      11.235  32.164  -7.315  1.00  0.00     0.196 HD
BRANCH  21  24
HETATM   24  O1  UNL     1      13.295  30.793  -9.365  1.00  0.00    -0.347 OA
ATOM     25  H1  UNL     1      13.429  31.185 -10.220  1.00  0.00     0.219 HD
ENDBRANCH  21  24
BRANCH  22  26
HETATM   26  O2  UNL     1      10.654  31.030  -8.928  1.00  0.00    -0.288 OA
ATOM     27  H2  UNL     1       9.800  30.736  -8.633  1.00  0.00     0.244 HD
ENDBRANCH  22  26
ENDBRANCH  16  21
ENDBRANCH  15  16
ENDBRANCH   1  15
BRANCH  14  28
HETATM   28  N8  UNL     1      15.642  32.871  -9.829  1.00  0.00    -0.210 N 
ATOM     29  H8  UNL     1      14.844  32.782 -10.459  1.00  0.00     0.204 HD
BRANCH  28  30
HETATM   30  N9  UNL     1      16.399  31.908  -9.563  1.00  0.00    -0.243 NA
BRANCH  30  31
HETATM   31  N10 UNL     1      17.317  31.065  -9.568  1.00  0.00    -0.260 N 
ATOM     32 2H10 UNL     1      16.964  30.590 -10.398  1.00  0.00     0.193 HD
ATOM     33 1H10 UNL     1      18.148  30.516  -9.349  1.00  0.00     0.193 HD
ENDBRANCH  30  31
ENDBRANCH  28  30
ENDBRANCH  14  28
BRANCH   7  34
HETATM   34  N3  UNL     1      18.841  39.289  -7.346  1.00  0.00    -0.234 N 
ATOM     35  H32 UNL     1      18.453  40.175  -7.670  1.00  0.00     0.174 HD
ATOM     36  H31 UNL     1      19.531  39.284  -6.594  1.00  0.00     0.174 HD
ENDBRANCH   7  34
BRANCH  10  37
HETATM   37  N5  UNL     1      19.433  35.847 -10.332  1.00  0.00    -0.233 N 
ATOM     38  H52 UNL     1      20.436  36.030 -10.334  1.00  0.00     0.174 HD
ATOM     39  H51 UNL     1      18.986  35.228 -11.008  1.00  0.00     0.174 HD
ENDBRANCH  10  37
TORSDOF 13
ENDMDL
MODEL 4
REMARK VINA RESULT: -7.717351003      4.851      6.990
REMARK  13 active torsions:
REMARK  status: ('A' for Active; 'I' for Inactive)
REMARK    1  A    between atoms: S1_2  and  C2_3 
REMARK    2  A    between atoms: C2_3  and  C3_4 
REMARK    3  A    between atoms: C3_4  and  C4_5 
REMARK    4  A    between atoms: C4_5  and  S2_6 
REMARK    5  A    between atoms: C4_5  and  C11_33 
REMARK    6  A    between atoms: S2_6  and  C5_7 
REMARK    7  A    between atoms: C7_13  and  N3_14 
REMARK    8  A    between atoms: C8_19  and  N5_20 
REMARK    9  A    between atoms: C10_26  and  N8_27 
REMARK   10  A    between atoms: N8_27  and  N9_29 
REMARK   11  A    between atoms: N9_29  and  N10_30 
REMARK   12  A    between atoms: C11_33  and  O1_34 
REMARK   13  A    between atoms: N11_36  and  O2_38 
ROOT
HETATM    1  C5  UNL     1      13.635  30.863  -6.817  1.00  0.00     0.119 A 
HETATM    2  N1  UNL     1      13.284  31.409  -5.615  1.00  0.00    -0.182 N 
ATOM      3  H1  UNL     1      13.559  30.919  -4.764  1.00  0.00     0.185 HD
HETATM    4  C6  UNL     1      12.595  32.555  -5.495  1.00  0.00     0.720 A 
HETATM    5  N2  UNL     1      12.259  33.071  -4.303  1.00  0.00    -0.021 N 
ATOM      6  H2  UNL     1      12.541  32.575  -3.457  1.00  0.00     0.203 HD
HETATM    7  C7  UNL     1      11.565  34.216  -4.181  1.00  0.00     0.705 A 
HETATM    8  N4  UNL     1      11.188  34.880  -5.276  1.00  0.00    -0.021 N 
ATOM      9  H4  UNL     1      10.660  35.750  -5.200  1.00  0.00     0.203 HD
HETATM   10  C8  UNL     1      11.513  34.386  -6.468  1.00  0.00     0.713 A 
HETATM   11  N6  UNL     1      12.213  33.231  -6.614  1.00  0.00     0.039 N 
HETATM   12  C9  UNL     1      12.540  32.725  -7.812  1.00  0.00     0.189 A 
HETATM   13  N7  UNL     1      12.159  33.404  -8.999  1.00  0.00    -0.078 NA
HETATM   14  C10 UNL     1      13.260  31.529  -7.949  1.00  0.00     0.139 A 
ENDROOT
BRANCH   1  15
HETATM   15  S2  UNL     1      14.580  29.373  -6.904  1.00  0.00    -0.096 SA
BRANCH  15  16
HETATM   16  C4  UNL     1      16.331  29.581  -7.129  1.00  0.00     0.131 C 
BRANCH  16  17
HETATM   17  C3  UNL     1      17.237  28.548  -6.558  1.00  0.00     0.034 C 
BRANCH  17  18
HETATM   18  C2  UNL     1      16.798  27.167  -6.868  1.00  0.00     0.075 C 
BRANCH  18  19
HETATM   19  S1  UNL     1      17.978  25.918  -6.265  1.00  0.00    -0.173 SA
HETATM   20  C1  UNL     1      18.803  26.393  -4.752  1.00  0.00     0.089 C 
ENDBRANCH  18  19
ENDBRANCH  17  18
ENDBRANCH  16  17
BRANCH  16  21
HETATM   21  C11 UNL     1      16.597  29.887  -8.580  1.00  0.00     0.149 C 
HETATM   22  N11 UNL     1      17.321  30.893  -8.906  1.00  0.00    -0.250 N 
ATOM     23  H11 UNL     1      17.704  31.472  -8.160  1.00  0.00     0.196 HD
BRANCH  21  24
HETATM   24  O1  UNL     1      16.079  29.104  -9.600  1.00  0.00    -0.347 OA
ATOM     25  H1  UNL     1      16.572  28.919 -10.390  1.00  0.00     0.219 HD
ENDBRANCH  21  24
BRANCH  22  26
HETATM   26  O2  UNL     1      17.607  31.232 -10.199  1.00  0.00    -0.288 OA
ATOM     27  H2  UNL     1      18.435  31.037 -10.622  1.00  0.00     0.244 HD
ENDBRANCH  22  26
ENDBRANCH  16  21
ENDBRANCH  15  16
ENDBRANCH   1  15
BRANCH  14  28
HETATM   28  N8  UNL     1      13.576  31.114  -9.279  1.00  0.00    -0.210 N 
ATOM     29  H8  UNL     1      13.190  30.264  -9.692  1.00  0.00     0.204 HD
BRANCH  28  30
HETATM   30  N9  UNL     1      14.362  31.866  -9.902  1.00  0.00    -0.243 NA
BRANCH  30  31
HETATM   31  N10 UNL     1      14.965  32.853 -10.365  1.00  0.00    -0.260 N 
ATOM     32 2H10 UNL     1      14.262  33.517 -10.040  1.00  0.00     0.193 HD
ATOM     33 1H10 UNL     1      15.637  33.468 -10.824  1.00  0.00     0.193 HD
ENDBRANCH  30  31
ENDBRANCH  28  30
ENDBRANCH  14  28
BRANCH   7  34
HETATM   34  N3  UNL     1      11.251  34.683  -2.998  1.00  0.00    -0.234 N 
ATOM     35  H32 UNL     1      10.504  35.372  -2.910  1.00  0.00     0.174 HD
ATOM     36  H31 UNL     1      11.744  34.363  -2.165  1.00  0.00     0.174 HD
ENDBRANCH   7  34
BRANCH  10  37
HETATM   37  N5  UNL     1      11.189  34.974  -7.584  1.00  0.00    -0.233 N 
ATOM     38  H52 UNL     1      10.449  35.672  -7.501  1.00  0.00     0.174 HD
ATOM     39  H51 UNL     1      11.636  34.752  -8.473  1.00  0.00     0.174 HD
ENDBRANCH  10  37
TORSDOF 13
ENDMDL
MODEL 5
REMARK VINA RESULT: -7.679058514      3.671      7.727
REMARK  13 active torsions:
REMARK  status: ('A' for Active; 'I' for Inactive)
REMARK    1  A    between atoms: S1_2  and  C2_3 
REMARK    2  A    between atoms: C2_3  and  C3_4 
REMARK    3  A    between atoms: C3_4  and  C4_5 
REMARK    4  A    between atoms: C4_5  and  S2_6 
REMARK    5  A    between atoms: C4_5  and  C11_33 
REMARK    6  A    between atoms: S2_6  and  C5_7 
REMARK    7  A    between atoms: C7_13  and  N3_14 
REMARK    8  A    between atoms: C8_19  and  N5_20 
REMARK    9  A    between atoms: C10_26  and  N8_27 
REMARK   10  A    between atoms: N8_27  and  N9_29 
REMARK   11  A    between atoms: N9_29  and  N10_30 
REMARK   12  A    between atoms: C11_33  and  O1_34 
REMARK   13  A    between atoms: N11_36  and  O2_38 
ROOT
HETATM    1  C5  UNL     1      15.108  34.312  -8.091  1.00  0.00     0.119 A 
HETATM    2  N1  UNL     1      15.551  35.519  -7.631  1.00  0.00    -0.182 N 
ATOM      3  H1  UNL     1      15.015  35.983  -6.898  1.00  0.00     0.185 HD
HETATM    4  C6  UNL     1      16.655  36.127  -8.093  1.00  0.00     0.720 A 
HETATM    5  N2  UNL     1      17.070  37.315  -7.627  1.00  0.00    -0.021 N 
ATOM      6  H2  UNL     1      16.528  37.770  -6.891  1.00  0.00     0.203 HD
HETATM    7  C7  UNL     1      18.173  37.927  -8.092  1.00  0.00     0.705 A 
HETATM    8  N4  UNL     1      18.897  37.348  -9.052  1.00  0.00    -0.021 N 
ATOM      9  H4  UNL     1      19.736  37.800  -9.416  1.00  0.00     0.203 HD
HETATM   10  C8  UNL     1      18.503  36.168  -9.526  1.00  0.00     0.713 A 
HETATM   11  N6  UNL     1      17.392  35.532  -9.072  1.00  0.00     0.039 N 
HETATM   12  C9  UNL     1      16.986  34.346  -9.547  1.00  0.00     0.189 A 
HETATM   13  N7  UNL     1      17.731  33.697 -10.567  1.00  0.00    -0.078 NA
HETATM   14  C10 UNL     1      15.835  33.701  -9.072  1.00  0.00     0.139 A 
ENDROOT
BRANCH   1  15
HETATM   15  S2  UNL     1      13.669  33.546  -7.409  1.00  0.00    -0.096 SA
BRANCH  15  16
HETATM   16  C4  UNL     1      13.843  32.905  -5.760  1.00  0.00     0.131 C 
BRANCH  16  17
HETATM   17  C3  UNL     1      12.709  33.087  -4.815  1.00  0.00     0.034 C 
BRANCH  17  18
HETATM   18  C2  UNL     1      11.534  33.732  -5.448  1.00  0.00     0.075 C 
BRANCH  18  19
HETATM   19  S1  UNL     1      10.656  34.840  -4.301  1.00  0.00    -0.173 SA
HETATM   20  C1  UNL     1      11.095  34.582  -2.587  1.00  0.00     0.089 C 
ENDBRANCH  18  19
ENDBRANCH  17  18
ENDBRANCH  16  17
BRANCH  16  21
HETATM   21  C11 UNL     1      14.339  31.484  -5.846  1.00  0.00     0.149 C 
HETATM   22  N11 UNL     1      15.501  31.233  -6.323  1.00  0.00    -0.250 N 
ATOM     23  H11 UNL     1      16.072  32.017  -6.638  1.00  0.00     0.196 HD
BRANCH  21  24
HETATM   24  O1  UNL     1      13.568  30.413  -5.420  1.00  0.00    -0.347 OA
ATOM     25  H1  UNL     1      12.630  30.380  -5.568  1.00  0.00     0.219 HD
ENDBRANCH  21  24
BRANCH  22  26
HETATM   26  O2  UNL     1      16.018  29.972  -6.431  1.00  0.00    -0.288 OA
ATOM     27  H2  UNL     1      15.515  29.182  -6.274  1.00  0.00     0.244 HD
ENDBRANCH  22  26
ENDBRANCH  16  21
ENDBRANCH  15  16
ENDBRANCH   1  15
BRANCH  14  28
HETATM   28  N8  UNL     1      15.529  32.425  -9.636  1.00  0.00    -0.210 N 
ATOM     29  H8  UNL     1      14.754  32.287 -10.287  1.00  0.00     0.204 HD
BRANCH  28  30
HETATM   30  N9  UNL     1      16.279  31.487  -9.277  1.00  0.00    -0.243 NA
BRANCH  30  31
HETATM   31  N10 UNL     1      17.233  30.697  -9.142  1.00  0.00    -0.260 N 
ATOM     32 2H10 UNL     1      17.671  30.976 -10.020  1.00  0.00     0.193 HD
ATOM     33 1H10 UNL     1      17.881  29.988  -8.800  1.00  0.00     0.193 HD
ENDBRANCH  30  31
ENDBRANCH  28  30
ENDBRANCH  14  28
BRANCH   7  34
HETATM   34  N3  UNL     1      18.542  39.090  -7.614  1.00  0.00    -0.234 N 
ATOM     35  H32 UNL     1      19.484  39.207  -7.241  1.00  0.00     0.174 HD
ATOM     36  H31 UNL     1      17.897  39.881  -7.616  1.00  0.00     0.174 HD
ENDBRANCH   7  34
BRANCH  10  37
HETATM   37  N5  UNL     1      19.154  35.533 -10.458  1.00  0.00    -0.233 N 
ATOM     38  H52 UNL     1      20.157  35.719 -10.483  1.00  0.00     0.174 HD
ATOM     39  H51 UNL     1      18.697  34.901 -11.115  1.00  0.00     0.174 HD
ENDBRANCH  10  37
TORSDOF 13
ENDMDL
