MODEL 1
REMARK VINA RESULT: -8.817139357      0.000      0.000
REMARK  17 active torsions:
REMARK  status: ('A' for Active; 'I' for Inactive)
REMARK    1  A    between atoms: O1_2  and  C2_3 
REMARK    2  A    between atoms: C3_4  and  O2_5 
REMARK    3  A    between atoms: O2_5  and  C4_6 
REMARK    4  A    between atoms: C5_7  and  O3_8 
REMARK    5  A    between atoms: O3_8  and  C6_9 
REMARK    6  A    between atoms: C13_17  and  O5_18 
REMARK    7  A    between atoms: O5_18  and  C14_19 
REMARK    8  A    between atoms: C15_20  and  O6_21 
REMARK    9  A    between atoms: C17_24  and  O7_25 
REMARK   10  A    between atoms: O7_25  and  C18_26 
REMARK   11  A    between atoms: C20_29  and  O9_30 
REMARK   12  A    between atoms: C21_32  and  O10_33 
REMARK   13  A    between atoms: C22_35  and  O11_36 
REMARK   14  A    between atoms: C23_38  and  O12_39 
REMARK   15  A    between atoms: C24_41  and  O13_42 
REMARK   16  A    between atoms: C27_47  and  O15_48 
REMARK   17  A    between atoms: C28_50  and  O16_51 
ROOT
HETATM    1  C4  UNL     1       5.633  30.064 -11.279  1.00  0.00     0.235 C 
HETATM    2  C5  UNL     1       6.820  29.178 -10.938  1.00  0.00     0.303 C 
HETATM    3  O4  UNL     1       6.630  28.553 -12.206  1.00  0.00    -0.326 OA
HETATM    4  C13 UNL     1       5.290  28.978 -12.274  1.00  0.00     0.297 C 
ENDROOT
BRANCH   4   5
HETATM    5  O5  UNL     1       5.036  29.529 -13.508  1.00  0.00    -0.348 OA
BRANCH   5   6
HETATM    6  C14 UNL     1       3.734  29.549 -13.892  1.00  0.00     0.184 C 
HETATM    7  C15 UNL     1       3.272  28.120 -14.020  1.00  0.00     0.152 C 
HETATM    8  C16 UNL     1       3.331  27.604 -15.414  1.00  0.00     0.069 C 
HETATM    9  C17 UNL     1       2.351  28.361 -16.267  1.00  0.00     0.158 C 
HETATM   10  C23 UNL     1       2.201  29.747 -15.833  1.00  0.00     0.178 C 
HETATM   11  C24 UNL     1       3.463  30.258 -15.191  1.00  0.00     0.180 C 
BRANCH   7  12
HETATM   12  O6  UNL     1       1.998  28.041 -13.459  1.00  0.00    -0.393 OA
ATOM     13  H6  UNL     1       1.599  27.238 -13.771  1.00  0.00     0.210 HD
ENDBRANCH   7  12
BRANCH   9  14
HETATM   14  O7  UNL     1       1.217  27.596 -16.357  1.00  0.00    -0.351 OA
BRANCH  14  15
HETATM   15  C18 UNL     1       0.019  28.223 -16.421  1.00  0.00     0.291 C 
HETATM   16  O8  UNL     1      -0.466  28.029 -17.734  1.00  0.00    -0.356 OA
HETATM   17  C19 UNL     1      -1.561  28.849 -17.982  1.00  0.00     0.205 C 
HETATM   18  C20 UNL     1      -2.443  29.016 -16.783  1.00  0.00     0.173 C 
HETATM   19  C21 UNL     1      -2.380  27.806 -15.901  1.00  0.00     0.182 C 
HETATM   20  C22 UNL     1      -0.968  27.498 -15.529  1.00  0.00     0.204 C 
BRANCH  18  21
HETATM   21  O9  UNL     1      -3.754  29.231 -17.266  1.00  0.00    -0.391 OA
ATOM     22  H9  UNL     1      -4.326  28.651 -16.777  1.00  0.00     0.210 HD
ENDBRANCH  18  21
BRANCH  19  23
HETATM   23  O10 UNL     1      -3.008  26.754 -16.592  1.00  0.00    -0.390 OA
ATOM     24  H10 UNL     1      -3.881  26.660 -16.228  1.00  0.00     0.210 HD
ENDBRANCH  19  23
BRANCH  20  25
HETATM   25  O11 UNL     1      -0.709  27.691 -14.174  1.00  0.00    -0.388 OA
ATOM     26  H11 UNL     1      -0.664  28.610 -13.936  1.00  0.00     0.210 HD
ENDBRANCH  20  25
ENDBRANCH  14  15
ENDBRANCH   9  14
BRANCH  10  27
HETATM   27  O12 UNL     1       1.954  30.658 -16.873  1.00  0.00    -0.390 OA
ATOM     28  H12 UNL     1       2.710  30.847 -17.416  1.00  0.00     0.210 HD
ENDBRANCH  10  27
BRANCH  11  29
HETATM   29  O13 UNL     1       4.511  30.054 -16.079  1.00  0.00    -0.390 OA
ATOM     30  H13 UNL     1       4.176  29.889 -16.953  1.00  0.00     0.210 HD
ENDBRANCH  11  29
ENDBRANCH   5   6
ENDBRANCH   4   5
BRANCH   1  31
HETATM   31  O2  UNL     1       4.718  30.288 -10.284  1.00  0.00    -0.343 OA
BRANCH  31  32
HETATM   32  C3  UNL     1       3.852  31.284 -10.641  1.00  0.00     0.292 C 
HETATM   33  C2  UNL     1       2.509  30.790 -11.150  1.00  0.00     0.207 C 
HETATM   34  C28 UNL     1       1.585  31.981 -11.035  1.00  0.00     0.183 C 
HETATM   35  C27 UNL     1       2.114  33.086 -11.893  1.00  0.00     0.178 C 
HETATM   36  C25 UNL     1       3.581  33.305 -11.744  1.00  0.00     0.152 C 
HETATM   37  O14 UNL     1       4.341  32.181 -11.557  1.00  0.00    -0.351 OA
HETATM   38  C26 UNL     1       3.865  34.256 -10.598  1.00  0.00     0.042 C 
BRANCH  33  39
HETATM   39  O1  UNL     1       2.060  29.649 -10.559  1.00  0.00    -0.383 OA
HETATM   40  C1  UNL     1       0.698  29.424 -10.705  1.00  0.00     0.202 C 
ENDBRANCH  33  39
BRANCH  34  41
HETATM   41  O16 UNL     1       1.592  32.410  -9.697  1.00  0.00    -0.390 OA
ATOM     42  H16 UNL     1       2.404  32.877  -9.541  1.00  0.00     0.210 HD
ENDBRANCH  34  41
BRANCH  35  43
HETATM   43  O15 UNL     1       1.750  32.816 -13.220  1.00  0.00    -0.390 OA
ATOM     44  H15 UNL     1       0.875  32.455 -13.285  1.00  0.00     0.210 HD
ENDBRANCH  35  43
ENDBRANCH  31  32
ENDBRANCH   1  31
BRANCH   2  45
HETATM   45  O3  UNL     1       6.623  28.246  -9.950  1.00  0.00    -0.318 OA
BRANCH  45  46
HETATM   46  C6  UNL     1       7.560  27.385  -9.478  1.00  0.00     0.072 A 
HETATM   47  C7  UNL     1       7.263  26.395  -8.586  1.00  0.00     0.037 A 
HETATM   48  C8  UNL     1       8.244  25.514  -8.110  1.00  0.00     0.009 A 
HETATM   49  C9  UNL     1       9.542  25.653  -8.554  1.00  0.00    -0.062 A 
HETATM   50  C10 UNL     1      10.614  24.735  -8.073  1.00  0.00     0.048 C 
HETATM   51  C11 UNL     1       9.872  26.640  -9.451  1.00  0.00     0.009 A 
HETATM   52  C12 UNL     1       8.893  27.479  -9.894  1.00  0.00     0.037 A 
ENDBRANCH  45  46
ENDBRANCH   2  45
TORSDOF 17
ENDMDL
MODEL 2
REMARK VINA RESULT: -8.740325193      3.403      6.937
REMARK  17 active torsions:
REMARK  status: ('A' for Active; 'I' for Inactive)
REMARK    1  A    between atoms: O1_2  and  C2_3 
REMARK    2  A    between atoms: C3_4  and  O2_5 
REMARK    3  A    between atoms: O2_5  and  C4_6 
REMARK    4  A    between atoms: C5_7  and  O3_8 
REMARK    5  A    between atoms: O3_8  and  C6_9 
REMARK    6  A    between atoms: C13_17  and  O5_18 
REMARK    7  A    between atoms: O5_18  and  C14_19 
REMARK    8  A    between atoms: C15_20  and  O6_21 
REMARK    9  A    between atoms: C17_24  and  O7_25 
REMARK   10  A    between atoms: O7_25  and  C18_26 
REMARK   11  A    between atoms: C20_29  and  O9_30 
REMARK   12  A    between atoms: C21_32  and  O10_33 
REMARK   13  A    between atoms: C22_35  and  O11_36 
REMARK   14  A    between atoms: C23_38  and  O12_39 
REMARK   15  A    between atoms: C24_41  and  O13_42 
REMARK   16  A    between atoms: C27_47  and  O15_48 
REMARK   17  A    between atoms: C28_50  and  O16_51 
ROOT
HETATM    1  C4  UNL     1       5.569  26.223 -10.539  1.00  0.00     0.235 C 
HETATM    2  C5  UNL     1       4.647  25.027 -10.368  1.00  0.00     0.303 C 
HETATM    3  O4  UNL     1       3.683  25.747 -11.134  1.00  0.00    -0.326 OA
HETATM    4  C13 UNL     1       4.296  26.980 -10.844  1.00  0.00     0.297 C 
ENDROOT
BRANCH   4   5
HETATM    5  O5  UNL     1       4.445  27.713 -11.998  1.00  0.00    -0.348 OA
BRANCH   5   6
HETATM    6  C14 UNL     1       4.339  29.060 -11.863  1.00  0.00     0.184 C 
HETATM    7  C15 UNL     1       3.722  29.338 -10.516  1.00  0.00     0.152 C 
HETATM    8  C16 UNL     1       2.254  29.562 -10.575  1.00  0.00     0.069 C 
HETATM    9  C17 UNL     1       1.972  30.818 -11.350  1.00  0.00     0.158 C 
HETATM   10  C23 UNL     1       2.953  31.044 -12.408  1.00  0.00     0.178 C 
HETATM   11  C24 UNL     1       3.513  29.743 -12.918  1.00  0.00     0.180 C 
BRANCH   7  12
HETATM   12  O6  UNL     1       4.418  30.407  -9.952  1.00  0.00    -0.393 OA
ATOM     13  H6  UNL     1       5.165  30.587 -10.511  1.00  0.00     0.210 HD
ENDBRANCH   7  12
BRANCH   9  14
HETATM   14  O7  UNL     1       1.779  31.822 -10.437  1.00  0.00    -0.351 OA
BRANCH  14  15
HETATM   15  C18 UNL     1       0.510  32.163 -10.110  1.00  0.00     0.291 C 
HETATM   16  O8  UNL     1       0.085  31.238  -9.130  1.00  0.00    -0.356 OA
HETATM   17  C19 UNL     1      -1.285  31.337  -8.918  1.00  0.00     0.205 C 
HETATM   18  C20 UNL     1      -1.785  32.747  -9.007  1.00  0.00     0.173 C 
HETATM   19  C21 UNL     1      -0.718  33.718  -8.602  1.00  0.00     0.182 C 
HETATM   20  C22 UNL     1       0.523  33.502  -9.403  1.00  0.00     0.204 C 
BRANCH  18  21
HETATM   21  O9  UNL     1      -2.910  32.835  -8.156  1.00  0.00    -0.391 OA
ATOM     22  H9  UNL     1      -3.240  33.724  -8.229  1.00  0.00     0.210 HD
ENDBRANCH  18  21
BRANCH  19  23
HETATM   23  O10 UNL     1      -0.512  33.558  -7.219  1.00  0.00    -0.390 OA
ATOM     24  H10 UNL     1      -1.275  33.110  -6.871  1.00  0.00     0.210 HD
ENDBRANCH  19  23
BRANCH  20  25
HETATM   25  O11 UNL     1       0.803  34.561 -10.264  1.00  0.00    -0.388 OA
ATOM     26  H11 UNL     1       0.019  34.997 -10.576  1.00  0.00     0.210 HD
ENDBRANCH  20  25
ENDBRANCH  14  15
ENDBRANCH   9  14
BRANCH  10  27
HETATM   27  O12 UNL     1       2.435  31.666 -13.556  1.00  0.00    -0.390 OA
ATOM     28  H12 UNL     1       3.094  32.017 -14.143  1.00  0.00     0.210 HD
ENDBRANCH  10  27
BRANCH  11  29
HETATM   29  O13 UNL     1       2.449  28.934 -13.296  1.00  0.00    -0.390 OA
ATOM     30  H13 UNL     1       1.774  28.943 -12.628  1.00  0.00     0.210 HD
ENDBRANCH  11  29
ENDBRANCH   5   6
ENDBRANCH   4   5
BRANCH   1  31
HETATM   31  O2  UNL     1       6.270  26.631  -9.435  1.00  0.00    -0.343 OA
BRANCH  31  32
HETATM   32  C3  UNL     1       7.309  27.443  -9.796  1.00  0.00     0.292 C 
HETATM   33  C2  UNL     1       8.572  27.241  -8.977  1.00  0.00     0.207 C 
HETATM   34  C28 UNL     1       9.677  27.854  -9.807  1.00  0.00     0.183 C 
HETATM   35  C27 UNL     1       9.386  29.310  -9.998  1.00  0.00     0.178 C 
HETATM   36  C25 UNL     1       7.971  29.588 -10.377  1.00  0.00     0.152 C 
HETATM   37  O14 UNL     1       7.024  28.786  -9.798  1.00  0.00    -0.351 OA
HETATM   38  C26 UNL     1       7.796  29.505 -11.880  1.00  0.00     0.042 C 
BRANCH  33  39
HETATM   39  O1  UNL     1       8.792  25.959  -8.577  1.00  0.00    -0.383 OA
HETATM   40  C1  UNL     1      10.127  25.575  -8.588  1.00  0.00     0.202 C 
ENDBRANCH  33  39
BRANCH  34  41
HETATM   41  O16 UNL     1       9.677  27.228 -11.065  1.00  0.00    -0.390 OA
ATOM     42  H16 UNL     1       9.990  26.339 -10.953  1.00  0.00     0.210 HD
ENDBRANCH  34  41
BRANCH  35  43
HETATM   43  O15 UNL     1       9.764  29.984  -8.829  1.00  0.00    -0.390 OA
ATOM     44  H15 UNL     1       9.067  30.003  -8.185  1.00  0.00     0.210 HD
ENDBRANCH  35  43
ENDBRANCH  31  32
ENDBRANCH   1  31
BRANCH   2  45
HETATM   45  O3  UNL     1       4.146  24.817  -9.108  1.00  0.00    -0.318 OA
BRANCH  45  46
HETATM   46  C6  UNL     1       3.907  23.606  -8.545  1.00  0.00     0.072 A 
HETATM   47  C7  UNL     1       3.520  22.520  -9.275  1.00  0.00     0.037 A 
HETATM   48  C8  UNL     1       3.278  21.276  -8.675  1.00  0.00     0.009 A 
HETATM   49  C9  UNL     1       3.437  21.148  -7.311  1.00  0.00    -0.062 A 
HETATM   50  C10 UNL     1       3.192  19.842  -6.636  1.00  0.00     0.048 C 
HETATM   51  C11 UNL     1       3.826  22.223  -6.549  1.00  0.00     0.009 A 
HETATM   52  C12 UNL     1       4.052  23.418  -7.165  1.00  0.00     0.037 A 
ENDBRANCH  45  46
ENDBRANCH   2  45
TORSDOF 17
ENDMDL
MODEL 3
REMARK VINA RESULT: -8.560967954      3.335      7.213
REMARK  17 active torsions:
REMARK  status: ('A' for Active; 'I' for Inactive)
REMARK    1  A    between atoms: O1_2  and  C2_3 
REMARK    2  A    between atoms: C3_4  and  O2_5 
REMARK    3  A    between atoms: O2_5  and  C4_6 
REMARK    4  A    between atoms: C5_7  and  O3_8 
REMARK    5  A    between atoms: O3_8  and  C6_9 
REMARK    6  A    between atoms: C13_17  and  O5_18 
REMARK    7  A    between atoms: O5_18  and  C14_19 
REMARK    8  A    between atoms: C15_20  and  O6_21 
REMARK    9  A    between atoms: C17_24  and  O7_25 
REMARK   10  A    between atoms: O7_25  and  C18_26 
REMARK   11  A    between atoms: C20_29  and  O9_30 
REMARK   12  A    between atoms: C21_32  and  O10_33 
REMARK   13  A    between atoms: C22_35  and  O11_36 
REMARK   14  A    between atoms: C23_38  and  O12_39 
REMARK   15  A    between atoms: C24_41  and  O13_42 
REMARK   16  A    between atoms: C27_47  and  O15_48 
REMARK   17  A    between atoms: C28_50  and  O16_51 
ROOT
HETATM    1  C4  UNL     1       5.401  26.485 -10.598  1.00  0.00     0.235 C 
HETATM    2  C5  UNL     1       4.613  25.204 -10.378  1.00  0.00     0.303 C 
HETATM    3  O4  UNL     1       3.553  25.811 -11.116  1.00  0.00    -0.326 OA
HETATM    4  C13 UNL     1       4.047  27.104 -10.864  1.00  0.00     0.297 C 
ENDROOT
BRANCH   4   5
HETATM    5  O5  UNL     1       4.078  27.829 -12.031  1.00  0.00    -0.348 OA
BRANCH   5   6
HETATM    6  C14 UNL     1       4.165  29.177 -11.891  1.00  0.00     0.184 C 
HETATM    7  C15 UNL     1       3.570  29.537 -10.553  1.00  0.00     0.152 C 
HETATM    8  C16 UNL     1       2.150  29.970 -10.636  1.00  0.00     0.069 C 
HETATM    9  C17 UNL     1       2.066  31.256 -11.409  1.00  0.00     0.158 C 
HETATM   10  C23 UNL     1       3.089  31.342 -12.448  1.00  0.00     0.178 C 
HETATM   11  C24 UNL     1       3.465  29.976 -12.955  1.00  0.00     0.180 C 
BRANCH   7  12
HETATM   12  O6  UNL     1       4.402  30.492  -9.970  1.00  0.00    -0.393 OA
ATOM     13  H6  UNL     1       5.118  30.029  -9.553  1.00  0.00     0.210 HD
ENDBRANCH   7  12
BRANCH   9  14
HETATM   14  O7  UNL     1       2.004  32.275 -10.493  1.00  0.00    -0.351 OA
BRANCH  14  15
HETATM   15  C18 UNL     1       2.233  33.540 -10.917  1.00  0.00     0.291 C 
HETATM   16  O8  UNL     1       1.057  34.275 -10.644  1.00  0.00    -0.356 OA
HETATM   17  C19 UNL     1       1.091  35.513 -11.275  1.00  0.00     0.205 C 
HETATM   18  C20 UNL     1       2.464  36.113 -11.300  1.00  0.00     0.173 C 
HETATM   19  C21 UNL     1       3.266  35.660 -10.119  1.00  0.00     0.182 C 
HETATM   20  C22 UNL     1       3.298  34.170 -10.044  1.00  0.00     0.204 C 
BRANCH  18  21
HETATM   21  O9  UNL     1       2.296  37.517 -11.298  1.00  0.00    -0.391 OA
ATOM     22  H9  UNL     1       3.162  37.897 -11.389  1.00  0.00     0.210 HD
ENDBRANCH  18  21
BRANCH  19  23
HETATM   23  O10 UNL     1       2.699  36.254  -8.977  1.00  0.00    -0.390 OA
ATOM     24  H10 UNL     1       3.397  36.367  -8.342  1.00  0.00     0.210 HD
ENDBRANCH  19  23
BRANCH  20  25
HETATM   25  O11 UNL     1       4.567  33.642 -10.280  1.00  0.00    -0.388 OA
ATOM     26  H11 UNL     1       4.831  33.014  -9.617  1.00  0.00     0.210 HD
ENDBRANCH  20  25
ENDBRANCH  14  15
ENDBRANCH   9  14
BRANCH  10  27
HETATM   27  O12 UNL     1       2.688  32.037 -13.601  1.00  0.00    -0.390 OA
ATOM     28  H12 UNL     1       2.294  31.491 -14.271  1.00  0.00     0.210 HD
ENDBRANCH  10  27
BRANCH  11  29
HETATM   29  O13 UNL     1       2.303  29.330 -13.358  1.00  0.00    -0.390 OA
ATOM     30  H13 UNL     1       1.665  29.962 -13.669  1.00  0.00     0.210 HD
ENDBRANCH  11  29
ENDBRANCH   5   6
ENDBRANCH   4   5
BRANCH   1  31
HETATM   31  O2  UNL     1       6.097  26.979  -9.527  1.00  0.00    -0.343 OA
BRANCH  31  32
HETATM   32  C3  UNL     1       7.189  27.686  -9.945  1.00  0.00     0.292 C 
HETATM   33  C2  UNL     1       8.479  27.323  -9.229  1.00  0.00     0.207 C 
HETATM   34  C28 UNL     1       9.582  27.839 -10.124  1.00  0.00     0.183 C 
HETATM   35  C27 UNL     1       9.439  29.323 -10.259  1.00  0.00     0.178 C 
HETATM   36  C25 UNL     1       8.039  29.764 -10.524  1.00  0.00     0.152 C 
HETATM   37  O14 UNL     1       7.054  29.051  -9.894  1.00  0.00    -0.351 OA
HETATM   38  C26 UNL     1       7.748  29.747 -12.012  1.00  0.00     0.042 C 
BRANCH  33  39
HETATM   39  O1  UNL     1       8.585  26.013  -8.876  1.00  0.00    -0.383 OA
HETATM   40  C1  UNL     1       9.874  25.606  -8.560  1.00  0.00     0.202 C 
ENDBRANCH  33  39
BRANCH  34  41
HETATM   41  O16 UNL     1       9.422  27.257 -11.393  1.00  0.00    -0.390 OA
ATOM     42  H16 UNL     1       8.538  27.436 -11.691  1.00  0.00     0.210 HD
ENDBRANCH  34  41
BRANCH  35  43
HETATM   43  O15 UNL     1       9.971  29.916  -9.106  1.00  0.00    -0.390 OA
ATOM     44  H15 UNL     1       9.342  29.949  -8.396  1.00  0.00     0.210 HD
ENDBRANCH  35  43
ENDBRANCH  31  32
ENDBRANCH   1  31
BRANCH   2  45
HETATM   45  O3  UNL     1       4.182  24.964  -9.098  1.00  0.00    -0.318 OA
BRANCH  45  46
HETATM   46  C6  UNL     1       3.940  23.741  -8.562  1.00  0.00     0.072 A 
HETATM   47  C7  UNL     1       3.684  22.642  -9.329  1.00  0.00     0.037 A 
HETATM   48  C8  UNL     1       3.437  21.385  -8.757  1.00  0.00     0.009 A 
HETATM   49  C9  UNL     1       3.453  21.260  -7.383  1.00  0.00    -0.062 A 
HETATM   50  C10 UNL     1       3.197  19.942  -6.736  1.00  0.00     0.048 C 
HETATM   51  C11 UNL     1       3.707  22.349  -6.585  1.00  0.00     0.009 A 
HETATM   52  C12 UNL     1       3.943  23.555  -7.175  1.00  0.00     0.037 A 
ENDBRANCH  45  46
ENDBRANCH   2  45
TORSDOF 17
ENDMDL
MODEL 4
REMARK VINA RESULT: -8.551048111      2.932      5.395
REMARK  17 active torsions:
REMARK  status: ('A' for Active; 'I' for Inactive)
REMARK    1  A    between atoms: O1_2  and  C2_3 
REMARK    2  A    between atoms: C3_4  and  O2_5 
REMARK    3  A    between atoms: O2_5  and  C4_6 
REMARK    4  A    between atoms: C5_7  and  O3_8 
REMARK    5  A    between atoms: O3_8  and  C6_9 
REMARK    6  A    between atoms: C13_17  and  O5_18 
REMARK    7  A    between atoms: O5_18  and  C14_19 
REMARK    8  A    between atoms: C15_20  and  O6_21 
REMARK    9  A    between atoms: C17_24  and  O7_25 
REMARK   10  A    between atoms: O7_25  and  C18_26 
REMARK   11  A    between atoms: C20_29  and  O9_30 
REMARK   12  A    between atoms: C21_32  and  O10_33 
REMARK   13  A    between atoms: C22_35  and  O11_36 
REMARK   14  A    between atoms: C23_38  and  O12_39 
REMARK   15  A    between atoms: C24_41  and  O13_42 
REMARK   16  A    between atoms: C27_47  and  O15_48 
REMARK   17  A    between atoms: C28_50  and  O16_51 
ROOT
HETATM    1  C4  UNL     1       5.171  28.156 -11.453  1.00  0.00     0.235 C 
HETATM    2  C5  UNL     1       5.704  27.114 -10.484  1.00  0.00     0.303 C 
HETATM    3  O4  UNL     1       4.443  27.185  -9.821  1.00  0.00    -0.326 OA
HETATM    4  C13 UNL     1       4.173  28.457 -10.358  1.00  0.00     0.297 C 
ENDROOT
BRANCH   4   5
HETATM    5  O5  UNL     1       2.898  28.487 -10.873  1.00  0.00    -0.348 OA
BRANCH   5   6
HETATM    6  C14 UNL     1       2.234  29.664 -10.744  1.00  0.00     0.184 C 
HETATM    7  C15 UNL     1       0.948  29.385 -10.007  1.00  0.00     0.152 C 
HETATM    8  C16 UNL     1      -0.220  29.204 -10.908  1.00  0.00     0.069 C 
HETATM    9  C17 UNL     1      -0.505  30.496 -11.621  1.00  0.00     0.158 C 
HETATM   10  C23 UNL     1       0.712  31.262 -11.879  1.00  0.00     0.178 C 
HETATM   11  C24 UNL     1       1.902  30.354 -12.038  1.00  0.00     0.180 C 
BRANCH   7  12
HETATM   12  O6  UNL     1       0.771  30.408  -9.076  1.00  0.00    -0.393 OA
ATOM     13  H6  UNL     1       0.137  31.016  -9.439  1.00  0.00     0.210 HD
ENDBRANCH   7  12
BRANCH   9  14
HETATM   14  O7  UNL     1      -1.516  31.121 -10.937  1.00  0.00    -0.351 OA
BRANCH  14  15
HETATM   15  C18 UNL     1      -1.412  32.451 -10.703  1.00  0.00     0.291 C 
HETATM   16  O8  UNL     1      -2.349  33.083 -11.551  1.00  0.00    -0.356 OA
HETATM   17  C19 UNL     1      -2.141  34.457 -11.579  1.00  0.00     0.205 C 
HETATM   18  C20 UNL     1      -1.713  35.006 -10.253  1.00  0.00     0.173 C 
HETATM   19  C21 UNL     1      -2.266  34.181  -9.130  1.00  0.00     0.182 C 
HETATM   20  C22 UNL     1      -1.895  32.746  -9.298  1.00  0.00     0.204 C 
BRANCH  18  21
HETATM   21  O9  UNL     1      -2.182  36.338 -10.191  1.00  0.00    -0.391 OA
ATOM     22  H9  UNL     1      -1.795  36.799 -10.926  1.00  0.00     0.210 HD
ENDBRANCH  18  21
BRANCH  19  23
HETATM   23  O10 UNL     1      -3.657  34.389  -9.106  1.00  0.00    -0.390 OA
ATOM     24  H10 UNL     1      -4.013  33.832  -8.424  1.00  0.00     0.210 HD
ENDBRANCH  19  23
BRANCH  20  25
HETATM   25  O11 UNL     1      -1.009  32.296  -8.321  1.00  0.00    -0.388 OA
ATOM     26  H11 UNL     1      -0.821  31.368  -8.397  1.00  0.00     0.210 HD
ENDBRANCH  20  25
ENDBRANCH  14  15
ENDBRANCH   9  14
BRANCH  10  27
HETATM   27  O12 UNL     1       0.688  32.006 -13.069  1.00  0.00    -0.390 OA
ATOM     28  H12 UNL     1       0.474  31.500 -13.844  1.00  0.00     0.210 HD
ENDBRANCH  10  27
BRANCH  11  29
HETATM   29  O13 UNL     1       1.603  29.420 -13.021  1.00  0.00    -0.390 OA
ATOM     30  H13 UNL     1       1.337  29.856 -13.822  1.00  0.00     0.210 HD
ENDBRANCH  11  29
ENDBRANCH   5   6
ENDBRANCH   4   5
BRANCH   1  31
HETATM   31  O2  UNL     1       6.018  29.174 -11.802  1.00  0.00    -0.343 OA
BRANCH  31  32
HETATM   32  C3  UNL     1       5.616  29.759 -12.970  1.00  0.00     0.292 C 
HETATM   33  C2  UNL     1       5.034  31.152 -12.801  1.00  0.00     0.207 C 
HETATM   34  C28 UNL     1       5.101  31.772 -14.179  1.00  0.00     0.183 C 
HETATM   35  C27 UNL     1       4.272  30.951 -15.117  1.00  0.00     0.178 C 
HETATM   36  C25 UNL     1       4.501  29.484 -14.984  1.00  0.00     0.152 C 
HETATM   37  O14 UNL     1       4.728  29.023 -13.714  1.00  0.00    -0.351 OA
HETATM   38  C26 UNL     1       5.661  29.044 -15.854  1.00  0.00     0.042 C 
BRANCH  33  39
HETATM   39  O1  UNL     1       5.600  31.890 -11.807  1.00  0.00    -0.383 OA
HETATM   40  C1  UNL     1       4.715  32.718 -11.131  1.00  0.00     0.202 C 
ENDBRANCH  33  39
BRANCH  34  41
HETATM   41  O16 UNL     1       6.437  31.734 -14.610  1.00  0.00    -0.390 OA
ATOM     42  H16 UNL     1       6.789  30.876 -14.406  1.00  0.00     0.210 HD
ENDBRANCH  34  41
BRANCH  35  43
HETATM   43  O15 UNL     1       2.928  31.298 -14.925  1.00  0.00    -0.390 OA
ATOM     44  H15 UNL     1       2.833  32.125 -14.467  1.00  0.00     0.210 HD
ENDBRANCH  35  43
ENDBRANCH  31  32
ENDBRANCH   1  31
BRANCH   2  45
HETATM   45  O3  UNL     1       6.684  27.530  -9.619  1.00  0.00    -0.318 OA
BRANCH  45  46
HETATM   46  C6  UNL     1       7.741  26.786  -9.204  1.00  0.00     0.072 A 
HETATM   47  C7  UNL     1       8.998  26.954  -9.707  1.00  0.00     0.037 A 
HETATM   48  C8  UNL     1      10.078  26.175  -9.265  1.00  0.00     0.009 A 
HETATM   49  C9  UNL     1       9.861  25.216  -8.298  1.00  0.00    -0.062 A 
HETATM   50  C10 UNL     1      10.983  24.370  -7.801  1.00  0.00     0.048 C 
HETATM   51  C11 UNL     1       8.607  25.024  -7.773  1.00  0.00     0.009 A 
HETATM   52  C12 UNL     1       7.580  25.799  -8.226  1.00  0.00     0.037 A 
ENDBRANCH  45  46
ENDBRANCH   2  45
TORSDOF 17
ENDMDL
MODEL 5
REMARK VINA RESULT: -8.470501942      0.705      1.980
REMARK  17 active torsions:
REMARK  status: ('A' for Active; 'I' for Inactive)
REMARK    1  A    between atoms: O1_2  and  C2_3 
REMARK    2  A    between atoms: C3_4  and  O2_5 
REMARK    3  A    between atoms: O2_5  and  C4_6 
REMARK    4  A    between atoms: C5_7  and  O3_8 
REMARK    5  A    between atoms: O3_8  and  C6_9 
REMARK    6  A    between atoms: C13_17  and  O5_18 
REMARK    7  A    between atoms: O5_18  and  C14_19 
REMARK    8  A    between atoms: C15_20  and  O6_21 
REMARK    9  A    between atoms: C17_24  and  O7_25 
REMARK   10  A    between atoms: O7_25  and  C18_26 
REMARK   11  A    between atoms: C20_29  and  O9_30 
REMARK   12  A    between atoms: C21_32  and  O10_33 
REMARK   13  A    between atoms: C22_35  and  O11_36 
REMARK   14  A    between atoms: C23_38  and  O12_39 
REMARK   15  A    between atoms: C24_41  and  O13_42 
REMARK   16  A    between atoms: C27_47  and  O15_48 
REMARK   17  A    between atoms: C28_50  and  O16_51 
ROOT
HETATM    1  C4  UNL     1       5.394  30.147 -11.122  1.00  0.00     0.235 C 
HETATM    2  C5  UNL     1       6.594  29.231 -10.950  1.00  0.00     0.303 C 
HETATM    3  O4  UNL     1       6.299  28.714 -12.246  1.00  0.00    -0.326 OA
HETATM    4  C13 UNL     1       4.964  29.150 -12.174  1.00  0.00     0.297 C 
ENDROOT
BRANCH   4   5
HETATM    5  O5  UNL     1       4.621  29.802 -13.335  1.00  0.00    -0.348 OA
BRANCH   5   6
HETATM    6  C14 UNL     1       3.329  29.669 -13.731  1.00  0.00     0.184 C 
HETATM    7  C15 UNL     1       3.060  28.198 -13.927  1.00  0.00     0.152 C 
HETATM    8  C16 UNL     1       3.193  27.758 -15.340  1.00  0.00     0.069 C 
HETATM    9  C17 UNL     1       2.127  28.417 -16.170  1.00  0.00     0.158 C 
HETATM   10  C23 UNL     1       1.793  29.750 -15.678  1.00  0.00     0.178 C 
HETATM   11  C24 UNL     1       2.974  30.392 -15.001  1.00  0.00     0.180 C 
BRANCH   7  12
HETATM   12  O6  UNL     1       1.805  27.928 -13.383  1.00  0.00    -0.393 OA
ATOM     13  H6  UNL     1       1.170  27.996 -14.087  1.00  0.00     0.210 HD
ENDBRANCH   7  12
BRANCH   9  14
HETATM   14  O7  UNL     1       1.104  27.514 -16.305  1.00  0.00    -0.351 OA
BRANCH  14  15
HETATM   15  C18 UNL     1      -0.154  27.985 -16.480  1.00  0.00     0.291 C 
HETATM   16  O8  UNL     1      -0.595  27.498 -17.732  1.00  0.00    -0.356 OA
HETATM   17  C19 UNL     1      -1.767  28.133 -18.123  1.00  0.00     0.205 C 
HETATM   18  C20 UNL     1      -2.681  28.426 -16.973  1.00  0.00     0.173 C 
HETATM   19  C21 UNL     1      -2.502  27.416 -15.880  1.00  0.00     0.182 C 
HETATM   20  C22 UNL     1      -1.071  27.337 -15.464  1.00  0.00     0.204 C 
BRANCH  18  21
HETATM   21  O9  UNL     1      -3.999  28.403 -17.482  1.00  0.00    -0.391 OA
ATOM     22  H9  UNL     1      -4.329  29.293 -17.428  1.00  0.00     0.210 HD
ENDBRANCH  18  21
BRANCH  19  23
HETATM   23  O10 UNL     1      -3.003  26.191 -16.358  1.00  0.00    -0.390 OA
ATOM     24  H10 UNL     1      -3.626  26.392 -17.046  1.00  0.00     0.210 HD
ENDBRANCH  19  23
BRANCH  20  25
HETATM   25  O11 UNL     1      -0.855  27.807 -14.170  1.00  0.00    -0.388 OA
ATOM     26  H11 UNL     1      -0.873  27.113 -13.521  1.00  0.00     0.210 HD
ENDBRANCH  20  25
ENDBRANCH  14  15
ENDBRANCH   9  14
BRANCH  10  27
HETATM   27  O12 UNL     1       1.434  30.666 -16.681  1.00  0.00    -0.390 OA
ATOM     28  H12 UNL     1       0.503  30.846 -16.733  1.00  0.00     0.210 HD
ENDBRANCH  10  27
BRANCH  11  29
HETATM   29  O13 UNL     1       4.044  30.368 -15.886  1.00  0.00    -0.390 OA
ATOM     30  H13 UNL     1       3.895  29.722 -16.566  1.00  0.00     0.210 HD
ENDBRANCH  11  29
ENDBRANCH   5   6
ENDBRANCH   4   5
BRANCH   1  31
HETATM   31  O2  UNL     1       4.561  30.293 -10.045  1.00  0.00    -0.343 OA
BRANCH  31  32
HETATM   32  C3  UNL     1       3.461  31.031 -10.380  1.00  0.00     0.292 C 
HETATM   33  C2  UNL     1       3.619  32.525 -10.155  1.00  0.00     0.207 C 
HETATM   34  C28 UNL     1       2.536  33.163 -10.995  1.00  0.00     0.183 C 
HETATM   35  C27 UNL     1       1.204  32.682 -10.511  1.00  0.00     0.178 C 
HETATM   36  C25 UNL     1       1.151  31.210 -10.278  1.00  0.00     0.152 C 
HETATM   37  O14 UNL     1       2.291  30.639  -9.778  1.00  0.00    -0.351 OA
HETATM   38  C26 UNL     1       0.787  30.481 -11.556  1.00  0.00     0.042 C 
BRANCH  33  39
HETATM   39  O1  UNL     1       4.875  33.003 -10.368  1.00  0.00    -0.383 OA
HETATM   40  C1  UNL     1       5.064  34.319  -9.968  1.00  0.00     0.202 C 
ENDBRANCH  33  39
BRANCH  34  41
HETATM   41  O16 UNL     1       2.709  32.740 -12.324  1.00  0.00    -0.390 OA
ATOM     42  H16 UNL     1       3.624  32.521 -12.447  1.00  0.00     0.210 HD
ENDBRANCH  34  41
BRANCH  35  43
HETATM   43  O15 UNL     1       0.871  33.412  -9.362  1.00  0.00    -0.390 OA
ATOM     44  H15 UNL     1       0.330  32.912  -8.763  1.00  0.00     0.210 HD
ENDBRANCH  35  43
ENDBRANCH  31  32
ENDBRANCH   1  31
BRANCH   2  45
HETATM   45  O3  UNL     1       6.464  28.222 -10.029  1.00  0.00    -0.318 OA
BRANCH  45  46
HETATM   46  C6  UNL     1       7.466  27.418  -9.591  1.00  0.00     0.072 A 
HETATM   47  C7  UNL     1       8.747  27.525 -10.051  1.00  0.00     0.037 A 
HETATM   48  C8  UNL     1       9.769  26.685  -9.586  1.00  0.00     0.009 A 
HETATM   49  C9  UNL     1       9.471  25.727  -8.641  1.00  0.00    -0.062 A 
HETATM   50  C10 UNL     1      10.530  24.816  -8.120  1.00  0.00     0.048 C 
HETATM   51  C11 UNL     1       8.191  25.594  -8.159  1.00  0.00     0.009 A 
HETATM   52  C12 UNL     1       7.221  26.428  -8.633  1.00  0.00     0.037 A 
ENDBRANCH  45  46
ENDBRANCH   2  45
TORSDOF 17
ENDMDL
