MODEL 1
REMARK VINA RESULT: -8.015457938      0.000      0.000
REMARK  6 active torsions:
REMARK  status: ('A' for Active; 'I' for Inactive)
REMARK       I    between atoms: N1_2  and  C2_4 
REMARK    1  A    between atoms: C2_4  and  C3_6 
REMARK    2  A    between atoms: C6_9  and  C7_10 
REMARK    3  A    between atoms: C9_14  and  N3_15 
REMARK    4  A    between atoms: C10_20  and  O2_21 
REMARK    5  A    between atoms: O2_21  and  C11_22 
REMARK    6  A    between atoms: C11_22  and  C12_23 
ROOT
HETATM    1  C7  UNL     1      -3.948   3.543  14.556  1.00  0.00     0.043 A 
HETATM    2  C8  UNL     1      -3.482   2.939  15.731  1.00  0.00     0.122 A 
HETATM    3  N2  UNL     1      -3.335   1.633  15.889  1.00  0.00    -0.201 N 
ATOM      4  H2  UNL     1      -2.993   1.249  16.769  1.00  0.00     0.183 HD
HETATM    5  C9  UNL     1      -3.648   0.833  14.869  1.00  0.00     0.677 A 
HETATM    6  N4  UNL     1      -4.093   1.359  13.732  1.00  0.00    -0.170 N 
ATOM      7  H4  UNL     1      -4.324   0.722  12.970  1.00  0.00     0.186 HD
HETATM    8  C10 UNL     1      -4.261   2.697  13.522  1.00  0.00     0.174 A 
ENDROOT
BRANCH   1   9
HETATM    9  C6  UNL     1      -4.089   4.967  14.440  1.00  0.00    -0.005 A 
HETATM   10  C5  UNL     1      -5.308   5.553  14.675  1.00  0.00     0.016 A 
HETATM   11  C4  UNL     1      -5.491   6.931  14.564  1.00  0.00     0.036 A 
HETATM   12  C3  UNL     1      -4.393   7.695  14.205  1.00  0.00     0.100 A 
HETATM   13  N5  UNL     1      -3.219   7.096  13.981  1.00  0.00    -0.361 N 
HETATM   14  C18 UNL     1      -3.026   5.749  14.086  1.00  0.00     0.101 A 
ATOM     15  H5  UNL     1      -2.424   7.678  13.718  1.00  0.00     0.165 HD
BRANCH  12  16
HETATM   16  C2  UNL     1      -4.545   9.141  14.078  1.00  0.00     0.267 C 
HETATM   17  N1  UNL     1      -3.940   9.855  13.013  1.00  0.00    -0.360 N 
HETATM   18  C1  UNL     1      -4.093  11.299  12.890  1.00  0.00     0.149 C 
ATOM     19  H1  UNL     1      -3.389   9.349  12.320  1.00  0.00     0.162 HD
HETATM   20  O1  UNL     1      -5.222   9.782  14.926  1.00  0.00    -0.266 OA
ENDBRANCH  12  16
ENDBRANCH   1   9
BRANCH   8  21
HETATM   21  O2  UNL     1      -4.742   3.141  12.272  1.00  0.00    -0.303 OA
BRANCH  21  22
HETATM   22  C11 UNL     1      -3.777   3.419  11.311  1.00  0.00     0.159 C 
BRANCH  22  23
HETATM   23  C12 UNL     1      -2.934   2.325  10.872  1.00  0.00     0.030 A 
HETATM   24  C13 UNL     1      -1.576   2.396  11.180  1.00  0.00     0.047 A 
HETATM   25 CL1  UNL     1      -0.900   3.764  12.057  1.00  0.00    -0.083 Cl
HETATM   26  C14 UNL     1      -0.707   1.392  10.808  1.00  0.00     0.025 A 
HETATM   27  C15 UNL     1      -1.164   0.288  10.118  1.00  0.00     0.003 A 
HETATM   28  C16 UNL     1      -2.504   0.199   9.803  1.00  0.00     0.025 A 
HETATM   29  C17 UNL     1      -3.377   1.227  10.188  1.00  0.00     0.047 A 
HETATM   30 CL2  UNL     1      -5.084   1.137   9.823  1.00  0.00    -0.083 Cl
ENDBRANCH  22  23
ENDBRANCH  21  22
ENDBRANCH   8  21
BRANCH   5  31
HETATM   31  N3  UNL     1      -3.532  -0.440  14.946  1.00  0.00    -0.234 N 
ATOM     32  H32 UNL     1      -2.784  -0.824  15.524  1.00  0.00     0.174 HD
ATOM     33  H31 UNL     1      -4.162  -1.070  14.450  1.00  0.00     0.174 HD
ENDBRANCH   5  31
TORSDOF 6
ENDMDL
MODEL 2
REMARK VINA RESULT: -7.941813973      0.076      1.736
REMARK  6 active torsions:
REMARK  status: ('A' for Active; 'I' for Inactive)
REMARK       I    between atoms: N1_2  and  C2_4 
REMARK    1  A    between atoms: C2_4  and  C3_6 
REMARK    2  A    between atoms: C6_9  and  C7_10 
REMARK    3  A    between atoms: C9_14  and  N3_15 
REMARK    4  A    between atoms: C10_20  and  O2_21 
REMARK    5  A    between atoms: O2_21  and  C11_22 
REMARK    6  A    between atoms: C11_22  and  C12_23 
ROOT
HETATM    1  C7  UNL     1      -3.934   3.535  14.547  1.00  0.00     0.043 A 
HETATM    2  C8  UNL     1      -3.459   2.933  15.719  1.00  0.00     0.122 A 
HETATM    3  N2  UNL     1      -3.315   1.627  15.879  1.00  0.00    -0.201 N 
ATOM      4  H2  UNL     1      -2.965   1.243  16.756  1.00  0.00     0.183 HD
HETATM    5  C9  UNL     1      -3.640   0.826  14.864  1.00  0.00     0.677 A 
HETATM    6  N4  UNL     1      -4.095   1.350  13.730  1.00  0.00    -0.170 N 
ATOM      7  H4  UNL     1      -4.335   0.712  12.972  1.00  0.00     0.186 HD
HETATM    8  C10 UNL     1      -4.261   2.688  13.518  1.00  0.00     0.174 A 
ENDROOT
BRANCH   1   9
HETATM    9  C6  UNL     1      -4.072   4.960  14.429  1.00  0.00    -0.005 A 
HETATM   10  C5  UNL     1      -5.295   5.546  14.638  1.00  0.00     0.016 A 
HETATM   11  C4  UNL     1      -5.474   6.925  14.524  1.00  0.00     0.036 A 
HETATM   12  C3  UNL     1      -4.369   7.688  14.190  1.00  0.00     0.100 A 
HETATM   13  N5  UNL     1      -3.190   7.088  13.991  1.00  0.00    -0.361 N 
HETATM   14  C18 UNL     1      -3.001   5.741  14.099  1.00  0.00     0.101 A 
ATOM     15  H5  UNL     1      -2.389   7.670  13.745  1.00  0.00     0.165 HD
BRANCH  12  16
HETATM   16  C2  UNL     1      -4.516   9.135  14.060  1.00  0.00     0.267 C 
HETATM   17  N1  UNL     1      -3.922   9.843  12.985  1.00  0.00    -0.360 N 
HETATM   18  C1  UNL     1      -4.071  11.288  12.860  1.00  0.00     0.149 C 
ATOM     19  H1  UNL     1      -3.382   9.332  12.287  1.00  0.00     0.162 HD
HETATM   20  O1  UNL     1      -5.180   9.780  14.914  1.00  0.00    -0.266 OA
ENDBRANCH  12  16
ENDBRANCH   1   9
BRANCH   8  21
HETATM   21  O2  UNL     1      -4.752   3.130  12.272  1.00  0.00    -0.303 OA
BRANCH  21  22
HETATM   22  C11 UNL     1      -3.796   3.421  11.307  1.00  0.00     0.159 C 
BRANCH  22  23
HETATM   23  C12 UNL     1      -2.903   2.351  10.905  1.00  0.00     0.030 A 
HETATM   24  C13 UNL     1      -3.453   1.289  10.189  1.00  0.00     0.047 A 
HETATM   25 CL1  UNL     1      -5.167   1.234   9.792  1.00  0.00    -0.083 Cl
HETATM   26  C14 UNL     1      -2.671   0.237   9.761  1.00  0.00     0.025 A 
HETATM   27  C15 UNL     1      -1.319   0.211  10.034  1.00  0.00     0.003 A 
HETATM   28  C16 UNL     1      -0.755   1.252  10.741  1.00  0.00     0.025 A 
HETATM   29  C17 UNL     1      -1.562   2.317  11.170  1.00  0.00     0.047 A 
HETATM   30 CL2  UNL     1      -0.878   3.661  12.052  1.00  0.00    -0.083 Cl
ENDBRANCH  22  23
ENDBRANCH  21  22
ENDBRANCH   8  21
BRANCH   5  31
HETATM   31  N3  UNL     1      -3.528  -0.448  14.943  1.00  0.00    -0.234 N 
ATOM     32  H32 UNL     1      -3.656  -0.890  15.853  1.00  0.00     0.174 HD
ATOM     33  H31 UNL     1      -3.316  -1.022  14.127  1.00  0.00     0.174 HD
ENDBRANCH   5  31
TORSDOF 6
ENDMDL
MODEL 3
REMARK VINA RESULT: -7.913789915      3.102      5.228
REMARK  6 active torsions:
REMARK  status: ('A' for Active; 'I' for Inactive)
REMARK       I    between atoms: N1_2  and  C2_4 
REMARK    1  A    between atoms: C2_4  and  C3_6 
REMARK    2  A    between atoms: C6_9  and  C7_10 
REMARK    3  A    between atoms: C9_14  and  N3_15 
REMARK    4  A    between atoms: C10_20  and  O2_21 
REMARK    5  A    between atoms: O2_21  and  C11_22 
REMARK    6  A    between atoms: C11_22  and  C12_23 
ROOT
HETATM    1  C7  UNL     1      -2.993   1.447  10.902  1.00  0.00     0.043 A 
HETATM    2  C8  UNL     1      -2.167   0.627  10.123  1.00  0.00     0.122 A 
HETATM    3  N2  UNL     1      -2.065  -0.684  10.273  1.00  0.00    -0.201 N 
ATOM      4  H2  UNL     1      -1.445  -1.231   9.676  1.00  0.00     0.183 HD
HETATM    5  C9  UNL     1      -2.793  -1.271  11.223  1.00  0.00     0.677 A 
HETATM    6  N4  UNL     1      -3.593  -0.535  11.989  1.00  0.00    -0.170 N 
ATOM      7  H4  UNL     1      -4.137  -1.012  12.707  1.00  0.00     0.186 HD
HETATM    8  C10 UNL     1      -3.731   0.818  11.873  1.00  0.00     0.174 A 
ENDROOT
BRANCH   1   9
HETATM    9  C6  UNL     1      -3.064   2.867  10.696  1.00  0.00    -0.005 A 
HETATM   10  C5  UNL     1      -4.166   3.413  10.087  1.00  0.00     0.016 A 
HETATM   11  C4  UNL     1      -4.271   4.785   9.860  1.00  0.00     0.036 A 
HETATM   12  C3  UNL     1      -3.218   5.584  10.272  1.00  0.00     0.100 A 
HETATM   13  N5  UNL     1      -2.158   5.023  10.862  1.00  0.00    -0.361 N 
HETATM   14  C18 UNL     1      -2.042   3.682  11.091  1.00  0.00     0.101 A 
ATOM     15  H5  UNL     1      -1.394   5.630  11.157  1.00  0.00     0.165 HD
BRANCH  12  16
HETATM   16  C2  UNL     1      -3.290   7.025  10.051  1.00  0.00     0.267 C 
HETATM   17  N1  UNL     1      -3.429   7.931  11.134  1.00  0.00    -0.360 N 
HETATM   18  C1  UNL     1      -3.501   9.369  10.909  1.00  0.00     0.149 C 
ATOM     19  H1  UNL     1      -3.478   7.569  12.086  1.00  0.00     0.162 HD
HETATM   20  O1  UNL     1      -3.232   7.488   8.881  1.00  0.00    -0.266 OA
ENDBRANCH  12  16
ENDBRANCH   1   9
BRANCH   8  21
HETATM   21  O2  UNL     1      -4.612   1.495  12.741  1.00  0.00    -0.303 OA
BRANCH  21  22
HETATM   22  C11 UNL     1      -4.028   2.135  13.827  1.00  0.00     0.159 C 
BRANCH  22  23
HETATM   23  C12 UNL     1      -4.716   2.057  15.101  1.00  0.00     0.030 A 
HETATM   24  C13 UNL     1      -4.560   0.889  15.845  1.00  0.00     0.047 A 
HETATM   25 CL1  UNL     1      -3.578  -0.451  15.264  1.00  0.00    -0.083 Cl
HETATM   26  C14 UNL     1      -5.173   0.738  17.072  1.00  0.00     0.025 A 
HETATM   27  C15 UNL     1      -5.958   1.745  17.592  1.00  0.00     0.003 A 
HETATM   28  C16 UNL     1      -6.125   2.909  16.872  1.00  0.00     0.025 A 
HETATM   29  C17 UNL     1      -5.496   3.050  15.626  1.00  0.00     0.047 A 
HETATM   30 CL2  UNL     1      -5.670   4.518  14.694  1.00  0.00    -0.083 Cl
ENDBRANCH  22  23
ENDBRANCH  21  22
ENDBRANCH   8  21
BRANCH   5  31
HETATM   31  N3  UNL     1      -2.748  -2.534  11.429  1.00  0.00    -0.234 N 
ATOM     32  H32 UNL     1      -3.460  -3.121  10.994  1.00  0.00     0.174 HD
ATOM     33  H31 UNL     1      -2.026  -2.961  12.009  1.00  0.00     0.174 HD
ENDBRANCH   5  31
TORSDOF 6
ENDMDL
MODEL 4
REMARK VINA RESULT: -7.906816939      3.085      5.146
REMARK  6 active torsions:
REMARK  status: ('A' for Active; 'I' for Inactive)
REMARK       I    between atoms: N1_2  and  C2_4 
REMARK    1  A    between atoms: C2_4  and  C3_6 
REMARK    2  A    between atoms: C6_9  and  C7_10 
REMARK    3  A    between atoms: C9_14  and  N3_15 
REMARK    4  A    between atoms: C10_20  and  O2_21 
REMARK    5  A    between atoms: O2_21  and  C11_22 
REMARK    6  A    between atoms: C11_22  and  C12_23 
ROOT
HETATM    1  C7  UNL     1      -2.892   1.679  10.916  1.00  0.00     0.043 A 
HETATM    2  C8  UNL     1      -2.053   0.862  10.146  1.00  0.00     0.122 A 
HETATM    3  N2  UNL     1      -1.946  -0.448  10.299  1.00  0.00    -0.201 N 
ATOM      4  H2  UNL     1      -1.318  -0.994   9.709  1.00  0.00     0.183 HD
HETATM    5  C9  UNL     1      -2.681  -1.037  11.243  1.00  0.00     0.677 A 
HETATM    6  N4  UNL     1      -3.492  -0.305  11.999  1.00  0.00    -0.170 N 
ATOM      7  H4  UNL     1      -4.041  -0.783  12.713  1.00  0.00     0.186 HD
HETATM    8  C10 UNL     1      -3.636   1.047  11.880  1.00  0.00     0.174 A 
ENDROOT
BRANCH   1   9
HETATM    9  C6  UNL     1      -2.967   3.098  10.708  1.00  0.00    -0.005 A 
HETATM   10  C5  UNL     1      -4.043   3.633  10.043  1.00  0.00     0.016 A 
HETATM   11  C4  UNL     1      -4.151   5.004   9.812  1.00  0.00     0.036 A 
HETATM   12  C3  UNL     1      -3.129   5.813  10.277  1.00  0.00     0.100 A 
HETATM   13  N5  UNL     1      -2.094   5.263  10.920  1.00  0.00    -0.361 N 
HETATM   14  C18 UNL     1      -1.975   3.924  11.154  1.00  0.00     0.101 A 
ATOM     15  H5  UNL     1      -1.352   5.878  11.254  1.00  0.00     0.165 HD
BRANCH  12  16
HETATM   16  C2  UNL     1      -3.206   7.254  10.054  1.00  0.00     0.267 C 
HETATM   17  N1  UNL     1      -3.024   8.176  11.116  1.00  0.00    -0.360 N 
HETATM   18  C1  UNL     1      -3.102   9.613  10.889  1.00  0.00     0.149 C 
ATOM     19  H1  UNL     1      -2.835   7.826  12.056  1.00  0.00     0.162 HD
HETATM   20  O1  UNL     1      -3.439   7.703   8.900  1.00  0.00    -0.266 OA
ENDBRANCH  12  16
ENDBRANCH   1   9
BRANCH   8  21
HETATM   21  O2  UNL     1      -4.529   1.721  12.739  1.00  0.00    -0.303 OA
BRANCH  21  22
HETATM   22  C11 UNL     1      -3.971   2.284  13.881  1.00  0.00     0.159 C 
BRANCH  22  23
HETATM   23  C12 UNL     1      -4.638   2.038  15.144  1.00  0.00     0.030 A 
HETATM   24  C13 UNL     1      -5.445   3.054  15.654  1.00  0.00     0.047 A 
HETATM   25 CL1  UNL     1      -5.641   4.586  14.811  1.00  0.00    -0.083 Cl
HETATM   26  C14 UNL     1      -6.122   2.896  16.845  1.00  0.00     0.025 A 
HETATM   27  C15 UNL     1      -6.017   1.722  17.562  1.00  0.00     0.003 A 
HETATM   28  C16 UNL     1      -5.224   0.705  17.074  1.00  0.00     0.025 A 
HETATM   29  C17 UNL     1      -4.541   0.878  15.861  1.00  0.00     0.047 A 
HETATM   30 CL2  UNL     1      -3.543  -0.398  15.205  1.00  0.00    -0.083 Cl
ENDBRANCH  22  23
ENDBRANCH  21  22
ENDBRANCH   8  21
BRANCH   5  31
HETATM   31  N3  UNL     1      -2.632  -2.300  11.451  1.00  0.00    -0.234 N 
ATOM     32  H32 UNL     1      -2.950  -2.926  10.710  1.00  0.00     0.174 HD
ATOM     33  H31 UNL     1      -2.286  -2.690  12.327  1.00  0.00     0.174 HD
ENDBRANCH   5  31
TORSDOF 6
ENDMDL
MODEL 5
REMARK VINA RESULT: -7.906404439      0.976      1.651
REMARK  6 active torsions:
REMARK  status: ('A' for Active; 'I' for Inactive)
REMARK       I    between atoms: N1_2  and  C2_4 
REMARK    1  A    between atoms: C2_4  and  C3_6 
REMARK    2  A    between atoms: C6_9  and  C7_10 
REMARK    3  A    between atoms: C9_14  and  N3_15 
REMARK    4  A    between atoms: C10_20  and  O2_21 
REMARK    5  A    between atoms: O2_21  and  C11_22 
REMARK    6  A    between atoms: C11_22  and  C12_23 
ROOT
HETATM    1  C7  UNL     1      -3.967   3.282  14.741  1.00  0.00     0.043 A 
HETATM    2  C8  UNL     1      -3.499   2.652  15.902  1.00  0.00     0.122 A 
HETATM    3  N2  UNL     1      -3.366   1.342  16.036  1.00  0.00    -0.201 N 
ATOM      4  H2  UNL     1      -3.020   0.938  16.905  1.00  0.00     0.183 HD
HETATM    5  C9  UNL     1      -3.694   0.564  15.004  1.00  0.00     0.677 A 
HETATM    6  N4  UNL     1      -4.143   1.115  13.880  1.00  0.00    -0.170 N 
ATOM      7  H4  UNL     1      -4.386   0.494  13.108  1.00  0.00     0.186 HD
HETATM    8  C10 UNL     1      -4.298   2.458  13.695  1.00  0.00     0.174 A 
ENDROOT
BRANCH   1   9
HETATM    9  C6  UNL     1      -4.094   4.710  14.651  1.00  0.00    -0.005 A 
HETATM   10  C5  UNL     1      -5.314   5.301  14.868  1.00  0.00     0.016 A 
HETATM   11  C4  UNL     1      -5.482   6.683  14.781  1.00  0.00     0.036 A 
HETATM   12  C3  UNL     1      -4.370   7.444  14.467  1.00  0.00     0.100 A 
HETATM   13  N5  UNL     1      -3.195   6.840  14.261  1.00  0.00    -0.361 N 
HETATM   14  C18 UNL     1      -3.016   5.490  14.342  1.00  0.00     0.101 A 
ATOM     15  H5  UNL     1      -2.389   7.420  14.030  1.00  0.00     0.165 HD
BRANCH  12  16
HETATM   16  C2  UNL     1      -4.506   8.894  14.367  1.00  0.00     0.267 C 
HETATM   17  N1  UNL     1      -3.884   9.623  13.321  1.00  0.00    -0.360 N 
HETATM   18  C1  UNL     1      -4.022  11.071  13.226  1.00  0.00     0.149 C 
ATOM     19  H1  UNL     1      -3.331   9.124  12.624  1.00  0.00     0.162 HD
HETATM   20  O1  UNL     1      -5.186   9.525  15.220  1.00  0.00    -0.266 OA
ENDBRANCH  12  16
ENDBRANCH   1   9
BRANCH   8  21
HETATM   21  O2  UNL     1      -4.783   2.929  12.457  1.00  0.00    -0.303 OA
BRANCH  21  22
HETATM   22  C11 UNL     1      -4.372   2.225  11.332  1.00  0.00     0.159 C 
BRANCH  22  23
HETATM   23  C12 UNL     1      -2.958   2.238  11.013  1.00  0.00     0.030 A 
HETATM   24  C13 UNL     1      -2.309   1.009  10.918  1.00  0.00     0.047 A 
HETATM   25 CL1  UNL     1      -3.162  -0.507  11.185  1.00  0.00    -0.083 Cl
HETATM   26  C14 UNL     1      -0.967   0.933  10.609  1.00  0.00     0.025 A 
HETATM   27  C15 UNL     1      -0.233   2.080  10.385  1.00  0.00     0.003 A 
HETATM   28  C16 UNL     1      -0.856   3.306  10.474  1.00  0.00     0.025 A 
HETATM   29  C17 UNL     1      -2.222   3.369  10.789  1.00  0.00     0.047 A 
HETATM   30 CL2  UNL     1      -3.049   4.905  10.892  1.00  0.00    -0.083 Cl
ENDBRANCH  22  23
ENDBRANCH  21  22
ENDBRANCH   8  21
BRANCH   5  31
HETATM   31  N3  UNL     1      -3.592  -0.711  15.057  1.00  0.00    -0.234 N 
ATOM     32  H32 UNL     1      -4.388  -1.274  14.758  1.00  0.00     0.174 HD
ATOM     33  H31 UNL     1      -2.744  -1.171  15.388  1.00  0.00     0.174 HD
ENDBRANCH   5  31
TORSDOF 6
ENDMDL
