MODEL 1
REMARK VINA RESULT: -5.924881239      0.000      0.000
REMARK  10 active torsions:
REMARK  status: ('A' for Active; 'I' for Inactive)
REMARK    1  A    between atoms: C2_2  and  N1_3 
REMARK    2  A    between atoms: N1_3  and  C3_5 
REMARK    3  A    between atoms: C5_11  and  N4_12 
REMARK    4  A    between atoms: N4_12  and  C6_14 
REMARK    5  A    between atoms: C6_14  and  C7_15 
REMARK    6  A    between atoms: C6_14  and  C8_20 
REMARK    7  A    between atoms: C7_15  and  N5_16 
REMARK    8  A    between atoms: C8_20  and  C9_21 
REMARK    9  A    between atoms: C9_21  and  N6_22 
REMARK   10  A    between atoms: C13_30  and  N9_31 
ROOT
HETATM    1  C6  UNL     1     -26.300  27.017  -0.985  1.00  0.00     0.126 C 
ENDROOT
BRANCH   1   2
HETATM    2  N4  UNL     1     -24.907  26.934  -1.102  1.00  0.00    -0.219 N 
ATOM      3  H4  UNL     1     -24.438  26.796  -0.207  1.00  0.00     0.178 HD
BRANCH   2   4
HETATM    4  C5  UNL     1     -24.108  26.992  -2.077  1.00  0.00     0.693 A 
HETATM    5  N3  UNL     1     -24.374  26.338  -3.208  1.00  0.00    -0.187 N 
HETATM    6  C4  UNL     1     -23.530  26.394  -4.253  1.00  0.00     0.215 A 
ATOM      7  H3  UNL     1     -25.230  25.789  -3.282  1.00  0.00     0.185 HD
HETATM    8  N2  UNL     1     -22.402  27.129  -4.128  1.00  0.00    -0.187 N 
HETATM    9  C3  UNL     1     -22.096  27.802  -3.007  1.00  0.00     0.693 A 
ATOM     10  H2  UNL     1     -21.758  27.175  -4.916  1.00  0.00     0.185 HD
HETATM   11  N11 UNL     1     -22.966  27.719  -1.992  1.00  0.00    -0.022 N 
ATOM     12  H11 UNL     1     -22.764  28.220  -1.127  1.00  0.00     0.203 HD
BRANCH   9  13
HETATM   13  N1  UNL     1     -21.007  28.480  -2.967  1.00  0.00    -0.226 N 
ATOM     14  H1  UNL     1     -20.135  27.968  -3.106  1.00  0.00     0.177 HD
BRANCH  13  15
HETATM   15  C2  UNL     1     -20.912  29.883  -2.746  1.00  0.00     0.133 C 
HETATM   16  C1  UNL     1     -19.652  30.309  -2.065  1.00  0.00     0.027 C 
ENDBRANCH  13  15
ENDBRANCH   9  13
ENDBRANCH   2   4
ENDBRANCH   1   2
BRANCH   1  17
HETATM   17  C7  UNL     1     -26.937  26.081   0.027  1.00  0.00     0.255 C 
BRANCH  17  18
HETATM   18  N5  UNL     1     -26.142  25.976   1.233  1.00  0.00    -0.077 N 
ATOM     19  H53 UNL     1     -25.993  25.002   1.497  1.00  0.00     0.274 HD
ATOM     20  H52 UNL     1     -25.172  26.244   1.063  1.00  0.00     0.274 HD
ATOM     21  H51 UNL     1     -26.547  26.512   2.001  1.00  0.00     0.274 HD
ENDBRANCH  17  18
ENDBRANCH   1  17
BRANCH   1  22
HETATM   22  C8  UNL     1     -26.814  28.424  -0.775  1.00  0.00     0.048 C 
BRANCH  22  23
HETATM   23  C9  UNL     1     -25.818  29.484  -0.545  1.00  0.00     0.136 C 
BRANCH  23  24
HETATM   24  N6  UNL     1     -25.531  29.859   0.824  1.00  0.00    -0.293 N 
HETATM   25  C10 UNL     1     -24.788  29.231   1.745  1.00  0.00     0.330 A 
HETATM   26  O1  UNL     1     -24.182  28.145   1.589  1.00  0.00    -0.246 OA
HETATM   27  N7  UNL     1     -24.751  29.893   2.903  1.00  0.00    -0.287 N 
HETATM   28  C11 UNL     1     -24.045  29.524   4.139  1.00  0.00     0.163 C 
HETATM   29  C12 UNL     1     -25.488  31.001   2.775  1.00  0.00     0.157 A 
HETATM   30  N8  UNL     1     -25.797  31.990   3.589  1.00  0.00    -0.174 N 
HETATM   31  C15 UNL     1     -25.981  30.982   1.469  1.00  0.00     0.122 A 
HETATM   32  C13 UNL     1     -26.599  33.030   3.221  1.00  0.00     0.678 A 
ATOM     33  H8  UNL     1     -25.419  31.978   4.536  1.00  0.00     0.186 HD
HETATM   34  N10 UNL     1     -27.106  33.047   1.950  1.00  0.00    -0.179 N 
HETATM   35  C14 UNL     1     -26.781  32.030   1.131  1.00  0.00     0.147 A 
ATOM     36  H10 UNL     1     -27.710  33.806   1.634  1.00  0.00     0.185 HD
HETATM   37  S1  UNL     1     -27.449  32.057  -0.365  1.00  0.00    -0.057 SA
BRANCH  32  38
HETATM   38  N9  UNL     1     -26.865  33.920   3.989  1.00  0.00    -0.234 N 
ATOM     39  H92 UNL     1     -27.584  33.784   4.700  1.00  0.00     0.174 HD
ATOM     40  H91 UNL     1     -26.384  34.819   3.948  1.00  0.00     0.174 HD
ENDBRANCH  32  38
ENDBRANCH  23  24
ENDBRANCH  22  23
ENDBRANCH   1  22
TORSDOF 10
ENDMDL
MODEL 2
REMARK VINA RESULT: -5.874719432      2.124      4.334
REMARK  10 active torsions:
REMARK  status: ('A' for Active; 'I' for Inactive)
REMARK    1  A    between atoms: C2_2  and  N1_3 
REMARK    2  A    between atoms: N1_3  and  C3_5 
REMARK    3  A    between atoms: C5_11  and  N4_12 
REMARK    4  A    between atoms: N4_12  and  C6_14 
REMARK    5  A    between atoms: C6_14  and  C7_15 
REMARK    6  A    between atoms: C6_14  and  C8_20 
REMARK    7  A    between atoms: C7_15  and  N5_16 
REMARK    8  A    between atoms: C8_20  and  C9_21 
REMARK    9  A    between atoms: C9_21  and  N6_22 
REMARK   10  A    between atoms: C13_30  and  N9_31 
ROOT
HETATM    1  C6  UNL     1     -23.476  28.113  -2.398  1.00  0.00     0.126 C 
ENDROOT
BRANCH   1   2
HETATM    2  N4  UNL     1     -23.894  26.980  -1.688  1.00  0.00    -0.219 N 
ATOM      3  H4  UNL     1     -23.560  26.107  -2.095  1.00  0.00     0.178 HD
BRANCH   2   4
HETATM    4  C5  UNL     1     -24.595  26.808  -0.653  1.00  0.00     0.693 A 
HETATM    5  N3  UNL     1     -25.769  26.180  -0.730  1.00  0.00    -0.187 N 
HETATM    6  C4  UNL     1     -26.524  25.990   0.366  1.00  0.00     0.215 A 
ATOM      7  H3  UNL     1     -26.099  25.839  -1.633  1.00  0.00     0.185 HD
HETATM    8  N2  UNL     1     -26.063  26.453   1.550  1.00  0.00    -0.187 N 
HETATM    9  C3  UNL     1     -24.888  27.090   1.671  1.00  0.00     0.693 A 
ATOM     10  H2  UNL     1     -26.632  26.312   2.385  1.00  0.00     0.185 HD
HETATM   11  N11 UNL     1     -24.169  27.256   0.554  1.00  0.00    -0.022 N 
ATOM     12  H11 UNL     1     -23.270  27.735   0.613  1.00  0.00     0.203 HD
BRANCH   9  13
HETATM   13  N1  UNL     1     -24.520  27.498   2.831  1.00  0.00    -0.226 N 
ATOM     14  H1  UNL     1     -25.141  27.297   3.615  1.00  0.00     0.177 HD
BRANCH  13  15
HETATM   15  C2  UNL     1     -23.318  28.206   3.117  1.00  0.00     0.133 C 
HETATM   16  C1  UNL     1     -23.062  28.409   4.576  1.00  0.00     0.027 C 
ENDBRANCH  13  15
ENDBRANCH   9  13
ENDBRANCH   2   4
ENDBRANCH   1   2
BRANCH   1  17
HETATM   17  C7  UNL     1     -22.291  27.911  -3.327  1.00  0.00     0.255 C 
BRANCH  17  18
HETATM   18  N5  UNL     1     -21.082  28.495  -2.785  1.00  0.00    -0.077 N 
ATOM     19  H53 UNL     1     -21.128  29.514  -2.784  1.00  0.00     0.274 HD
ATOM     20  H52 UNL     1     -21.010  28.337  -1.780  1.00  0.00     0.274 HD
ATOM     21  H51 UNL     1     -20.250  28.162  -3.274  1.00  0.00     0.274 HD
ENDBRANCH  17  18
ENDBRANCH   1  17
BRANCH   1  22
HETATM   22  C8  UNL     1     -24.591  28.818  -3.137  1.00  0.00     0.048 C 
BRANCH  22  23
HETATM   23  C9  UNL     1     -25.028  30.126  -2.622  1.00  0.00     0.136 C 
BRANCH  23  24
HETATM   24  N6  UNL     1     -24.373  30.641  -1.437  1.00  0.00    -0.293 N 
HETATM   25  C10 UNL     1     -23.146  31.160  -1.296  1.00  0.00     0.330 A 
HETATM   26  O1  UNL     1     -22.291  31.294  -2.203  1.00  0.00    -0.246 OA
HETATM   27  N7  UNL     1     -22.897  31.536  -0.039  1.00  0.00    -0.287 N 
HETATM   28  C11 UNL     1     -21.673  32.144   0.502  1.00  0.00     0.163 C 
HETATM   29  C12 UNL     1     -23.979  31.269   0.699  1.00  0.00     0.157 A 
HETATM   30  N8  UNL     1     -24.275  31.424   1.973  1.00  0.00    -0.174 N 
HETATM   31  C15 UNL     1     -24.909  30.704  -0.176  1.00  0.00     0.122 A 
HETATM   32  C13 UNL     1     -25.473  31.050   2.508  1.00  0.00     0.678 A 
ATOM     33  H8  UNL     1     -23.577  31.842   2.588  1.00  0.00     0.186 HD
HETATM   34  N10 UNL     1     -26.411  30.490   1.684  1.00  0.00    -0.179 N 
HETATM   35  C14 UNL     1     -26.093  30.339   0.384  1.00  0.00     0.147 A 
ATOM     36  H10 UNL     1     -27.319  30.197   2.041  1.00  0.00     0.185 HD
HETATM   37  S1  UNL     1     -27.219  29.616  -0.561  1.00  0.00    -0.057 SA
BRANCH  32  38
HETATM   38  N9  UNL     1     -25.714  31.204   3.678  1.00  0.00    -0.234 N 
ATOM     39  H92 UNL     1     -25.965  30.403   4.258  1.00  0.00     0.174 HD
ATOM     40  H91 UNL     1     -25.673  32.126   4.113  1.00  0.00     0.174 HD
ENDBRANCH  32  38
ENDBRANCH  23  24
ENDBRANCH  22  23
ENDBRANCH   1  22
TORSDOF 10
ENDMDL
MODEL 3
REMARK VINA RESULT: -5.817624450      2.189      4.422
REMARK  10 active torsions:
REMARK  status: ('A' for Active; 'I' for Inactive)
REMARK    1  A    between atoms: C2_2  and  N1_3 
REMARK    2  A    between atoms: N1_3  and  C3_5 
REMARK    3  A    between atoms: C5_11  and  N4_12 
REMARK    4  A    between atoms: N4_12  and  C6_14 
REMARK    5  A    between atoms: C6_14  and  C7_15 
REMARK    6  A    between atoms: C6_14  and  C8_20 
REMARK    7  A    between atoms: C7_15  and  N5_16 
REMARK    8  A    between atoms: C8_20  and  C9_21 
REMARK    9  A    between atoms: C9_21  and  N6_22 
REMARK   10  A    between atoms: C13_30  and  N9_31 
ROOT
HETATM    1  C6  UNL     1     -23.275  30.915  -1.539  1.00  0.00     0.126 C 
ENDROOT
BRANCH   1   2
HETATM    2  N4  UNL     1     -23.743  30.078  -2.560  1.00  0.00    -0.219 N 
ATOM      3  H4  UNL     1     -24.134  30.591  -3.350  1.00  0.00     0.178 HD
BRANCH   2   4
HETATM    4  C5  UNL     1     -23.785  28.827  -2.712  1.00  0.00     0.693 A 
HETATM    5  N3  UNL     1     -24.173  28.301  -3.876  1.00  0.00    -0.187 N 
HETATM    6  C4  UNL     1     -24.222  26.969  -4.050  1.00  0.00     0.215 A 
ATOM      7  H3  UNL     1     -24.436  28.919  -4.644  1.00  0.00     0.185 HD
HETATM    8  N2  UNL     1     -23.868  26.174  -3.015  1.00  0.00    -0.187 N 
HETATM    9  C3  UNL     1     -23.473  26.661  -1.829  1.00  0.00     0.693 A 
ATOM     10  H2  UNL     1     -23.903  25.163  -3.141  1.00  0.00     0.185 HD
HETATM   11  N11 UNL     1     -23.439  27.994  -1.700  1.00  0.00    -0.022 N 
ATOM     12  H11 UNL     1     -23.142  28.396  -0.811  1.00  0.00     0.203 HD
BRANCH   9  13
HETATM   13  N1  UNL     1     -23.152  25.840  -0.896  1.00  0.00    -0.226 N 
ATOM     14  H1  UNL     1     -22.218  25.932  -0.495  1.00  0.00     0.177 HD
BRANCH  13  15
HETATM   15  C2  UNL     1     -23.987  24.812  -0.374  1.00  0.00     0.133 C 
HETATM   16  C1  UNL     1     -23.469  23.429  -0.603  1.00  0.00     0.027 C 
ENDBRANCH  13  15
ENDBRANCH   9  13
ENDBRANCH   2   4
ENDBRANCH   1   2
BRANCH   1  17
HETATM   17  C7  UNL     1     -21.887  31.497  -1.745  1.00  0.00     0.255 C 
BRANCH  17  18
HETATM   18  N5  UNL     1     -20.852  30.557  -1.369  1.00  0.00    -0.077 N 
ATOM     19  H53 UNL     1     -20.327  30.236  -2.183  1.00  0.00     0.274 HD
ATOM     20  H52 UNL     1     -20.095  31.019  -0.864  1.00  0.00     0.274 HD
ATOM     21  H51 UNL     1     -21.229  29.772  -0.837  1.00  0.00     0.274 HD
ENDBRANCH  17  18
ENDBRANCH   1  17
BRANCH   1  22
HETATM   22  C8  UNL     1     -24.240  32.016  -1.159  1.00  0.00     0.048 C 
BRANCH  22  23
HETATM   23  C9  UNL     1     -25.155  31.759  -0.035  1.00  0.00     0.136 C 
BRANCH  23  24
HETATM   24  N6  UNL     1     -25.014  30.509   0.683  1.00  0.00    -0.293 N 
HETATM   25  C10 UNL     1     -24.179  30.185   1.678  1.00  0.00     0.330 A 
HETATM   26  O1  UNL     1     -23.316  30.934   2.192  1.00  0.00    -0.246 OA
HETATM   27  N7  UNL     1     -24.351  28.928   2.093  1.00  0.00    -0.287 N 
HETATM   28  C11 UNL     1     -23.629  28.215   3.158  1.00  0.00     0.163 C 
HETATM   29  C12 UNL     1     -25.326  28.376   1.365  1.00  0.00     0.157 A 
HETATM   30  N8  UNL     1     -25.887  27.184   1.344  1.00  0.00    -0.174 N 
HETATM   31  C15 UNL     1     -25.745  29.368   0.475  1.00  0.00     0.122 A 
HETATM   32  C13 UNL     1     -26.883  26.848   0.474  1.00  0.00     0.678 A 
ATOM     33  H8  UNL     1     -25.563  26.482   2.008  1.00  0.00     0.186 HD
HETATM   34  N10 UNL     1     -27.320  27.791  -0.416  1.00  0.00    -0.179 N 
HETATM   35  C14 UNL     1     -26.737  29.004  -0.382  1.00  0.00     0.147 A 
ATOM     36  H10 UNL     1     -28.062  27.582  -1.083  1.00  0.00     0.185 HD
HETATM   37  S1  UNL     1     -27.249  30.089  -1.497  1.00  0.00    -0.057 SA
BRANCH  32  38
HETATM   38  N9  UNL     1     -27.376  25.748   0.479  1.00  0.00    -0.234 N 
ATOM     39  H92 UNL     1     -28.201  25.560   1.048  1.00  0.00     0.174 HD
ATOM     40  H91 UNL     1     -26.986  24.989  -0.079  1.00  0.00     0.174 HD
ENDBRANCH  32  38
ENDBRANCH  23  24
ENDBRANCH  22  23
ENDBRANCH   1  22
TORSDOF 10
ENDMDL
MODEL 4
REMARK VINA RESULT: -5.808130881      2.479      4.479
REMARK  10 active torsions:
REMARK  status: ('A' for Active; 'I' for Inactive)
REMARK    1  A    between atoms: C2_2  and  N1_3 
REMARK    2  A    between atoms: N1_3  and  C3_5 
REMARK    3  A    between atoms: C5_11  and  N4_12 
REMARK    4  A    between atoms: N4_12  and  C6_14 
REMARK    5  A    between atoms: C6_14  and  C7_15 
REMARK    6  A    between atoms: C6_14  and  C8_20 
REMARK    7  A    between atoms: C7_15  and  N5_16 
REMARK    8  A    between atoms: C8_20  and  C9_21 
REMARK    9  A    between atoms: C9_21  and  N6_22 
REMARK   10  A    between atoms: C13_30  and  N9_31 
ROOT
HETATM    1  C6  UNL     1     -23.444  30.569  -1.785  1.00  0.00     0.126 C 
ENDROOT
BRANCH   1   2
HETATM    2  N4  UNL     1     -23.667  29.623  -2.793  1.00  0.00    -0.219 N 
ATOM      3  H4  UNL     1     -23.806  30.043  -3.712  1.00  0.00     0.178 HD
BRANCH   2   4
HETATM    4  C5  UNL     1     -23.734  28.363  -2.809  1.00  0.00     0.693 A 
HETATM    5  N3  UNL     1     -24.071  27.720  -3.928  1.00  0.00    -0.187 N 
HETATM    6  C4  UNL     1     -24.146  26.378  -3.958  1.00  0.00     0.215 A 
ATOM      7  H3  UNL     1     -24.276  28.254  -4.773  1.00  0.00     0.185 HD
HETATM    8  N2  UNL     1     -23.869  25.696  -2.823  1.00  0.00    -0.187 N 
HETATM    9  C3  UNL     1     -23.526  26.304  -1.677  1.00  0.00     0.693 A 
ATOM     10  H2  UNL     1     -23.924  24.677  -2.839  1.00  0.00     0.185 HD
HETATM   11  N11 UNL     1     -23.464  27.642  -1.694  1.00  0.00    -0.022 N 
ATOM     12  H11 UNL     1     -23.205  28.134  -0.839  1.00  0.00     0.203 HD
BRANCH   9  13
HETATM   13  N1  UNL     1     -23.278  25.585  -0.643  1.00  0.00    -0.226 N 
ATOM     14  H1  UNL     1     -22.430  25.801  -0.119  1.00  0.00     0.177 HD
BRANCH  13  15
HETATM   15  C2  UNL     1     -24.085  24.514  -0.165  1.00  0.00     0.133 C 
HETATM   16  C1  UNL     1     -23.530  23.156  -0.454  1.00  0.00     0.027 C 
ENDBRANCH  13  15
ENDBRANCH   9  13
ENDBRANCH   2   4
ENDBRANCH   1   2
BRANCH   1  17
HETATM   17  C7  UNL     1     -22.151  31.359  -1.893  1.00  0.00     0.255 C 
BRANCH  17  18
HETATM   18  N5  UNL     1     -21.026  30.617  -1.364  1.00  0.00    -0.077 N 
ATOM     19  H53 UNL     1     -21.331  29.776  -0.873  1.00  0.00     0.274 HD
ATOM     20  H52 UNL     1     -20.487  30.177  -2.111  1.00  0.00     0.274 HD
ATOM     21  H51 UNL     1     -20.434  31.199  -0.771  1.00  0.00     0.274 HD
ENDBRANCH  17  18
ENDBRANCH   1  17
BRANCH   1  22
HETATM   22  C8  UNL     1     -24.604  31.515  -1.566  1.00  0.00     0.048 C 
BRANCH  22  23
HETATM   23  C9  UNL     1     -25.374  31.368  -0.319  1.00  0.00     0.136 C 
BRANCH  23  24
HETATM   24  N6  UNL     1     -25.488  30.044   0.256  1.00  0.00    -0.293 N 
HETATM   25  C10 UNL     1     -26.276  29.022  -0.102  1.00  0.00     0.330 A 
HETATM   26  O1  UNL     1     -27.109  29.023  -1.039  1.00  0.00    -0.246 OA
HETATM   27  N7  UNL     1     -26.092  27.948   0.669  1.00  0.00    -0.287 N 
HETATM   28  C11 UNL     1     -26.766  26.643   0.586  1.00  0.00     0.163 C 
HETATM   29  C12 UNL     1     -25.157  28.240   1.578  1.00  0.00     0.157 A 
HETATM   30  N8  UNL     1     -24.605  27.569   2.568  1.00  0.00    -0.174 N 
HETATM   31  C15 UNL     1     -24.775  29.559   1.322  1.00  0.00     0.122 A 
HETATM   32  C13 UNL     1     -23.654  28.103   3.388  1.00  0.00     0.678 A 
ATOM     33  H8  UNL     1     -24.901  26.607   2.729  1.00  0.00     0.186 HD
HETATM   34  N10 UNL     1     -23.256  29.394   3.172  1.00  0.00    -0.179 N 
HETATM   35  C14 UNL     1     -23.828  30.066   2.156  1.00  0.00     0.147 A 
ATOM     36  H10 UNL     1     -22.548  29.833   3.761  1.00  0.00     0.185 HD
HETATM   37  S1  UNL     1     -23.365  31.626   1.962  1.00  0.00    -0.057 SA
BRANCH  32  38
HETATM   38  N9  UNL     1     -23.169  27.464   4.287  1.00  0.00    -0.234 N 
ATOM     39  H92 UNL     1     -23.767  26.918   4.906  1.00  0.00     0.174 HD
ATOM     40  H91 UNL     1     -22.162  27.452   4.447  1.00  0.00     0.174 HD
ENDBRANCH  32  38
ENDBRANCH  23  24
ENDBRANCH  22  23
ENDBRANCH   1  22
TORSDOF 10
ENDMDL
MODEL 5
REMARK VINA RESULT: -5.804576235      2.533      3.347
REMARK  10 active torsions:
REMARK  status: ('A' for Active; 'I' for Inactive)
REMARK    1  A    between atoms: C2_2  and  N1_3 
REMARK    2  A    between atoms: N1_3  and  C3_5 
REMARK    3  A    between atoms: C5_11  and  N4_12 
REMARK    4  A    between atoms: N4_12  and  C6_14 
REMARK    5  A    between atoms: C6_14  and  C7_15 
REMARK    6  A    between atoms: C6_14  and  C8_20 
REMARK    7  A    between atoms: C7_15  and  N5_16 
REMARK    8  A    between atoms: C8_20  and  C9_21 
REMARK    9  A    between atoms: C9_21  and  N6_22 
REMARK   10  A    between atoms: C13_30  and  N9_31 
ROOT
HETATM    1  C6  UNL     1     -25.362  25.969  -0.914  1.00  0.00     0.126 C 
ENDROOT
BRANCH   1   2
HETATM    2  N4  UNL     1     -24.940  26.808  -1.953  1.00  0.00    -0.219 N 
ATOM      3  H4  UNL     1     -24.677  26.299  -2.796  1.00  0.00     0.178 HD
BRANCH   2   4
HETATM    4  C5  UNL     1     -24.816  28.058  -2.070  1.00  0.00     0.693 A 
HETATM    5  N3  UNL     1     -25.601  28.739  -2.907  1.00  0.00    -0.187 N 
HETATM    6  C4  UNL     1     -25.478  30.071  -3.039  1.00  0.00     0.215 A 
ATOM      7  H3  UNL     1     -26.303  28.241  -3.454  1.00  0.00     0.185 HD
HETATM    8  N2  UNL     1     -24.538  30.704  -2.302  1.00  0.00    -0.187 N 
HETATM    9  C3  UNL     1     -23.728  30.058  -1.449  1.00  0.00     0.693 A 
ATOM     10  H2  UNL     1     -24.439  31.715  -2.399  1.00  0.00     0.185 HD
HETATM   11  N11 UNL     1     -23.886  28.732  -1.348  1.00  0.00    -0.022 N 
ATOM     12  H11 UNL     1     -23.287  28.211  -0.708  1.00  0.00     0.203 HD
BRANCH   9  13
HETATM   13  N1  UNL     1     -22.862  30.731  -0.784  1.00  0.00    -0.226 N 
ATOM     14  H1  UNL     1     -22.127  30.206  -0.310  1.00  0.00     0.177 HD
BRANCH  13  15
HETATM   15  C2  UNL     1     -22.838  32.149  -0.651  1.00  0.00     0.133 C 
HETATM   16  C1  UNL     1     -21.628  32.676   0.050  1.00  0.00     0.027 C 
ENDBRANCH  13  15
ENDBRANCH   9  13
ENDBRANCH   2   4
ENDBRANCH   1   2
BRANCH   1  17
HETATM   17  C7  UNL     1     -24.296  25.579   0.096  1.00  0.00     0.255 C 
BRANCH  17  18
HETATM   18  N5  UNL     1     -23.005  25.394  -0.533  1.00  0.00    -0.077 N 
ATOM     19  H53 UNL     1     -22.877  24.431  -0.844  1.00  0.00     0.274 HD
ATOM     20  H52 UNL     1     -22.963  25.861  -1.439  1.00  0.00     0.274 HD
ATOM     21  H51 UNL     1     -22.243  25.693   0.076  1.00  0.00     0.274 HD
ENDBRANCH  17  18
ENDBRANCH   1  17
BRANCH   1  22
HETATM   22  C8  UNL     1     -26.596  26.461  -0.191  1.00  0.00     0.048 C 
BRANCH  22  23
HETATM   23  C9  UNL     1     -26.396  27.229   1.049  1.00  0.00     0.136 C 
BRANCH  23  24
HETATM   24  N6  UNL     1     -26.418  28.674   0.963  1.00  0.00    -0.293 N 
HETATM   25  C10 UNL     1     -27.166  29.473   0.191  1.00  0.00     0.330 A 
HETATM   26  O1  UNL     1     -28.019  29.102  -0.648  1.00  0.00    -0.246 OA
HETATM   27  N7  UNL     1     -26.906  30.766   0.400  1.00  0.00    -0.287 N 
HETATM   28  C11 UNL     1     -27.520  31.933  -0.251  1.00  0.00     0.163 C 
HETATM   29  C12 UNL     1     -25.957  30.856   1.336  1.00  0.00     0.157 A 
HETATM   30  N8  UNL     1     -25.331  31.865   1.907  1.00  0.00    -0.174 N 
HETATM   31  C15 UNL     1     -25.646  29.542   1.692  1.00  0.00     0.122 A 
HETATM   32  C13 UNL     1     -24.363  31.698   2.854  1.00  0.00     0.678 A 
ATOM     33  H8  UNL     1     -25.582  32.813   1.629  1.00  0.00     0.186 HD
HETATM   34  N10 UNL     1     -24.027  30.425   3.228  1.00  0.00    -0.179 N 
HETATM   35  C14 UNL     1     -24.676  29.405   2.636  1.00  0.00     0.147 A 
ATOM     36  H10 UNL     1     -23.309  30.255   3.932  1.00  0.00     0.185 HD
HETATM   37  S1  UNL     1     -24.210  27.896   3.070  1.00  0.00    -0.057 SA
BRANCH  32  38
HETATM   38  N9  UNL     1     -23.808  32.641   3.357  1.00  0.00    -0.234 N 
ATOM     39  H92 UNL     1     -23.427  33.383   2.770  1.00  0.00     0.174 HD
ATOM     40  H91 UNL     1     -23.706  32.721   4.369  1.00  0.00     0.174 HD
ENDBRANCH  32  38
ENDBRANCH  23  24
ENDBRANCH  22  23
ENDBRANCH   1  22
TORSDOF 10
ENDMDL
