MODEL 1
REMARK VINA RESULT: -6.735422686      0.000      0.000
REMARK  10 active torsions:
REMARK  status: ('A' for Active; 'I' for Inactive)
REMARK    1  A    between atoms: N2_3  and  C2_5 
REMARK    2  A    between atoms: C7_13  and  C8_14 
REMARK    3  A    between atoms: C8_14  and  N4_15 
REMARK    4  A    between atoms: N4_15  and  O1_16 
REMARK       I    between atoms: N4_15  and  C9_20 
REMARK    5  A    between atoms: O1_16  and  N5_17 
REMARK    6  A    between atoms: C10_23  and  O3_24 
REMARK    7  A    between atoms: C10_23  and  C13_29 
REMARK    8  A    between atoms: O3_24  and  C11_25 
REMARK    9  A    between atoms: C11_25  and  C12_26 
REMARK   10  A    between atoms: C12_26  and  O4_27 
ROOT
HETATM    1  N1  UNL     1     -28.395  31.028   6.616  1.00  0.00    -0.171 NA
HETATM    2  C1  UNL     1     -27.538  30.906   5.851  1.00  0.00     0.196 C 
HETATM    3  N2  UNL     1     -26.501  30.752   4.938  1.00  0.00    -0.126 N 
ATOM      4  H2  UNL     1     -25.780  30.046   5.088  1.00  0.00     0.197 HD
ENDROOT
BRANCH   3   5
HETATM    5  C2  UNL     1     -26.463  31.593   3.795  1.00  0.00     0.689 C 
HETATM    6  N3  UNL     1     -26.842  32.836   3.987  1.00  0.00    -0.225 N 
HETATM    7  C3  UNL     1     -26.909  33.908   3.029  1.00  0.00     0.138 C 
ATOM      8  H3  UNL     1     -27.126  33.072   4.938  1.00  0.00     0.177 HD
HETATM    9  C4  UNL     1     -27.551  33.450   1.739  1.00  0.00     0.023 C 
HETATM   10  C5  UNL     1     -26.566  32.672   0.876  1.00  0.00     0.039 C 
HETATM   11  C6  UNL     1     -26.592  31.248   1.326  1.00  0.00     0.169 C 
HETATM   12  S1  UNL     1     -25.847  30.069   0.228  1.00  0.00    -0.127 SA
HETATM   13  N7  UNL     1     -26.018  30.955   2.593  1.00  0.00    -0.159 N 
HETATM   14  C7  UNL     1     -25.371  28.908   1.666  1.00  0.00     0.158 C 
HETATM   15  C10 UNL     1     -24.914  29.939   2.561  1.00  0.00     0.260 C 
BRANCH  14  16
HETATM   16  C8  UNL     1     -24.769  27.882   0.895  1.00  0.00     0.124 C 
BRANCH  16  17
HETATM   17  N4  UNL     1     -25.217  26.600   0.598  1.00  0.00    -0.162 N 
HETATM   18  C9  UNL     1     -24.437  25.604   0.006  1.00  0.00     0.360 C 
HETATM   19  N6  UNL     1     -23.106  25.860  -0.386  1.00  0.00    -0.037 NA
HETATM   20  O2  UNL     1     -24.909  24.463  -0.189  1.00  0.00    -0.248 OA
BRANCH  17  21
HETATM   21  O1  UNL     1     -26.522  26.274   0.910  1.00  0.00    -0.154 OA
BRANCH  21  22
HETATM   22  N5  UNL     1     -27.200  26.387  -0.253  1.00  0.00    -0.285 N 
ATOM     23  H52 UNL     1     -26.947  25.973  -1.150  1.00  0.00     0.186 HD
ATOM     24  H51 UNL     1     -28.008  26.969  -0.033  1.00  0.00     0.186 HD
ENDBRANCH  21  22
ENDBRANCH  17  21
ENDBRANCH  16  17
ENDBRANCH  14  16
BRANCH  15  25
HETATM   25  O3  UNL     1     -24.662  29.680   3.876  1.00  0.00    -0.348 OA
BRANCH  25  26
HETATM   26  C11 UNL     1     -23.600  29.054   4.327  1.00  0.00     0.197 C 
BRANCH  26  27
HETATM   27  C12 UNL     1     -22.821  29.680   5.486  1.00  0.00     0.190 C 
BRANCH  27  28
HETATM   28  O4  UNL     1     -22.121  30.794   5.120  1.00  0.00    -0.399 OA
ATOM     29  H4  UNL     1     -21.410  30.605   4.519  1.00  0.00     0.209 HD
ENDBRANCH  27  28
ENDBRANCH  26  27
ENDBRANCH  25  26
ENDBRANCH  15  25
BRANCH  15  30
HETATM   30  C13 UNL     1     -23.775  30.760   2.044  1.00  0.00     0.234 C 
HETATM   31  O5  UNL     1     -23.564  31.864   2.602  1.00  0.00    -0.644 OA
HETATM   32  O6  UNL     1     -22.933  30.437   1.024  1.00  0.00    -0.644 OA
ENDBRANCH  15  30
ENDBRANCH   3   5
TORSDOF 10
ENDMDL
MODEL 2
REMARK VINA RESULT: -6.437461032      2.861      6.155
REMARK  10 active torsions:
REMARK  status: ('A' for Active; 'I' for Inactive)
REMARK    1  A    between atoms: N2_3  and  C2_5 
REMARK    2  A    between atoms: C7_13  and  C8_14 
REMARK    3  A    between atoms: C8_14  and  N4_15 
REMARK    4  A    between atoms: N4_15  and  O1_16 
REMARK       I    between atoms: N4_15  and  C9_20 
REMARK    5  A    between atoms: O1_16  and  N5_17 
REMARK    6  A    between atoms: C10_23  and  O3_24 
REMARK    7  A    between atoms: C10_23  and  C13_29 
REMARK    8  A    between atoms: O3_24  and  C11_25 
REMARK    9  A    between atoms: C11_25  and  C12_26 
REMARK   10  A    between atoms: C12_26  and  O4_27 
ROOT
HETATM    1  N1  UNL     1     -24.243  25.504  -2.846  1.00  0.00    -0.171 NA
HETATM    2  C1  UNL     1     -24.053  26.427  -2.179  1.00  0.00     0.196 C 
HETATM    3  N2  UNL     1     -23.821  27.531  -1.366  1.00  0.00    -0.126 N 
ATOM      4  H2  UNL     1     -23.316  27.429  -0.486  1.00  0.00     0.197 HD
ENDROOT
BRANCH   3   5
HETATM    5  C2  UNL     1     -24.298  28.802  -1.783  1.00  0.00     0.689 C 
HETATM    6  N3  UNL     1     -24.680  28.887  -3.036  1.00  0.00    -0.225 N 
HETATM    7  C3  UNL     1     -25.203  30.031  -3.736  1.00  0.00     0.138 C 
ATOM      8  H3  UNL     1     -24.595  28.031  -3.585  1.00  0.00     0.177 HD
HETATM    9  C4  UNL     1     -24.388  31.270  -3.442  1.00  0.00     0.023 C 
HETATM   10  C5  UNL     1     -24.755  31.866  -2.089  1.00  0.00     0.039 C 
HETATM   11  C6  UNL     1     -23.948  31.162  -1.048  1.00  0.00     0.169 C 
HETATM   12  S1  UNL     1     -23.887  31.936   0.547  1.00  0.00    -0.127 SA
HETATM   13  N7  UNL     1     -24.287  29.810  -0.766  1.00  0.00    -0.159 N 
HETATM   14  C7  UNL     1     -23.665  30.265   1.441  1.00  0.00     0.158 C 
HETATM   15  C10 UNL     1     -24.637  29.537   0.667  1.00  0.00     0.260 C 
BRANCH  14  16
HETATM   16  C8  UNL     1     -23.577  30.764   2.766  1.00  0.00     0.124 C 
BRANCH  16  17
HETATM   17  N4  UNL     1     -23.728  30.112   3.984  1.00  0.00    -0.162 N 
HETATM   18  C9  UNL     1     -22.716  29.964   4.935  1.00  0.00     0.360 C 
HETATM   19  N6  UNL     1     -21.412  30.445   4.691  1.00  0.00    -0.037 NA
HETATM   20  O2  UNL     1     -22.949  29.397   6.025  1.00  0.00    -0.248 OA
BRANCH  17  21
HETATM   21  O1  UNL     1     -24.961  29.573   4.290  1.00  0.00    -0.154 OA
BRANCH  21  22
HETATM   22  N5  UNL     1     -25.696  30.611   4.746  1.00  0.00    -0.285 N 
ATOM     23  H52 UNL     1     -26.515  30.559   5.352  1.00  0.00     0.186 HD
ATOM     24  H51 UNL     1     -25.254  31.442   4.354  1.00  0.00     0.186 HD
ENDBRANCH  21  22
ENDBRANCH  17  21
ENDBRANCH  16  17
ENDBRANCH  14  16
BRANCH  15  25
HETATM   25  O3  UNL     1     -24.728  28.179   0.735  1.00  0.00    -0.348 OA
BRANCH  25  26
HETATM   26  C11 UNL     1     -25.576  27.521   1.490  1.00  0.00     0.197 C 
BRANCH  26  27
HETATM   27  C12 UNL     1     -26.426  26.422   0.849  1.00  0.00     0.190 C 
BRANCH  27  28
HETATM   28  O4  UNL     1     -27.255  26.890  -0.131  1.00  0.00    -0.399 OA
ATOM     29  H4  UNL     1     -27.125  26.457  -0.966  1.00  0.00     0.209 HD
ENDBRANCH  27  28
ENDBRANCH  26  27
ENDBRANCH  25  26
ENDBRANCH  15  25
BRANCH  15  30
HETATM   30  C13 UNL     1     -26.029  30.081   0.738  1.00  0.00     0.234 C 
HETATM   31  O5  UNL     1     -26.787  29.846  -0.234  1.00  0.00    -0.644 OA
HETATM   32  O6  UNL     1     -26.571  30.810   1.753  1.00  0.00    -0.644 OA
ENDBRANCH  15  30
ENDBRANCH   3   5
TORSDOF 10
ENDMDL
MODEL 3
REMARK VINA RESULT: -6.219836249      2.837      6.680
REMARK  10 active torsions:
REMARK  status: ('A' for Active; 'I' for Inactive)
REMARK    1  A    between atoms: N2_3  and  C2_5 
REMARK    2  A    between atoms: C7_13  and  C8_14 
REMARK    3  A    between atoms: C8_14  and  N4_15 
REMARK    4  A    between atoms: N4_15  and  O1_16 
REMARK       I    between atoms: N4_15  and  C9_20 
REMARK    5  A    between atoms: O1_16  and  N5_17 
REMARK    6  A    between atoms: C10_23  and  O3_24 
REMARK    7  A    between atoms: C10_23  and  C13_29 
REMARK    8  A    between atoms: O3_24  and  C11_25 
REMARK    9  A    between atoms: C11_25  and  C12_26 
REMARK   10  A    between atoms: C12_26  and  O4_27 
ROOT
HETATM    1  N1  UNL     1     -21.256  27.685  -4.080  1.00  0.00    -0.171 NA
HETATM    2  C1  UNL     1     -21.983  27.771  -3.187  1.00  0.00     0.196 C 
HETATM    3  N2  UNL     1     -22.850  27.868  -2.105  1.00  0.00    -0.126 N 
ATOM      4  H2  UNL     1     -22.548  27.588  -1.172  1.00  0.00     0.197 HD
ENDROOT
BRANCH   3   5
HETATM    5  C2  UNL     1     -24.163  28.365  -2.320  1.00  0.00     0.689 C 
HETATM    6  N3  UNL     1     -24.498  28.571  -3.572  1.00  0.00    -0.225 N 
HETATM    7  C3  UNL     1     -25.745  29.064  -4.095  1.00  0.00     0.138 C 
ATOM      8  H3  UNL     1     -23.781  28.355  -4.265  1.00  0.00     0.177 HD
HETATM    9  C4  UNL     1     -26.233  30.260  -3.310  1.00  0.00     0.023 C 
HETATM   10  C5  UNL     1     -26.890  29.834  -2.003  1.00  0.00     0.039 C 
HETATM   11  C6  UNL     1     -25.811  29.678  -0.982  1.00  0.00     0.169 C 
HETATM   12  S1  UNL     1     -26.345  29.586   0.708  1.00  0.00    -0.127 SA
HETATM   13  N7  UNL     1     -24.930  28.571  -1.129  1.00  0.00    -0.159 N 
HETATM   14  C7  UNL     1     -24.853  28.505   1.207  1.00  0.00     0.158 C 
HETATM   15  C10 UNL     1     -24.882  27.647   0.052  1.00  0.00     0.260 C 
BRANCH  14  16
HETATM   16  C8  UNL     1     -25.159  28.377   2.586  1.00  0.00     0.124 C 
BRANCH  16  17
HETATM   17  N4  UNL     1     -24.757  29.147   3.671  1.00  0.00    -0.162 N 
HETATM   18  C9  UNL     1     -23.502  29.069   4.278  1.00  0.00     0.360 C 
HETATM   19  N6  UNL     1     -22.540  28.133   3.841  1.00  0.00    -0.037 NA
HETATM   20  O2  UNL     1     -23.207  29.829   5.226  1.00  0.00    -0.248 OA
BRANCH  17  21
HETATM   21  O1  UNL     1     -25.650  30.062   4.192  1.00  0.00    -0.154 OA
BRANCH  21  22
HETATM   22  N5  UNL     1     -25.190  31.269   3.795  1.00  0.00    -0.285 N 
ATOM     23  H52 UNL     1     -24.761  31.982   4.385  1.00  0.00     0.186 HD
ATOM     24  H51 UNL     1     -25.367  31.302   2.791  1.00  0.00     0.186 HD
ENDBRANCH  21  22
ENDBRANCH  17  21
ENDBRANCH  16  17
ENDBRANCH  14  16
BRANCH  15  25
HETATM   25  O3  UNL     1     -23.852  26.799  -0.231  1.00  0.00    -0.348 OA
BRANCH  25  26
HETATM   26  C11 UNL     1     -23.762  25.560   0.194  1.00  0.00     0.197 C 
BRANCH  26  27
HETATM   27  C12 UNL     1     -23.588  24.444  -0.838  1.00  0.00     0.190 C 
BRANCH  27  28
HETATM   28  O4  UNL     1     -24.019  24.797  -2.085  1.00  0.00    -0.399 OA
ATOM     29  H4  UNL     1     -24.479  24.096  -2.532  1.00  0.00     0.209 HD
ENDBRANCH  27  28
ENDBRANCH  26  27
ENDBRANCH  25  26
ENDBRANCH  15  25
BRANCH  15  30
HETATM   30  C13 UNL     1     -26.153  26.878  -0.126  1.00  0.00     0.234 C 
HETATM   31  O5  UNL     1     -26.437  26.500  -1.288  1.00  0.00    -0.644 OA
HETATM   32  O6  UNL     1     -27.045  26.538   0.845  1.00  0.00    -0.644 OA
ENDBRANCH  15  30
ENDBRANCH   3   5
TORSDOF 10
ENDMDL
MODEL 4
REMARK VINA RESULT: -6.169876081      2.945      6.875
REMARK  10 active torsions:
REMARK  status: ('A' for Active; 'I' for Inactive)
REMARK    1  A    between atoms: N2_3  and  C2_5 
REMARK    2  A    between atoms: C7_13  and  C8_14 
REMARK    3  A    between atoms: C8_14  and  N4_15 
REMARK    4  A    between atoms: N4_15  and  O1_16 
REMARK       I    between atoms: N4_15  and  C9_20 
REMARK    5  A    between atoms: O1_16  and  N5_17 
REMARK    6  A    between atoms: C10_23  and  O3_24 
REMARK    7  A    between atoms: C10_23  and  C13_29 
REMARK    8  A    between atoms: O3_24  and  C11_25 
REMARK    9  A    between atoms: C11_25  and  C12_26 
REMARK   10  A    between atoms: C12_26  and  O4_27 
ROOT
HETATM    1  N1  UNL     1     -20.933  27.620  -4.004  1.00  0.00    -0.171 NA
HETATM    2  C1  UNL     1     -21.772  27.612  -3.210  1.00  0.00     0.196 C 
HETATM    3  N2  UNL     1     -22.773  27.595  -2.246  1.00  0.00    -0.126 N 
ATOM      4  H2  UNL     1     -22.607  27.171  -1.334  1.00  0.00     0.197 HD
ENDROOT
BRANCH   3   5
HETATM    5  C2  UNL     1     -24.032  28.176  -2.555  1.00  0.00     0.689 C 
HETATM    6  N3  UNL     1     -24.314  28.283  -3.833  1.00  0.00    -0.225 N 
HETATM    7  C3  UNL     1     -25.499  28.824  -4.444  1.00  0.00     0.138 C 
ATOM      8  H3  UNL     1     -23.601  27.938  -4.476  1.00  0.00     0.177 HD
HETATM    9  C4  UNL     1     -25.900  30.131  -3.798  1.00  0.00     0.023 C 
HETATM   10  C5  UNL     1     -26.626  29.896  -2.479  1.00  0.00     0.039 C 
HETATM   11  C6  UNL     1     -25.592  29.752  -1.410  1.00  0.00     0.169 C 
HETATM   12  S1  UNL     1     -26.177  29.877   0.261  1.00  0.00    -0.127 SA
HETATM   13  N7  UNL     1     -24.809  28.566  -1.417  1.00  0.00    -0.159 N 
HETATM   14  C7  UNL     1     -24.799  28.729   0.915  1.00  0.00     0.158 C 
HETATM   15  C10 UNL     1     -24.873  27.764  -0.151  1.00  0.00     0.260 C 
BRANCH  14  16
HETATM   16  C8  UNL     1     -25.151  28.767   2.288  1.00  0.00     0.124 C 
BRANCH  16  17
HETATM   17  N4  UNL     1     -24.375  29.042   3.407  1.00  0.00    -0.162 N 
HETATM   18  C9  UNL     1     -24.801  29.795   4.503  1.00  0.00     0.360 C 
HETATM   19  N6  UNL     1     -26.081  30.389   4.524  1.00  0.00    -0.037 NA
HETATM   20  O2  UNL     1     -24.050  29.960   5.490  1.00  0.00    -0.248 OA
BRANCH  17  21
HETATM   21  O1  UNL     1     -23.091  28.536   3.455  1.00  0.00    -0.154 OA
BRANCH  21  22
HETATM   22  N5  UNL     1     -23.150  27.506   4.328  1.00  0.00    -0.285 N 
ATOM     23  H52 UNL     1     -23.967  27.202   4.857  1.00  0.00     0.186 HD
ATOM     24  H51 UNL     1     -22.210  27.111   4.336  1.00  0.00     0.186 HD
ENDBRANCH  21  22
ENDBRANCH  17  21
ENDBRANCH  16  17
ENDBRANCH  14  16
BRANCH  15  25
HETATM   25  O3  UNL     1     -23.915  26.808  -0.313  1.00  0.00    -0.348 OA
BRANCH  25  26
HETATM   26  C11 UNL     1     -23.934  25.624   0.252  1.00  0.00     0.197 C 
BRANCH  26  27
HETATM   27  C12 UNL     1     -23.642  24.396  -0.614  1.00  0.00     0.190 C 
BRANCH  27  28
HETATM   28  O4  UNL     1     -24.006  24.564  -1.919  1.00  0.00    -0.399 OA
ATOM     29  H4  UNL     1     -24.936  24.439  -2.065  1.00  0.00     0.209 HD
ENDBRANCH  27  28
ENDBRANCH  26  27
ENDBRANCH  25  26
ENDBRANCH  15  25
BRANCH  15  30
HETATM   30  C13 UNL     1     -26.202  27.092  -0.297  1.00  0.00     0.234 C 
HETATM   31  O5  UNL     1     -26.421  26.482  -1.371  1.00  0.00    -0.644 OA
HETATM   32  O6  UNL     1     -27.210  27.068   0.619  1.00  0.00    -0.644 OA
ENDBRANCH  15  30
ENDBRANCH   3   5
TORSDOF 10
ENDMDL
MODEL 5
REMARK VINA RESULT: -6.123258164      1.249      1.700
REMARK  10 active torsions:
REMARK  status: ('A' for Active; 'I' for Inactive)
REMARK    1  A    between atoms: N2_3  and  C2_5 
REMARK    2  A    between atoms: C7_13  and  C8_14 
REMARK    3  A    between atoms: C8_14  and  N4_15 
REMARK    4  A    between atoms: N4_15  and  O1_16 
REMARK       I    between atoms: N4_15  and  C9_20 
REMARK    5  A    between atoms: O1_16  and  N5_17 
REMARK    6  A    between atoms: C10_23  and  O3_24 
REMARK    7  A    between atoms: C10_23  and  C13_29 
REMARK    8  A    between atoms: O3_24  and  C11_25 
REMARK    9  A    between atoms: C11_25  and  C12_26 
REMARK   10  A    between atoms: C12_26  and  O4_27 
ROOT
HETATM    1  N1  UNL     1     -27.563  30.664   6.367  1.00  0.00    -0.171 NA
HETATM    2  C1  UNL     1     -26.935  30.553   5.404  1.00  0.00     0.196 C 
HETATM    3  N2  UNL     1     -26.174  30.409   4.250  1.00  0.00    -0.126 N 
ATOM      4  H2  UNL     1     -25.612  29.571   4.101  1.00  0.00     0.197 HD
ENDROOT
BRANCH   3   5
HETATM    5  C2  UNL     1     -26.192  31.448   3.282  1.00  0.00     0.689 C 
HETATM    6  N3  UNL     1     -26.320  32.667   3.755  1.00  0.00    -0.225 N 
HETATM    7  C3  UNL     1     -26.369  33.907   3.026  1.00  0.00     0.138 C 
ATOM      8  H3  UNL     1     -26.394  32.745   4.769  1.00  0.00     0.177 HD
HETATM    9  C4  UNL     1     -27.289  33.803   1.831  1.00  0.00     0.023 C 
HETATM   10  C5  UNL     1     -26.610  33.089   0.670  1.00  0.00     0.039 C 
HETATM   11  C6  UNL     1     -26.796  31.620   0.867  1.00  0.00     0.169 C 
HETATM   12  S1  UNL     1     -26.456  30.596  -0.542  1.00  0.00    -0.127 SA
HETATM   13  N7  UNL     1     -26.071  31.008   1.925  1.00  0.00    -0.159 N 
HETATM   14  C7  UNL     1     -25.942  29.120   0.553  1.00  0.00     0.158 C 
HETATM   15  C10 UNL     1     -25.174  29.883   1.502  1.00  0.00     0.260 C 
BRANCH  14  16
HETATM   16  C8  UNL     1     -25.660  28.196  -0.486  1.00  0.00     0.124 C 
BRANCH  16  17
HETATM   17  N4  UNL     1     -25.029  26.959  -0.442  1.00  0.00    -0.162 N 
HETATM   18  C9  UNL     1     -25.673  25.750  -0.173  1.00  0.00     0.360 C 
HETATM   19  N6  UNL     1     -27.050  25.711   0.131  1.00  0.00    -0.037 NA
HETATM   20  O2  UNL     1     -25.035  24.674  -0.193  1.00  0.00    -0.248 OA
BRANCH  17  21
HETATM   21  O1  UNL     1     -23.671  26.907  -0.686  1.00  0.00    -0.154 OA
BRANCH  21  22
HETATM   22  N5  UNL     1     -23.467  27.743  -1.727  1.00  0.00    -0.285 N 
ATOM     23  H52 UNL     1     -23.517  28.762  -1.710  1.00  0.00     0.186 HD
ATOM     24  H51 UNL     1     -23.256  27.135  -2.519  1.00  0.00     0.186 HD
ENDBRANCH  21  22
ENDBRANCH  17  21
ENDBRANCH  16  17
ENDBRANCH  14  16
BRANCH  15  25
HETATM   25  O3  UNL     1     -24.748  29.337   2.677  1.00  0.00    -0.348 OA
BRANCH  25  26
HETATM   26  C11 UNL     1     -23.928  28.316   2.776  1.00  0.00     0.197 C 
BRANCH  26  27
HETATM   27  C12 UNL     1     -23.155  28.125   4.083  1.00  0.00     0.190 C 
BRANCH  27  28
HETATM   28  O4  UNL     1     -23.570  28.963   5.077  1.00  0.00    -0.399 OA
ATOM     29  H4  UNL     1     -24.478  28.829   5.323  1.00  0.00     0.209 HD
ENDBRANCH  27  28
ENDBRANCH  26  27
ENDBRANCH  25  26
ENDBRANCH  15  25
BRANCH  15  30
HETATM   30  C13 UNL     1     -24.019  30.633   0.916  1.00  0.00     0.234 C 
HETATM   31  O5  UNL     1     -23.612  31.641   1.543  1.00  0.00    -0.644 OA
HETATM   32  O6  UNL     1     -23.353  30.338  -0.235  1.00  0.00    -0.644 OA
ENDBRANCH  15  30
ENDBRANCH   3   5
TORSDOF 10
ENDMDL
