MODEL 1
REMARK VINA RESULT: -8.609572605      0.000      0.000
REMARK  14 active torsions:
REMARK  status: ('A' for Active; 'I' for Inactive)
REMARK    1  A    between atoms: C2_2  and  C3_3 
REMARK    2  A    between atoms: C3_3  and  N1_4 
REMARK    3  A    between atoms: C7_13  and  N3_14 
REMARK    4  A    between atoms: N3_14  and  C8_16 
REMARK    5  A    between atoms: C12_20  and  C13_21 
REMARK       I    between atoms: C13_21  and  N4_23 
REMARK    6  A    between atoms: N4_23  and  C14_25 
REMARK    7  A    between atoms: C14_25  and  C15_26 
REMARK    8  A    between atoms: C15_26  and  C16_27 
REMARK    9  A    between atoms: C16_27  and  N5_28 
REMARK   10  A    between atoms: N5_28  and  C18_30 
REMARK   11  A    between atoms: C18_30  and  O4_31 
REMARK   12  A    between atoms: C18_30  and  C19_33 
REMARK   13  A    between atoms: C19_33  and  C20_34 
REMARK   14  A    between atoms: C24_38  and  O5_39 
ROOT
HETATM    1  C8  UNL     1      18.387  30.643  14.994  1.00  0.00     0.068 A 
HETATM    2  C9  UNL     1      17.118  30.896  15.462  1.00  0.00     0.040 A 
HETATM    3  C10 UNL     1      16.664  32.223  15.548  1.00  0.00    -0.044 A 
HETATM    4  C11 UNL     1      15.265  32.387  16.012  1.00  0.00     0.049 C 
HETATM    5  C12 UNL     1      17.456  33.244  15.179  1.00  0.00     0.041 A 
HETATM    6  C23 UNL     1      18.746  32.960  14.703  1.00  0.00     0.056 A 
HETATM    7  C24 UNL     1      19.208  31.677  14.611  1.00  0.00     0.096 A 
ENDROOT
BRANCH   1   8
HETATM    8  N3  UNL     1      18.852  29.319  14.903  1.00  0.00    -0.334 N 
ATOM      9  H3  UNL     1      19.034  28.765  15.739  1.00  0.00     0.168 HD
BRANCH   8  10
HETATM   10  C7  UNL     1      19.042  28.821  13.697  1.00  0.00     0.151 A 
HETATM   11  S1  UNL     1      18.025  28.882  12.328  1.00  0.00    -0.044 SA
HETATM   12  C6  UNL     1      19.027  28.040  11.235  1.00  0.00     0.120 A 
HETATM   13  C5  UNL     1      18.922  27.663   9.884  1.00  0.00     0.270 A 
HETATM   14  C26 UNL     1      20.117  27.750  12.004  1.00  0.00     0.136 A 
HETATM   15  N2  UNL     1      19.924  26.984   9.285  1.00  0.00    -0.274 N 
HETATM   16  O2  UNL     1      17.883  27.972   9.251  1.00  0.00    -0.266 OA
HETATM   17  C4  UNL     1      20.979  26.721  10.081  1.00  0.00     0.331 A 
ATOM     18  H2  UNL     1      19.886  26.694   8.307  1.00  0.00     0.173 HD
HETATM   19  N1  UNL     1      21.112  27.058  11.351  1.00  0.00    -0.284 N 
HETATM   20  O1  UNL     1      21.917  26.081   9.502  1.00  0.00    -0.246 OA
HETATM   21  N6  UNL     1      20.106  28.156  13.256  1.00  0.00    -0.321 N 
ATOM     22  H6  UNL     1      20.895  27.964  13.873  1.00  0.00     0.169 HD
BRANCH  19  23
HETATM   23  C3  UNL     1      22.338  26.679  12.022  1.00  0.00     0.135 C 
BRANCH  23  24
HETATM   24  C2  UNL     1      23.374  27.774  12.010  1.00  0.00     0.016 C 
HETATM   25  C1  UNL     1      24.739  27.120  11.783  1.00  0.00     0.006 C 
ENDBRANCH  23  24
ENDBRANCH  19  23
ENDBRANCH   8  10
ENDBRANCH   1   8
BRANCH   7  26
HETATM   26  O5  UNL     1      20.477  31.409  14.141  1.00  0.00    -0.354 OA
HETATM   27  C25 UNL     1      20.937  31.785  12.878  1.00  0.00     0.210 C 
ENDBRANCH   7  26
BRANCH   5  28
HETATM   28  C13 UNL     1      17.108  34.646  15.291  1.00  0.00     0.255 C 
HETATM   29  O3  UNL     1      16.731  35.246  14.210  1.00  0.00    -0.267 OA
HETATM   30  N4  UNL     1      17.139  35.427  16.462  1.00  0.00    -0.337 N 
ATOM     31  H4  UNL     1      17.436  34.922  17.298  1.00  0.00     0.168 HD
BRANCH  30  32
HETATM   32  C14 UNL     1      16.832  36.779  16.682  1.00  0.00     0.066 C 
BRANCH  32  33
HETATM   33  C15 UNL     1      17.592  37.678  17.543  1.00  0.00     0.064 C 
BRANCH  33  34
HETATM   34  C16 UNL     1      18.332  37.118  18.686  1.00  0.00     0.129 C 
BRANCH  34  35
HETATM   35  N5  UNL     1      19.749  36.842  18.275  1.00  0.00    -0.369 N 
HETATM   36  C17 UNL     1      20.482  37.970  17.827  1.00  0.00     0.151 C 
BRANCH  35  37
HETATM   37  C18 UNL     1      20.181  35.531  18.385  1.00  0.00     0.113 C 
BRANCH  37  38
HETATM   38  O4  UNL     1      19.188  34.648  18.502  1.00  0.00    -0.349 OA
ATOM     39  H4  UNL     1      18.560  34.870  19.179  1.00  0.00     0.219 HD
ENDBRANCH  37  38
BRANCH  37  40
HETATM   40  C19 UNL     1      21.474  34.881  18.406  1.00  0.00     0.087 C 
BRANCH  40  41
HETATM   41  C20 UNL     1      22.124  34.410  17.175  1.00  0.00    -0.015 C 
HETATM   42  C21 UNL     1      22.076  32.842  17.188  1.00  0.00     0.010 C 
HETATM   43  C22 UNL     1      21.386  34.848  15.914  1.00  0.00     0.010 C 
ENDBRANCH  40  41
ENDBRANCH  37  40
ENDBRANCH  35  37
ENDBRANCH  34  35
ENDBRANCH  33  34
ENDBRANCH  32  33
ENDBRANCH  30  32
ENDBRANCH   5  28
TORSDOF 14
ENDMDL
MODEL 2
REMARK VINA RESULT: -8.505806362      1.383      2.552
REMARK  14 active torsions:
REMARK  status: ('A' for Active; 'I' for Inactive)
REMARK    1  A    between atoms: C2_2  and  C3_3 
REMARK    2  A    between atoms: C3_3  and  N1_4 
REMARK    3  A    between atoms: C7_13  and  N3_14 
REMARK    4  A    between atoms: N3_14  and  C8_16 
REMARK    5  A    between atoms: C12_20  and  C13_21 
REMARK       I    between atoms: C13_21  and  N4_23 
REMARK    6  A    between atoms: N4_23  and  C14_25 
REMARK    7  A    between atoms: C14_25  and  C15_26 
REMARK    8  A    between atoms: C15_26  and  C16_27 
REMARK    9  A    between atoms: C16_27  and  N5_28 
REMARK   10  A    between atoms: N5_28  and  C18_30 
REMARK   11  A    between atoms: C18_30  and  O4_31 
REMARK   12  A    between atoms: C18_30  and  C19_33 
REMARK   13  A    between atoms: C19_33  and  C20_34 
REMARK   14  A    between atoms: C24_38  and  O5_39 
ROOT
HETATM    1  C8  UNL     1      18.966  30.758  15.432  1.00  0.00     0.068 A 
HETATM    2  C9  UNL     1      17.604  30.829  15.614  1.00  0.00     0.040 A 
HETATM    3  C10 UNL     1      16.962  32.078  15.555  1.00  0.00    -0.044 A 
HETATM    4  C11 UNL     1      15.487  32.041  15.709  1.00  0.00     0.049 C 
HETATM    5  C12 UNL     1      17.665  33.200  15.325  1.00  0.00     0.041 A 
HETATM    6  C23 UNL     1      19.053  33.101  15.141  1.00  0.00     0.056 A 
HETATM    7  C24 UNL     1      19.698  31.897  15.193  1.00  0.00     0.096 A 
ENDROOT
BRANCH   1   8
HETATM    8  N3  UNL     1      19.619  29.514  15.487  1.00  0.00    -0.334 N 
ATOM      9  H3  UNL     1      19.759  29.030  16.374  1.00  0.00     0.168 HD
BRANCH   8  10
HETATM   10  C7  UNL     1      20.044  28.997  14.352  1.00  0.00     0.151 A 
HETATM   11  S1  UNL     1      21.641  28.708  13.825  1.00  0.00    -0.044 SA
HETATM   12  C6  UNL     1      21.283  28.021  12.307  1.00  0.00     0.120 A 
HETATM   13  C5  UNL     1      22.051  27.506  11.246  1.00  0.00     0.270 A 
HETATM   14  C26 UNL     1      19.918  28.052  12.287  1.00  0.00     0.136 A 
HETATM   15  N2  UNL     1      21.447  27.011  10.143  1.00  0.00    -0.274 N 
HETATM   16  O2  UNL     1      23.302  27.516  11.348  1.00  0.00    -0.266 OA
HETATM   17  C4  UNL     1      20.102  27.062  10.169  1.00  0.00     0.331 A 
ATOM     18  H2  UNL     1      21.970  26.629   9.354  1.00  0.00     0.173 HD
HETATM   19  N1  UNL     1      19.349  27.537  11.145  1.00  0.00    -0.284 N 
HETATM   20  O1  UNL     1      19.546  26.591   9.123  1.00  0.00    -0.246 OA
HETATM   21  N6  UNL     1      19.306  28.554  13.338  1.00  0.00    -0.321 N 
ATOM     22  H6  UNL     1      18.287  28.601  13.375  1.00  0.00     0.169 HD
BRANCH  19  23
HETATM   23  C3  UNL     1      17.912  27.489  10.969  1.00  0.00     0.135 C 
BRANCH  23  24
HETATM   24  C2  UNL     1      17.365  28.712  10.279  1.00  0.00     0.016 C 
HETATM   25  C1  UNL     1      16.447  29.433  11.268  1.00  0.00     0.006 C 
ENDBRANCH  23  24
ENDBRANCH  19  23
ENDBRANCH   8  10
ENDBRANCH   1   8
BRANCH   7  26
HETATM   26  O5  UNL     1      21.063  31.811  15.010  1.00  0.00    -0.354 OA
HETATM   27  C25 UNL     1      21.758  32.480  14.001  1.00  0.00     0.210 C 
ENDBRANCH   7  26
BRANCH   5  28
HETATM   28  C13 UNL     1      17.109  34.537  15.312  1.00  0.00     0.255 C 
HETATM   29  O3  UNL     1      16.841  35.051  14.156  1.00  0.00    -0.267 OA
HETATM   30  N4  UNL     1      16.831  35.342  16.434  1.00  0.00    -0.337 N 
ATOM     31  H4  UNL     1      17.050  34.905  17.330  1.00  0.00     0.168 HD
BRANCH  30  32
HETATM   32  C14 UNL     1      16.305  36.639  16.536  1.00  0.00     0.066 C 
BRANCH  32  33
HETATM   33  C15 UNL     1      16.688  37.618  17.546  1.00  0.00     0.064 C 
BRANCH  33  34
HETATM   34  C16 UNL     1      17.247  37.146  18.824  1.00  0.00     0.129 C 
BRANCH  34  35
HETATM   35  N5  UNL     1      18.744  37.111  18.730  1.00  0.00    -0.369 N 
HETATM   36  C17 UNL     1      19.368  38.366  18.514  1.00  0.00     0.151 C 
BRANCH  35  37
HETATM   37  C18 UNL     1      19.346  35.872  18.874  1.00  0.00     0.113 C 
BRANCH  37  38
HETATM   38  O4  UNL     1      19.033  35.256  20.015  1.00  0.00    -0.349 OA
ATOM     39  H4  UNL     1      19.364  34.368  20.070  1.00  0.00     0.219 HD
ENDBRANCH  37  38
BRANCH  37  40
HETATM   40  C19 UNL     1      20.245  35.075  18.069  1.00  0.00     0.087 C 
BRANCH  40  41
HETATM   41  C20 UNL     1      21.697  35.081  18.294  1.00  0.00    -0.015 C 
HETATM   42  C21 UNL     1      22.327  34.017  17.327  1.00  0.00     0.010 C 
HETATM   43  C22 UNL     1      22.343  36.416  17.939  1.00  0.00     0.010 C 
ENDBRANCH  40  41
ENDBRANCH  37  40
ENDBRANCH  35  37
ENDBRANCH  34  35
ENDBRANCH  33  34
ENDBRANCH  32  33
ENDBRANCH  30  32
ENDBRANCH   5  28
TORSDOF 14
ENDMDL
MODEL 3
REMARK VINA RESULT: -8.262428964      2.058      3.355
REMARK  14 active torsions:
REMARK  status: ('A' for Active; 'I' for Inactive)
REMARK    1  A    between atoms: C2_2  and  C3_3 
REMARK    2  A    between atoms: C3_3  and  N1_4 
REMARK    3  A    between atoms: C7_13  and  N3_14 
REMARK    4  A    between atoms: N3_14  and  C8_16 
REMARK    5  A    between atoms: C12_20  and  C13_21 
REMARK       I    between atoms: C13_21  and  N4_23 
REMARK    6  A    between atoms: N4_23  and  C14_25 
REMARK    7  A    between atoms: C14_25  and  C15_26 
REMARK    8  A    between atoms: C15_26  and  C16_27 
REMARK    9  A    between atoms: C16_27  and  N5_28 
REMARK   10  A    between atoms: N5_28  and  C18_30 
REMARK   11  A    between atoms: C18_30  and  O4_31 
REMARK   12  A    between atoms: C18_30  and  C19_33 
REMARK   13  A    between atoms: C19_33  and  C20_34 
REMARK   14  A    between atoms: C24_38  and  O5_39 
ROOT
HETATM    1  C8  UNL     1      19.473  31.246  15.994  1.00  0.00     0.068 A 
HETATM    2  C9  UNL     1      18.120  30.996  15.960  1.00  0.00     0.040 A 
HETATM    3  C10 UNL     1      17.215  32.067  16.056  1.00  0.00    -0.044 A 
HETATM    4  C11 UNL     1      15.782  31.698  15.954  1.00  0.00     0.049 C 
HETATM    5  C12 UNL     1      17.659  33.329  16.182  1.00  0.00     0.041 A 
HETATM    6  C23 UNL     1      19.043  33.559  16.213  1.00  0.00     0.056 A 
HETATM    7  C24 UNL     1      19.941  32.533  16.120  1.00  0.00     0.096 A 
ENDROOT
BRANCH   1   8
HETATM    8  N3  UNL     1      20.388  30.183  15.897  1.00  0.00    -0.334 N 
ATOM      9  H3  UNL     1      20.872  29.827  16.721  1.00  0.00     0.168 HD
BRANCH   8  10
HETATM   10  C7  UNL     1      20.596  29.664  14.704  1.00  0.00     0.151 A 
HETATM   11  S1  UNL     1      22.066  29.417  13.873  1.00  0.00    -0.044 SA
HETATM   12  C6  UNL     1      21.438  28.699  12.460  1.00  0.00     0.120 A 
HETATM   13  C5  UNL     1      21.997  28.194  11.273  1.00  0.00     0.270 A 
HETATM   14  C26 UNL     1      20.095  28.689  12.712  1.00  0.00     0.136 A 
HETATM   15  N2  UNL     1      21.203  27.667  10.314  1.00  0.00    -0.274 N 
HETATM   16  O2  UNL     1      23.242  28.243  11.124  1.00  0.00    -0.266 OA
HETATM   17  C4  UNL     1      19.889  27.677  10.606  1.00  0.00     0.331 A 
ATOM     18  H2  UNL     1      21.571  27.291   9.440  1.00  0.00     0.173 HD
HETATM   19  N1  UNL     1      19.328  28.142  11.708  1.00  0.00    -0.284 N 
HETATM   20  O1  UNL     1      19.152  27.175   9.694  1.00  0.00    -0.246 OA
HETATM   21  N6  UNL     1      19.687  29.185  13.860  1.00  0.00    -0.321 N 
ATOM     22  H6  UNL     1      18.695  29.203  14.097  1.00  0.00     0.169 HD
BRANCH  19  23
HETATM   23  C3  UNL     1      17.887  28.048  11.821  1.00  0.00     0.135 C 
BRANCH  23  24
HETATM   24  C2  UNL     1      17.210  29.394  11.809  1.00  0.00     0.016 C 
HETATM   25  C1  UNL     1      16.092  29.343  10.767  1.00  0.00     0.006 C 
ENDBRANCH  23  24
ENDBRANCH  19  23
ENDBRANCH   8  10
ENDBRANCH   1   8
BRANCH   7  26
HETATM   26  O5  UNL     1      21.299  32.770  16.151  1.00  0.00    -0.354 OA
HETATM   27  C25 UNL     1      22.019  33.322  15.090  1.00  0.00     0.210 C 
ENDBRANCH   7  26
BRANCH   5  28
HETATM   28  C13 UNL     1      16.811  34.491  16.356  1.00  0.00     0.255 C 
HETATM   29  O3  UNL     1      16.848  35.389  15.426  1.00  0.00    -0.267 OA
HETATM   30  N4  UNL     1      15.947  34.746  17.438  1.00  0.00    -0.337 N 
ATOM     31  H4  UNL     1      15.939  34.016  18.151  1.00  0.00     0.168 HD
BRANCH  30  32
HETATM   32  C14 UNL     1      15.096  35.829  17.709  1.00  0.00     0.066 C 
BRANCH  32  33
HETATM   33  C15 UNL     1      15.340  36.850  18.720  1.00  0.00     0.064 C 
BRANCH  33  34
HETATM   34  C16 UNL     1      15.322  38.268  18.323  1.00  0.00     0.129 C 
BRANCH  34  35
HETATM   35  N5  UNL     1      16.683  38.862  18.541  1.00  0.00    -0.369 N 
HETATM   36  C17 UNL     1      16.756  39.861  19.545  1.00  0.00     0.151 C 
BRANCH  35  37
HETATM   37  C18 UNL     1      17.709  38.367  17.752  1.00  0.00     0.113 C 
BRANCH  37  38
HETATM   38  O4  UNL     1      17.377  38.234  16.467  1.00  0.00    -0.349 OA
ATOM     39  H4  UNL     1      17.767  38.893  15.905  1.00  0.00     0.219 HD
ENDBRANCH  37  38
BRANCH  37  40
HETATM   40  C19 UNL     1      19.073  37.954  17.995  1.00  0.00     0.087 C 
BRANCH  40  41
HETATM   41  C20 UNL     1      19.480  36.543  17.926  1.00  0.00    -0.015 C 
HETATM   42  C21 UNL     1      21.048  36.507  17.876  1.00  0.00     0.010 C 
HETATM   43  C22 UNL     1      19.074  35.753  19.165  1.00  0.00     0.010 C 
ENDBRANCH  40  41
ENDBRANCH  37  40
ENDBRANCH  35  37
ENDBRANCH  34  35
ENDBRANCH  33  34
ENDBRANCH  32  33
ENDBRANCH  30  32
ENDBRANCH   5  28
TORSDOF 14
ENDMDL
MODEL 4
REMARK VINA RESULT: -8.181843306      2.535      9.994
REMARK  14 active torsions:
REMARK  status: ('A' for Active; 'I' for Inactive)
REMARK    1  A    between atoms: C2_2  and  C3_3 
REMARK    2  A    between atoms: C3_3  and  N1_4 
REMARK    3  A    between atoms: C7_13  and  N3_14 
REMARK    4  A    between atoms: N3_14  and  C8_16 
REMARK    5  A    between atoms: C12_20  and  C13_21 
REMARK       I    between atoms: C13_21  and  N4_23 
REMARK    6  A    between atoms: N4_23  and  C14_25 
REMARK    7  A    between atoms: C14_25  and  C15_26 
REMARK    8  A    between atoms: C15_26  and  C16_27 
REMARK    9  A    between atoms: C16_27  and  N5_28 
REMARK   10  A    between atoms: N5_28  and  C18_30 
REMARK   11  A    between atoms: C18_30  and  O4_31 
REMARK   12  A    between atoms: C18_30  and  C19_33 
REMARK   13  A    between atoms: C19_33  and  C20_34 
REMARK   14  A    between atoms: C24_38  and  O5_39 
ROOT
HETATM    1  C8  UNL     1      20.764  32.235  16.122  1.00  0.00     0.068 A 
HETATM    2  C9  UNL     1      19.406  32.024  16.052  1.00  0.00     0.040 A 
HETATM    3  C10 UNL     1      18.881  31.236  15.014  1.00  0.00    -0.044 A 
HETATM    4  C11 UNL     1      17.414  31.022  15.058  1.00  0.00     0.049 C 
HETATM    5  C12 UNL     1      19.691  30.691  14.090  1.00  0.00     0.041 A 
HETATM    6  C23 UNL     1      21.073  30.920  14.183  1.00  0.00     0.056 A 
HETATM    7  C24 UNL     1      21.605  31.682  15.185  1.00  0.00     0.096 A 
ENDROOT
BRANCH   1   8
HETATM    8  N3  UNL     1      21.301  33.020  17.157  1.00  0.00    -0.334 N 
ATOM      9  H3  UNL     1      22.202  32.794  17.579  1.00  0.00     0.168 HD
BRANCH   8  10
HETATM   10  C7  UNL     1      20.598  34.059  17.562  1.00  0.00     0.151 A 
HETATM   11  S1  UNL     1      21.133  35.611  18.031  1.00  0.00    -0.044 SA
HETATM   12  C6  UNL     1      19.614  36.308  18.366  1.00  0.00     0.120 A 
HETATM   13  C5  UNL     1      19.179  37.572  18.805  1.00  0.00     0.270 A 
HETATM   14  C26 UNL     1      18.756  35.281  18.092  1.00  0.00     0.136 A 
HETATM   15  N2  UNL     1      17.862  37.820  18.974  1.00  0.00    -0.274 N 
HETATM   16  O2  UNL     1      20.037  38.459  19.033  1.00  0.00    -0.266 OA
HETATM   17  C4  UNL     1      17.054  36.780  18.692  1.00  0.00     0.331 A 
ATOM     18  H2  UNL     1      17.507  38.723  19.290  1.00  0.00     0.173 HD
HETATM   19  N1  UNL     1      17.426  35.581  18.279  1.00  0.00    -0.284 N 
HETATM   20  O1  UNL     1      15.813  37.029  18.854  1.00  0.00    -0.246 OA
HETATM   21  N6  UNL     1      19.277  34.144  17.685  1.00  0.00    -0.321 N 
ATOM     22  H6  UNL     1      18.681  33.345  17.468  1.00  0.00     0.169 HD
BRANCH  19  23
HETATM   23  C3  UNL     1      16.385  34.606  18.025  1.00  0.00     0.135 C 
BRANCH  23  24
HETATM   24  C2  UNL     1      16.022  34.503  16.566  1.00  0.00     0.016 C 
HETATM   25  C1  UNL     1      14.979  33.392  16.424  1.00  0.00     0.006 C 
ENDBRANCH  23  24
ENDBRANCH  19  23
ENDBRANCH   8  10
ENDBRANCH   1   8
BRANCH   7  26
HETATM   26  O5  UNL     1      22.964  31.901  15.268  1.00  0.00    -0.354 OA
HETATM   27  C25 UNL     1      23.601  33.044  14.781  1.00  0.00     0.210 C 
ENDBRANCH   7  26
BRANCH   5  28
HETATM   28  C13 UNL     1      19.243  29.922  12.947  1.00  0.00     0.255 C 
HETATM   29  O3  UNL     1      19.084  30.562  11.834  1.00  0.00    -0.267 OA
HETATM   30  N4  UNL     1      18.959  28.543  12.921  1.00  0.00    -0.337 N 
ATOM     31  H4  UNL     1      19.099  28.068  13.813  1.00  0.00     0.168 HD
BRANCH  30  32
HETATM   32  C14 UNL     1      18.518  27.708  11.883  1.00  0.00     0.066 C 
BRANCH  32  33
HETATM   33  C15 UNL     1      19.318  27.318  10.728  1.00  0.00     0.064 C 
BRANCH  33  34
HETATM   34  C16 UNL     1      19.376  25.897  10.345  1.00  0.00     0.129 C 
BRANCH  34  35
HETATM   35  N5  UNL     1      20.779  25.549   9.940  1.00  0.00    -0.369 N 
HETATM   36  C17 UNL     1      21.012  25.498   8.542  1.00  0.00     0.151 C 
BRANCH  35  37
HETATM   37  C18 UNL     1      21.682  25.328  10.966  1.00  0.00     0.113 C 
BRANCH  37  38
HETATM   38  O4  UNL     1      21.193  24.580  11.956  1.00  0.00    -0.349 OA
ATOM     39  H4  UNL     1      21.853  24.291  12.575  1.00  0.00     0.219 HD
ENDBRANCH  37  38
BRANCH  37  40
HETATM   40  C19 UNL     1      23.051  25.720  11.222  1.00  0.00     0.087 C 
BRANCH  40  41
HETATM   41  C20 UNL     1      23.469  27.129  11.207  1.00  0.00    -0.015 C 
HETATM   42  C21 UNL     1      22.559  27.900  12.227  1.00  0.00     0.010 C 
HETATM   43  C22 UNL     1      24.904  27.322  11.685  1.00  0.00     0.010 C 
ENDBRANCH  40  41
ENDBRANCH  37  40
ENDBRANCH  35  37
ENDBRANCH  34  35
ENDBRANCH  33  34
ENDBRANCH  32  33
ENDBRANCH  30  32
ENDBRANCH   5  28
TORSDOF 14
ENDMDL
MODEL 5
REMARK VINA RESULT: -8.151319238      1.803      3.407
REMARK  14 active torsions:
REMARK  status: ('A' for Active; 'I' for Inactive)
REMARK    1  A    between atoms: C2_2  and  C3_3 
REMARK    2  A    between atoms: C3_3  and  N1_4 
REMARK    3  A    between atoms: C7_13  and  N3_14 
REMARK    4  A    between atoms: N3_14  and  C8_16 
REMARK    5  A    between atoms: C12_20  and  C13_21 
REMARK       I    between atoms: C13_21  and  N4_23 
REMARK    6  A    between atoms: N4_23  and  C14_25 
REMARK    7  A    between atoms: C14_25  and  C15_26 
REMARK    8  A    between atoms: C15_26  and  C16_27 
REMARK    9  A    between atoms: C16_27  and  N5_28 
REMARK   10  A    between atoms: N5_28  and  C18_30 
REMARK   11  A    between atoms: C18_30  and  O4_31 
REMARK   12  A    between atoms: C18_30  and  C19_33 
REMARK   13  A    between atoms: C19_33  and  C20_34 
REMARK   14  A    between atoms: C24_38  and  O5_39 
ROOT
HETATM    1  C8  UNL     1      19.113  29.797  13.992  1.00  0.00     0.068 A 
HETATM    2  C9  UNL     1      18.332  30.925  14.097  1.00  0.00     0.040 A 
HETATM    3  C10 UNL     1      18.928  32.150  14.443  1.00  0.00    -0.044 A 
HETATM    4  C11 UNL     1      18.011  33.316  14.475  1.00  0.00     0.049 C 
HETATM    5  C12 UNL     1      20.250  32.228  14.674  1.00  0.00     0.041 A 
HETATM    6  C23 UNL     1      21.025  31.063  14.560  1.00  0.00     0.056 A 
HETATM    7  C24 UNL     1      20.467  29.862  14.224  1.00  0.00     0.096 A 
ENDROOT
BRANCH   1   8
HETATM    8  N3  UNL     1      18.528  28.567  13.645  1.00  0.00    -0.334 N 
ATOM      9  H3  UNL     1      17.976  28.036  14.318  1.00  0.00     0.168 HD
BRANCH   8  10
HETATM   10  C7  UNL     1      18.719  28.125  12.418  1.00  0.00     0.151 A 
HETATM   11  S1  UNL     1      17.972  28.614  10.963  1.00  0.00    -0.044 SA
HETATM   12  C6  UNL     1      18.802  27.576   9.895  1.00  0.00     0.120 A 
HETATM   13  C5  UNL     1      18.773  27.356   8.506  1.00  0.00     0.270 A 
HETATM   14  C26 UNL     1      19.630  26.893  10.739  1.00  0.00     0.136 A 
HETATM   15  N2  UNL     1      19.587  26.436   7.944  1.00  0.00    -0.274 N 
HETATM   16  O2  UNL     1      17.980  28.030   7.805  1.00  0.00    -0.266 OA
HETATM   17  C4  UNL     1      20.386  25.787   8.813  1.00  0.00     0.331 A 
ATOM     18  H2  UNL     1      19.596  26.247   6.941  1.00  0.00     0.173 HD
HETATM   19  N1  UNL     1      20.441  25.968  10.121  1.00  0.00    -0.284 N 
HETATM   20  O1  UNL     1      21.150  24.923   8.268  1.00  0.00    -0.246 OA
HETATM   21  N6  UNL     1      19.573  27.187  12.020  1.00  0.00    -0.321 N 
ATOM     22  H6  UNL     1      20.170  26.705  12.692  1.00  0.00     0.169 HD
BRANCH  19  23
HETATM   23  C3  UNL     1      21.383  25.164  10.871  1.00  0.00     0.135 C 
BRANCH  23  24
HETATM   24  C2  UNL     1      22.665  25.897  11.176  1.00  0.00     0.016 C 
HETATM   25  C1  UNL     1      23.802  25.161  10.463  1.00  0.00     0.006 C 
ENDBRANCH  23  24
ENDBRANCH  19  23
ENDBRANCH   8  10
ENDBRANCH   1   8
BRANCH   7  26
HETATM   26  O5  UNL     1      21.238  28.724  14.114  1.00  0.00    -0.354 OA
HETATM   27  C25 UNL     1      22.482  28.683  13.482  1.00  0.00     0.210 C 
ENDBRANCH   7  26
BRANCH   5  28
HETATM   28  C13 UNL     1      20.946  33.424  15.101  1.00  0.00     0.255 C 
HETATM   29  O3  UNL     1      22.138  33.608  14.635  1.00  0.00    -0.267 OA
HETATM   30  N4  UNL     1      20.458  34.412  15.979  1.00  0.00    -0.337 N 
ATOM     31  H4  UNL     1      19.514  34.238  16.325  1.00  0.00     0.168 HD
BRANCH  30  32
HETATM   32  C14 UNL     1      21.044  35.593  16.460  1.00  0.00     0.066 C 
BRANCH  32  33
HETATM   33  C15 UNL     1      20.736  36.214  17.743  1.00  0.00     0.064 C 
BRANCH  33  34
HETATM   34  C16 UNL     1      19.574  37.111  17.844  1.00  0.00     0.129 C 
BRANCH  34  35
HETATM   35  N5  UNL     1      18.329  36.294  18.032  1.00  0.00    -0.369 N 
HETATM   36  C17 UNL     1      18.360  35.382  19.117  1.00  0.00     0.151 C 
BRANCH  35  37
HETATM   37  C18 UNL     1      17.295  36.525  17.139  1.00  0.00     0.113 C 
BRANCH  37  38
HETATM   38  O4  UNL     1      17.267  37.772  16.667  1.00  0.00    -0.349 OA
ATOM     39  H4  UNL     1      16.743  37.868  15.881  1.00  0.00     0.219 HD
ENDBRANCH  37  38
BRANCH  37  40
HETATM   40  C19 UNL     1      16.223  35.725  16.591  1.00  0.00     0.087 C 
BRANCH  40  41
HETATM   41  C20 UNL     1      15.394  34.855  17.437  1.00  0.00    -0.015 C 
HETATM   42  C21 UNL     1      14.098  35.657  17.810  1.00  0.00     0.010 C 
HETATM   43  C22 UNL     1      14.924  33.600  16.709  1.00  0.00     0.010 C 
ENDBRANCH  40  41
ENDBRANCH  37  40
ENDBRANCH  35  37
ENDBRANCH  34  35
ENDBRANCH  33  34
ENDBRANCH  32  33
ENDBRANCH  30  32
ENDBRANCH   5  28
TORSDOF 14
ENDMDL
