MODEL 1
REMARK VINA RESULT: -6.680086368      0.000      0.000
REMARK  15 active torsions:
REMARK  status: ('A' for Active; 'I' for Inactive)
REMARK    1  A    between atoms: O1_2  and  C2_3 
REMARK    2  A    between atoms: C2_3  and  O3_5 
REMARK    3  A    between atoms: O3_5  and  C3_6 
REMARK    4  A    between atoms: C4_7  and  O4_8 
REMARK    5  A    between atoms: C5_12  and  O5_13 
REMARK    6  A    between atoms: O5_13  and  C6_14 
REMARK    7  A    between atoms: C6_14  and  C7_16 
REMARK    8  A    between atoms: C7_16  and  C8_17 
REMARK    9  A    between atoms: C8_17  and  O7_18 
REMARK   10  A    between atoms: C8_17  and  O8_20 
REMARK   11  A    between atoms: O8_20  and  C9_21 
REMARK   12  A    between atoms: C12_27  and  O9_28 
REMARK   13  A    between atoms: C13_30  and  O10_31 
REMARK   14  A    between atoms: C15_34  and  O11_35 
REMARK   15  A    between atoms: C15_34  and  C16_37 
ROOT
HETATM    1  O5  UNL     1      28.994   4.380   3.637  1.00  0.00    -0.295 OA
ENDROOT
BRANCH   1   2
HETATM    2  C5  UNL     1      27.737   3.801   3.434  1.00  0.00     0.231 C 
HETATM    3  N1  UNL     1      26.876   4.655   2.672  1.00  0.00    -0.369 N 
HETATM    4  C4  UNL     1      25.591   4.120   2.369  1.00  0.00     0.248 C 
ATOM      5  H1  UNL     1      27.164   5.585   2.366  1.00  0.00     0.158 HD
HETATM    6  C3  UNL     1      25.353   2.867   3.183  1.00  0.00     0.227 C 
HETATM    7  C15 UNL     1      25.640   3.250   4.643  1.00  0.00     0.180 C 
HETATM    8  C14 UNL     1      27.137   3.421   4.770  1.00  0.00     0.106 C 
BRANCH   4   9
HETATM    9  O4  UNL     1      25.439   3.870   1.005  1.00  0.00    -0.374 OA
ATOM     10  H4  UNL     1      24.590   4.162   0.696  1.00  0.00     0.212 HD
ENDBRANCH   4   9
BRANCH   6  11
HETATM   11  O3  UNL     1      24.027   2.412   3.053  1.00  0.00    -0.285 OA
BRANCH  11  12
HETATM   12  C2  UNL     1      23.719   1.400   2.157  1.00  0.00     0.406 C 
HETATM   13  O2  UNL     1      23.861   0.179   2.429  1.00  0.00    -0.229 OA
BRANCH  12  14
HETATM   14  O1  UNL     1      23.222   1.690   0.876  1.00  0.00    -0.303 OA
HETATM   15  C1  UNL     1      22.144   2.612   0.722  1.00  0.00     0.215 C 
ENDBRANCH  12  14
ENDBRANCH  11  12
ENDBRANCH   6  11
BRANCH   7  16
HETATM   16  O11 UNL     1      25.057   4.508   4.818  1.00  0.00    -0.376 OA
ATOM     17  H11 UNL     1      24.790   4.538   5.729  1.00  0.00     0.211 HD
ENDBRANCH   7  16
BRANCH   7  18
HETATM   18  C16 UNL     1      25.081   2.278   5.587  1.00  0.00     0.212 C 
HETATM   19  O12 UNL     1      24.322   2.677   6.507  1.00  0.00    -0.646 OA
HETATM   20  O13 UNL     1      25.385   0.935   5.466  1.00  0.00    -0.646 OA
ENDBRANCH   7  18
ENDBRANCH   1   2
BRANCH   1  21
HETATM   21  C6  UNL     1      29.260   5.452   4.436  1.00  0.00     0.265 C 
HETATM   22  O6  UNL     1      28.559   6.490   4.316  1.00  0.00    -0.265 OA
BRANCH  21  23
HETATM   23  C7  UNL     1      30.339   5.484   5.458  1.00  0.00     0.171 C 
BRANCH  23  24
HETATM   24  C8  UNL     1      30.890   6.852   5.681  1.00  0.00     0.266 C 
BRANCH  24  25
HETATM   25  O7  UNL     1      31.141   7.549   4.513  1.00  0.00    -0.371 OA
ATOM     26  H7  UNL     1      30.676   8.375   4.453  1.00  0.00     0.212 HD
ENDBRANCH  24  25
BRANCH  24  27
HETATM   27  O8  UNL     1      30.042   7.529   6.548  1.00  0.00    -0.351 OA
BRANCH  27  28
HETATM   28  C9  UNL     1      30.691   8.049   7.653  1.00  0.00     0.181 C 
HETATM   29  C10 UNL     1      30.091   7.401   8.884  1.00  0.00     0.266 C 
HETATM   30  N2  UNL     1      29.134   8.249   9.543  1.00  0.00    -0.070 N 
HETATM   31  C11 UNL     1      29.890   9.310  10.206  1.00  0.00     0.266 C 
ATOM     32  H22 UNL     1      28.413   8.603   8.916  1.00  0.00     0.277 HD
ATOM     33  H21 UNL     1      28.518   7.740  10.177  1.00  0.00     0.277 HD
HETATM   34  C12 UNL     1      30.725  10.022   9.194  1.00  0.00     0.175 C 
HETATM   35  C13 UNL     1      30.482   9.539   7.780  1.00  0.00     0.179 C 
BRANCH  34  36
HETATM   36  O9  UNL     1      32.090  10.020   9.508  1.00  0.00    -0.391 OA
ATOM     37  H9  UNL     1      32.601   9.441   8.954  1.00  0.00     0.210 HD
ENDBRANCH  34  36
BRANCH  35  38
HETATM   38  O10 UNL     1      31.389  10.248   6.965  1.00  0.00    -0.390 OA
ATOM     39  H10 UNL     1      31.221  11.183   7.001  1.00  0.00     0.210 HD
ENDBRANCH  35  38
ENDBRANCH  27  28
ENDBRANCH  24  27
ENDBRANCH  23  24
ENDBRANCH  21  23
ENDBRANCH   1  21
TORSDOF 15
ENDMDL
MODEL 2
REMARK VINA RESULT: -6.569406498      2.879      5.017
REMARK  15 active torsions:
REMARK  status: ('A' for Active; 'I' for Inactive)
REMARK    1  A    between atoms: O1_2  and  C2_3 
REMARK    2  A    between atoms: C2_3  and  O3_5 
REMARK    3  A    between atoms: O3_5  and  C3_6 
REMARK    4  A    between atoms: C4_7  and  O4_8 
REMARK    5  A    between atoms: C5_12  and  O5_13 
REMARK    6  A    between atoms: O5_13  and  C6_14 
REMARK    7  A    between atoms: C6_14  and  C7_16 
REMARK    8  A    between atoms: C7_16  and  C8_17 
REMARK    9  A    between atoms: C8_17  and  O7_18 
REMARK   10  A    between atoms: C8_17  and  O8_20 
REMARK   11  A    between atoms: O8_20  and  C9_21 
REMARK   12  A    between atoms: C12_27  and  O9_28 
REMARK   13  A    between atoms: C13_30  and  O10_31 
REMARK   14  A    between atoms: C15_34  and  O11_35 
REMARK   15  A    between atoms: C15_34  and  C16_37 
ROOT
HETATM    1  O5  UNL     1      23.759   3.002   4.019  1.00  0.00    -0.295 OA
ENDROOT
BRANCH   1   2
HETATM    2  C5  UNL     1      23.316   2.116   3.032  1.00  0.00     0.231 C 
HETATM    3  N1  UNL     1      22.378   2.736   2.144  1.00  0.00    -0.369 N 
HETATM    4  C4  UNL     1      21.916   1.919   1.071  1.00  0.00     0.248 C 
ATOM      5  H1  UNL     1      22.062   3.698   2.271  1.00  0.00     0.158 HD
HETATM    6  C3  UNL     1      22.329   0.483   1.306  1.00  0.00     0.227 C 
HETATM    7  C15 UNL     1      21.855   0.132   2.724  1.00  0.00     0.180 C 
HETATM    8  C14 UNL     1      22.755   0.873   3.688  1.00  0.00     0.106 C 
BRANCH   4   9
HETATM    9  O4  UNL     1      22.370   2.379  -0.165  1.00  0.00    -0.374 OA
ATOM     10  H4  UNL     1      23.295   2.596  -0.131  1.00  0.00     0.212 HD
ENDBRANCH   4   9
BRANCH   6  11
HETATM   11  O3  UNL     1      21.736  -0.384   0.368  1.00  0.00    -0.285 OA
BRANCH  11  12
HETATM   12  C2  UNL     1      22.477  -0.877  -0.695  1.00  0.00     0.406 C 
HETATM   13  O2  UNL     1      22.977  -2.033  -0.702  1.00  0.00    -0.229 OA
BRANCH  12  14
HETATM   14  O1  UNL     1      22.711  -0.101  -1.840  1.00  0.00    -0.303 OA
HETATM   15  C1  UNL     1      22.714  -0.714  -3.129  1.00  0.00     0.215 C 
ENDBRANCH  12  14
ENDBRANCH  11  12
ENDBRANCH   6  11
BRANCH   7  16
HETATM   16  O11 UNL     1      20.575   0.683   2.834  1.00  0.00    -0.376 OA
ATOM     17  H11 UNL     1      19.977  -0.029   2.644  1.00  0.00     0.211 HD
ENDBRANCH   7  16
BRANCH   7  18
HETATM   18  C16 UNL     1      21.823  -1.315   2.951  1.00  0.00     0.212 C 
HETATM   19  O12 UNL     1      22.905  -1.949   3.049  1.00  0.00    -0.646 OA
HETATM   20  O13 UNL     1      20.615  -1.978   3.057  1.00  0.00    -0.646 OA
ENDBRANCH   7  18
ENDBRANCH   1   2
BRANCH   1  21
HETATM   21  C6  UNL     1      25.019   3.511   4.128  1.00  0.00     0.265 C 
HETATM   22  O6  UNL     1      25.198   4.553   4.809  1.00  0.00    -0.265 OA
BRANCH  21  23
HETATM   23  C7  UNL     1      26.219   2.914   3.486  1.00  0.00     0.171 C 
BRANCH  23  24
HETATM   24  C8  UNL     1      27.298   3.911   3.226  1.00  0.00     0.266 C 
BRANCH  24  25
HETATM   25  O7  UNL     1      26.836   5.115   2.729  1.00  0.00    -0.371 OA
ATOM     26  H7  UNL     1      26.258   5.579   3.324  1.00  0.00     0.212 HD
ENDBRANCH  24  25
BRANCH  24  27
HETATM   27  O8  UNL     1      28.051   4.052   4.386  1.00  0.00    -0.351 OA
BRANCH  27  28
HETATM   28  C9  UNL     1      29.165   4.853   4.220  1.00  0.00     0.181 C 
HETATM   29  C10 UNL     1      30.377   4.044   4.633  1.00  0.00     0.266 C 
HETATM   30  N2  UNL     1      30.832   4.369   5.958  1.00  0.00    -0.070 N 
HETATM   31  C11 UNL     1      31.468   5.683   5.881  1.00  0.00     0.266 C 
ATOM     32  H22 UNL     1      30.093   4.322   6.659  1.00  0.00     0.277 HD
ATOM     33  H21 UNL     1      31.438   3.654   6.359  1.00  0.00     0.277 HD
HETATM   34  C12 UNL     1      30.493   6.667   5.323  1.00  0.00     0.175 C 
HETATM   35  C13 UNL     1      29.116   6.077   5.104  1.00  0.00     0.179 C 
BRANCH  34  36
HETATM   36  O9  UNL     1      30.961   7.315   4.173  1.00  0.00    -0.391 OA
ATOM     37  H9  UNL     1      31.324   6.718   3.529  1.00  0.00     0.210 HD
ENDBRANCH  34  36
BRANCH  35  38
HETATM   38  O10 UNL     1      28.344   7.099   4.512  1.00  0.00    -0.390 OA
ATOM     39  H10 UNL     1      28.077   7.742   5.158  1.00  0.00     0.210 HD
ENDBRANCH  35  38
ENDBRANCH  27  28
ENDBRANCH  24  27
ENDBRANCH  23  24
ENDBRANCH  21  23
ENDBRANCH   1  21
TORSDOF 15
ENDMDL
MODEL 3
REMARK VINA RESULT: -6.522656005      2.503      3.723
REMARK  15 active torsions:
REMARK  status: ('A' for Active; 'I' for Inactive)
REMARK    1  A    between atoms: O1_2  and  C2_3 
REMARK    2  A    between atoms: C2_3  and  O3_5 
REMARK    3  A    between atoms: O3_5  and  C3_6 
REMARK    4  A    between atoms: C4_7  and  O4_8 
REMARK    5  A    between atoms: C5_12  and  O5_13 
REMARK    6  A    between atoms: O5_13  and  C6_14 
REMARK    7  A    between atoms: C6_14  and  C7_16 
REMARK    8  A    between atoms: C7_16  and  C8_17 
REMARK    9  A    between atoms: C8_17  and  O7_18 
REMARK   10  A    between atoms: C8_17  and  O8_20 
REMARK   11  A    between atoms: O8_20  and  C9_21 
REMARK   12  A    between atoms: C12_27  and  O9_28 
REMARK   13  A    between atoms: C13_30  and  O10_31 
REMARK   14  A    between atoms: C15_34  and  O11_35 
REMARK   15  A    between atoms: C15_34  and  C16_37 
ROOT
HETATM    1  O5  UNL     1      26.172   2.689   5.581  1.00  0.00    -0.295 OA
ENDROOT
BRANCH   1   2
HETATM    2  C5  UNL     1      25.447   2.339   4.437  1.00  0.00     0.231 C 
HETATM    3  N1  UNL     1      25.161   3.480   3.620  1.00  0.00    -0.369 N 
HETATM    4  C4  UNL     1      24.473   3.207   2.403  1.00  0.00     0.248 C 
ATOM      5  H1  UNL     1      25.432   4.426   3.892  1.00  0.00     0.158 HD
HETATM    6  C3  UNL     1      23.962   1.784   2.411  1.00  0.00     0.227 C 
HETATM    7  C15 UNL     1      23.180   1.622   3.723  1.00  0.00     0.180 C 
HETATM    8  C14 UNL     1      24.196   1.592   4.844  1.00  0.00     0.106 C 
BRANCH   4   9
HETATM    9  O4  UNL     1      25.274   3.448   1.287  1.00  0.00    -0.374 OA
ATOM     10  H4  UNL     1      26.011   2.849   1.258  1.00  0.00     0.212 HD
ENDBRANCH   4   9
BRANCH   6  11
HETATM   11  O3  UNL     1      23.119   1.531   1.311  1.00  0.00    -0.285 OA
BRANCH  11  12
HETATM   12  C2  UNL     1      22.285   2.526   0.826  1.00  0.00     0.406 C 
HETATM   13  O2  UNL     1      21.122   2.720   1.271  1.00  0.00    -0.229 OA
BRANCH  12  14
HETATM   14  O1  UNL     1      22.699   3.384  -0.204  1.00  0.00    -0.303 OA
HETATM   15  C1  UNL     1      21.881   3.555  -1.361  1.00  0.00     0.215 C 
ENDBRANCH  12  14
ENDBRANCH  11  12
ENDBRANCH   6  11
BRANCH   7  16
HETATM   16  O11 UNL     1      22.438   2.798   3.861  1.00  0.00    -0.376 OA
ATOM     17  H11 UNL     1      22.675   3.148   4.712  1.00  0.00     0.211 HD
ENDBRANCH   7  16
BRANCH   7  18
HETATM   18  C16 UNL     1      22.302   0.449   3.700  1.00  0.00     0.212 C 
HETATM   19  O12 UNL     1      22.807  -0.699   3.589  1.00  0.00    -0.646 OA
HETATM   20  O13 UNL     1      20.932   0.601   3.800  1.00  0.00    -0.646 OA
ENDBRANCH   7  18
ENDBRANCH   1   2
BRANCH   1  21
HETATM   21  C6  UNL     1      26.865   3.849   5.763  1.00  0.00     0.265 C 
HETATM   22  O6  UNL     1      26.249   4.868   6.168  1.00  0.00    -0.265 OA
BRANCH  21  23
HETATM   23  C7  UNL     1      28.322   4.000   5.514  1.00  0.00     0.171 C 
BRANCH  23  24
HETATM   24  C8  UNL     1      28.645   4.251   4.079  1.00  0.00     0.266 C 
BRANCH  24  25
HETATM   25  O7  UNL     1      27.673   4.967   3.406  1.00  0.00    -0.371 OA
ATOM     26  H7  UNL     1      27.820   5.905   3.405  1.00  0.00     0.212 HD
ENDBRANCH  24  25
BRANCH  24  27
HETATM   27  O8  UNL     1      29.902   4.839   4.011  1.00  0.00    -0.351 OA
BRANCH  27  28
HETATM   28  C9  UNL     1      30.266   5.487   5.176  1.00  0.00     0.181 C 
HETATM   29  C10 UNL     1      30.197   6.977   4.914  1.00  0.00     0.266 C 
HETATM   30  N2  UNL     1      31.490   7.553   4.659  1.00  0.00    -0.070 N 
HETATM   31  C11 UNL     1      32.199   7.593   5.937  1.00  0.00     0.266 C 
ATOM     32  H22 UNL     1      32.009   7.067   3.928  1.00  0.00     0.277 HD
ATOM     33  H21 UNL     1      31.440   8.462   4.200  1.00  0.00     0.277 HD
HETATM   34  C12 UNL     1      32.258   6.215   6.507  1.00  0.00     0.175 C 
HETATM   35  C13 UNL     1      31.686   5.165   5.579  1.00  0.00     0.179 C 
BRANCH  34  36
HETATM   36  O9  UNL     1      31.699   6.125   7.789  1.00  0.00    -0.391 OA
ATOM     37  H9  UNL     1      31.471   6.971   8.158  1.00  0.00     0.210 HD
ENDBRANCH  34  36
BRANCH  35  38
HETATM   38  O10 UNL     1      31.746   3.945   6.287  1.00  0.00    -0.390 OA
ATOM     39  H10 UNL     1      31.048   3.889   6.929  1.00  0.00     0.210 HD
ENDBRANCH  35  38
ENDBRANCH  27  28
ENDBRANCH  24  27
ENDBRANCH  23  24
ENDBRANCH  21  23
ENDBRANCH   1  21
TORSDOF 15
ENDMDL
MODEL 4
REMARK VINA RESULT: -6.505910264      2.754      4.597
REMARK  15 active torsions:
REMARK  status: ('A' for Active; 'I' for Inactive)
REMARK    1  A    between atoms: O1_2  and  C2_3 
REMARK    2  A    between atoms: C2_3  and  O3_5 
REMARK    3  A    between atoms: O3_5  and  C3_6 
REMARK    4  A    between atoms: C4_7  and  O4_8 
REMARK    5  A    between atoms: C5_12  and  O5_13 
REMARK    6  A    between atoms: O5_13  and  C6_14 
REMARK    7  A    between atoms: C6_14  and  C7_16 
REMARK    8  A    between atoms: C7_16  and  C8_17 
REMARK    9  A    between atoms: C8_17  and  O7_18 
REMARK   10  A    between atoms: C8_17  and  O8_20 
REMARK   11  A    between atoms: O8_20  and  C9_21 
REMARK   12  A    between atoms: C12_27  and  O9_28 
REMARK   13  A    between atoms: C13_30  and  O10_31 
REMARK   14  A    between atoms: C15_34  and  O11_35 
REMARK   15  A    between atoms: C15_34  and  C16_37 
ROOT
HETATM    1  O5  UNL     1      25.363   2.620   3.875  1.00  0.00    -0.295 OA
ENDROOT
BRANCH   1   2
HETATM    2  C5  UNL     1      24.578   1.941   2.938  1.00  0.00     0.231 C 
HETATM    3  N1  UNL     1      23.497   2.752   2.464  1.00  0.00    -0.369 N 
HETATM    4  C4  UNL     1      22.676   2.158   1.462  1.00  0.00     0.248 C 
ATOM      5  H1  UNL     1      23.326   3.693   2.821  1.00  0.00     0.158 HD
HETATM    6  C3  UNL     1      22.994   0.684   1.348  1.00  0.00     0.227 C 
HETATM    7  C15 UNL     1      22.901   0.118   2.773  1.00  0.00     0.180 C 
HETATM    8  C14 UNL     1      24.102   0.635   3.534  1.00  0.00     0.106 C 
BRANCH   4   9
HETATM    9  O4  UNL     1      22.812   2.799   0.231  1.00  0.00    -0.374 OA
ATOM     10  H4  UNL     1      22.730   3.741   0.325  1.00  0.00     0.212 HD
ENDBRANCH   4   9
BRANCH   6  11
HETATM   11  O3  UNL     1      22.080   0.023   0.503  1.00  0.00    -0.285 OA
BRANCH  11  12
HETATM   12  C2  UNL     1      22.470  -0.392  -0.760  1.00  0.00     0.406 C 
HETATM   13  O2  UNL     1      22.575   0.396  -1.737  1.00  0.00    -0.229 OA
BRANCH  12  14
HETATM   14  O1  UNL     1      22.774  -1.737  -1.022  1.00  0.00    -0.303 OA
HETATM   15  C1  UNL     1      23.109  -2.147  -2.347  1.00  0.00     0.215 C 
ENDBRANCH  12  14
ENDBRANCH  11  12
ENDBRANCH   6  11
BRANCH   7  16
HETATM   16  O11 UNL     1      21.763   0.707   3.332  1.00  0.00    -0.376 OA
ATOM     17  H11 UNL     1      21.402   0.052   3.917  1.00  0.00     0.211 HD
ENDBRANCH   7  16
BRANCH   7  18
HETATM   18  C16 UNL     1      22.790  -1.343   2.779  1.00  0.00     0.212 C 
HETATM   19  O12 UNL     1      21.738  -1.881   3.213  1.00  0.00    -0.646 OA
HETATM   20  O13 UNL     1      23.830  -2.123   2.311  1.00  0.00    -0.646 OA
ENDBRANCH   7  18
ENDBRANCH   1   2
BRANCH   1  21
HETATM   21  C6  UNL     1      25.004   3.748   4.550  1.00  0.00     0.265 C 
HETATM   22  O6  UNL     1      23.904   3.768   5.160  1.00  0.00    -0.265 OA
BRANCH  21  23
HETATM   23  C7  UNL     1      25.833   4.980   4.620  1.00  0.00     0.171 C 
BRANCH  23  24
HETATM   24  C8  UNL     1      27.100   4.875   3.840  1.00  0.00     0.266 C 
BRANCH  24  25
HETATM   25  O7  UNL     1      26.915   4.895   2.470  1.00  0.00    -0.371 OA
ATOM     26  H7  UNL     1      26.749   5.761   2.119  1.00  0.00     0.212 HD
ENDBRANCH  24  25
BRANCH  24  27
HETATM   27  O8  UNL     1      27.970   5.862   4.287  1.00  0.00    -0.351 OA
BRANCH  27  28
HETATM   28  C9  UNL     1      29.222   5.377   4.619  1.00  0.00     0.181 C 
HETATM   29  C10 UNL     1      29.031   4.288   5.656  1.00  0.00     0.266 C 
HETATM   30  N2  UNL     1      29.292   4.748   6.993  1.00  0.00    -0.070 N 
HETATM   31  C11 UNL     1      30.740   4.908   7.115  1.00  0.00     0.266 C 
ATOM     32  H22 UNL     1      28.774   5.592   7.236  1.00  0.00     0.277 HD
ATOM     33  H21 UNL     1      28.895   4.140   7.710  1.00  0.00     0.277 HD
HETATM   34  C12 UNL     1      31.219   5.843   6.055  1.00  0.00     0.175 C 
HETATM   35  C13 UNL     1      30.093   6.443   5.240  1.00  0.00     0.179 C 
BRANCH  34  36
HETATM   36  O9  UNL     1      32.206   5.284   5.232  1.00  0.00    -0.391 OA
ATOM     37  H9  UNL     1      32.600   5.914   4.640  1.00  0.00     0.210 HD
ENDBRANCH  34  36
BRANCH  35  38
HETATM   38  O10 UNL     1      30.709   7.234   4.246  1.00  0.00    -0.390 OA
ATOM     39  H10 UNL     1      30.610   6.839   3.388  1.00  0.00     0.210 HD
ENDBRANCH  35  38
ENDBRANCH  27  28
ENDBRANCH  24  27
ENDBRANCH  23  24
ENDBRANCH  21  23
ENDBRANCH   1  21
TORSDOF 15
ENDMDL
MODEL 5
REMARK VINA RESULT: -6.503048166      2.886      4.597
REMARK  15 active torsions:
REMARK  status: ('A' for Active; 'I' for Inactive)
REMARK    1  A    between atoms: O1_2  and  C2_3 
REMARK    2  A    between atoms: C2_3  and  O3_5 
REMARK    3  A    between atoms: O3_5  and  C3_6 
REMARK    4  A    between atoms: C4_7  and  O4_8 
REMARK    5  A    between atoms: C5_12  and  O5_13 
REMARK    6  A    between atoms: O5_13  and  C6_14 
REMARK    7  A    between atoms: C6_14  and  C7_16 
REMARK    8  A    between atoms: C7_16  and  C8_17 
REMARK    9  A    between atoms: C8_17  and  O7_18 
REMARK   10  A    between atoms: C8_17  and  O8_20 
REMARK   11  A    between atoms: O8_20  and  C9_21 
REMARK   12  A    between atoms: C12_27  and  O9_28 
REMARK   13  A    between atoms: C13_30  and  O10_31 
REMARK   14  A    between atoms: C15_34  and  O11_35 
REMARK   15  A    between atoms: C15_34  and  C16_37 
ROOT
HETATM    1  O5  UNL     1      24.624   3.165   5.378  1.00  0.00    -0.295 OA
ENDROOT
BRANCH   1   2
HETATM    2  C5  UNL     1      24.284   2.372   4.277  1.00  0.00     0.231 C 
HETATM    3  N1  UNL     1      25.444   1.927   3.566  1.00  0.00    -0.369 N 
HETATM    4  C4  UNL     1      25.192   1.065   2.459  1.00  0.00     0.248 C 
ATOM      5  H1  UNL     1      26.388   2.208   3.833  1.00  0.00     0.158 HD
HETATM    6  C3  UNL     1      23.714   1.060   2.139  1.00  0.00     0.227 C 
HETATM    7  C15 UNL     1      23.305   2.534   2.001  1.00  0.00     0.180 C 
HETATM    8  C14 UNL     1      23.319   3.129   3.392  1.00  0.00     0.106 C 
BRANCH   4   9
HETATM    9  O4  UNL     1      25.662  -0.228   2.690  1.00  0.00    -0.374 OA
ATOM     10  H4  UNL     1      26.610  -0.262   2.642  1.00  0.00     0.212 HD
ENDBRANCH   4   9
BRANCH   6  11
HETATM   11  O3  UNL     1      23.448   0.369   0.941  1.00  0.00    -0.285 OA
BRANCH  11  12
HETATM   12  C2  UNL     1      22.845  -0.879   0.972  1.00  0.00     0.406 C 
HETATM   13  O2  UNL     1      23.441  -1.916   1.368  1.00  0.00    -0.229 OA
BRANCH  12  14
HETATM   14  O1  UNL     1      21.516  -1.055   0.558  1.00  0.00    -0.303 OA
HETATM   15  C1  UNL     1      20.512  -1.401   1.511  1.00  0.00     0.215 C 
ENDBRANCH  12  14
ENDBRANCH  11  12
ENDBRANCH   6  11
BRANCH   7  16
HETATM   16  O11 UNL     1      24.336   3.139   1.276  1.00  0.00    -0.376 OA
ATOM     17  H11 UNL     1      24.055   3.112   0.369  1.00  0.00     0.211 HD
ENDBRANCH   7  16
BRANCH   7  18
HETATM   18  C16 UNL     1      22.021   2.687   1.313  1.00  0.00     0.212 C 
HETATM   19  O12 UNL     1      20.971   2.270   1.865  1.00  0.00    -0.646 OA
HETATM   20  O13 UNL     1      21.964   3.286   0.068  1.00  0.00    -0.646 OA
ENDBRANCH   7  18
ENDBRANCH   1   2
BRANCH   1  21
HETATM   21  C6  UNL     1      25.787   3.858   5.534  1.00  0.00     0.265 C 
HETATM   22  O6  UNL     1      26.679   3.390   6.288  1.00  0.00    -0.265 OA
BRANCH  21  23
HETATM   23  C7  UNL     1      26.084   5.153   4.867  1.00  0.00     0.171 C 
BRANCH  23  24
HETATM   24  C8  UNL     1      27.067   5.022   3.752  1.00  0.00     0.266 C 
BRANCH  24  25
HETATM   25  O7  UNL     1      26.484   4.964   2.499  1.00  0.00    -0.371 OA
ATOM     26  H7  UNL     1      26.315   4.080   2.196  1.00  0.00     0.212 HD
ENDBRANCH  24  25
BRANCH  24  27
HETATM   27  O8  UNL     1      28.002   6.042   3.871  1.00  0.00    -0.351 OA
BRANCH  27  28
HETATM   28  C9  UNL     1      28.830   5.898   4.969  1.00  0.00     0.181 C 
HETATM   29  C10 UNL     1      29.521   7.227   5.199  1.00  0.00     0.266 C 
HETATM   30  N2  UNL     1      30.865   7.246   4.686  1.00  0.00    -0.070 N 
HETATM   31  C11 UNL     1      31.676   6.424   5.583  1.00  0.00     0.266 C 
ATOM     32  H22 UNL     1      30.927   6.955   3.711  1.00  0.00     0.277 HD
ATOM     33  H21 UNL     1      31.233   8.189   4.564  1.00  0.00     0.277 HD
HETATM   34  C12 UNL     1      31.084   5.057   5.663  1.00  0.00     0.175 C 
HETATM   35  C13 UNL     1      29.906   4.865   4.732  1.00  0.00     0.179 C 
BRANCH  34  36
HETATM   36  O9  UNL     1      30.770   4.668   6.972  1.00  0.00    -0.391 OA
ATOM     37  H9  UNL     1      30.431   3.783   7.028  1.00  0.00     0.210 HD
ENDBRANCH  34  36
BRANCH  35  38
HETATM   38  O10 UNL     1      29.421   3.564   4.979  1.00  0.00    -0.390 OA
ATOM     39  H10 UNL     1      29.903   2.919   4.475  1.00  0.00     0.210 HD
ENDBRANCH  35  38
ENDBRANCH  27  28
ENDBRANCH  24  27
ENDBRANCH  23  24
ENDBRANCH  21  23
ENDBRANCH   1  21
TORSDOF 15
ENDMDL
