MODEL 1
REMARK VINA RESULT: -7.113023865      0.000      0.000
REMARK  13 active torsions:
REMARK  status: ('A' for Active; 'I' for Inactive)
REMARK    1  A    between atoms: C2_2  and  O1_3 
REMARK    2  A    between atoms: C2_2  and  C3_5 
REMARK    3  A    between atoms: C5_10  and  O2_11 
REMARK    4  A    between atoms: C5_10  and  C6_13 
REMARK    5  A    between atoms: C6_13  and  C7_14 
REMARK    6  A    between atoms: C7_14  and  O3_15 
REMARK    7  A    between atoms: C7_14  and  C8_17 
REMARK       I    between atoms: C8_17  and  N2_19 
REMARK    8  A    between atoms: N2_19  and  C9_21 
REMARK    9  A    between atoms: C9_21  and  C10_22 
REMARK   10  A    between atoms: C11_25  and  C12_26 
REMARK   11  A    between atoms: C12_26  and  O6_31 
REMARK   12  A    between atoms: N4_27  and  O5_29 
REMARK   13  A    between atoms: O6_31  and  C13_32 
ROOT
HETATM    1  C8  UNL     1      23.482   2.745   1.692  1.00  0.00     0.247 C 
HETATM    2  O4  UNL     1      22.979   3.060   0.594  1.00  0.00    -0.271 OA
HETATM    3  N2  UNL     1      22.620   2.030   2.598  1.00  0.00    -0.351 N 
ATOM      4  H2  UNL     1      22.986   1.750   3.509  1.00  0.00     0.163 HD
ENDROOT
BRANCH   1   5
HETATM    5  C7  UNL     1      24.868   3.093   2.012  1.00  0.00     0.216 C 
BRANCH   5   6
HETATM    6  C6  UNL     1      25.110   3.835   3.275  1.00  0.00     0.135 C 
BRANCH   6   7
HETATM    7  C5  UNL     1      26.522   4.260   3.562  1.00  0.00     0.317 C 
HETATM    8  N1  UNL     1      26.667   4.401   4.969  1.00  0.00     0.004 N 
HETATM    9  C3  UNL     1      28.033   4.428   5.363  1.00  0.00     0.272 C 
ATOM     10  H12 UNL     1      26.152   3.676   5.468  1.00  0.00     0.285 HD
ATOM     11  H11 UNL     1      26.166   5.220   5.313  1.00  0.00     0.285 HD
HETATM   12  C4  UNL     1      28.680   5.786   5.192  1.00  0.00     0.069 C 
HETATM   13  S1  UNL     1      28.774   3.363   4.149  1.00  0.00     0.268 S 
HETATM   14  N8  UNL     1      27.327   3.049   3.209  1.00  0.00    -0.260 N 
HETATM   15  O8  UNL     1      29.785   4.087   3.304  1.00  0.00    -0.203 OA
HETATM   16  O9  UNL     1      29.319   2.107   4.722  1.00  0.00    -0.203 OA
ATOM     17  H8  UNL     1      27.099   2.265   2.597  1.00  0.00     0.177 HD
BRANCH   9  18
HETATM   18  C2  UNL     1      28.230   3.937   6.777  1.00  0.00     0.167 C 
HETATM   19  C1  UNL     1      27.849   4.899   7.841  1.00  0.00     0.043 C 
BRANCH  18  20
HETATM   20  O1  UNL     1      27.553   2.739   6.952  1.00  0.00    -0.392 OA
ATOM     21  H1  UNL     1      28.167   2.044   7.161  1.00  0.00     0.210 HD
ENDBRANCH  18  20
ENDBRANCH   9  18
BRANCH   7  22
HETATM   22  O2  UNL     1      26.909   5.313   2.784  1.00  0.00    -0.348 OA
ATOM     23  H2  UNL     1      27.601   5.157   2.152  1.00  0.00     0.214 HD
ENDBRANCH   7  22
ENDBRANCH   6   7
ENDBRANCH   5   6
BRANCH   5  24
HETATM   24  O3  UNL     1      25.271   3.999   0.974  1.00  0.00    -0.386 OA
ATOM     25  H3  UNL     1      24.594   3.923   0.311  1.00  0.00     0.210 HD
ENDBRANCH   5  24
ENDBRANCH   1   5
BRANCH   3  26
HETATM   26  C9  UNL     1      21.254   1.694   2.266  1.00  0.00     0.209 C 
BRANCH  26  27
HETATM   27  C10 UNL     1      21.224   0.307   1.772  1.00  0.00     0.166 A 
HETATM   28  N3  UNL     1      21.802  -0.082   0.611  1.00  0.00    -0.318 N 
HETATM   29  C11 UNL     1      21.600  -1.400   0.443  1.00  0.00     0.181 A 
ATOM     30  H3  UNL     1      22.309   0.526  -0.033  1.00  0.00     0.169 HD
HETATM   31  N7  UNL     1      20.896  -1.788   1.516  1.00  0.00    -0.239 N 
HETATM   32  O7  UNL     1      20.684  -0.763   2.288  1.00  0.00    -0.221 OA
ATOM     33  H7  UNL     1      20.576  -2.739   1.699  1.00  0.00     0.196 HD
BRANCH  29  34
HETATM   34  C12 UNL     1      22.049  -2.229  -0.668  1.00  0.00     0.216 C 
HETATM   35  N4  UNL     1      22.696  -3.323  -0.451  1.00  0.00    -0.244 N 
ATOM     36  H4  UNL     1      23.008  -3.899  -1.234  1.00  0.00     0.196 HD
BRANCH  35  37
HETATM   37  O5  UNL     1      22.959  -3.702   0.826  1.00  0.00    -0.288 OA
ATOM     38  H5  UNL     1      23.859  -3.839   1.097  1.00  0.00     0.244 HD
ENDBRANCH  35  37
BRANCH  34  39
HETATM   39  O6  UNL     1      21.814  -1.898  -1.990  1.00  0.00    -0.259 OA
BRANCH  39  40
HETATM   40  C13 UNL     1      22.848  -1.870  -2.940  1.00  0.00     0.231 C 
HETATM   41  N5  UNL     1      22.936  -0.789  -3.640  1.00  0.00    -0.367 N 
ATOM     42  H52 UNL     1      22.294  -0.008  -3.506  1.00  0.00     0.159 HD
ATOM     43  H51 UNL     1      23.688  -0.768  -4.330  1.00  0.00     0.159 HD
HETATM   44  N6  UNL     1      23.738  -2.952  -3.124  1.00  0.00    -0.056 NA
ENDBRANCH  39  40
ENDBRANCH  34  39
ENDBRANCH  29  34
ENDBRANCH  26  27
ENDBRANCH   3  26
TORSDOF 13
ENDMDL
MODEL 2
REMARK VINA RESULT: -7.082032990      1.625      2.343
REMARK  13 active torsions:
REMARK  status: ('A' for Active; 'I' for Inactive)
REMARK    1  A    between atoms: C2_2  and  O1_3 
REMARK    2  A    between atoms: C2_2  and  C3_5 
REMARK    3  A    between atoms: C5_10  and  O2_11 
REMARK    4  A    between atoms: C5_10  and  C6_13 
REMARK    5  A    between atoms: C6_13  and  C7_14 
REMARK    6  A    between atoms: C7_14  and  O3_15 
REMARK    7  A    between atoms: C7_14  and  C8_17 
REMARK       I    between atoms: C8_17  and  N2_19 
REMARK    8  A    between atoms: N2_19  and  C9_21 
REMARK    9  A    between atoms: C9_21  and  C10_22 
REMARK   10  A    between atoms: C11_25  and  C12_26 
REMARK   11  A    between atoms: C12_26  and  O6_31 
REMARK   12  A    between atoms: N4_27  and  O5_29 
REMARK   13  A    between atoms: O6_31  and  C13_32 
ROOT
HETATM    1  C8  UNL     1      24.956   3.488   2.060  1.00  0.00     0.247 C 
HETATM    2  O4  UNL     1      25.081   3.918   0.895  1.00  0.00    -0.271 OA
HETATM    3  N2  UNL     1      23.701   2.850   2.365  1.00  0.00    -0.351 N 
ATOM      4  H2  UNL     1      23.552   2.482   3.305  1.00  0.00     0.163 HD
ENDROOT
BRANCH   1   5
HETATM    5  C7  UNL     1      26.038   3.636   3.036  1.00  0.00     0.216 C 
BRANCH   5   6
HETATM    6  C6  UNL     1      25.736   4.388   4.279  1.00  0.00     0.135 C 
BRANCH   6   7
HETATM    7  C5  UNL     1      26.888   4.699   5.191  1.00  0.00     0.317 C 
HETATM    8  N1  UNL     1      27.926   3.763   4.933  1.00  0.00     0.004 N 
HETATM    9  C3  UNL     1      29.175   4.193   5.459  1.00  0.00     0.272 C 
ATOM     10  H12 UNL     1      27.996   3.553   3.938  1.00  0.00     0.285 HD
ATOM     11  H11 UNL     1      27.680   2.834   5.277  1.00  0.00     0.285 HD
HETATM   12  C4  UNL     1      29.332   3.913   6.939  1.00  0.00     0.069 C 
HETATM   13  S1  UNL     1      29.040   5.957   5.295  1.00  0.00     0.268 S 
HETATM   14  N8  UNL     1      27.404   6.002   4.664  1.00  0.00    -0.260 N 
HETATM   15  O8  UNL     1      29.093   6.655   6.626  1.00  0.00    -0.203 OA
HETATM   16  O9  UNL     1      30.001   6.533   4.321  1.00  0.00    -0.203 OA
ATOM     17  H8  UNL     1      26.937   6.713   4.100  1.00  0.00     0.177 HD
BRANCH   9  18
HETATM   18  C2  UNL     1      30.345   3.618   4.698  1.00  0.00     0.167 C 
HETATM   19  C1  UNL     1      30.706   2.223   5.050  1.00  0.00     0.043 C 
BRANCH  18  20
HETATM   20  O1  UNL     1      30.109   3.721   3.335  1.00  0.00    -0.392 OA
ATOM     21  H1  UNL     1      30.895   4.012   2.888  1.00  0.00     0.210 HD
ENDBRANCH  18  20
ENDBRANCH   9  18
BRANCH   7  22
HETATM   22  O2  UNL     1      26.491   4.852   6.488  1.00  0.00    -0.348 OA
ATOM     23  H2  UNL     1      25.563   4.982   6.647  1.00  0.00     0.214 HD
ENDBRANCH   7  22
ENDBRANCH   6   7
ENDBRANCH   5   6
BRANCH   5  24
HETATM   24  O3  UNL     1      27.035   4.422   2.367  1.00  0.00    -0.386 OA
ATOM     25  H3  UNL     1      26.929   4.214   1.446  1.00  0.00     0.210 HD
ENDBRANCH   5  24
ENDBRANCH   1   5
BRANCH   3  26
HETATM   26  C9  UNL     1      22.644   2.713   1.389  1.00  0.00     0.209 C 
BRANCH  26  27
HETATM   27  C10 UNL     1      22.287   1.287   1.289  1.00  0.00     0.166 A 
HETATM   28  N3  UNL     1      22.504   0.542   0.179  1.00  0.00    -0.318 N 
HETATM   29  C11 UNL     1      22.071  -0.710   0.403  1.00  0.00     0.181 A 
ATOM     30  H3  UNL     1      22.928   0.876  -0.686  1.00  0.00     0.169 HD
HETATM   31  N7  UNL     1      21.594  -0.699   1.656  1.00  0.00    -0.239 N 
HETATM   32  O7  UNL     1      21.731   0.492   2.161  1.00  0.00    -0.221 OA
ATOM     33  H7  UNL     1      21.187  -1.500   2.139  1.00  0.00     0.196 HD
BRANCH  29  34
HETATM   34  C12 UNL     1      22.111  -1.838  -0.519  1.00  0.00     0.216 C 
HETATM   35  N4  UNL     1      22.434  -3.015  -0.104  1.00  0.00    -0.244 N 
ATOM     36  H4  UNL     1      22.460  -3.800  -0.755  1.00  0.00     0.196 HD
BRANCH  35  37
HETATM   37  O5  UNL     1      22.740  -3.200   1.206  1.00  0.00    -0.288 OA
ATOM     38  H5  UNL     1      23.072  -4.042   1.494  1.00  0.00     0.244 HD
ENDBRANCH  35  37
BRANCH  34  39
HETATM   39  O6  UNL     1      21.810  -1.714  -1.864  1.00  0.00    -0.259 OA
BRANCH  39  40
HETATM   40  C13 UNL     1      22.804  -1.795  -2.852  1.00  0.00     0.231 C 
HETATM   41  N5  UNL     1      22.904  -0.771  -3.632  1.00  0.00    -0.367 N 
ATOM     42  H52 UNL     1      22.298   0.043  -3.530  1.00  0.00     0.159 HD
ATOM     43  H51 UNL     1      23.626  -0.829  -4.350  1.00  0.00     0.159 HD
HETATM   44  N6  UNL     1      23.644  -2.923  -2.993  1.00  0.00    -0.056 NA
ENDBRANCH  39  40
ENDBRANCH  34  39
ENDBRANCH  29  34
ENDBRANCH  26  27
ENDBRANCH   3  26
TORSDOF 13
ENDMDL
MODEL 3
REMARK VINA RESULT: -7.026054174      3.421     10.167
REMARK  13 active torsions:
REMARK  status: ('A' for Active; 'I' for Inactive)
REMARK    1  A    between atoms: C2_2  and  O1_3 
REMARK    2  A    between atoms: C2_2  and  C3_5 
REMARK    3  A    between atoms: C5_10  and  O2_11 
REMARK    4  A    between atoms: C5_10  and  C6_13 
REMARK    5  A    between atoms: C6_13  and  C7_14 
REMARK    6  A    between atoms: C7_14  and  O3_15 
REMARK    7  A    between atoms: C7_14  and  C8_17 
REMARK       I    between atoms: C8_17  and  N2_19 
REMARK    8  A    between atoms: N2_19  and  C9_21 
REMARK    9  A    between atoms: C9_21  and  C10_22 
REMARK   10  A    between atoms: C11_25  and  C12_26 
REMARK   11  A    between atoms: C12_26  and  O6_31 
REMARK   12  A    between atoms: N4_27  and  O5_29 
REMARK   13  A    between atoms: O6_31  and  C13_32 
ROOT
HETATM    1  C8  UNL     1      25.983   4.714   4.602  1.00  0.00     0.247 C 
HETATM    2  O4  UNL     1      25.478   5.756   5.070  1.00  0.00    -0.271 OA
HETATM    3  N2  UNL     1      26.729   3.904   5.531  1.00  0.00    -0.351 N 
ATOM      4  H2  UNL     1      27.160   3.042   5.195  1.00  0.00     0.163 HD
ENDROOT
BRANCH   1   5
HETATM    5  C7  UNL     1      25.810   4.362   3.191  1.00  0.00     0.216 C 
BRANCH   5   6
HETATM    6  C6  UNL     1      25.902   2.926   2.830  1.00  0.00     0.135 C 
BRANCH   6   7
HETATM    7  C5  UNL     1      24.685   2.078   3.066  1.00  0.00     0.317 C 
HETATM    8  N1  UNL     1      23.585   2.683   2.399  1.00  0.00     0.004 N 
HETATM    9  C3  UNL     1      22.496   1.783   2.244  1.00  0.00     0.272 C 
ATOM     10  H12 UNL     1      23.869   3.080   1.504  1.00  0.00     0.285 HD
ATOM     11  H11 UNL     1      23.293   3.540   2.869  1.00  0.00     0.285 HD
HETATM   12  C4  UNL     1      21.636   1.661   3.485  1.00  0.00     0.069 C 
HETATM   13  S1  UNL     1      23.341   0.230   2.066  1.00  0.00     0.268 S 
HETATM   14  N8  UNL     1      24.973   0.834   2.286  1.00  0.00    -0.260 N 
HETATM   15  O8  UNL     1      22.998  -0.731   3.171  1.00  0.00    -0.203 OA
HETATM   16  O9  UNL     1      23.177  -0.379   0.722  1.00  0.00    -0.203 OA
ATOM     17  H8  UNL     1      25.864   0.448   1.973  1.00  0.00     0.177 HD
BRANCH   9  18
HETATM   18  C2  UNL     1      21.636   2.126   1.052  1.00  0.00     0.167 C 
HETATM   19  C1  UNL     1      20.900   3.411   1.150  1.00  0.00     0.043 C 
BRANCH  18  20
HETATM   20  O1  UNL     1      22.407   2.104  -0.100  1.00  0.00    -0.392 OA
ATOM     21  H1  UNL     1      23.276   1.774   0.094  1.00  0.00     0.210 HD
ENDBRANCH  18  20
ENDBRANCH   9  18
BRANCH   7  22
HETATM   22  O2  UNL     1      24.523   1.768   4.386  1.00  0.00    -0.348 OA
ATOM     23  H2  UNL     1      25.297   1.503   4.869  1.00  0.00     0.214 HD
ENDBRANCH   7  22
ENDBRANCH   6   7
ENDBRANCH   5   6
BRANCH   5  24
HETATM   24  O3  UNL     1      26.916   4.981   2.518  1.00  0.00    -0.386 OA
ATOM     25  H3  UNL     1      27.660   4.833   3.090  1.00  0.00     0.210 HD
ENDBRANCH   5  24
ENDBRANCH   1   5
BRANCH   3  26
HETATM   26  C9  UNL     1      26.890   4.266   6.920  1.00  0.00     0.209 C 
BRANCH  26  27
HETATM   27  C10 UNL     1      28.196   4.928   7.080  1.00  0.00     0.166 A 
HETATM   28  N3  UNL     1      28.669   5.858   6.217  1.00  0.00    -0.318 N 
HETATM   29  C11 UNL     1      29.878   6.266   6.637  1.00  0.00     0.181 A 
ATOM     30  H3  UNL     1      28.187   6.194   5.384  1.00  0.00     0.169 HD
HETATM   31  N7  UNL     1      30.118   5.568   7.757  1.00  0.00    -0.239 N 
HETATM   32  O7  UNL     1      29.110   4.783   8.000  1.00  0.00    -0.221 OA
ATOM     33  H7  UNL     1      30.958   5.642   8.329  1.00  0.00     0.196 HD
BRANCH  29  34
HETATM   34  C12 UNL     1      30.745   7.255   6.009  1.00  0.00     0.216 C 
HETATM   35  N4  UNL     1      30.970   7.220   4.740  1.00  0.00    -0.244 N 
ATOM     36  H4  UNL     1      31.578   7.915   4.306  1.00  0.00     0.196 HD
BRANCH  35  37
HETATM   37  O5  UNL     1      30.391   6.250   3.986  1.00  0.00    -0.288 OA
ATOM     38  H5  UNL     1      30.610   6.182   3.064  1.00  0.00     0.244 HD
ENDBRANCH  35  37
BRANCH  34  39
HETATM   39  O6  UNL     1      31.364   8.267   6.721  1.00  0.00    -0.259 OA
BRANCH  39  40
HETATM   40  C13 UNL     1      30.661   9.054   7.647  1.00  0.00     0.231 C 
HETATM   41  N5  UNL     1      30.352  10.244   7.251  1.00  0.00    -0.367 N 
ATOM     42  H52 UNL     1      30.606  10.584   6.323  1.00  0.00     0.159 HD
ATOM     43  H51 UNL     1      29.841  10.816   7.923  1.00  0.00     0.159 HD
HETATM   44  N6  UNL     1      30.309   8.582   8.932  1.00  0.00    -0.056 NA
ENDBRANCH  39  40
ENDBRANCH  34  39
ENDBRANCH  29  34
ENDBRANCH  26  27
ENDBRANCH   3  26
TORSDOF 13
ENDMDL
MODEL 4
REMARK VINA RESULT: -6.968836008      3.418     10.508
REMARK  13 active torsions:
REMARK  status: ('A' for Active; 'I' for Inactive)
REMARK    1  A    between atoms: C2_2  and  O1_3 
REMARK    2  A    between atoms: C2_2  and  C3_5 
REMARK    3  A    between atoms: C5_10  and  O2_11 
REMARK    4  A    between atoms: C5_10  and  C6_13 
REMARK    5  A    between atoms: C6_13  and  C7_14 
REMARK    6  A    between atoms: C7_14  and  O3_15 
REMARK    7  A    between atoms: C7_14  and  C8_17 
REMARK       I    between atoms: C8_17  and  N2_19 
REMARK    8  A    between atoms: N2_19  and  C9_21 
REMARK    9  A    between atoms: C9_21  and  C10_22 
REMARK   10  A    between atoms: C11_25  and  C12_26 
REMARK   11  A    between atoms: C12_26  and  O6_31 
REMARK   12  A    between atoms: N4_27  and  O5_29 
REMARK   13  A    between atoms: O6_31  and  C13_32 
ROOT
HETATM    1  C8  UNL     1      25.679   4.481   4.941  1.00  0.00     0.247 C 
HETATM    2  O4  UNL     1      25.442   5.668   5.243  1.00  0.00    -0.271 OA
HETATM    3  N2  UNL     1      26.527   3.755   5.852  1.00  0.00    -0.351 N 
ATOM      4  H2  UNL     1      26.749   2.781   5.648  1.00  0.00     0.163 HD
ENDROOT
BRANCH   1   5
HETATM    5  C7  UNL     1      25.115   3.887   3.727  1.00  0.00     0.216 C 
BRANCH   5   6
HETATM    6  C6  UNL     1      24.605   2.497   3.821  1.00  0.00     0.135 C 
BRANCH   6   7
HETATM    7  C5  UNL     1      23.901   1.940   2.617  1.00  0.00     0.317 C 
HETATM    8  N1  UNL     1      22.865   1.077   3.067  1.00  0.00     0.004 N 
HETATM    9  C3  UNL     1      21.917   0.805   2.043  1.00  0.00     0.272 C 
ATOM     10  H12 UNL     1      22.412   1.447   3.902  1.00  0.00     0.285 HD
ATOM     11  H11 UNL     1      23.245   0.215   3.458  1.00  0.00     0.285 HD
HETATM   12  C4  UNL     1      22.363  -0.281   1.085  1.00  0.00     0.069 C 
HETATM   13  S1  UNL     1      21.940   2.324   1.123  1.00  0.00     0.268 S 
HETATM   14  N8  UNL     1      23.193   3.131   2.049  1.00  0.00    -0.260 N 
HETATM   15  O8  UNL     1      22.403   2.121  -0.294  1.00  0.00    -0.203 OA
HETATM   16  O9  UNL     1      20.661   3.075   1.193  1.00  0.00    -0.203 OA
ATOM     17  H8  UNL     1      23.384   4.126   2.167  1.00  0.00     0.177 HD
BRANCH   9  18
HETATM   18  C2  UNL     1      20.553   0.473   2.599  1.00  0.00     0.167 C 
HETATM   19  C1  UNL     1      19.911  -0.736   2.025  1.00  0.00     0.043 C 
BRANCH  18  20
HETATM   20  O1  UNL     1      20.628   0.364   3.979  1.00  0.00    -0.392 OA
ATOM     21  H1  UNL     1      20.317   1.164   4.388  1.00  0.00     0.210 HD
ENDBRANCH  18  20
ENDBRANCH   9  18
BRANCH   7  22
HETATM   22  O2  UNL     1      24.775   1.441   1.695  1.00  0.00    -0.348 OA
ATOM     23  H2  UNL     1      24.406   1.017   0.929  1.00  0.00     0.214 HD
ENDBRANCH   7  22
ENDBRANCH   6   7
ENDBRANCH   5   6
BRANCH   5  24
HETATM   24  O3  UNL     1      26.215   3.811   2.807  1.00  0.00    -0.386 OA
ATOM     25  H3  UNL     1      26.846   4.444   3.132  1.00  0.00     0.210 HD
ENDBRANCH   5  24
ENDBRANCH   1   5
BRANCH   3  26
HETATM   26  C9  UNL     1      27.075   4.357   7.046  1.00  0.00     0.209 C 
BRANCH  26  27
HETATM   27  C10 UNL     1      28.438   4.827   6.747  1.00  0.00     0.166 A 
HETATM   28  N3  UNL     1      28.814   6.125   6.836  1.00  0.00    -0.318 N 
HETATM   29  C11 UNL     1      30.111   6.227   6.500  1.00  0.00     0.181 A 
ATOM     30  H3  UNL     1      28.211   6.900   7.114  1.00  0.00     0.169 HD
HETATM   31  N7  UNL     1      30.500   4.978   6.209  1.00  0.00    -0.239 N 
HETATM   32  O7  UNL     1      29.495   4.166   6.361  1.00  0.00    -0.221 OA
ATOM     33  H7  UNL     1      31.437   4.705   5.914  1.00  0.00     0.196 HD
BRANCH  29  34
HETATM   34  C12 UNL     1      30.921   7.438   6.459  1.00  0.00     0.216 C 
HETATM   35  N4  UNL     1      31.370   7.891   5.338  1.00  0.00    -0.244 N 
ATOM     36  H4  UNL     1      31.936   8.739   5.316  1.00  0.00     0.196 HD
BRANCH  35  37
HETATM   37  O5  UNL     1      31.082   7.229   4.187  1.00  0.00    -0.288 OA
ATOM     38  H5  UNL     1      31.376   6.332   4.079  1.00  0.00     0.244 HD
ENDBRANCH  35  37
BRANCH  34  39
HETATM   39  O6  UNL     1      31.248   8.157   7.595  1.00  0.00    -0.259 OA
BRANCH  39  40
HETATM   40  C13 UNL     1      30.376   9.112   8.141  1.00  0.00     0.231 C 
HETATM   41  N5  UNL     1      30.334  10.248   7.527  1.00  0.00    -0.367 N 
ATOM     42  H52 UNL     1      30.901  10.433   6.699  1.00  0.00     0.159 HD
ATOM     43  H51 UNL     1      29.701  10.942   7.924  1.00  0.00     0.159 HD
HETATM   44  N6  UNL     1      29.592   8.855   9.288  1.00  0.00    -0.056 NA
ENDBRANCH  39  40
ENDBRANCH  34  39
ENDBRANCH  29  34
ENDBRANCH  26  27
ENDBRANCH   3  26
TORSDOF 13
ENDMDL
MODEL 5
REMARK VINA RESULT: -6.951826897      3.048      4.567
REMARK  13 active torsions:
REMARK  status: ('A' for Active; 'I' for Inactive)
REMARK    1  A    between atoms: C2_2  and  O1_3 
REMARK    2  A    between atoms: C2_2  and  C3_5 
REMARK    3  A    between atoms: C5_10  and  O2_11 
REMARK    4  A    between atoms: C5_10  and  C6_13 
REMARK    5  A    between atoms: C6_13  and  C7_14 
REMARK    6  A    between atoms: C7_14  and  O3_15 
REMARK    7  A    between atoms: C7_14  and  C8_17 
REMARK       I    between atoms: C8_17  and  N2_19 
REMARK    8  A    between atoms: N2_19  and  C9_21 
REMARK    9  A    between atoms: C9_21  and  C10_22 
REMARK   10  A    between atoms: C11_25  and  C12_26 
REMARK   11  A    between atoms: C12_26  and  O6_31 
REMARK   12  A    between atoms: N4_27  and  O5_29 
REMARK   13  A    between atoms: O6_31  and  C13_32 
ROOT
HETATM    1  C8  UNL     1      26.097   4.777   4.753  1.00  0.00     0.247 C 
HETATM    2  O4  UNL     1      25.378   5.566   5.400  1.00  0.00    -0.271 OA
HETATM    3  N2  UNL     1      25.652   3.408   4.713  1.00  0.00    -0.351 N 
ATOM      4  H2  UNL     1      26.207   2.725   4.196  1.00  0.00     0.163 HD
ENDROOT
BRANCH   1   5
HETATM    5  C7  UNL     1      27.315   5.244   4.086  1.00  0.00     0.216 C 
BRANCH   5   6
HETATM    6  C6  UNL     1      27.938   6.489   4.599  1.00  0.00     0.135 C 
BRANCH   6   7
HETATM    7  C5  UNL     1      29.372   6.407   5.042  1.00  0.00     0.317 C 
HETATM    8  N1  UNL     1      29.678   7.585   5.776  1.00  0.00     0.004 N 
HETATM    9  C3  UNL     1      30.864   7.438   6.546  1.00  0.00     0.272 C 
ATOM     10  H12 UNL     1      28.892   7.872   6.358  1.00  0.00     0.285 HD
ATOM     11  H11 UNL     1      29.732   8.400   5.165  1.00  0.00     0.285 HD
HETATM   12  C4  UNL     1      32.131   7.647   5.743  1.00  0.00     0.069 C 
HETATM   13  S1  UNL     1      30.811   5.710   6.956  1.00  0.00     0.268 S 
HETATM   14  N8  UNL     1      29.358   5.310   6.059  1.00  0.00    -0.260 N 
HETATM   15  O8  UNL     1      31.984   4.958   6.391  1.00  0.00    -0.203 OA
HETATM   16  O9  UNL     1      30.627   5.455   8.407  1.00  0.00    -0.203 OA
ATOM     17  H8  UNL     1      28.694   4.546   6.192  1.00  0.00     0.177 HD
BRANCH   9  18
HETATM   18  C2  UNL     1      30.871   8.333   7.762  1.00  0.00     0.167 C 
HETATM   19  C1  UNL     1      31.147   9.766   7.494  1.00  0.00     0.043 C 
BRANCH  18  20
HETATM   20  O1  UNL     1      29.673   8.198   8.446  1.00  0.00    -0.392 OA
ATOM     21  H1  UNL     1      29.838   7.962   9.352  1.00  0.00     0.210 HD
ENDBRANCH  18  20
ENDBRANCH   9  18
BRANCH   7  22
HETATM   22  O2  UNL     1      30.208   6.074   4.015  1.00  0.00    -0.348 OA
ATOM     23  H2  UNL     1      29.978   5.314   3.495  1.00  0.00     0.214 HD
ENDBRANCH   7  22
ENDBRANCH   6   7
ENDBRANCH   5   6
BRANCH   5  24
HETATM   24  O3  UNL     1      26.904   5.565   2.749  1.00  0.00    -0.386 OA
ATOM     25  H3  UNL     1      27.640   5.315   2.203  1.00  0.00     0.210 HD
ENDBRANCH   5  24
ENDBRANCH   1   5
BRANCH   3  26
HETATM   26  C9  UNL     1      24.448   2.964   5.377  1.00  0.00     0.209 C 
BRANCH  26  27
HETATM   27  C10 UNL     1      23.707   2.084   4.458  1.00  0.00     0.166 A 
HETATM   28  N3  UNL     1      23.450   2.404   3.167  1.00  0.00    -0.318 N 
HETATM   29  C11 UNL     1      22.760   1.401   2.599  1.00  0.00     0.181 A 
ATOM     30  H3  UNL     1      23.733   3.266   2.702  1.00  0.00     0.169 HD
HETATM   31  N7  UNL     1      22.611   0.483   3.565  1.00  0.00    -0.239 N 
HETATM   32  O7  UNL     1      23.178   0.908   4.655  1.00  0.00    -0.221 OA
ATOM     33  H7  UNL     1      22.128  -0.409   3.461  1.00  0.00     0.196 HD
BRANCH  29  34
HETATM   34  C12 UNL     1      22.278   1.326   1.225  1.00  0.00     0.216 C 
HETATM   35  N4  UNL     1      22.464   0.263   0.520  1.00  0.00    -0.244 N 
ATOM     36  H4  UNL     1      22.123   0.218  -0.441  1.00  0.00     0.196 HD
BRANCH  35  37
HETATM   37  O5  UNL     1      23.116  -0.795   1.067  1.00  0.00    -0.288 OA
ATOM     38  H5  UNL     1      24.061  -0.853   0.987  1.00  0.00     0.244 HD
ENDBRANCH  35  37
BRANCH  34  39
HETATM   39  O6  UNL     1      21.607   2.369   0.612  1.00  0.00    -0.259 OA
BRANCH  39  40
HETATM   40  C13 UNL     1      22.282   3.330  -0.157  1.00  0.00     0.231 C 
HETATM   41  N5  UNL     1      21.740   3.621  -1.293  1.00  0.00    -0.367 N 
ATOM     42  H52 UNL     1      20.876   3.178  -1.605  1.00  0.00     0.159 HD
ATOM     43  H51 UNL     1      22.230   4.319  -1.852  1.00  0.00     0.159 HD
HETATM   44  N6  UNL     1      23.479   3.944   0.276  1.00  0.00    -0.056 NA
ENDBRANCH  39  40
ENDBRANCH  34  39
ENDBRANCH  29  34
ENDBRANCH  26  27
ENDBRANCH   3  26
TORSDOF 13
ENDMDL
