MODEL 1
REMARK VINA RESULT: -6.957540475      0.000      0.000
REMARK  5 active torsions:
REMARK  status: ('A' for Active; 'I' for Inactive)
REMARK    1  A    between atoms: C2_2  and  C4_4 
REMARK    2  A    between atoms: C4_4  and  C5_5 
REMARK    3  A    between atoms: C5_5  and  N1_6 
REMARK    4  A    between atoms: C5_5  and  C13_17 
REMARK       I    between atoms: N1_6  and  C6_8 
REMARK       I    between atoms: C6_8  and  N2_10 
REMARK       I    between atoms: C13_17  and  N3_19 
REMARK    5  A    between atoms: N3_19  and  N4_21 
REMARK       I    between atoms: N4_21  and  C14_23 
ROOT
HETATM    1  C5  UNL     1     102.502  17.601  17.472  1.00  0.00     0.180 C 
ENDROOT
BRANCH   1   2
HETATM    2  C4  UNL     1     101.632  18.747  17.048  1.00  0.00     0.038 C 
BRANCH   2   3
HETATM    3  C2  UNL     1     102.190  19.740  16.116  1.00  0.00    -0.020 C 
HETATM    4  C1  UNL     1     101.422  19.547  14.786  1.00  0.00     0.009 C 
HETATM    5  C3  UNL     1     101.906  21.176  16.508  1.00  0.00     0.009 C 
ENDBRANCH   2   3
ENDBRANCH   1   2
BRANCH   1   6
HETATM    6  N1  UNL     1     103.860  18.005  17.025  1.00  0.00    -0.330 N 
HETATM    7  C6  UNL     1     104.381  17.540  15.802  1.00  0.00     0.319 C 
HETATM    8  O1  UNL     1     103.647  16.769  15.101  1.00  0.00    -0.247 OA
HETATM    9  N2  UNL     1     105.672  17.906  15.348  1.00  0.00    -0.334 N 
HETATM   10  C7  UNL     1     106.205  17.431  14.093  1.00  0.00     0.128 C 
HETATM   11  C12 UNL     1     106.477  18.775  16.159  1.00  0.00     0.128 C 
HETATM   12  C8  UNL     1     106.825  18.549  13.282  1.00  0.00     0.024 C 
HETATM   13  C9  UNL     1     107.748  19.420  14.102  1.00  0.00    -0.015 C 
HETATM   14  C10 UNL     1     109.137  19.386  13.499  1.00  0.00     0.010 C 
HETATM   15  C11 UNL     1     107.851  18.964  15.539  1.00  0.00     0.024 C 
ATOM     16  H1  UNL     1     104.421  18.625  17.609  1.00  0.00     0.165 HD
ENDBRANCH   1   6
BRANCH   1  17
HETATM   17  C13 UNL     1     102.617  17.377  18.908  1.00  0.00     0.259 C 
HETATM   18  O2  UNL     1     103.676  16.931  19.401  1.00  0.00    -0.269 OA
HETATM   19  N3  UNL     1     101.544  17.651  19.784  1.00  0.00    -0.265 N 
ATOM     20  H3  UNL     1     100.668  18.013  19.405  1.00  0.00     0.190 HD
BRANCH  19  21
HETATM   21  N4  UNL     1     101.661  17.434  21.184  1.00  0.00    -0.251 N 
HETATM   22  C14 UNL     1     100.792  18.016  22.113  1.00  0.00     0.347 C 
HETATM   23  N5  UNL     1     100.945  17.771  23.504  1.00  0.00    -0.038 NA
HETATM   24  O3  UNL     1      99.835  18.781  21.781  1.00  0.00    -0.249 OA
ATOM     25  H4  UNL     1     102.408  16.829  21.525  1.00  0.00     0.191 HD
ENDBRANCH  19  21
ENDBRANCH   1  17
TORSDOF 5
ENDMDL
MODEL 2
REMARK VINA RESULT: -6.944106055      3.680      4.656
REMARK  5 active torsions:
REMARK  status: ('A' for Active; 'I' for Inactive)
REMARK    1  A    between atoms: C2_2  and  C4_4 
REMARK    2  A    between atoms: C4_4  and  C5_5 
REMARK    3  A    between atoms: C5_5  and  N1_6 
REMARK    4  A    between atoms: C5_5  and  C13_17 
REMARK       I    between atoms: N1_6  and  C6_8 
REMARK       I    between atoms: C6_8  and  N2_10 
REMARK       I    between atoms: C13_17  and  N3_19 
REMARK    5  A    between atoms: N3_19  and  N4_21 
REMARK       I    between atoms: N4_21  and  C14_23 
ROOT
HETATM    1  C5  UNL     1     105.689  17.058  18.730  1.00  0.00     0.180 C 
ENDROOT
BRANCH   1   2
HETATM    2  C4  UNL     1     104.296  17.195  19.267  1.00  0.00     0.038 C 
BRANCH   2   3
HETATM    3  C2  UNL     1     103.675  16.023  19.905  1.00  0.00    -0.020 C 
HETATM    4  C1  UNL     1     102.928  16.566  21.147  1.00  0.00     0.009 C 
HETATM    5  C3  UNL     1     102.591  15.373  19.070  1.00  0.00     0.009 C 
ENDBRANCH   2   3
ENDBRANCH   1   2
BRANCH   1   6
HETATM    6  N1  UNL     1     105.726  18.017  17.595  1.00  0.00    -0.330 N 
HETATM    7  C6  UNL     1     105.125  17.695  16.364  1.00  0.00     0.319 C 
HETATM    8  O1  UNL     1     104.553  16.561  16.264  1.00  0.00    -0.247 OA
HETATM    9  N2  UNL     1     105.143  18.586  15.263  1.00  0.00    -0.334 N 
HETATM   10  C7  UNL     1     104.524  18.256  14.001  1.00  0.00     0.128 C 
HETATM   11  C12 UNL     1     105.797  19.856  15.405  1.00  0.00     0.128 C 
HETATM   12  C8  UNL     1     103.674  19.392  13.473  1.00  0.00     0.024 C 
HETATM   13  C9  UNL     1     104.382  20.725  13.531  1.00  0.00    -0.015 C 
HETATM   14  C10 UNL     1     104.478  21.304  12.135  1.00  0.00     0.010 C 
HETATM   15  C11 UNL     1     105.784  20.614  14.088  1.00  0.00     0.024 C 
ATOM     16  H1  UNL     1     106.192  18.917  17.710  1.00  0.00     0.165 HD
ENDBRANCH   1   6
BRANCH   1  17
HETATM   17  C13 UNL     1     106.766  17.471  19.622  1.00  0.00     0.259 C 
HETATM   18  O2  UNL     1     107.885  17.791  19.165  1.00  0.00    -0.269 OA
HETATM   19  N3  UNL     1     106.585  17.521  21.022  1.00  0.00    -0.265 N 
ATOM     20  H3  UNL     1     105.681  17.261  21.419  1.00  0.00     0.190 HD
BRANCH  19  21
HETATM   21  N4  UNL     1     107.636  17.927  21.888  1.00  0.00    -0.251 N 
HETATM   22  C14 UNL     1     107.498  17.958  23.280  1.00  0.00     0.347 C 
HETATM   23  N5  UNL     1     108.575  18.370  24.109  1.00  0.00    -0.038 NA
HETATM   24  O3  UNL     1     106.427  17.628  23.877  1.00  0.00    -0.249 OA
ATOM     25  H4  UNL     1     108.527  18.206  21.479  1.00  0.00     0.191 HD
ENDBRANCH  19  21
ENDBRANCH   1  17
TORSDOF 5
ENDMDL
MODEL 3
REMARK VINA RESULT: -6.769985700      5.011      9.632
REMARK  5 active torsions:
REMARK  status: ('A' for Active; 'I' for Inactive)
REMARK    1  A    between atoms: C2_2  and  C4_4 
REMARK    2  A    between atoms: C4_4  and  C5_5 
REMARK    3  A    between atoms: C5_5  and  N1_6 
REMARK    4  A    between atoms: C5_5  and  C13_17 
REMARK       I    between atoms: N1_6  and  C6_8 
REMARK       I    between atoms: C6_8  and  N2_10 
REMARK       I    between atoms: C13_17  and  N3_19 
REMARK    5  A    between atoms: N3_19  and  N4_21 
REMARK       I    between atoms: N4_21  and  C14_23 
ROOT
HETATM    1  C5  UNL     1     109.268  19.662  12.762  1.00  0.00     0.180 C 
ENDROOT
BRANCH   1   2
HETATM    2  C4  UNL     1     109.643  18.348  12.144  1.00  0.00     0.038 C 
BRANCH   2   3
HETATM    3  C2  UNL     1     109.297  18.118  10.732  1.00  0.00    -0.020 C 
HETATM    4  C1  UNL     1     107.928  18.806  10.516  1.00  0.00     0.009 C 
HETATM    5  C3  UNL     1     110.223  18.812   9.753  1.00  0.00     0.009 C 
ENDBRANCH   2   3
ENDBRANCH   1   2
BRANCH   1   6
HETATM    6  N1  UNL     1     108.905  19.304  14.158  1.00  0.00    -0.330 N 
HETATM    7  C6  UNL     1     107.564  19.352  14.586  1.00  0.00     0.319 C 
HETATM    8  O1  UNL     1     106.685  19.710  13.736  1.00  0.00    -0.247 OA
HETATM    9  N2  UNL     1     107.185  19.017  15.909  1.00  0.00    -0.334 N 
HETATM   10  C7  UNL     1     105.810  19.065  16.346  1.00  0.00     0.128 C 
HETATM   11  C12 UNL     1     108.198  18.619  16.845  1.00  0.00     0.128 C 
HETATM   12  C8  UNL     1     105.415  17.819  17.110  1.00  0.00     0.024 C 
HETATM   13  C9  UNL     1     106.429  17.437  18.163  1.00  0.00    -0.015 C 
HETATM   14  C10 UNL     1     105.761  17.429  19.523  1.00  0.00     0.010 C 
HETATM   15  C11 UNL     1     107.595  18.397  18.222  1.00  0.00     0.024 C 
ATOM     16  H1  UNL     1     109.634  19.019  14.812  1.00  0.00     0.165 HD
ENDBRANCH   1   6
BRANCH   1  17
HETATM   17  C13 UNL     1     110.337  20.647  12.880  1.00  0.00     0.259 C 
HETATM   18  O2  UNL     1     110.095  21.867  12.762  1.00  0.00    -0.269 OA
HETATM   19  N3  UNL     1     111.672  20.258  13.128  1.00  0.00    -0.265 N 
ATOM     20  H3  UNL     1     111.895  19.267  13.225  1.00  0.00     0.190 HD
BRANCH  19  21
HETATM   21  N4  UNL     1     112.711  21.221  13.246  1.00  0.00    -0.251 N 
HETATM   22  C14 UNL     1     114.060  20.867  13.347  1.00  0.00     0.347 C 
HETATM   23  N5  UNL     1     115.067  21.863  13.463  1.00  0.00    -0.038 NA
HETATM   24  O3  UNL     1     114.462  19.663  13.343  1.00  0.00    -0.249 OA
ATOM     25  H4  UNL     1     112.463  22.210  13.256  1.00  0.00     0.191 HD
ENDBRANCH  19  21
ENDBRANCH   1  17
TORSDOF 5
ENDMDL
MODEL 4
REMARK VINA RESULT: -6.715075766      3.606      6.095
REMARK  5 active torsions:
REMARK  status: ('A' for Active; 'I' for Inactive)
REMARK    1  A    between atoms: C2_2  and  C4_4 
REMARK    2  A    between atoms: C4_4  and  C5_5 
REMARK    3  A    between atoms: C5_5  and  N1_6 
REMARK    4  A    between atoms: C5_5  and  C13_17 
REMARK       I    between atoms: N1_6  and  C6_8 
REMARK       I    between atoms: C6_8  and  N2_10 
REMARK       I    between atoms: C13_17  and  N3_19 
REMARK    5  A    between atoms: N3_19  and  N4_21 
REMARK       I    between atoms: N4_21  and  C14_23 
ROOT
HETATM    1  C5  UNL     1     106.362  18.570  15.855  1.00  0.00     0.180 C 
ENDROOT
BRANCH   1   2
HETATM    2  C4  UNL     1     106.579  20.052  15.779  1.00  0.00     0.038 C 
BRANCH   2   3
HETATM    3  C2  UNL     1     107.394  20.583  14.674  1.00  0.00    -0.020 C 
HETATM    4  C1  UNL     1     108.257  19.397  14.179  1.00  0.00     0.009 C 
HETATM    5  C3  UNL     1     106.585  20.990  13.458  1.00  0.00     0.009 C 
ENDBRANCH   2   3
ENDBRANCH   1   2
BRANCH   1   6
HETATM    6  N1  UNL     1     106.341  18.291  17.314  1.00  0.00    -0.330 N 
HETATM    7  C6  UNL     1     107.542  18.161  18.037  1.00  0.00     0.319 C 
HETATM    8  O1  UNL     1     108.636  18.293  17.396  1.00  0.00    -0.247 OA
HETATM    9  N2  UNL     1     107.557  17.894  19.428  1.00  0.00    -0.334 N 
HETATM   10  C7  UNL     1     108.789  17.764  20.169  1.00  0.00     0.128 C 
HETATM   11  C12 UNL     1     106.310  17.748  20.123  1.00  0.00     0.128 C 
HETATM   12  C8  UNL     1     108.762  18.559  21.457  1.00  0.00     0.024 C 
HETATM   13  C9  UNL     1     107.492  18.347  22.246  1.00  0.00    -0.015 C 
HETATM   14  C10 UNL     1     107.838  17.795  23.614  1.00  0.00     0.010 C 
HETATM   15  C11 UNL     1     106.548  17.374  21.577  1.00  0.00     0.024 C 
ATOM     16  H1  UNL     1     105.448  18.192  17.796  1.00  0.00     0.165 HD
ENDBRANCH   1   6
BRANCH   1  17
HETATM   17  C13 UNL     1     105.086  18.080  15.347  1.00  0.00     0.259 C 
HETATM   18  O2  UNL     1     104.962  17.747  14.149  1.00  0.00    -0.269 OA
HETATM   19  N3  UNL     1     103.955  17.966  16.185  1.00  0.00    -0.265 N 
ATOM     20  H3  UNL     1     104.031  18.235  17.167  1.00  0.00     0.190 HD
BRANCH  19  21
HETATM   21  N4  UNL     1     102.713  17.485  15.688  1.00  0.00    -0.251 N 
HETATM   22  C14 UNL     1     101.533  18.233  15.753  1.00  0.00     0.347 C 
HETATM   23  N5  UNL     1     100.314  17.713  15.243  1.00  0.00    -0.038 NA
HETATM   24  O3  UNL     1     101.478  19.396  16.260  1.00  0.00    -0.249 OA
ATOM     25  H4  UNL     1     102.682  16.557  15.266  1.00  0.00     0.191 HD
ENDBRANCH  19  21
ENDBRANCH   1  17
TORSDOF 5
ENDMDL
MODEL 5
REMARK VINA RESULT: -6.701875860      3.856      8.182
REMARK  5 active torsions:
REMARK  status: ('A' for Active; 'I' for Inactive)
REMARK    1  A    between atoms: C2_2  and  C4_4 
REMARK    2  A    between atoms: C4_4  and  C5_5 
REMARK    3  A    between atoms: C5_5  and  N1_6 
REMARK    4  A    between atoms: C5_5  and  C13_17 
REMARK       I    between atoms: N1_6  and  C6_8 
REMARK       I    between atoms: C6_8  and  N2_10 
REMARK       I    between atoms: C13_17  and  N3_19 
REMARK    5  A    between atoms: N3_19  and  N4_21 
REMARK       I    between atoms: N4_21  and  C14_23 
ROOT
HETATM    1  C5  UNL     1     107.433  20.084  15.212  1.00  0.00     0.180 C 
ENDROOT
BRANCH   1   2
HETATM    2  C4  UNL     1     106.597  21.254  14.789  1.00  0.00     0.038 C 
BRANCH   2   3
HETATM    3  C2  UNL     1     105.133  21.137  14.883  1.00  0.00    -0.020 C 
HETATM    4  C1  UNL     1     104.637  22.492  15.442  1.00  0.00     0.009 C 
HETATM    5  C3  UNL     1     104.442  21.010  13.540  1.00  0.00     0.009 C 
ENDBRANCH   2   3
ENDBRANCH   1   2
BRANCH   1   6
HETATM    6  N1  UNL     1     106.471  19.199  15.918  1.00  0.00    -0.330 N 
HETATM    7  C6  UNL     1     106.821  18.585  17.136  1.00  0.00     0.319 C 
HETATM    8  O1  UNL     1     107.983  18.818  17.603  1.00  0.00    -0.247 OA
HETATM    9  N2  UNL     1     105.926  17.736  17.834  1.00  0.00    -0.334 N 
HETATM   10  C7  UNL     1     106.285  17.109  19.083  1.00  0.00     0.128 C 
HETATM   11  C12 UNL     1     104.624  17.492  17.282  1.00  0.00     0.128 C 
HETATM   12  C8  UNL     1     105.194  17.253  20.123  1.00  0.00     0.024 C 
HETATM   13  C9  UNL     1     103.826  16.911  19.583  1.00  0.00    -0.015 C 
HETATM   14  C10 UNL     1     103.239  15.770  20.388  1.00  0.00     0.010 C 
HETATM   15  C11 UNL     1     103.864  16.487  18.132  1.00  0.00     0.024 C 
ATOM     16  H1  UNL     1     105.547  19.036  15.517  1.00  0.00     0.165 HD
ENDBRANCH   1   6
BRANCH   1  17
HETATM   17  C13 UNL     1     107.992  19.270  14.138  1.00  0.00     0.259 C 
HETATM   18  O2  UNL     1     107.244  18.615  13.380  1.00  0.00    -0.269 OA
HETATM   19  N3  UNL     1     109.385  19.195  13.920  1.00  0.00    -0.265 N 
ATOM     20  H3  UNL     1     110.016  19.718  14.528  1.00  0.00     0.190 HD
BRANCH  19  21
HETATM   21  N4  UNL     1     109.926  18.403  12.870  1.00  0.00    -0.251 N 
HETATM   22  C14 UNL     1     111.204  18.618  12.345  1.00  0.00     0.347 C 
HETATM   23  N5  UNL     1     111.705  17.802  11.295  1.00  0.00    -0.038 NA
HETATM   24  O3  UNL     1     111.979  19.532  12.762  1.00  0.00    -0.249 OA
ATOM     25  H4  UNL     1     109.359  17.648  12.485  1.00  0.00     0.191 HD
ENDBRANCH  19  21
ENDBRANCH   1  17
TORSDOF 5
ENDMDL
