MODEL 1
REMARK VINA RESULT: -6.170585342      0.000      0.000
REMARK  5 active torsions:
REMARK  status: ('A' for Active; 'I' for Inactive)
REMARK    1  A    between atoms: C2_2  and  N1_4 
REMARK       I    between atoms: N1_4  and  C4_6 
REMARK    2  A    between atoms: C4_6  and  C5_8 
REMARK    3  A    between atoms: C5_8  and  C6_9 
REMARK    4  A    between atoms: C10_14  and  N2_15 
REMARK    5  A    between atoms: C10_14  and  C11_19 
REMARK       I    between atoms: N4_23  and  C13_25 
ROOT
HETATM    1  C6  UNL     1     104.801  16.890  17.451  1.00  0.00     0.105 C 
HETATM    2  S1  UNL     1     105.167  17.423  15.750  1.00  0.00    -0.145 SA
HETATM    3  C7  UNL     1     103.583  18.270  15.458  1.00  0.00     0.049 C 
HETATM    4  C8  UNL     1     103.029  17.941  14.089  1.00  0.00     0.030 C 
HETATM    5  C9  UNL     1     103.906  19.761  15.426  1.00  0.00     0.030 C 
HETATM    6  C10 UNL     1     102.705  17.853  16.550  1.00  0.00     0.255 C 
HETATM    7  C12 UNL     1     103.340  16.959  17.503  1.00  0.00     0.050 C 
HETATM    8  N4  UNL     1     102.649  16.261  18.340  1.00  0.00    -0.334 N 
ATOM      9  H4  UNL     1     101.636  16.377  18.300  1.00  0.00     0.168 HD
HETATM   10  C13 UNL     1     103.132  15.369  19.292  1.00  0.00     0.186 C 
HETATM   11  N5  UNL     1     103.683  14.269  18.980  1.00  0.00    -0.374 N 
ATOM     12  H51 UNL     1     104.037  13.614  19.677  1.00  0.00     0.158 HD
ATOM     13  H52 UNL     1     103.779  14.033  17.992  1.00  0.00     0.158 HD
HETATM   14  N6  UNL     1     102.998  15.697  20.670  1.00  0.00    -0.064 NA
ENDROOT
BRANCH   1  15
HETATM   15  C5  UNL     1     105.343  17.869  18.458  1.00  0.00     0.124 C 
BRANCH  15  16
HETATM   16  C4  UNL     1     106.191  17.207  19.486  1.00  0.00     0.219 C 
HETATM   17  N1  UNL     1     106.928  18.065  20.349  1.00  0.00    -0.357 N 
ATOM     18  H1  UNL     1     106.851  19.076  20.237  1.00  0.00     0.162 HD
HETATM   19  O1  UNL     1     106.291  15.980  19.630  1.00  0.00    -0.274 OA
BRANCH  17  20
HETATM   20  C2  UNL     1     107.795  17.518  21.397  1.00  0.00     0.076 C 
HETATM   21  C1  UNL     1     109.206  17.943  21.077  1.00  0.00     0.032 C 
HETATM   22  C3  UNL     1     107.399  18.208  22.707  1.00  0.00     0.032 C 
ENDBRANCH  17  20
ENDBRANCH  15  16
ENDBRANCH   1  15
BRANCH   6  23
HETATM   23  N2  UNL     1     102.187  19.027  17.229  1.00  0.00    -0.055 N 
ATOM     24  H23 UNL     1     102.473  19.894  16.774  1.00  0.00     0.276 HD
ATOM     25  H22 UNL     1     101.178  19.127  17.113  1.00  0.00     0.276 HD
ATOM     26  H21 UNL     1     102.460  19.001  18.212  1.00  0.00     0.276 HD
ENDBRANCH   6  23
BRANCH   6  27
HETATM   27  C11 UNL     1     101.506  17.129  15.991  1.00  0.00     0.275 C 
HETATM   28  N3  UNL     1     101.527  15.754  15.703  1.00  0.00    -0.059 NA
HETATM   29  O2  UNL     1     100.453  17.767  15.773  1.00  0.00    -0.274 OA
ENDBRANCH   6  27
TORSDOF 5
ENDMDL
MODEL 2
REMARK VINA RESULT: -5.862722038      8.481      9.466
REMARK  5 active torsions:
REMARK  status: ('A' for Active; 'I' for Inactive)
REMARK    1  A    between atoms: C2_2  and  N1_4 
REMARK       I    between atoms: N1_4  and  C4_6 
REMARK    2  A    between atoms: C4_6  and  C5_8 
REMARK    3  A    between atoms: C5_8  and  C6_9 
REMARK    4  A    between atoms: C10_14  and  N2_15 
REMARK    5  A    between atoms: C10_14  and  C11_19 
REMARK       I    between atoms: N4_23  and  C13_25 
ROOT
HETATM    1  C6  UNL     1     110.799  20.046  11.705  1.00  0.00     0.105 C 
HETATM    2  S1  UNL     1     109.611  21.360  11.289  1.00  0.00    -0.145 SA
HETATM    3  C7  UNL     1     108.221  20.689  12.253  1.00  0.00     0.049 C 
HETATM    4  C8  UNL     1     106.927  20.757  11.470  1.00  0.00     0.030 C 
HETATM    5  C9  UNL     1     108.038  21.633  13.437  1.00  0.00     0.030 C 
HETATM    6  C10 UNL     1     108.608  19.325  12.607  1.00  0.00     0.255 C 
HETATM    7  C12 UNL     1     109.929  18.949  12.132  1.00  0.00     0.050 C 
HETATM    8  N4  UNL     1     110.305  17.715  12.085  1.00  0.00    -0.334 N 
ATOM      9  H4  UNL     1     109.628  17.022  12.404  1.00  0.00     0.168 HD
HETATM   10  C13 UNL     1     111.531  17.226  11.647  1.00  0.00     0.186 C 
HETATM   11  N5  UNL     1     111.895  17.282  10.432  1.00  0.00    -0.374 N 
ATOM     12  H51 UNL     1     112.794  16.924  10.111  1.00  0.00     0.158 HD
ATOM     13  H52 UNL     1     111.265  17.707   9.752  1.00  0.00     0.158 HD
HETATM   14  N6  UNL     1     112.411  16.634  12.595  1.00  0.00    -0.064 NA
ENDROOT
BRANCH   1  15
HETATM   15  C5  UNL     1     111.656  20.436  12.879  1.00  0.00     0.124 C 
BRANCH  15  16
HETATM   16  C4  UNL     1     113.099  20.509  12.523  1.00  0.00     0.219 C 
HETATM   17  N1  UNL     1     113.921  19.444  12.984  1.00  0.00    -0.357 N 
ATOM     18  H1  UNL     1     113.505  18.687  13.527  1.00  0.00     0.162 HD
HETATM   19  O1  UNL     1     113.614  21.424  11.864  1.00  0.00    -0.274 OA
BRANCH  17  20
HETATM   20  C2  UNL     1     115.357  19.416  12.689  1.00  0.00     0.076 C 
HETATM   21  C1  UNL     1     116.061  18.955  13.941  1.00  0.00     0.032 C 
HETATM   22  C3  UNL     1     115.571  18.337  11.623  1.00  0.00     0.032 C 
ENDBRANCH  17  20
ENDBRANCH  15  16
ENDBRANCH   1  15
BRANCH   6  23
HETATM   23  N2  UNL     1     108.524  19.156  14.047  1.00  0.00    -0.055 N 
ATOM     24  H23 UNL     1     107.689  19.592  14.438  1.00  0.00     0.276 HD
ATOM     25  H22 UNL     1     108.323  18.191  14.311  1.00  0.00     0.276 HD
ATOM     26  H21 UNL     1     109.379  19.504  14.481  1.00  0.00     0.276 HD
ENDBRANCH   6  23
BRANCH   6  27
HETATM   27  C11 UNL     1     107.626  18.346  12.012  1.00  0.00     0.275 C 
HETATM   28  N3  UNL     1     106.598  17.760  12.770  1.00  0.00    -0.059 NA
HETATM   29  O2  UNL     1     107.724  18.040  10.804  1.00  0.00    -0.274 OA
ENDBRANCH   6  27
TORSDOF 5
ENDMDL
MODEL 3
REMARK VINA RESULT: -5.852781130      2.678      3.651
REMARK  5 active torsions:
REMARK  status: ('A' for Active; 'I' for Inactive)
REMARK    1  A    between atoms: C2_2  and  N1_4 
REMARK       I    between atoms: N1_4  and  C4_6 
REMARK    2  A    between atoms: C4_6  and  C5_8 
REMARK    3  A    between atoms: C5_8  and  C6_9 
REMARK    4  A    between atoms: C10_14  and  N2_15 
REMARK    5  A    between atoms: C10_14  and  C11_19 
REMARK       I    between atoms: N4_23  and  C13_25 
ROOT
HETATM    1  C6  UNL     1     103.054  17.839  17.916  1.00  0.00     0.105 C 
HETATM    2  S1  UNL     1     102.197  19.008  16.817  1.00  0.00    -0.145 SA
HETATM    3  C7  UNL     1     102.218  17.948  15.338  1.00  0.00     0.049 C 
HETATM    4  C8  UNL     1     102.600  18.737  14.104  1.00  0.00     0.030 C 
HETATM    5  C9  UNL     1     100.774  17.509  15.117  1.00  0.00     0.030 C 
HETATM    6  C10 UNL     1     103.152  16.866  15.641  1.00  0.00     0.255 C 
HETATM    7  C12 UNL     1     103.727  16.945  16.973  1.00  0.00     0.050 C 
HETATM    8  N4  UNL     1     104.776  16.267  17.298  1.00  0.00    -0.334 N 
ATOM      9  H4  UNL     1     105.175  15.671  16.572  1.00  0.00     0.168 HD
HETATM   10  C13 UNL     1     105.425  16.260  18.529  1.00  0.00     0.186 C 
HETATM   11  N5  UNL     1     106.056  17.267  18.975  1.00  0.00    -0.374 N 
ATOM     12  H51 UNL     1     106.531  17.262  19.877  1.00  0.00     0.158 HD
ATOM     13  H52 UNL     1     106.084  18.116  18.410  1.00  0.00     0.158 HD
HETATM   14  N6  UNL     1     105.386  15.076  19.317  1.00  0.00    -0.064 NA
ENDROOT
BRANCH   1  15
HETATM   15  C5  UNL     1     102.074  17.017  18.710  1.00  0.00     0.124 C 
BRANCH  15  16
HETATM   16  C4  UNL     1     102.090  17.363  20.156  1.00  0.00     0.219 C 
HETATM   17  N1  UNL     1     103.148  16.810  20.929  1.00  0.00    -0.357 N 
ATOM     18  H1  UNL     1     103.840  16.211  20.478  1.00  0.00     0.162 HD
HETATM   19  O1  UNL     1     101.253  18.089  20.714  1.00  0.00    -0.274 OA
BRANCH  17  20
HETATM   20  C2  UNL     1     103.258  17.087  22.365  1.00  0.00     0.076 C 
HETATM   21  C1  UNL     1     102.775  15.858  23.096  1.00  0.00     0.032 C 
HETATM   22  C3  UNL     1     104.751  17.242  22.674  1.00  0.00     0.032 C 
ENDBRANCH  17  20
ENDBRANCH  15  16
ENDBRANCH   1  15
BRANCH   6  23
HETATM   23  N2  UNL     1     102.488  15.588  15.454  1.00  0.00    -0.055 N 
ATOM     24  H23 UNL     1     102.140  15.202  16.332  1.00  0.00     0.276 HD
ATOM     25  H22 UNL     1     101.594  15.684  14.972  1.00  0.00     0.276 HD
ATOM     26  H21 UNL     1     103.118  14.944  14.974  1.00  0.00     0.276 HD
ENDBRANCH   6  23
BRANCH   6  27
HETATM   27  C11 UNL     1     104.298  16.891  14.660  1.00  0.00     0.275 C 
HETATM   28  N3  UNL     1     105.387  17.767  14.801  1.00  0.00    -0.059 NA
HETATM   29  O2  UNL     1     104.285  16.108  13.685  1.00  0.00    -0.274 OA
ENDBRANCH   6  27
TORSDOF 5
ENDMDL
MODEL 4
REMARK VINA RESULT: -5.638705513      5.794      8.107
REMARK  5 active torsions:
REMARK  status: ('A' for Active; 'I' for Inactive)
REMARK    1  A    between atoms: C2_2  and  N1_4 
REMARK       I    between atoms: N1_4  and  C4_6 
REMARK    2  A    between atoms: C4_6  and  C5_8 
REMARK    3  A    between atoms: C5_8  and  C6_9 
REMARK    4  A    between atoms: C10_14  and  N2_15 
REMARK    5  A    between atoms: C10_14  and  C11_19 
REMARK       I    between atoms: N4_23  and  C13_25 
ROOT
HETATM    1  C6  UNL     1     107.093  19.344  12.738  1.00  0.00     0.105 C 
HETATM    2  S1  UNL     1     107.438  19.718  10.991  1.00  0.00    -0.145 SA
HETATM    3  C7  UNL     1     109.245  19.529  11.097  1.00  0.00     0.049 C 
HETATM    4  C8  UNL     1     109.957  20.642  10.359  1.00  0.00     0.030 C 
HETATM    5  C9  UNL     1     109.577  18.249  10.336  1.00  0.00     0.030 C 
HETATM    6  C10 UNL     1     109.555  19.494  12.525  1.00  0.00     0.255 C 
HETATM    7  C12 UNL     1     108.385  19.587  13.381  1.00  0.00     0.050 C 
HETATM    8  N4  UNL     1     108.485  19.874  14.635  1.00  0.00    -0.334 N 
ATOM      9  H4  UNL     1     109.429  20.026  14.992  1.00  0.00     0.168 HD
HETATM   10  C13 UNL     1     107.449  20.000  15.555  1.00  0.00     0.186 C 
HETATM   11  N5  UNL     1     106.602  20.944  15.505  1.00  0.00    -0.374 N 
ATOM     12  H51 UNL     1     105.842  21.036  16.180  1.00  0.00     0.158 HD
ATOM     13  H52 UNL     1     106.683  21.635  14.759  1.00  0.00     0.158 HD
HETATM   14  N6  UNL     1     107.336  19.036  16.596  1.00  0.00    -0.064 NA
ENDROOT
BRANCH   1  15
HETATM   15  C5  UNL     1     106.750  17.891  12.928  1.00  0.00     0.124 C 
BRANCH  15  16
HETATM   16  C4  UNL     1     105.356  17.699  13.409  1.00  0.00     0.219 C 
HETATM   17  N1  UNL     1     104.607  18.880  13.669  1.00  0.00    -0.357 N 
ATOM     18  H1  UNL     1     105.039  19.792  13.521  1.00  0.00     0.162 HD
HETATM   19  O1  UNL     1     104.821  16.595  13.593  1.00  0.00    -0.274 OA
BRANCH  17  20
HETATM   20  C2  UNL     1     103.222  18.806  14.147  1.00  0.00     0.076 C 
HETATM   21  C1  UNL     1     103.227  19.221  15.597  1.00  0.00     0.032 C 
HETATM   22  C3  UNL     1     102.428  19.864  13.374  1.00  0.00     0.032 C 
ENDBRANCH  17  20
ENDBRANCH  15  16
ENDBRANCH   1  15
BRANCH   6  23
HETATM   23  N2  UNL     1     110.306  18.289  12.828  1.00  0.00    -0.055 N 
ATOM     24  H23 UNL     1     109.755  17.443  12.679  1.00  0.00     0.276 HD
ATOM     25  H22 UNL     1     111.039  18.108  12.141  1.00  0.00     0.276 HD
ATOM     26  H21 UNL     1     110.674  18.346  13.777  1.00  0.00     0.276 HD
ENDBRANCH   6  23
BRANCH   6  27
HETATM   27  C11 UNL     1     110.458  20.650  12.879  1.00  0.00     0.275 C 
HETATM   28  N3  UNL     1     111.854  20.517  12.953  1.00  0.00    -0.059 NA
HETATM   29  O2  UNL     1     109.953  21.769  13.116  1.00  0.00    -0.274 OA
ENDBRANCH   6  27
TORSDOF 5
ENDMDL
MODEL 5
REMARK VINA RESULT: -5.525887044      3.428      5.241
REMARK  5 active torsions:
REMARK  status: ('A' for Active; 'I' for Inactive)
REMARK    1  A    between atoms: C2_2  and  N1_4 
REMARK       I    between atoms: N1_4  and  C4_6 
REMARK    2  A    between atoms: C4_6  and  C5_8 
REMARK    3  A    between atoms: C5_8  and  C6_9 
REMARK    4  A    between atoms: C10_14  and  N2_15 
REMARK    5  A    between atoms: C10_14  and  C11_19 
REMARK       I    between atoms: N4_23  and  C13_25 
ROOT
HETATM    1  C6  UNL     1     102.802  19.456  15.590  1.00  0.00     0.105 C 
HETATM    2  S1  UNL     1     102.169  21.130  15.925  1.00  0.00    -0.145 SA
HETATM    3  C7  UNL     1     101.799  21.555  14.196  1.00  0.00     0.049 C 
HETATM    4  C8  UNL     1     102.255  22.961  13.867  1.00  0.00     0.030 C 
HETATM    5  C9  UNL     1     100.277  21.580  14.088  1.00  0.00     0.030 C 
HETATM    6  C10 UNL     1     102.457  20.532  13.387  1.00  0.00     0.255 C 
HETATM    7  C12 UNL     1     103.148  19.522  14.169  1.00  0.00     0.050 C 
HETATM    8  N4  UNL     1     104.020  18.733  13.638  1.00  0.00    -0.334 N 
ATOM      9  H4  UNL     1     104.193  18.855  12.640  1.00  0.00     0.168 HD
HETATM   10  C13 UNL     1     104.751  17.736  14.275  1.00  0.00     0.186 C 
HETATM   11  N5  UNL     1     105.649  17.990  15.136  1.00  0.00    -0.374 N 
ATOM     12  H51 UNL     1     106.185  17.259  15.603  1.00  0.00     0.158 HD
ATOM     13  H52 UNL     1     105.837  18.965  15.373  1.00  0.00     0.158 HD
HETATM   14  N6  UNL     1     104.489  16.377  13.946  1.00  0.00    -0.064 NA
ENDROOT
BRANCH   1  15
HETATM   15  C5  UNL     1     101.721  18.421  15.754  1.00  0.00     0.124 C 
BRANCH  15  16
HETATM   16  C4  UNL     1     102.094  17.369  16.737  1.00  0.00     0.219 C 
HETATM   17  N1  UNL     1     103.055  17.732  17.721  1.00  0.00    -0.357 N 
ATOM     18  H1  UNL     1     103.444  18.675  17.719  1.00  0.00     0.162 HD
HETATM   19  O1  UNL     1     101.628  16.220  16.747  1.00  0.00    -0.274 OA
BRANCH  17  20
HETATM   20  C2  UNL     1     103.494  16.771  18.738  1.00  0.00     0.076 C 
HETATM   21  C1  UNL     1     104.931  17.095  19.067  1.00  0.00     0.032 C 
HETATM   22  C3  UNL     1     102.666  17.048  19.997  1.00  0.00     0.032 C 
ENDBRANCH  17  20
ENDBRANCH  15  16
ENDBRANCH   1  15
BRANCH   6  23
HETATM   23  N2  UNL     1     101.484  19.909  12.507  1.00  0.00    -0.055 N 
ATOM     24  H23 UNL     1     100.580  19.780  12.962  1.00  0.00     0.276 HD
ATOM     25  H22 UNL     1     101.183  20.536  11.760  1.00  0.00     0.276 HD
ATOM     26  H21 UNL     1     101.861  19.034  12.146  1.00  0.00     0.276 HD
ENDBRANCH   6  23
BRANCH   6  27
HETATM   27  C11 UNL     1     103.483  21.175  12.487  1.00  0.00     0.275 C 
HETATM   28  N3  UNL     1     103.217  21.479  11.141  1.00  0.00    -0.059 NA
HETATM   29  O2  UNL     1     104.612  21.451  12.948  1.00  0.00    -0.274 OA
ENDBRANCH   6  27
TORSDOF 5
ENDMDL
