MODEL 1
REMARK VINA RESULT: -5.898125566      0.000      0.000
REMARK  5 active torsions:
REMARK  status: ('A' for Active; 'I' for Inactive)
REMARK    1  A    between atoms: C2_2  and  O1_5 
REMARK    2  A    between atoms: O1_5  and  C5_6 
REMARK       I    between atoms: C5_6  and  N1_8 
REMARK    3  A    between atoms: N1_8  and  C6_10 
REMARK    4  A    between atoms: C11_15  and  N2_16 
REMARK    5  A    between atoms: C12_17  and  O3_18 
ROOT
HETATM    1  C6  UNL     1     -13.935  19.232 -14.844  1.00  0.00     0.110 C 
HETATM    2  C7  UNL     1     -12.839  20.187 -15.327  1.00  0.00     0.027 C 
HETATM    3  C8  UNL     1     -12.123  20.649 -14.053  1.00  0.00     0.002 C 
HETATM    4  C9  UNL     1     -13.087  21.396 -13.162  1.00  0.00     0.002 C 
HETATM    5  C10 UNL     1     -14.259  20.522 -12.820  1.00  0.00     0.028 C 
HETATM    6  C11 UNL     1     -14.944  20.092 -14.123  1.00  0.00     0.119 C 
ENDROOT
BRANCH   1   7
HETATM    7  N1  UNL     1     -14.476  18.433 -15.880  1.00  0.00    -0.330 N 
HETATM    8  C5  UNL     1     -14.034  17.103 -16.059  1.00  0.00     0.361 C 
HETATM    9  O2  UNL     1     -13.151  16.588 -15.311  1.00  0.00    -0.238 OA
ATOM     10  H1  UNL     1     -15.189  18.819 -16.499  1.00  0.00     0.165 HD
BRANCH   8  11
HETATM   11  O1  UNL     1     -14.547  16.297 -17.066  1.00  0.00    -0.294 OA
BRANCH  11  12
HETATM   12  C2  UNL     1     -14.034  16.413 -18.377  1.00  0.00     0.061 C 
HETATM   13  C1  UNL     1     -12.773  17.223 -18.418  1.00  0.00     0.046 C 
HETATM   14  C3  UNL     1     -13.701  15.033 -18.944  1.00  0.00     0.046 C 
HETATM   15  C4  UNL     1     -15.120  17.033 -19.228  1.00  0.00     0.046 C 
ENDBRANCH  11  12
ENDBRANCH   8  11
ENDBRANCH   1   7
BRANCH   6  16
HETATM   16  N2  UNL     1     -16.193  19.441 -13.891  1.00  0.00    -0.272 N 
HETATM   17  C12 UNL     1     -17.411  19.933 -14.259  1.00  0.00     0.162 A 
HETATM   18  C13 UNL     1     -18.404  19.056 -13.886  1.00  0.00     0.149 A 
HETATM   19  N3  UNL     1     -17.781  18.023 -13.287  1.00  0.00    -0.314 N 
HETATM   20  C14 UNL     1     -16.462  18.273 -13.301  1.00  0.00     0.328 A 
ATOM     21  H3  UNL     1     -18.231  17.197 -12.892  1.00  0.00     0.170 HD
HETATM   22  O4  UNL     1     -15.612  17.491 -12.813  1.00  0.00    -0.246 OA
BRANCH  17  23
HETATM   23  O3  UNL     1     -17.662  21.137 -14.915  1.00  0.00    -0.345 OA
ATOM     24  H3  UNL     1     -18.367  21.748 -14.734  1.00  0.00     0.219 HD
ENDBRANCH  17  23
ENDBRANCH   6  16
TORSDOF 5
ENDMDL
MODEL 2
REMARK VINA RESULT: -5.737532575      2.255      5.410
REMARK  5 active torsions:
REMARK  status: ('A' for Active; 'I' for Inactive)
REMARK    1  A    between atoms: C2_2  and  O1_5 
REMARK    2  A    between atoms: O1_5  and  C5_6 
REMARK       I    between atoms: C5_6  and  N1_8 
REMARK    3  A    between atoms: N1_8  and  C6_10 
REMARK    4  A    between atoms: C11_15  and  N2_16 
REMARK    5  A    between atoms: C12_17  and  O3_18 
ROOT
HETATM    1  C6  UNL     1     -14.961  19.659 -14.439  1.00  0.00     0.110 C 
HETATM    2  C7  UNL     1     -15.926  20.793 -14.797  1.00  0.00     0.027 C 
HETATM    3  C8  UNL     1     -17.259  20.402 -14.149  1.00  0.00     0.002 C 
HETATM    4  C9  UNL     1     -17.760  19.107 -14.742  1.00  0.00     0.002 C 
HETATM    5  C10 UNL     1     -16.741  18.020 -14.548  1.00  0.00     0.028 C 
HETATM    6  C11 UNL     1     -15.432  18.454 -15.218  1.00  0.00     0.119 C 
ENDROOT
BRANCH   1   7
HETATM    7  N1  UNL     1     -13.601  19.996 -14.644  1.00  0.00    -0.330 N 
HETATM    8  C5  UNL     1     -12.752  20.237 -13.540  1.00  0.00     0.361 C 
HETATM    9  O2  UNL     1     -13.174  20.160 -12.347  1.00  0.00    -0.238 OA
ATOM     10  H1  UNL     1     -13.233  20.066 -15.592  1.00  0.00     0.165 HD
BRANCH   8  11
HETATM   11  O1  UNL     1     -11.417  20.570 -13.710  1.00  0.00    -0.294 OA
BRANCH  11  12
HETATM   12  C2  UNL     1     -11.050  21.928 -13.835  1.00  0.00     0.061 C 
HETATM   13  C1  UNL     1     -11.240  22.436 -15.232  1.00  0.00     0.046 C 
HETATM   14  C3  UNL     1     -11.909  22.800 -12.919  1.00  0.00     0.046 C 
HETATM   15  C4  UNL     1      -9.608  22.044 -13.394  1.00  0.00     0.046 C 
ENDBRANCH  11  12
ENDBRANCH   8  11
ENDBRANCH   1   7
BRANCH   6  16
HETATM   16  N2  UNL     1     -14.474  17.398 -15.276  1.00  0.00    -0.272 N 
HETATM   17  C12 UNL     1     -13.726  17.080 -16.371  1.00  0.00     0.162 A 
HETATM   18  C13 UNL     1     -12.906  16.013 -16.087  1.00  0.00     0.149 A 
HETATM   19  N3  UNL     1     -13.159  15.680 -14.806  1.00  0.00    -0.314 N 
HETATM   20  C14 UNL     1     -14.098  16.520 -14.341  1.00  0.00     0.328 A 
ATOM     21  H3  UNL     1     -12.716  14.925 -14.282  1.00  0.00     0.170 HD
HETATM   22  O4  UNL     1     -14.548  16.464 -13.172  1.00  0.00    -0.246 OA
BRANCH  17  23
HETATM   23  O3  UNL     1     -13.754  17.712 -17.614  1.00  0.00    -0.345 OA
ATOM     24  H3  UNL     1     -14.267  18.475 -17.853  1.00  0.00     0.219 HD
ENDBRANCH  17  23
ENDBRANCH   6  16
TORSDOF 5
ENDMDL
MODEL 3
REMARK VINA RESULT: -5.621138866      1.151      2.136
REMARK  5 active torsions:
REMARK  status: ('A' for Active; 'I' for Inactive)
REMARK    1  A    between atoms: C2_2  and  O1_5 
REMARK    2  A    between atoms: O1_5  and  C5_6 
REMARK       I    between atoms: C5_6  and  N1_8 
REMARK    3  A    between atoms: N1_8  and  C6_10 
REMARK    4  A    between atoms: C11_15  and  N2_16 
REMARK    5  A    between atoms: C12_17  and  O3_18 
ROOT
HETATM    1  C6  UNL     1     -14.532  18.947 -14.939  1.00  0.00     0.110 C 
HETATM    2  C7  UNL     1     -13.101  19.459 -15.128  1.00  0.00     0.027 C 
HETATM    3  C8  UNL     1     -12.467  19.399 -13.734  1.00  0.00     0.002 C 
HETATM    4  C9  UNL     1     -13.209  20.314 -12.790  1.00  0.00     0.002 C 
HETATM    5  C10 UNL     1     -14.659  19.926 -12.727  1.00  0.00     0.028 C 
HETATM    6  C11 UNL     1     -15.248  20.010 -14.140  1.00  0.00     0.119 C 
ENDROOT
BRANCH   1   7
HETATM    7  N1  UNL     1     -15.166  18.598 -16.155  1.00  0.00    -0.330 N 
HETATM    8  C5  UNL     1     -15.332  17.239 -16.508  1.00  0.00     0.361 C 
HETATM    9  O2  UNL     1     -14.924  16.302 -15.758  1.00  0.00    -0.238 OA
ATOM     10  H1  UNL     1     -15.505  19.329 -16.780  1.00  0.00     0.165 HD
BRANCH   8  11
HETATM   11  O1  UNL     1     -15.949  16.867 -17.693  1.00  0.00    -0.294 OA
BRANCH  11  12
HETATM   12  C2  UNL     1     -15.157  16.555 -18.820  1.00  0.00     0.061 C 
HETATM   13  C1  UNL     1     -15.703  17.163 -20.077  1.00  0.00     0.046 C 
HETATM   14  C3  UNL     1     -13.737  17.093 -18.641  1.00  0.00     0.046 C 
HETATM   15  C4  UNL     1     -15.091  15.047 -18.916  1.00  0.00     0.046 C 
ENDBRANCH  11  12
ENDBRANCH   8  11
ENDBRANCH   1   7
BRANCH   6  16
HETATM   16  N2  UNL     1     -16.668  19.872 -14.147  1.00  0.00    -0.272 N 
HETATM   17  C12 UNL     1     -17.345  18.730 -13.831  1.00  0.00     0.162 A 
HETATM   18  C13 UNL     1     -18.700  18.941 -13.940  1.00  0.00     0.149 A 
HETATM   19  N3  UNL     1     -18.846  20.224 -14.323  1.00  0.00    -0.314 N 
HETATM   20  C14 UNL     1     -17.621  20.761 -14.440  1.00  0.00     0.328 A 
ATOM     21  H3  UNL     1     -19.731  20.703 -14.494  1.00  0.00     0.170 HD
HETATM   22  O4  UNL     1     -17.426  21.951 -14.786  1.00  0.00    -0.246 OA
BRANCH  17  23
HETATM   23  O3  UNL     1     -16.790  17.508 -13.453  1.00  0.00    -0.345 OA
ATOM     24  H3  UNL     1     -16.959  16.659 -13.845  1.00  0.00     0.219 HD
ENDBRANCH  17  23
ENDBRANCH   6  16
TORSDOF 5
ENDMDL
MODEL 4
REMARK VINA RESULT: -5.585032358      2.229      5.456
REMARK  5 active torsions:
REMARK  status: ('A' for Active; 'I' for Inactive)
REMARK    1  A    between atoms: C2_2  and  O1_5 
REMARK    2  A    between atoms: O1_5  and  C5_6 
REMARK       I    between atoms: C5_6  and  N1_8 
REMARK    3  A    between atoms: N1_8  and  C6_10 
REMARK    4  A    between atoms: C11_15  and  N2_16 
REMARK    5  A    between atoms: C12_17  and  O3_18 
ROOT
HETATM    1  C6  UNL     1     -15.092  19.855 -14.398  1.00  0.00     0.110 C 
HETATM    2  C7  UNL     1     -16.033  21.022 -14.713  1.00  0.00     0.027 C 
HETATM    3  C8  UNL     1     -17.360  20.658 -14.039  1.00  0.00     0.002 C 
HETATM    4  C9  UNL     1     -17.913  19.388 -14.641  1.00  0.00     0.002 C 
HETATM    5  C10 UNL     1     -16.922  18.270 -14.490  1.00  0.00     0.028 C 
HETATM    6  C11 UNL     1     -15.617  18.678 -15.185  1.00  0.00     0.119 C 
ENDROOT
BRANCH   1   7
HETATM    7  N1  UNL     1     -13.729  20.157 -14.630  1.00  0.00    -0.330 N 
HETATM    8  C5  UNL     1     -12.831  20.280 -13.546  1.00  0.00     0.361 C 
HETATM    9  O2  UNL     1     -13.210  20.125 -12.347  1.00  0.00    -0.238 OA
ATOM     10  H1  UNL     1     -13.393  20.288 -15.585  1.00  0.00     0.165 HD
BRANCH   8  11
HETATM   11  O1  UNL     1     -11.490  20.575 -13.744  1.00  0.00    -0.294 OA
BRANCH  11  12
HETATM   12  C2  UNL     1     -11.086  21.924 -13.854  1.00  0.00     0.061 C 
HETATM   13  C1  UNL     1     -11.256  22.451 -15.246  1.00  0.00     0.046 C 
HETATM   14  C3  UNL     1     -11.923  22.810 -12.932  1.00  0.00     0.046 C 
HETATM   15  C4  UNL     1      -9.642  21.995 -13.407  1.00  0.00     0.046 C 
ENDBRANCH  11  12
ENDBRANCH   8  11
ENDBRANCH   1   7
BRANCH   6  16
HETATM   16  N2  UNL     1     -14.692  17.596 -15.284  1.00  0.00    -0.272 N 
HETATM   17  C12 UNL     1     -14.328  16.781 -14.251  1.00  0.00     0.162 A 
HETATM   18  C13 UNL     1     -13.421  15.845 -14.689  1.00  0.00     0.149 A 
HETATM   19  N3  UNL     1     -13.233  16.093 -16.000  1.00  0.00    -0.314 N 
HETATM   20  C14 UNL     1     -14.002  17.142 -16.333  1.00  0.00     0.328 A 
ATOM     21  H3  UNL     1     -12.617  15.576 -16.627  1.00  0.00     0.170 HD
HETATM   22  O4  UNL     1     -14.045  17.616 -17.494  1.00  0.00    -0.246 OA
BRANCH  17  23
HETATM   23  O3  UNL     1     -14.780  16.850 -12.934  1.00  0.00    -0.345 OA
ATOM     24  H3  UNL     1     -14.276  16.669 -12.149  1.00  0.00     0.219 HD
ENDBRANCH  17  23
ENDBRANCH   6  16
TORSDOF 5
ENDMDL
MODEL 5
REMARK VINA RESULT: -5.571918720      2.351      6.400
REMARK  5 active torsions:
REMARK  status: ('A' for Active; 'I' for Inactive)
REMARK    1  A    between atoms: C2_2  and  O1_5 
REMARK    2  A    between atoms: O1_5  and  C5_6 
REMARK       I    between atoms: C5_6  and  N1_8 
REMARK    3  A    between atoms: N1_8  and  C6_10 
REMARK    4  A    between atoms: C11_15  and  N2_16 
REMARK    5  A    between atoms: C12_17  and  O3_18 
ROOT
HETATM    1  C6  UNL     1     -16.648  17.202 -18.151  1.00  0.00     0.110 C 
HETATM    2  C7  UNL     1     -17.610  18.368 -18.402  1.00  0.00     0.027 C 
HETATM    3  C8  UNL     1     -18.277  18.053 -19.746  1.00  0.00     0.002 C 
HETATM    4  C9  UNL     1     -17.238  18.011 -20.840  1.00  0.00     0.002 C 
HETATM    5  C10 UNL     1     -16.189  16.986 -20.519  1.00  0.00     0.028 C 
HETATM    6  C11 UNL     1     -15.548  17.348 -19.174  1.00  0.00     0.119 C 
ENDROOT
BRANCH   1   7
HETATM    7  N1  UNL     1     -16.200  17.127 -16.811  1.00  0.00    -0.330 N 
HETATM    8  C5  UNL     1     -16.462  18.185 -15.910  1.00  0.00     0.361 C 
HETATM    9  O2  UNL     1     -17.097  19.221 -16.268  1.00  0.00    -0.238 OA
ATOM     10  H1  UNL     1     -15.685  16.306 -16.493  1.00  0.00     0.165 HD
BRANCH   8  11
HETATM   11  O1  UNL     1     -16.034  18.138 -14.592  1.00  0.00    -0.294 OA
BRANCH  11  12
HETATM   12  C2  UNL     1     -14.650  18.139 -14.310  1.00  0.00     0.061 C 
HETATM   13  C1  UNL     1     -13.839  18.620 -15.476  1.00  0.00     0.046 C 
HETATM   14  C3  UNL     1     -14.344  19.067 -13.135  1.00  0.00     0.046 C 
HETATM   15  C4  UNL     1     -14.273  16.727 -13.918  1.00  0.00     0.046 C 
ENDBRANCH  11  12
ENDBRANCH   8  11
ENDBRANCH   1   7
BRANCH   6  16
HETATM   16  N2  UNL     1     -14.394  16.557 -18.891  1.00  0.00    -0.272 N 
HETATM   17  C12 UNL     1     -14.407  15.216 -18.639  1.00  0.00     0.162 A 
HETATM   18  C13 UNL     1     -13.127  14.770 -18.406  1.00  0.00     0.149 A 
HETATM   19  N3  UNL     1     -12.330  15.850 -18.518  1.00  0.00    -0.314 N 
HETATM   20  C14 UNL     1     -13.107  16.906 -18.809  1.00  0.00     0.328 A 
ATOM     21  H3  UNL     1     -11.316  15.864 -18.404  1.00  0.00     0.170 HD
HETATM   22  O4  UNL     1     -12.653  18.063 -18.975  1.00  0.00    -0.246 OA
BRANCH  17  23
HETATM   23  O3  UNL     1     -15.524  14.383 -18.610  1.00  0.00    -0.345 OA
ATOM     24  H3  UNL     1     -15.526  13.436 -18.531  1.00  0.00     0.219 HD
ENDBRANCH  17  23
ENDBRANCH   6  16
TORSDOF 5
ENDMDL
