MODEL 1
REMARK VINA RESULT: -7.079151585      0.000      0.000
REMARK  5 active torsions:
REMARK  status: ('A' for Active; 'I' for Inactive)
REMARK    1  A    between atoms: C1_2  and  C2_4 
REMARK    2  A    between atoms: C2_4  and  C3_5 
REMARK    3  A    between atoms: C3_5  and  N1_6 
REMARK    4  A    between atoms: C4_7  and  O3_8 
REMARK    5  A    between atoms: C7_12  and  O4_13 
ROOT
HETATM    1  N1  UNL     1     -15.694  17.525 -21.177  1.00  0.00    -0.307 N 
HETATM    2  C4  UNL     1     -16.304  17.149 -20.047  1.00  0.00     0.153 A 
HETATM    3  C5  UNL     1     -15.480  16.304 -19.336  1.00  0.00     0.035 A 
HETATM    4  C6  UNL     1     -14.315  16.161 -20.071  1.00  0.00     0.035 A 
HETATM    5  C7  UNL     1     -14.489  16.929 -21.195  1.00  0.00     0.153 A 
HETATM    6  C8  UNL     1     -13.470  15.244 -19.261  1.00  0.00     0.165 C 
HETATM    7  O5  UNL     1     -14.474  14.422 -18.693  1.00  0.00    -0.370 OA
HETATM    8  C9  UNL     1     -15.255  15.458 -18.126  1.00  0.00     0.165 C 
HETATM    9  C10 UNL     1     -14.246  16.101 -17.221  1.00  0.00     0.026 C 
HETATM   10  C11 UNL     1     -14.612  17.529 -17.001  1.00  0.00     0.008 C 
HETATM   11  C12 UNL     1     -13.495  18.365 -16.435  1.00  0.00     0.001 C 
HETATM   12  C13 UNL     1     -12.133  17.959 -16.954  1.00  0.00     0.001 C 
HETATM   13  C14 UNL     1     -12.372  17.302 -18.321  1.00  0.00     0.008 C 
HETATM   14  C15 UNL     1     -12.970  15.963 -18.060  1.00  0.00     0.026 C 
ENDROOT
BRANCH   1  15
HETATM   15  C3  UNL     1     -16.292  18.416 -22.151  1.00  0.00     0.144 C 
BRANCH  15  16
HETATM   16  C2  UNL     1     -17.184  17.654 -23.120  1.00  0.00     0.133 C 
BRANCH  16  17
HETATM   17  C1  UNL     1     -18.602  17.997 -22.942  1.00  0.00     0.174 C 
HETATM   18  O1  UNL     1     -19.250  18.698 -23.759  1.00  0.00    -0.648 OA
HETATM   19  O2  UNL     1     -19.267  17.531 -21.823  1.00  0.00    -0.648 OA
ENDBRANCH  16  17
ENDBRANCH  15  16
ENDBRANCH   1  15
BRANCH   2  20
HETATM   20  O3  UNL     1     -17.557  17.523 -19.624  1.00  0.00    -0.345 OA
ATOM     21  H3  UNL     1     -18.383  17.124 -19.869  1.00  0.00     0.219 HD
ENDBRANCH   2  20
BRANCH   5  22
HETATM   22  O4  UNL     1     -13.537  17.056 -22.197  1.00  0.00    -0.345 OA
ATOM     23  H4  UNL     1     -13.491  16.532 -22.989  1.00  0.00     0.219 HD
ENDBRANCH   5  22
TORSDOF 5
ENDMDL
MODEL 2
REMARK VINA RESULT: -6.967895369      2.634      3.705
REMARK  5 active torsions:
REMARK  status: ('A' for Active; 'I' for Inactive)
REMARK    1  A    between atoms: C1_2  and  C2_4 
REMARK    2  A    between atoms: C2_4  and  C3_5 
REMARK    3  A    between atoms: C3_5  and  N1_6 
REMARK    4  A    between atoms: C4_7  and  O3_8 
REMARK    5  A    between atoms: C7_12  and  O4_13 
ROOT
HETATM    1  N1  UNL     1     -13.652  16.981 -19.728  1.00  0.00    -0.307 N 
HETATM    2  C4  UNL     1     -14.336  16.297 -18.804  1.00  0.00     0.153 A 
HETATM    3  C5  UNL     1     -13.646  16.314 -17.612  1.00  0.00     0.035 A 
HETATM    4  C6  UNL     1     -12.489  17.044 -17.823  1.00  0.00     0.035 A 
HETATM    5  C7  UNL     1     -12.532  17.436 -19.138  1.00  0.00     0.153 A 
HETATM    6  C8  UNL     1     -11.788  17.027 -16.512  1.00  0.00     0.165 C 
HETATM    7  O5  UNL     1     -12.163  15.742 -16.050  1.00  0.00    -0.370 OA
HETATM    8  C9  UNL     1     -13.564  15.906 -16.177  1.00  0.00     0.165 C 
HETATM    9  C10 UNL     1     -13.786  17.091 -15.285  1.00  0.00     0.026 C 
HETATM   10  C11 UNL     1     -15.010  17.820 -15.721  1.00  0.00     0.008 C 
HETATM   11  C12 UNL     1     -15.123  19.213 -15.159  1.00  0.00     0.001 C 
HETATM   12  C13 UNL     1     -13.785  19.905 -15.024  1.00  0.00     0.001 C 
HETATM   13  C14 UNL     1     -12.859  19.259 -16.064  1.00  0.00     0.008 C 
HETATM   14  C15 UNL     1     -12.513  17.903 -15.553  1.00  0.00     0.026 C 
ENDROOT
BRANCH   1  15
HETATM   15  C3  UNL     1     -14.105  17.155 -21.094  1.00  0.00     0.144 C 
BRANCH  15  16
HETATM   16  C2  UNL     1     -13.184  16.444 -22.075  1.00  0.00     0.133 C 
BRANCH  16  17
HETATM   17  C1  UNL     1     -12.780  17.325 -23.180  1.00  0.00     0.174 C 
HETATM   18  O1  UNL     1     -13.551  17.654 -24.116  1.00  0.00    -0.648 OA
HETATM   19  O2  UNL     1     -11.490  17.822 -23.202  1.00  0.00    -0.648 OA
ENDBRANCH  16  17
ENDBRANCH  15  16
ENDBRANCH   1  15
BRANCH   2  20
HETATM   20  O3  UNL     1     -15.542  15.659 -18.976  1.00  0.00    -0.345 OA
ATOM     21  H3  UNL     1     -15.746  14.996 -19.625  1.00  0.00     0.219 HD
ENDBRANCH   2  20
BRANCH   5  22
HETATM   22  O4  UNL     1     -11.545  18.195 -19.750  1.00  0.00    -0.345 OA
ATOM     23  H4  UNL     1     -10.708  18.431 -19.367  1.00  0.00     0.219 HD
ENDBRANCH   5  22
TORSDOF 5
ENDMDL
MODEL 3
REMARK VINA RESULT: -6.869761908      2.092      3.404
REMARK  5 active torsions:
REMARK  status: ('A' for Active; 'I' for Inactive)
REMARK    1  A    between atoms: C1_2  and  C2_4 
REMARK    2  A    between atoms: C2_4  and  C3_5 
REMARK    3  A    between atoms: C3_5  and  N1_6 
REMARK    4  A    between atoms: C4_7  and  O3_8 
REMARK    5  A    between atoms: C7_12  and  O4_13 
ROOT
HETATM    1  N1  UNL     1     -13.851  16.629 -18.862  1.00  0.00    -0.307 N 
HETATM    2  C4  UNL     1     -14.372  16.032 -17.783  1.00  0.00     0.153 A 
HETATM    3  C5  UNL     1     -13.578  16.286 -16.686  1.00  0.00     0.035 A 
HETATM    4  C6  UNL     1     -12.526  17.074 -17.121  1.00  0.00     0.035 A 
HETATM    5  C7  UNL     1     -12.733  17.261 -18.465  1.00  0.00     0.153 A 
HETATM    6  C8  UNL     1     -11.708  17.314 -15.903  1.00  0.00     0.165 C 
HETATM    7  O5  UNL     1     -11.904  16.084 -15.229  1.00  0.00    -0.370 OA
HETATM    8  C9  UNL     1     -13.321  16.104 -15.226  1.00  0.00     0.165 C 
HETATM    9  C10 UNL     1     -13.577  17.385 -14.488  1.00  0.00     0.026 C 
HETATM   10  C11 UNL     1     -14.904  17.932 -14.886  1.00  0.00     0.008 C 
HETATM   11  C12 UNL     1     -15.105  19.378 -14.514  1.00  0.00     0.001 C 
HETATM   12  C13 UNL     1     -13.837  20.196 -14.622  1.00  0.00     0.001 C 
HETATM   13  C14 UNL     1     -12.952  19.485 -15.656  1.00  0.00     0.008 C 
HETATM   14  C15 UNL     1     -12.424  18.256 -15.002  1.00  0.00     0.026 C 
ENDROOT
BRANCH   1  15
HETATM   15  C3  UNL     1     -14.446  16.558 -20.181  1.00  0.00     0.144 C 
BRANCH  15  16
HETATM   16  C2  UNL     1     -15.735  17.363 -20.249  1.00  0.00     0.133 C 
BRANCH  16  17
HETATM   17  C1  UNL     1     -16.148  17.617 -21.636  1.00  0.00     0.174 C 
HETATM   18  O1  UNL     1     -15.354  17.581 -22.610  1.00  0.00    -0.648 OA
HETATM   19  O2  UNL     1     -17.474  17.911 -21.897  1.00  0.00    -0.648 OA
ENDBRANCH  16  17
ENDBRANCH  15  16
ENDBRANCH   1  15
BRANCH   2  20
HETATM   20  O3  UNL     1     -15.518  15.274 -17.734  1.00  0.00    -0.345 OA
ATOM     21  H3  UNL     1     -16.179  15.286 -17.052  1.00  0.00     0.219 HD
ENDBRANCH   2  20
BRANCH   5  22
HETATM   22  O4  UNL     1     -11.890  18.005 -19.279  1.00  0.00    -0.345 OA
ATOM     23  H4  UNL     1     -11.201  17.654 -19.832  1.00  0.00     0.219 HD
ENDBRANCH   5  22
TORSDOF 5
ENDMDL
MODEL 4
REMARK VINA RESULT: -6.595550373      1.335      1.415
REMARK  5 active torsions:
REMARK  status: ('A' for Active; 'I' for Inactive)
REMARK    1  A    between atoms: C1_2  and  C2_4 
REMARK    2  A    between atoms: C2_4  and  C3_5 
REMARK    3  A    between atoms: C3_5  and  N1_6 
REMARK    4  A    between atoms: C4_7  and  O3_8 
REMARK    5  A    between atoms: C7_12  and  O4_13 
ROOT
HETATM    1  N1  UNL     1     -16.692  17.635 -20.401  1.00  0.00    -0.307 N 
HETATM    2  C4  UNL     1     -16.862  17.114 -19.180  1.00  0.00     0.153 A 
HETATM    3  C5  UNL     1     -15.795  16.300 -18.872  1.00  0.00     0.035 A 
HETATM    4  C6  UNL     1     -14.936  16.329 -19.958  1.00  0.00     0.035 A 
HETATM    5  C7  UNL     1     -15.526  17.162 -20.876  1.00  0.00     0.153 A 
HETATM    6  C8  UNL     1     -13.811  15.437 -19.571  1.00  0.00     0.165 C 
HETATM    7  O5  UNL     1     -14.511  14.480 -18.797  1.00  0.00    -0.370 OA
HETATM    8  C9  UNL     1     -15.123  15.388 -17.898  1.00  0.00     0.165 C 
HETATM    9  C10 UNL     1     -13.914  16.052 -17.310  1.00  0.00     0.026 C 
HETATM   10  C11 UNL     1     -14.278  17.416 -16.833  1.00  0.00     0.008 C 
HETATM   11  C12 UNL     1     -13.092  18.310 -16.578  1.00  0.00     0.001 C 
HETATM   12  C13 UNL     1     -11.960  18.080 -17.554  1.00  0.00     0.001 C 
HETATM   13  C14 UNL     1     -12.598  17.512 -18.829  1.00  0.00     0.008 C 
HETATM   14  C15 UNL     1     -12.986  16.105 -18.530  1.00  0.00     0.026 C 
ENDROOT
BRANCH   1  15
HETATM   15  C3  UNL     1     -17.639  18.537 -21.025  1.00  0.00     0.144 C 
BRANCH  15  16
HETATM   16  C2  UNL     1     -18.815  17.776 -21.620  1.00  0.00     0.133 C 
BRANCH  16  17
HETATM   17  C1  UNL     1     -20.049  17.992 -20.852  1.00  0.00     0.174 C 
HETATM   18  O1  UNL     1     -20.418  19.121 -20.442  1.00  0.00    -0.648 OA
HETATM   19  O2  UNL     1     -20.854  16.906 -20.560  1.00  0.00    -0.648 OA
ENDBRANCH  16  17
ENDBRANCH  15  16
ENDBRANCH   1  15
BRANCH   2  20
HETATM   20  O3  UNL     1     -17.924  17.331 -18.333  1.00  0.00    -0.345 OA
ATOM     21  H3  UNL     1     -18.051  16.950 -17.473  1.00  0.00     0.219 HD
ENDBRANCH   2  20
BRANCH   5  22
HETATM   22  O4  UNL     1     -14.976  17.458 -22.114  1.00  0.00    -0.345 OA
ATOM     23  H4  UNL     1     -14.381  16.903 -22.604  1.00  0.00     0.219 HD
ENDBRANCH   5  22
TORSDOF 5
ENDMDL
MODEL 5
REMARK VINA RESULT: -6.387965468      1.537      2.435
REMARK  5 active torsions:
REMARK  status: ('A' for Active; 'I' for Inactive)
REMARK    1  A    between atoms: C1_2  and  C2_4 
REMARK    2  A    between atoms: C2_4  and  C3_5 
REMARK    3  A    between atoms: C3_5  and  N1_6 
REMARK    4  A    between atoms: C4_7  and  O3_8 
REMARK    5  A    between atoms: C7_12  and  O4_13 
ROOT
HETATM    1  N1  UNL     1     -14.937  17.310 -21.295  1.00  0.00    -0.307 N 
HETATM    2  C4  UNL     1     -15.781  16.921 -20.332  1.00  0.00     0.153 A 
HETATM    3  C5  UNL     1     -15.091  16.219 -19.368  1.00  0.00     0.035 A 
HETATM    4  C6  UNL     1     -13.765  16.181 -19.766  1.00  0.00     0.035 A 
HETATM    5  C7  UNL     1     -13.714  16.863 -20.956  1.00  0.00     0.153 A 
HETATM    6  C8  UNL     1     -13.073  15.415 -18.696  1.00  0.00     0.165 C 
HETATM    7  O5  UNL     1     -14.101  14.508 -18.339  1.00  0.00    -0.370 OA
HETATM    8  C9  UNL     1     -15.107  15.470 -18.076  1.00  0.00     0.165 C 
HETATM    9  C10 UNL     1     -14.444  16.275 -16.998  1.00  0.00     0.026 C 
HETATM   10  C11 UNL     1     -15.000  17.658 -16.995  1.00  0.00     0.008 C 
HETATM   11  C12 UNL     1     -14.164  18.651 -16.232  1.00  0.00     0.001 C 
HETATM   12  C13 UNL     1     -12.679  18.386 -16.351  1.00  0.00     0.001 C 
HETATM   13  C14 UNL     1     -12.480  17.636 -17.675  1.00  0.00     0.008 C 
HETATM   14  C15 UNL     1     -12.984  16.250 -17.468  1.00  0.00     0.026 C 
ENDROOT
BRANCH   1  15
HETATM   15  C3  UNL     1     -15.346  18.071 -22.458  1.00  0.00     0.144 C 
BRANCH  15  16
HETATM   16  C2  UNL     1     -15.266  17.229 -23.723  1.00  0.00     0.133 C 
BRANCH  16  17
HETATM   17  C1  UNL     1     -13.895  17.162 -24.249  1.00  0.00     0.174 C 
HETATM   18  O1  UNL     1     -13.326  16.085 -24.557  1.00  0.00    -0.648 OA
HETATM   19  O2  UNL     1     -13.185  18.337 -24.417  1.00  0.00    -0.648 OA
ENDBRANCH  16  17
ENDBRANCH  15  16
ENDBRANCH   1  15
BRANCH   2  20
HETATM   20  O3  UNL     1     -17.133  17.163 -20.275  1.00  0.00    -0.345 OA
ATOM     21  H3  UNL     1     -17.814  16.698 -20.747  1.00  0.00     0.219 HD
ENDBRANCH   2  20
BRANCH   5  22
HETATM   22  O4  UNL     1     -12.551  17.053 -21.688  1.00  0.00    -0.345 OA
ATOM     23  H4  UNL     1     -12.091  17.877 -21.796  1.00  0.00     0.219 HD
ENDBRANCH   5  22
TORSDOF 5
ENDMDL
