MODEL 1
REMARK VINA RESULT: -8.645186438      0.000      0.000
REMARK  5 active torsions:
REMARK  status: ('A' for Active; 'I' for Inactive)
REMARK    1  A    between atoms: C2_2  and  O1_3 
REMARK    2  A    between atoms: O1_3  and  C3_4 
REMARK    3  A    between atoms: C3_4  and  C4_6 
REMARK    4  A    between atoms: C5_7  and  C6_8 
REMARK    5  A    between atoms: C15_20  and  C16_21 
ROOT
HETATM    1  C4  UNL     1      35.499  13.925  22.003  1.00  0.00     0.060 A 
HETATM    2  C5  UNL     1      34.776  13.415  23.043  1.00  0.00     0.004 A 
HETATM    3  S1  UNL     1      35.897  13.386  24.342  1.00  0.00    -0.096 SA
HETATM    4  C12 UNL     1      37.250  14.022  23.532  1.00  0.00     0.002 A 
HETATM    5  C13 UNL     1      36.802  14.246  22.258  1.00  0.00    -0.026 A 
HETATM    6  C14 UNL     1      37.691  14.820  21.173  1.00  0.00     0.053 C 
HETATM    7  C15 UNL     1      38.310  16.112  21.582  1.00  0.00     0.059 C 
HETATM    8  C18 UNL     1      39.259  16.012  22.695  1.00  0.00     0.132 C 
HETATM    9  O3  UNL     1      40.438  16.219  22.474  1.00  0.00    -0.298 OA
HETATM   10  C19 UNL     1      38.968  15.682  24.104  1.00  0.00     0.095 C 
HETATM   11  C20 UNL     1      38.582  14.238  24.177  1.00  0.00     0.022 C 
HETATM   12  C21 UNL     1      39.634  13.305  23.675  1.00  0.00     0.019 C 
HETATM   13  C22 UNL     1      40.838  13.346  24.571  1.00  0.00     0.027 C 
HETATM   14  C23 UNL     1      40.527  13.404  26.031  1.00  0.00     0.167 C 
HETATM   15  O4  UNL     1      39.542  14.378  26.314  1.00  0.00    -0.390 OA
HETATM   16  C24 UNL     1      38.399  13.933  25.667  1.00  0.00     0.182 C 
ENDROOT
BRANCH   2  17
HETATM   17  C6  UNL     1      33.329  12.962  23.099  1.00  0.00     0.033 C 
HETATM   18  C7  UNL     1      32.898  12.847  24.545  1.00  0.00     0.040 C 
HETATM   19  C8  UNL     1      33.280  11.494  25.114  1.00  0.00     0.276 C 
HETATM   20  N1  UNL     1      32.489  10.447  24.490  1.00  0.00     0.117 N 
HETATM   21  C9  UNL     1      33.066   9.160  24.711  1.00  0.00     0.313 C 
HETATM   22  C10 UNL     1      32.207  10.720  23.119  1.00  0.00     0.405 C 
HETATM   23  F1  UNL     1      30.954  11.237  22.913  1.00  0.00    -0.216 F 
HETATM   24  C11 UNL     1      33.288  11.582  22.502  1.00  0.00     0.079 C 
ENDBRANCH   2  17
BRANCH   1  25
HETATM   25  C3  UNL     1      34.866  14.113  20.652  1.00  0.00     0.294 C 
HETATM   26  O2  UNL     1      35.119  13.352  19.693  1.00  0.00    -0.259 OA
BRANCH  25  27
HETATM   27  O1  UNL     1      33.971  15.142  20.415  1.00  0.00    -0.318 OA
BRANCH  27  28
HETATM   28  C2  UNL     1      34.259  16.482  20.696  1.00  0.00     0.174 C 
HETATM   29  C1  UNL     1      33.265  17.363  20.007  1.00  0.00     0.034 C 
ENDBRANCH  27  28
ENDBRANCH  25  27
ENDBRANCH   1  25
BRANCH   7  30
HETATM   30  C16 UNL     1      39.054  16.656  20.379  1.00  0.00     0.008 C 
HETATM   31  C17 UNL     1      39.155  15.657  19.265  1.00  0.00     0.006 C 
ENDBRANCH   7  30
TORSDOF 5
ENDMDL
MODEL 2
REMARK VINA RESULT: -8.168410426      2.787      5.348
REMARK  5 active torsions:
REMARK  status: ('A' for Active; 'I' for Inactive)
REMARK    1  A    between atoms: C2_2  and  O1_3 
REMARK    2  A    between atoms: O1_3  and  C3_4 
REMARK    3  A    between atoms: C3_4  and  C4_6 
REMARK    4  A    between atoms: C5_7  and  C6_8 
REMARK    5  A    between atoms: C15_20  and  C16_21 
ROOT
HETATM    1  C4  UNL     1      33.294  12.992  25.564  1.00  0.00     0.060 A 
HETATM    2  C5  UNL     1      32.421  12.158  24.927  1.00  0.00     0.004 A 
HETATM    3  S1  UNL     1      32.844  12.313  23.271  1.00  0.00    -0.096 SA
HETATM    4  C12 UNL     1      34.116  13.430  23.432  1.00  0.00     0.002 A 
HETATM    5  C13 UNL     1      34.188  13.662  24.779  1.00  0.00    -0.026 A 
HETATM    6  C14 UNL     1      35.202  14.611  25.386  1.00  0.00     0.053 C 
HETATM    7  C15 UNL     1      36.597  14.267  24.994  1.00  0.00     0.059 C 
HETATM    8  C18 UNL     1      36.888  14.427  23.565  1.00  0.00     0.132 C 
HETATM    9  O3  UNL     1      37.658  15.306  23.224  1.00  0.00    -0.298 OA
HETATM   10  C19 UNL     1      36.354  13.635  22.440  1.00  0.00     0.095 C 
HETATM   11  C20 UNL     1      34.904  13.967  22.280  1.00  0.00     0.022 C 
HETATM   12  C21 UNL     1      34.641  15.413  22.014  1.00  0.00     0.019 C 
HETATM   13  C22 UNL     1      35.195  15.806  20.676  1.00  0.00     0.027 C 
HETATM   14  C23 UNL     1      34.985  14.799  19.593  1.00  0.00     0.167 C 
HETATM   15  O4  UNL     1      35.333  13.497  20.021  1.00  0.00    -0.390 OA
HETATM   16  C24 UNL     1      34.438  13.201  21.038  1.00  0.00     0.182 C 
ENDROOT
BRANCH   2  17
HETATM   17  C6  UNL     1      31.318  11.281  25.491  1.00  0.00     0.033 C 
HETATM   18  C7  UNL     1      31.938  10.094  26.197  1.00  0.00     0.040 C 
HETATM   19  C8  UNL     1      32.239   8.979  25.214  1.00  0.00     0.276 C 
HETATM   20  N1  UNL     1      31.002   8.407  24.712  1.00  0.00     0.117 N 
HETATM   21  C9  UNL     1      31.228   7.637  23.531  1.00  0.00     0.313 C 
HETATM   22  C10 UNL     1      29.967   9.379  24.572  1.00  0.00     0.405 C 
HETATM   23  F1  UNL     1      29.077   9.380  25.614  1.00  0.00    -0.216 F 
HETATM   24  C11 UNL     1      30.545  10.754  24.313  1.00  0.00     0.079 C 
ENDBRANCH   2  17
BRANCH   1  25
HETATM   25  C3  UNL     1      33.251  13.145  27.059  1.00  0.00     0.294 C 
HETATM   26  O2  UNL     1      33.986  12.472  27.813  1.00  0.00    -0.259 OA
BRANCH  25  27
HETATM   27  O1  UNL     1      32.391  14.045  27.665  1.00  0.00    -0.318 OA
BRANCH  27  28
HETATM   28  C2  UNL     1      32.827  15.041  28.546  1.00  0.00     0.174 C 
HETATM   29  C1  UNL     1      32.979  16.333  27.806  1.00  0.00     0.034 C 
ENDBRANCH  27  28
ENDBRANCH  25  27
ENDBRANCH   1  25
BRANCH   7  30
HETATM   30  C16 UNL     1      37.522  15.186  25.766  1.00  0.00     0.008 C 
HETATM   31  C17 UNL     1      37.531  14.889  27.237  1.00  0.00     0.006 C 
ENDBRANCH   7  30
TORSDOF 5
ENDMDL
MODEL 3
REMARK VINA RESULT: -8.087560124      3.950      8.152
REMARK  5 active torsions:
REMARK  status: ('A' for Active; 'I' for Inactive)
REMARK    1  A    between atoms: C2_2  and  O1_3 
REMARK    2  A    between atoms: O1_3  and  C3_4 
REMARK    3  A    between atoms: C3_4  and  C4_6 
REMARK    4  A    between atoms: C5_7  and  C6_8 
REMARK    5  A    between atoms: C15_20  and  C16_21 
ROOT
HETATM    1  C4  UNL     1      33.881  13.211  25.663  1.00  0.00     0.060 A 
HETATM    2  C5  UNL     1      34.503  13.190  24.448  1.00  0.00     0.004 A 
HETATM    3  S1  UNL     1      33.748  11.887  23.626  1.00  0.00    -0.096 SA
HETATM    4  C12 UNL     1      32.664  11.404  24.844  1.00  0.00     0.002 A 
HETATM    5  C13 UNL     1      32.912  12.272  25.874  1.00  0.00    -0.026 A 
HETATM    6  C14 UNL     1      32.158  12.209  27.188  1.00  0.00     0.053 C 
HETATM    7  C15 UNL     1      30.684  12.276  26.992  1.00  0.00     0.059 C 
HETATM    8  C18 UNL     1      30.107  11.128  26.285  1.00  0.00     0.132 C 
HETATM    9  O3  UNL     1      29.376  10.374  26.902  1.00  0.00    -0.298 OA
HETATM   10  C19 UNL     1      30.298  10.746  24.873  1.00  0.00     0.095 C 
HETATM   11  C20 UNL     1      31.704  10.266  24.703  1.00  0.00     0.022 C 
HETATM   12  C21 UNL     1      32.052   9.097  25.564  1.00  0.00     0.019 C 
HETATM   13  C22 UNL     1      31.264   7.890  25.148  1.00  0.00     0.027 C 
HETATM   14  C23 UNL     1      31.127   7.713  23.671  1.00  0.00     0.167 C 
HETATM   15  O4  UNL     1      30.748   8.919  23.037  1.00  0.00    -0.390 OA
HETATM   16  C24 UNL     1      31.807   9.788  23.252  1.00  0.00     0.182 C 
ENDROOT
BRANCH   2  17
HETATM   17  C6  UNL     1      35.605  14.077  23.899  1.00  0.00     0.033 C 
HETATM   18  C7  UNL     1      34.984  15.253  23.176  1.00  0.00     0.040 C 
HETATM   19  C8  UNL     1      34.647  14.888  21.743  1.00  0.00     0.276 C 
HETATM   20  N1  UNL     1      35.865  14.685  20.978  1.00  0.00     0.117 N 
HETATM   21  C9  UNL     1      35.603  13.986  19.762  1.00  0.00     0.313 C 
HETATM   22  C10 UNL     1      36.910  14.107  21.758  1.00  0.00     0.405 C 
HETATM   23  F1  UNL     1      37.821  15.024  22.212  1.00  0.00    -0.216 F 
HETATM   24  C11 UNL     1      36.346  13.258  22.878  1.00  0.00     0.079 C 
ENDBRANCH   2  17
BRANCH   1  25
HETATM   25  C3  UNL     1      34.264  14.229  26.701  1.00  0.00     0.294 C 
HETATM   26  O2  UNL     1      35.229  14.051  27.475  1.00  0.00    -0.259 OA
BRANCH  25  27
HETATM   27  O1  UNL     1      33.560  15.412  26.840  1.00  0.00    -0.318 OA
BRANCH  27  28
HETATM   28  C2  UNL     1      34.097  16.662  26.512  1.00  0.00     0.174 C 
HETATM   29  C1  UNL     1      33.159  17.742  26.952  1.00  0.00     0.034 C 
ENDBRANCH  27  28
ENDBRANCH  25  27
ENDBRANCH   1  25
BRANCH   7  30
HETATM   30  C16 UNL     1      30.049  12.348  28.366  1.00  0.00     0.008 C 
HETATM   31  C17 UNL     1      29.142  13.533  28.520  1.00  0.00     0.006 C 
ENDBRANCH   7  30
TORSDOF 5
ENDMDL
MODEL 4
REMARK VINA RESULT: -8.037909981      3.730      8.135
REMARK  5 active torsions:
REMARK  status: ('A' for Active; 'I' for Inactive)
REMARK    1  A    between atoms: C2_2  and  O1_3 
REMARK    2  A    between atoms: O1_3  and  C3_4 
REMARK    3  A    between atoms: C3_4  and  C4_6 
REMARK    4  A    between atoms: C5_7  and  C6_8 
REMARK    5  A    between atoms: C15_20  and  C16_21 
ROOT
HETATM    1  C4  UNL     1      34.030  13.424  25.597  1.00  0.00     0.060 A 
HETATM    2  C5  UNL     1      34.556  13.456  24.338  1.00  0.00     0.004 A 
HETATM    3  S1  UNL     1      33.764  12.164  23.532  1.00  0.00    -0.096 SA
HETATM    4  C12 UNL     1      32.788  11.619  24.813  1.00  0.00     0.002 A 
HETATM    5  C13 UNL     1      33.098  12.458  25.850  1.00  0.00    -0.026 A 
HETATM    6  C14 UNL     1      32.450  12.336  27.214  1.00  0.00     0.053 C 
HETATM    7  C15 UNL     1      30.963  12.378  27.135  1.00  0.00     0.059 C 
HETATM    8  C18 UNL     1      30.355  11.241  26.436  1.00  0.00     0.132 C 
HETATM    9  O3  UNL     1      29.689  10.451  27.081  1.00  0.00    -0.298 OA
HETATM   10  C19 UNL     1      30.443  10.909  25.001  1.00  0.00     0.095 C 
HETATM   11  C20 UNL     1      31.841  10.466  24.707  1.00  0.00     0.022 C 
HETATM   12  C21 UNL     1      32.277   9.277  25.499  1.00  0.00     0.019 C 
HETATM   13  C22 UNL     1      31.482   8.067  25.104  1.00  0.00     0.027 C 
HETATM   14  C23 UNL     1      31.234   7.935  23.636  1.00  0.00     0.167 C 
HETATM   15  O4  UNL     1      30.784   9.153  23.075  1.00  0.00    -0.390 OA
HETATM   16  C24 UNL     1      31.840  10.037  23.237  1.00  0.00     0.182 C 
ENDROOT
BRANCH   2  17
HETATM   17  C6  UNL     1      35.594  14.384  23.735  1.00  0.00     0.033 C 
HETATM   18  C7  UNL     1      34.895  15.458  22.929  1.00  0.00     0.040 C 
HETATM   19  C8  UNL     1      34.604  14.970  21.522  1.00  0.00     0.276 C 
HETATM   20  N1  UNL     1      35.844  14.808  20.782  1.00  0.00     0.117 N 
HETATM   21  C9  UNL     1      35.650  14.009  19.615  1.00  0.00     0.313 C 
HETATM   22  C10 UNL     1      36.920  14.365  21.607  1.00  0.00     0.405 C 
HETATM   23  F1  UNL     1      37.754  15.378  22.003  1.00  0.00    -0.216 F 
HETATM   24  C11 UNL     1      36.407  13.555  22.779  1.00  0.00     0.079 C 
ENDBRANCH   2  17
BRANCH   1  25
HETATM   25  C3  UNL     1      34.472  14.416  26.636  1.00  0.00     0.294 C 
HETATM   26  O2  UNL     1      33.909  15.524  26.772  1.00  0.00    -0.259 OA
BRANCH  25  27
HETATM   27  O1  UNL     1      35.527  14.142  27.488  1.00  0.00    -0.318 OA
BRANCH  27  28
HETATM   28  C2  UNL     1      36.566  15.047  27.732  1.00  0.00     0.174 C 
HETATM   29  C1  UNL     1      37.650  14.850  26.719  1.00  0.00     0.034 C 
ENDBRANCH  27  28
ENDBRANCH  25  27
ENDBRANCH   1  25
BRANCH   7  30
HETATM   30  C16 UNL     1      30.436  12.392  28.556  1.00  0.00     0.008 C 
HETATM   31  C17 UNL     1      31.001  13.518  29.368  1.00  0.00     0.006 C 
ENDBRANCH   7  30
TORSDOF 5
ENDMDL
MODEL 5
REMARK VINA RESULT: -7.976893461      3.806      6.657
REMARK  5 active torsions:
REMARK  status: ('A' for Active; 'I' for Inactive)
REMARK    1  A    between atoms: C2_2  and  O1_3 
REMARK    2  A    between atoms: O1_3  and  C3_4 
REMARK    3  A    between atoms: C3_4  and  C4_6 
REMARK    4  A    between atoms: C5_7  and  C6_8 
REMARK    5  A    between atoms: C15_20  and  C16_21 
ROOT
HETATM    1  C4  UNL     1      33.683  13.182  25.932  1.00  0.00     0.060 A 
HETATM    2  C5  UNL     1      34.166  14.236  26.653  1.00  0.00     0.004 A 
HETATM    3  S1  UNL     1      35.116  15.104  25.518  1.00  0.00    -0.096 SA
HETATM    4  C12 UNL     1      34.875  14.109  24.161  1.00  0.00     0.002 A 
HETATM    5  C13 UNL     1      34.054  13.113  24.619  1.00  0.00    -0.026 A 
HETATM    6  C14 UNL     1      33.571  11.985  23.730  1.00  0.00     0.053 C 
HETATM    7  C15 UNL     1      32.895  12.489  22.502  1.00  0.00     0.059 C 
HETATM    8  C18 UNL     1      33.768  13.218  21.577  1.00  0.00     0.132 C 
HETATM    9  O3  UNL     1      34.017  12.716  20.496  1.00  0.00    -0.298 OA
HETATM   10  C19 UNL     1      34.413  14.529  21.785  1.00  0.00     0.095 C 
HETATM   11  C20 UNL     1      35.482  14.367  22.819  1.00  0.00     0.022 C 
HETATM   12  C21 UNL     1      36.533  13.372  22.450  1.00  0.00     0.019 C 
HETATM   13  C22 UNL     1      37.320  13.858  21.269  1.00  0.00     0.027 C 
HETATM   14  C23 UNL     1      37.649  15.315  21.295  1.00  0.00     0.167 C 
HETATM   15  O4  UNL     1      36.516  16.097  21.618  1.00  0.00    -0.390 OA
HETATM   16  C24 UNL     1      36.179  15.727  22.911  1.00  0.00     0.182 C 
ENDROOT
BRANCH   2  17
HETATM   17  C6  UNL     1      33.952  14.605  28.109  1.00  0.00     0.033 C 
HETATM   18  C7  UNL     1      34.509  15.989  28.360  1.00  0.00     0.040 C 
HETATM   19  C8  UNL     1      35.995  15.925  28.659  1.00  0.00     0.276 C 
HETATM   20  N1  UNL     1      36.221  15.282  29.941  1.00  0.00     0.117 N 
HETATM   21  C9  UNL     1      37.580  14.867  30.081  1.00  0.00     0.313 C 
HETATM   22  C10 UNL     1      35.277  14.246  30.208  1.00  0.00     0.405 C 
HETATM   23  F1  UNL     1      34.257  14.640  31.035  1.00  0.00    -0.216 F 
HETATM   24  C11 UNL     1      34.765  13.633  28.921  1.00  0.00     0.079 C 
ENDBRANCH   2  17
BRANCH   1  25
HETATM   25  C3  UNL     1      32.786  12.162  26.577  1.00  0.00     0.294 C 
HETATM   26  O2  UNL     1      31.547  12.316  26.637  1.00  0.00    -0.259 OA
BRANCH  25  27
HETATM   27  O1  UNL     1      33.300  11.004  27.133  1.00  0.00    -0.318 OA
BRANCH  27  28
HETATM   28  C2  UNL     1      32.630   9.776  27.091  1.00  0.00     0.174 C 
HETATM   29  C1  UNL     1      33.008   9.042  25.842  1.00  0.00     0.034 C 
ENDBRANCH  27  28
ENDBRANCH  25  27
ENDBRANCH   1  25
BRANCH   7  30
HETATM   30  C16 UNL     1      32.336  11.285  21.770  1.00  0.00     0.008 C 
HETATM   31  C17 UNL     1      31.386  10.489  22.614  1.00  0.00     0.006 C 
ENDBRANCH   7  30
TORSDOF 5
ENDMDL
