MODEL 1
REMARK VINA RESULT: -8.149754141      0.000      0.000
REMARK  5 active torsions:
REMARK  status: ('A' for Active; 'I' for Inactive)
REMARK    1  A    between atoms: O1_2  and  C2_3 
REMARK    2  A    between atoms: C11_15  and  O4_16 
REMARK    3  A    between atoms: C15_20  and  S1_21 
REMARK    4  A    between atoms: S1_21  and  C16_22 
REMARK    5  A    between atoms: C18_25  and  O6_26 
ROOT
HETATM    1  C2  UNL     1      34.237  13.070  24.731  1.00  0.00     0.112 A 
HETATM    2  C3  UNL     1      33.283  12.560  23.921  1.00  0.00     0.017 A 
HETATM    3  C4  UNL     1      33.381  12.677  22.526  1.00  0.00    -0.011 A 
HETATM    4  C5  UNL     1      34.438  13.307  21.933  1.00  0.00     0.100 A 
HETATM    5  O2  UNL     1      34.533  13.415  20.644  1.00  0.00    -0.273 OA
HETATM    6  C6  UNL     1      35.519  13.996  20.039  1.00  0.00     0.306 A 
HETATM    7  O3  UNL     1      35.551  14.068  18.754  1.00  0.00    -0.258 OA
HETATM    8  C7  UNL     1      36.539  14.542  20.755  1.00  0.00     0.093 A 
HETATM    9 BR1  UNL     1      38.028  15.420  19.959  1.00  0.00    -0.044 Br
HETATM   10  C8  UNL     1      36.521  14.476  22.142  1.00  0.00    -0.023 A 
HETATM   11  C9  UNL     1      37.658  15.002  22.924  1.00  0.00     0.051 C 
HETATM   12  C10 UNL     1      35.462  13.859  22.759  1.00  0.00     0.042 A 
HETATM   13  C11 UNL     1      35.328  13.725  24.111  1.00  0.00     0.115 A 
HETATM   14  C13 UNL     1      32.313  12.070  21.686  1.00  0.00     0.043 C 
HETATM   15  C14 UNL     1      32.189  10.648  22.216  1.00  0.00     0.023 C 
HETATM   16  C15 UNL     1      31.653  10.694  23.606  1.00  0.00     0.089 C 
HETATM   17  C18 UNL     1      32.065  11.884  24.420  1.00  0.00     0.171 C 
ENDROOT
BRANCH  16  18
HETATM   18  S1  UNL     1      32.138   9.133  24.407  1.00  0.00    -0.085 SA
BRANCH  18  19
HETATM   19  C16 UNL     1      30.975   7.843  24.065  1.00  0.00     0.182 C 
HETATM   20  C17 UNL     1      30.904   6.546  24.775  1.00  0.00     0.104 C 
HETATM   21  O5  UNL     1      30.146   8.017  23.167  1.00  0.00    -0.286 OA
ENDBRANCH  18  19
ENDBRANCH  16  18
BRANCH  17  22
HETATM   22  O6  UNL     1      32.081  11.503  25.732  1.00  0.00    -0.385 OA
HETATM   23  C19 UNL     1      30.854  11.768  26.338  1.00  0.00     0.202 C 
ENDBRANCH  17  22
BRANCH   1  24
HETATM   24  O1  UNL     1      34.251  13.010  26.110  1.00  0.00    -0.352 OA
HETATM   25  C1  UNL     1      33.642  13.980  26.942  1.00  0.00     0.210 C 
ENDBRANCH   1  24
BRANCH  13  26
HETATM   26  O4  UNL     1      36.305  14.256  24.975  1.00  0.00    -0.352 OA
HETATM   27  C12 UNL     1      36.058  15.608  25.469  1.00  0.00     0.210 C 
ENDBRANCH  13  26
TORSDOF 5
ENDMDL
MODEL 2
REMARK VINA RESULT: -7.899738694      1.643      2.162
REMARK  5 active torsions:
REMARK  status: ('A' for Active; 'I' for Inactive)
REMARK    1  A    between atoms: O1_2  and  C2_3 
REMARK    2  A    between atoms: C11_15  and  O4_16 
REMARK    3  A    between atoms: C15_20  and  S1_21 
REMARK    4  A    between atoms: S1_21  and  C16_22 
REMARK    5  A    between atoms: C18_25  and  O6_26 
ROOT
HETATM    1  C2  UNL     1      32.790  12.303  25.998  1.00  0.00     0.112 A 
HETATM    2  C3  UNL     1      32.007  11.596  25.153  1.00  0.00     0.017 A 
HETATM    3  C4  UNL     1      32.145  11.722  23.763  1.00  0.00    -0.011 A 
HETATM    4  C5  UNL     1      33.072  12.559  23.208  1.00  0.00     0.100 A 
HETATM    5  O2  UNL     1      33.206  12.676  21.924  1.00  0.00    -0.273 OA
HETATM    6  C6  UNL     1      34.074  13.449  21.355  1.00  0.00     0.306 A 
HETATM    7  O3  UNL     1      34.153  13.519  20.073  1.00  0.00    -0.258 OA
HETATM    8  C7  UNL     1      34.920  14.204  22.109  1.00  0.00     0.093 A 
HETATM    9 BR1  UNL     1      36.226  15.373  21.368  1.00  0.00    -0.044 Br
HETATM   10  C8  UNL     1      34.848  14.144  23.494  1.00  0.00    -0.023 A 
HETATM   11  C9  UNL     1      35.809  14.905  24.319  1.00  0.00     0.051 C 
HETATM   12  C10 UNL     1      33.915  13.321  24.071  1.00  0.00     0.042 A 
HETATM   13  C11 UNL     1      33.746  13.170  25.418  1.00  0.00     0.115 A 
HETATM   14  C13 UNL     1      31.272  10.897  22.884  1.00  0.00     0.043 C 
HETATM   15  C14 UNL     1      31.426   9.485  23.431  1.00  0.00     0.023 C 
HETATM   16  C15 UNL     1      30.826   9.425  24.794  1.00  0.00     0.089 C 
HETATM   17  C18 UNL     1      30.937  10.680  25.606  1.00  0.00     0.171 C 
ENDROOT
BRANCH  16  18
HETATM   18  S1  UNL     1      31.591   8.008  25.643  1.00  0.00    -0.085 SA
BRANCH  18  19
HETATM   19  C16 UNL     1      30.418   6.711  25.919  1.00  0.00     0.182 C 
HETATM   20  C17 UNL     1      30.421   5.396  25.236  1.00  0.00     0.104 C 
HETATM   21  O5  UNL     1      29.516   6.893  26.742  1.00  0.00    -0.286 OA
ENDBRANCH  18  19
ENDBRANCH  16  18
BRANCH  17  22
HETATM   22  O6  UNL     1      30.969  10.320  26.924  1.00  0.00    -0.385 OA
HETATM   23  C19 UNL     1      29.696  10.395  27.487  1.00  0.00     0.202 C 
ENDBRANCH  17  22
BRANCH   1  24
HETATM   24  O1  UNL     1      32.749  12.256  27.377  1.00  0.00    -0.352 OA
HETATM   25  C1  UNL     1      31.924  13.094  28.164  1.00  0.00     0.210 C 
ENDBRANCH   1  24
BRANCH  13  26
HETATM   26  O4  UNL     1      34.546  13.902  26.317  1.00  0.00    -0.352 OA
HETATM   27  C12 UNL     1      33.996  15.176  26.774  1.00  0.00     0.210 C 
ENDBRANCH  13  26
TORSDOF 5
ENDMDL
MODEL 3
REMARK VINA RESULT: -7.806953032      1.122      1.177
REMARK  5 active torsions:
REMARK  status: ('A' for Active; 'I' for Inactive)
REMARK    1  A    between atoms: O1_2  and  C2_3 
REMARK    2  A    between atoms: C11_15  and  O4_16 
REMARK    3  A    between atoms: C15_20  and  S1_21 
REMARK    4  A    between atoms: S1_21  and  C16_22 
REMARK    5  A    between atoms: C18_25  and  O6_26 
ROOT
HETATM    1  C2  UNL     1      34.961  13.646  24.745  1.00  0.00     0.112 A 
HETATM    2  C3  UNL     1      33.949  13.061  24.066  1.00  0.00     0.017 A 
HETATM    3  C4  UNL     1      33.925  13.060  22.663  1.00  0.00    -0.011 A 
HETATM    4  C5  UNL     1      34.918  13.646  21.930  1.00  0.00     0.100 A 
HETATM    5  O2  UNL     1      34.902  13.645  20.633  1.00  0.00    -0.273 OA
HETATM    6  C6  UNL     1      35.823  14.180  19.898  1.00  0.00     0.306 A 
HETATM    7  O3  UNL     1      35.744  14.144  18.614  1.00  0.00    -0.258 OA
HETATM    8  C7  UNL     1      36.893  14.794  20.476  1.00  0.00     0.093 A 
HETATM    9 BR1  UNL     1      38.294  15.613  19.483  1.00  0.00    -0.044 Br
HETATM   10  C8  UNL     1      36.993  14.845  21.860  1.00  0.00    -0.023 A 
HETATM   11  C9  UNL     1      38.185  15.445  22.494  1.00  0.00     0.051 C 
HETATM   12  C10 UNL     1      36.001  14.274  22.615  1.00  0.00     0.042 A 
HETATM   13  C11 UNL     1      35.984  14.255  23.980  1.00  0.00     0.115 A 
HETATM   14  C13 UNL     1      32.799  12.375  21.972  1.00  0.00     0.043 C 
HETATM   15  C14 UNL     1      32.743  11.003  22.628  1.00  0.00     0.023 C 
HETATM   16  C15 UNL     1      32.327  11.162  24.051  1.00  0.00     0.089 C 
HETATM   17  C18 UNL     1      32.789  12.420  24.723  1.00  0.00     0.171 C 
ENDROOT
BRANCH  16  18
HETATM   18  S1  UNL     1      32.903   9.679  24.935  1.00  0.00    -0.085 SA
BRANCH  18  19
HETATM   19  C16 UNL     1      31.660   8.418  24.959  1.00  0.00     0.182 C 
HETATM   20  C17 UNL     1      30.916   7.929  23.775  1.00  0.00     0.104 C 
HETATM   21  O5  UNL     1      31.373   7.890  26.037  1.00  0.00    -0.286 OA
ENDBRANCH  18  19
ENDBRANCH  16  18
BRANCH  17  22
HETATM   22  O6  UNL     1      32.923  12.152  26.056  1.00  0.00    -0.385 OA
HETATM   23  C19 UNL     1      31.793  12.569  26.759  1.00  0.00     0.202 C 
ENDBRANCH  17  22
BRANCH   1  24
HETATM   24  O1  UNL     1      35.093  13.704  26.118  1.00  0.00    -0.352 OA
HETATM   25  C1  UNL     1      34.720  14.827  26.894  1.00  0.00     0.210 C 
ENDBRANCH   1  24
BRANCH  13  26
HETATM   26  O4  UNL     1      37.023  14.866  24.709  1.00  0.00    -0.352 OA
HETATM   27  C12 UNL     1      38.012  13.964  25.295  1.00  0.00     0.210 C 
ENDBRANCH  13  26
TORSDOF 5
ENDMDL
MODEL 4
REMARK VINA RESULT: -7.682313882      3.315      6.587
REMARK  5 active torsions:
REMARK  status: ('A' for Active; 'I' for Inactive)
REMARK    1  A    between atoms: O1_2  and  C2_3 
REMARK    2  A    between atoms: C11_15  and  O4_16 
REMARK    3  A    between atoms: C15_20  and  S1_21 
REMARK    4  A    between atoms: S1_21  and  C16_22 
REMARK    5  A    between atoms: C18_25  and  O6_26 
ROOT
HETATM    1  C2  UNL     1      33.988  13.606  25.180  1.00  0.00     0.112 A 
HETATM    2  C3  UNL     1      34.219  13.186  23.917  1.00  0.00     0.017 A 
HETATM    3  C4  UNL     1      33.418  12.197  23.326  1.00  0.00    -0.011 A 
HETATM    4  C5  UNL     1      32.376  11.623  23.998  1.00  0.00     0.100 A 
HETATM    5  O2  UNL     1      31.631  10.712  23.454  1.00  0.00    -0.273 OA
HETATM    6  C6  UNL     1      30.630  10.147  24.050  1.00  0.00     0.306 A 
HETATM    7  O3  UNL     1      29.931   9.247  23.451  1.00  0.00    -0.258 OA
HETATM    8  C7  UNL     1      30.302  10.497  25.324  1.00  0.00     0.093 A 
HETATM    9 BR1  UNL     1      28.854   9.721  26.285  1.00  0.00    -0.044 Br
HETATM   10  C8  UNL     1      31.046  11.464  25.987  1.00  0.00    -0.023 A 
HETATM   11  C9  UNL     1      30.653  11.900  27.342  1.00  0.00     0.051 C 
HETATM   12  C10 UNL     1      32.105  12.043  25.334  1.00  0.00     0.042 A 
HETATM   13  C11 UNL     1      32.910  13.006  25.873  1.00  0.00     0.115 A 
HETATM   14  C13 UNL     1      33.705  11.796  21.922  1.00  0.00     0.043 C 
HETATM   15  C14 UNL     1      33.778  13.116  21.167  1.00  0.00     0.023 C 
HETATM   16  C15 UNL     1      34.971  13.877  21.638  1.00  0.00     0.089 C 
HETATM   17  C18 UNL     1      35.331  13.689  23.080  1.00  0.00     0.171 C 
ENDROOT
BRANCH  16  18
HETATM   18  S1  UNL     1      34.662  15.629  21.248  1.00  0.00    -0.085 SA
BRANCH  18  19
HETATM   19  C16 UNL     1      35.143  16.014  19.588  1.00  0.00     0.182 C 
HETATM   20  C17 UNL     1      36.086  15.222  18.765  1.00  0.00     0.104 C 
HETATM   21  O5  UNL     1      34.667  17.019  19.052  1.00  0.00    -0.286 OA
ENDBRANCH  18  19
ENDBRANCH  16  18
BRANCH  17  22
HETATM   22  O6  UNL     1      35.938  14.835  23.509  1.00  0.00    -0.385 OA
HETATM   23  C19 UNL     1      37.314  14.649  23.631  1.00  0.00     0.202 C 
ENDBRANCH  17  22
BRANCH   1  24
HETATM   24  O1  UNL     1      34.702  14.572  25.860  1.00  0.00    -0.352 OA
HETATM   25  C1  UNL     1      34.302  15.927  25.946  1.00  0.00     0.210 C 
ENDBRANCH   1  24
BRANCH  13  26
HETATM   26  O4  UNL     1      32.692  13.453  27.191  1.00  0.00    -0.352 OA
HETATM   27  C12 UNL     1      33.664  13.011  28.187  1.00  0.00     0.210 C 
ENDBRANCH  13  26
TORSDOF 5
ENDMDL
MODEL 5
REMARK VINA RESULT: -7.517654087      3.322      6.843
REMARK  5 active torsions:
REMARK  status: ('A' for Active; 'I' for Inactive)
REMARK    1  A    between atoms: O1_2  and  C2_3 
REMARK    2  A    between atoms: C11_15  and  O4_16 
REMARK    3  A    between atoms: C15_20  and  S1_21 
REMARK    4  A    between atoms: S1_21  and  C16_22 
REMARK    5  A    between atoms: C18_25  and  O6_26 
ROOT
HETATM    1  C2  UNL     1      35.499  14.437  22.946  1.00  0.00     0.112 A 
HETATM    2  C3  UNL     1      35.707  14.833  24.222  1.00  0.00     0.017 A 
HETATM    3  C4  UNL     1      34.919  14.336  25.270  1.00  0.00    -0.011 A 
HETATM    4  C5  UNL     1      33.915  13.437  25.047  1.00  0.00     0.100 A 
HETATM    5  O2  UNL     1      33.186  12.973  26.014  1.00  0.00    -0.273 OA
HETATM    6  C6  UNL     1      32.231  12.114  25.851  1.00  0.00     0.306 A 
HETATM    7  O3  UNL     1      31.545  11.695  26.856  1.00  0.00    -0.258 OA
HETATM    8  C7  UNL     1      31.937  11.642  24.608  1.00  0.00     0.093 A 
HETATM    9 BR1  UNL     1      30.550  10.384  24.265  1.00  0.00    -0.044 Br
HETATM   10  C8  UNL     1      32.664  12.085  23.512  1.00  0.00    -0.023 A 
HETATM   11  C9  UNL     1      32.399  11.524  22.172  1.00  0.00     0.051 C 
HETATM   12  C10 UNL     1      33.668  12.998  23.712  1.00  0.00     0.042 A 
HETATM   13  C11 UNL     1      34.456  13.508  22.721  1.00  0.00     0.115 A 
HETATM   14  C13 UNL     1      35.214  14.789  26.657  1.00  0.00     0.043 C 
HETATM   15  C14 UNL     1      36.713  14.571  26.806  1.00  0.00     0.023 C 
HETATM   16  C15 UNL     1      37.432  15.509  25.897  1.00  0.00     0.089 C 
HETATM   17  C18 UNL     1      36.731  15.828  24.611  1.00  0.00     0.171 C 
ENDROOT
BRANCH  16  18
HETATM   18  S1  UNL     1      39.080  14.794  25.603  1.00  0.00    -0.085 SA
BRANCH  18  19
HETATM   19  C16 UNL     1      38.987  13.049  25.324  1.00  0.00     0.182 C 
HETATM   20  C17 UNL     1      38.471  12.407  24.093  1.00  0.00     0.104 C 
HETATM   21  O5  UNL     1      39.378  12.285  26.212  1.00  0.00    -0.286 OA
ENDBRANCH  18  19
ENDBRANCH  16  18
BRANCH  17  22
HETATM   22  O6  UNL     1      37.688  16.105  23.676  1.00  0.00    -0.385 OA
HETATM   23  C19 UNL     1      37.729  17.472  23.403  1.00  0.00     0.202 C 
ENDBRANCH  17  22
BRANCH   1  24
HETATM   24  O1  UNL     1      36.213  14.851  21.839  1.00  0.00    -0.352 OA
HETATM   25  C1  UNL     1      37.263  14.100  21.259  1.00  0.00     0.210 C 
ENDBRANCH   1  24
BRANCH  13  26
HETATM   26  O4  UNL     1      34.253  13.116  21.383  1.00  0.00    -0.352 OA
HETATM   27  C12 UNL     1      33.685  14.129  20.497  1.00  0.00     0.210 C 
ENDBRANCH  13  26
TORSDOF 5
ENDMDL
