MODEL 1
REMARK VINA RESULT: -5.001990899      0.000      0.000
REMARK  0 active torsions:
REMARK  status: ('A' for Active; 'I' for Inactive)
ROOT
HETATM    1  N1  UNL     1      16.746  -0.068  15.960  1.00  0.00    -0.404 N 
ATOM      2  H11 UNL     1      17.380  -0.321  15.203  1.00  0.00     0.155 HD
ATOM      3  H12 UNL     1      16.785  -0.816  16.653  1.00  0.00     0.155 HD
HETATM    4  C1  UNL     1      15.999   0.946  16.132  1.00  0.00     0.005 C 
HETATM    5  C2  UNL     1      15.079   1.313  17.230  1.00  0.00     0.055 C 
HETATM    6  C3  UNL     1      14.792   2.774  17.011  1.00  0.00     0.025 C 
HETATM    7  C4  UNL     1      14.749   2.886  15.532  1.00  0.00     0.100 C 
HETATM    8  S1  UNL     1      15.410   4.504  14.947  1.00  0.00    -0.032 SA
HETATM    9  N2  UNL     1      17.102   3.997  15.154  1.00  0.00    -0.277 N 
ATOM     10  H2  UNL     1      17.913   4.612  15.218  1.00  0.00     0.195 HD
HETATM   11  N3  UNL     1      17.114   2.795  15.204  1.00  0.00    -0.319 N 
ATOM     12  H3  UNL     1      18.002   2.308  15.322  1.00  0.00     0.181 HD
HETATM   13  C5  UNL     1      15.940   2.057  15.104  1.00  0.00     0.160 C 
ENDROOT
TORSDOF 0
ENDMDL
MODEL 2
REMARK VINA RESULT: -4.754870223      1.298      1.570
REMARK  0 active torsions:
REMARK  status: ('A' for Active; 'I' for Inactive)
ROOT
HETATM    1  N1  UNL     1      15.253   1.039  17.397  1.00  0.00    -0.404 N 
ATOM      2  H11 UNL     1      15.814   0.194  17.294  1.00  0.00     0.155 HD
ATOM      3  H12 UNL     1      14.773   0.976  18.295  1.00  0.00     0.155 HD
HETATM    4  C1  UNL     1      15.096   2.046  16.637  1.00  0.00     0.005 C 
HETATM    5  C2  UNL     1      14.282   3.271  16.789  1.00  0.00     0.055 C 
HETATM    6  C3  UNL     1      14.814   4.210  15.740  1.00  0.00     0.025 C 
HETATM    7  C4  UNL     1      15.133   3.301  14.611  1.00  0.00     0.100 C 
HETATM    8  S1  UNL     1      16.616   3.865  13.673  1.00  0.00    -0.032 SA
HETATM    9  N2  UNL     1      17.747   3.229  14.891  1.00  0.00    -0.277 N 
ATOM     10  H2  UNL     1      18.724   3.498  15.005  1.00  0.00     0.195 HD
HETATM   11  N3  UNL     1      17.146   2.425  15.554  1.00  0.00    -0.319 N 
ATOM     12  H3  UNL     1      17.627   1.945  16.314  1.00  0.00     0.181 HD
HETATM   13  C5  UNL     1      15.809   2.139  15.305  1.00  0.00     0.160 C 
ENDROOT
TORSDOF 0
ENDMDL
MODEL 3
REMARK VINA RESULT: -4.597990103      4.794      5.830
REMARK  0 active torsions:
REMARK  status: ('A' for Active; 'I' for Inactive)
ROOT
HETATM    1  N1  UNL     1      18.041   3.559  11.881  1.00  0.00    -0.404 N 
ATOM      2  H11 UNL     1      17.187   4.005  12.218  1.00  0.00     0.155 HD
ATOM      3  H12 UNL     1      18.765   4.277  11.846  1.00  0.00     0.155 HD
HETATM    4  C1  UNL     1      18.287   2.359  11.541  1.00  0.00     0.005 C 
HETATM    5  C2  UNL     1      19.525   1.713  11.054  1.00  0.00     0.055 C 
HETATM    6  C3  UNL     1      19.258   0.238  11.187  1.00  0.00     0.025 C 
HETATM    7  C4  UNL     1      17.819   0.128  10.845  1.00  0.00     0.100 C 
HETATM    8  S1  UNL     1      16.981  -1.193  11.819  1.00  0.00    -0.032 SA
HETATM    9  N2  UNL     1      16.860  -0.178  13.274  1.00  0.00    -0.277 N 
ATOM     10  H2  UNL     1      16.701  -0.505  14.227  1.00  0.00     0.195 HD
HETATM   11  N3  UNL     1      17.001   0.966  12.928  1.00  0.00    -0.319 N 
ATOM     12  H3  UNL     1      16.964   1.708  13.626  1.00  0.00     0.181 HD
HETATM   13  C5  UNL     1      17.213   1.294  11.594  1.00  0.00     0.160 C 
ENDROOT
TORSDOF 0
ENDMDL
MODEL 4
REMARK VINA RESULT: -4.514276531      3.944      4.770
REMARK  0 active torsions:
REMARK  status: ('A' for Active; 'I' for Inactive)
ROOT
HETATM    1  N1  UNL     1      19.779   0.852  10.480  1.00  0.00    -0.404 N 
ATOM      2  H11 UNL     1      20.337   1.673  10.246  1.00  0.00     0.155 HD
ATOM      3  H12 UNL     1      20.286   0.034  10.143  1.00  0.00     0.155 HD
HETATM    4  C1  UNL     1      18.661   0.734  11.074  1.00  0.00     0.005 C 
HETATM    5  C2  UNL     1      17.852  -0.457  11.413  1.00  0.00     0.055 C 
HETATM    6  C3  UNL     1      16.849   0.043  12.418  1.00  0.00     0.025 C 
HETATM    7  C4  UNL     1      16.541   1.409  11.929  1.00  0.00     0.100 C 
HETATM    8  S1  UNL     1      16.217   2.579  13.317  1.00  0.00    -0.032 SA
HETATM    9  N2  UNL     1      17.947   2.779  13.679  1.00  0.00    -0.277 N 
ATOM     10  H2  UNL     1      18.345   3.135  14.548  1.00  0.00     0.195 HD
HETATM   11  N3  UNL     1      18.562   2.417  12.710  1.00  0.00    -0.319 N 
ATOM     12  H3  UNL     1      19.581   2.455  12.721  1.00  0.00     0.181 HD
HETATM   13  C5  UNL     1      17.909   1.948  11.575  1.00  0.00     0.160 C 
ENDROOT
TORSDOF 0
ENDMDL
MODEL 5
REMARK VINA RESULT: -4.426669955      4.711      5.279
REMARK  0 active torsions:
REMARK  status: ('A' for Active; 'I' for Inactive)
ROOT
HETATM    1  N1  UNL     1      18.519  -2.210  11.097  1.00  0.00    -0.404 N 
ATOM      2  H11 UNL     1      19.342  -2.381  10.520  1.00  0.00     0.155 HD
ATOM      3  H12 UNL     1      18.221  -3.109  11.475  1.00  0.00     0.155 HD
HETATM    4  C1  UNL     1      17.892  -1.140  11.376  1.00  0.00     0.005 C 
HETATM    5  C2  UNL     1      16.699  -0.892  12.214  1.00  0.00     0.055 C 
HETATM    6  C3  UNL     1      16.691   0.598  12.428  1.00  0.00     0.025 C 
HETATM    7  C4  UNL     1      17.184   1.123  11.131  1.00  0.00     0.100 C 
HETATM    8  S1  UNL     1      18.204   2.643  11.349  1.00  0.00    -0.032 SA
HETATM    9  N2  UNL     1      19.639   1.724  11.856  1.00  0.00    -0.277 N 
ATOM     10  H2  UNL     1      20.446   2.093  12.359  1.00  0.00     0.195 HD
HETATM   11  N3  UNL     1      19.483   0.585  11.498  1.00  0.00    -0.319 N 
ATOM     12  H3  UNL     1      20.205  -0.106  11.698  1.00  0.00     0.181 HD
HETATM   13  C5  UNL     1      18.335   0.195  10.816  1.00  0.00     0.160 C 
ENDROOT
TORSDOF 0
ENDMDL
