MODEL 1
REMARK VINA RESULT: -3.679378986      0.000      0.000
REMARK  1 active torsions:
REMARK  status: ('A' for Active; 'I' for Inactive)
REMARK    1  A    between atoms: N1_1  and  S1_4 
ROOT
HETATM    1  S1  UNL     1      16.434   0.730  16.303  1.00  0.00    -0.060 SA
HETATM    2  C1  UNL     1      15.140   0.559  17.547  1.00  0.00     0.108 C 
HETATM    3  C2  UNL     1      13.854   1.039  16.914  1.00  0.00     0.099 C 
HETATM    4  S2  UNL     1      14.079   2.838  16.613  1.00  0.00    -0.085 SA
HETATM    5  S3  UNL     1      15.981   2.702  15.591  1.00  0.00    -0.016 SA
ENDROOT
BRANCH   1   6
HETATM    6  N1  UNL     1      16.316  -0.312  15.165  1.00  0.00    -0.374 NA
ATOM      7  H12 UNL     1      17.188  -0.831  15.053  1.00  0.00     0.164 HD
ATOM      8  H11 UNL     1      16.255   0.116  14.240  1.00  0.00     0.164 HD
ENDBRANCH   1   6
TORSDOF 1
ENDMDL
MODEL 2
REMARK VINA RESULT: -3.346297115      5.790      6.266
REMARK  1 active torsions:
REMARK  status: ('A' for Active; 'I' for Inactive)
REMARK    1  A    between atoms: N1_1  and  S1_4 
ROOT
HETATM    1  S1  UNL     1      16.458   1.375  11.988  1.00  0.00    -0.060 SA
HETATM    2  C1  UNL     1      17.683   2.673  12.238  1.00  0.00     0.108 C 
HETATM    3  C2  UNL     1      18.524   2.734  10.984  1.00  0.00     0.099 C 
HETATM    4  S2  UNL     1      19.435   1.139  10.907  1.00  0.00    -0.085 SA
HETATM    5  S3  UNL     1      17.726  -0.158  11.186  1.00  0.00    -0.016 SA
ENDROOT
BRANCH   1   6
HETATM    6  N1  UNL     1      15.358   1.772  10.974  1.00  0.00    -0.374 NA
ATOM      7  H12 UNL     1      15.012   0.955  10.471  1.00  0.00     0.164 HD
ATOM      8  H11 UNL     1      15.719   2.313  10.188  1.00  0.00     0.164 HD
ENDBRANCH   1   6
TORSDOF 1
ENDMDL
MODEL 3
REMARK VINA RESULT: -3.276272687      2.122      2.601
REMARK  1 active torsions:
REMARK  status: ('A' for Active; 'I' for Inactive)
REMARK    1  A    between atoms: N1_1  and  S1_4 
ROOT
HETATM    1  S1  UNL     1      14.708   1.390  17.345  1.00  0.00    -0.060 SA
HETATM    2  C1  UNL     1      14.366   3.132  17.027  1.00  0.00     0.108 C 
HETATM    3  C2  UNL     1      14.478   3.337  15.534  1.00  0.00     0.099 C 
HETATM    4  S2  UNL     1      16.244   3.048  15.114  1.00  0.00    -0.085 SA
HETATM    5  S3  UNL     1      16.447   1.141  16.116  1.00  0.00    -0.016 SA
ENDROOT
BRANCH   1   6
HETATM    6  N1  UNL     1      13.562   0.458  16.883  1.00  0.00    -0.374 NA
ATOM      7  H12 UNL     1      13.152   0.788  16.008  1.00  0.00     0.164 HD
ATOM      8  H11 UNL     1      12.740   0.510  17.485  1.00  0.00     0.164 HD
ENDBRANCH   1   6
TORSDOF 1
ENDMDL
MODEL 4
REMARK VINA RESULT: -3.180161131      5.473      5.741
REMARK  1 active torsions:
REMARK  status: ('A' for Active; 'I' for Inactive)
REMARK    1  A    between atoms: N1_1  and  S1_4 
ROOT
HETATM    1  S1  UNL     1      18.182  -0.221  11.020  1.00  0.00    -0.060 SA
HETATM    2  C1  UNL     1      16.749   0.163  12.045  1.00  0.00     0.108 C 
HETATM    3  C2  UNL     1      16.215   1.496  11.573  1.00  0.00     0.099 C 
HETATM    4  S2  UNL     1      17.513   2.733  11.975  1.00  0.00    -0.085 SA
HETATM    5  S3  UNL     1      19.173   1.680  11.071  1.00  0.00    -0.016 SA
ENDROOT
BRANCH   1   6
HETATM    6  N1  UNL     1      17.799  -0.609   9.571  1.00  0.00    -0.374 NA
ATOM      7  H12 UNL     1      17.781   0.212   8.965  1.00  0.00     0.164 HD
ATOM      8  H11 UNL     1      16.826  -0.904   9.483  1.00  0.00     0.164 HD
ENDBRANCH   1   6
TORSDOF 1
ENDMDL
MODEL 5
REMARK VINA RESULT: -3.176295356      5.499      5.974
REMARK  1 active torsions:
REMARK  status: ('A' for Active; 'I' for Inactive)
REMARK    1  A    between atoms: N1_1  and  S1_4 
ROOT
HETATM    1  S1  UNL     1      16.641   0.685  11.938  1.00  0.00    -0.060 SA
HETATM    2  C1  UNL     1      17.717  -0.026  10.678  1.00  0.00     0.108 C 
HETATM    3  C2  UNL     1      19.136   0.326  11.062  1.00  0.00     0.099 C 
HETATM    4  S2  UNL     1      19.263   2.153  10.912  1.00  0.00    -0.085 SA
HETATM    5  S3  UNL     1      17.512   2.640  12.085  1.00  0.00    -0.016 SA
ENDROOT
BRANCH   1   6
HETATM    6  N1  UNL     1      16.721  -0.062  13.291  1.00  0.00    -0.374 NA
ATOM      7  H12 UNL     1      16.930   0.584  14.053  1.00  0.00     0.164 HD
ATOM      8  H11 UNL     1      17.537  -0.672  13.359  1.00  0.00     0.164 HD
ENDBRANCH   1   6
TORSDOF 1
ENDMDL
