MODEL 1
REMARK VINA RESULT: -5.736385242      0.000      0.000
REMARK  0 active torsions:
REMARK  status: ('A' for Active; 'I' for Inactive)
ROOT
HETATM    1  N1  UNL     1      16.470  -0.581  15.700  1.00  0.00    -0.190 NA
HETATM    2  C1  UNL     1      16.292   0.572  15.708  1.00  0.00     0.113 C 
HETATM    3  C2  UNL     1      16.084   1.999  15.707  1.00  0.00     0.086 C 
HETATM    4  N2  UNL     1      16.455   2.588  14.618  1.00  0.00    -0.385 N 
ATOM      5  H2  UNL     1      16.838   1.938  13.931  1.00  0.00     0.160 HD
HETATM    6  C3  UNL     1      16.452   3.963  14.146  1.00  0.00     0.120 C 
HETATM    7  C4  UNL     1      15.074   4.548  14.469  1.00  0.00     0.020 C 
HETATM    8  C5  UNL     1      15.043   5.172  15.819  1.00  0.00     0.002 C 
HETATM    9  C6  UNL     1      14.113   4.526  16.791  1.00  0.00     0.000 C 
HETATM   10  C7  UNL     1      14.095   3.022  16.717  1.00  0.00     0.007 C 
HETATM   11  C8  UNL     1      15.480   2.520  16.961  1.00  0.00     0.068 C 
ENDROOT
TORSDOF 0
ENDMDL
MODEL 2
REMARK VINA RESULT: -5.676332101      1.086      1.175
REMARK  0 active torsions:
REMARK  status: ('A' for Active; 'I' for Inactive)
ROOT
HETATM    1  N1  UNL     1      15.319  -0.461  17.380  1.00  0.00    -0.190 NA
HETATM    2  C1  UNL     1      15.490   0.570  16.861  1.00  0.00     0.113 C 
HETATM    3  C2  UNL     1      15.711   1.838  16.208  1.00  0.00     0.086 C 
HETATM    4  N2  UNL     1      16.131   1.740  14.990  1.00  0.00    -0.385 N 
ATOM      5  H2  UNL     1      16.237   0.772  14.688  1.00  0.00     0.160 HD
HETATM    6  C3  UNL     1      16.486   2.692  13.951  1.00  0.00     0.120 C 
HETATM    7  C4  UNL     1      15.379   3.750  13.911  1.00  0.00     0.020 C 
HETATM    8  C5  UNL     1      15.665   4.882  14.833  1.00  0.00     0.002 C 
HETATM    9  C6  UNL     1      14.685   5.051  15.946  1.00  0.00     0.000 C 
HETATM   10  C7  UNL     1      14.219   3.754  16.556  1.00  0.00     0.007 C 
HETATM   11  C8  UNL     1      15.413   3.015  17.065  1.00  0.00     0.068 C 
ENDROOT
TORSDOF 0
ENDMDL
MODEL 3
REMARK VINA RESULT: -5.616033048      1.104      2.453
REMARK  0 active torsions:
REMARK  status: ('A' for Active; 'I' for Inactive)
ROOT
HETATM    1  N1  UNL     1      16.867   0.083  16.445  1.00  0.00    -0.190 NA
HETATM    2  C1  UNL     1      16.357   1.060  16.060  1.00  0.00     0.113 C 
HETATM    3  C2  UNL     1      15.716   2.267  15.597  1.00  0.00     0.086 C 
HETATM    4  N2  UNL     1      15.044   2.892  16.507  1.00  0.00    -0.385 N 
ATOM      5  H2  UNL     1      15.079   2.424  17.412  1.00  0.00     0.160 HD
HETATM    6  C3  UNL     1      14.251   4.109  16.537  1.00  0.00     0.120 C 
HETATM    7  C4  UNL     1      15.059   5.193  15.819  1.00  0.00     0.020 C 
HETATM    8  C5  UNL     1      14.770   5.222  14.360  1.00  0.00     0.002 C 
HETATM    9  C6  UNL     1      15.930   4.897  13.480  1.00  0.00     0.000 C 
HETATM   10  C7  UNL     1      16.798   3.780  13.997  1.00  0.00     0.007 C 
HETATM   11  C8  UNL     1      15.953   2.560  14.160  1.00  0.00     0.068 C 
ENDROOT
TORSDOF 0
ENDMDL
MODEL 4
REMARK VINA RESULT: -5.321159280      1.283      3.090
REMARK  0 active torsions:
REMARK  status: ('A' for Active; 'I' for Inactive)
ROOT
HETATM    1  N1  UNL     1      17.555   3.285  12.159  1.00  0.00    -0.190 NA
HETATM    2  C1  UNL     1      16.885   3.006  13.074  1.00  0.00     0.113 C 
HETATM    3  C2  UNL     1      16.062   2.646  14.202  1.00  0.00     0.086 C 
HETATM    4  N2  UNL     1      16.444   1.575  14.816  1.00  0.00    -0.385 N 
ATOM      5  H2  UNL     1      17.274   1.156  14.396  1.00  0.00     0.160 HD
HETATM    6  C3  UNL     1      15.963   0.829  15.967  1.00  0.00     0.120 C 
HETATM    7  C4  UNL     1      15.676   1.846  17.075  1.00  0.00     0.020 C 
HETATM    8  C5  UNL     1      14.277   2.351  17.011  1.00  0.00     0.002 C 
HETATM    9  C6  UNL     1      14.147   3.811  16.736  1.00  0.00     0.000 C 
HETATM   10  C7  UNL     1      15.125   4.334  15.717  1.00  0.00     0.007 C 
HETATM   11  C8  UNL     1      14.930   3.579  14.443  1.00  0.00     0.068 C 
ENDROOT
TORSDOF 0
ENDMDL
MODEL 5
REMARK VINA RESULT: -5.279305046      1.567      1.728
REMARK  0 active torsions:
REMARK  status: ('A' for Active; 'I' for Inactive)
ROOT
HETATM    1  N1  UNL     1      16.669   0.381  12.791  1.00  0.00    -0.190 NA
HETATM    2  C1  UNL     1      16.446   1.396  13.321  1.00  0.00     0.113 C 
HETATM    3  C2  UNL     1      16.176   2.659  13.964  1.00  0.00     0.086 C 
HETATM    4  N2  UNL     1      16.107   3.662  13.151  1.00  0.00    -0.385 N 
ATOM      5  H2  UNL     1      16.256   3.392  12.179  1.00  0.00     0.160 HD
HETATM    6  C3  UNL     1      15.865   5.087  13.305  1.00  0.00     0.120 C 
HETATM    7  C4  UNL     1      14.662   5.243  14.239  1.00  0.00     0.020 C 
HETATM    8  C5  UNL     1      15.077   5.316  15.666  1.00  0.00     0.002 C 
HETATM    9  C6  UNL     1      14.586   4.198  16.523  1.00  0.00     0.000 C 
HETATM   10  C7  UNL     1      14.622   2.849  15.853  1.00  0.00     0.007 C 
HETATM   11  C8  UNL     1      16.028   2.564  15.439  1.00  0.00     0.068 C 
ENDROOT
TORSDOF 0
ENDMDL
