MODEL 1
REMARK VINA RESULT: -5.414431127      0.000      0.000
REMARK  1 active torsions:
REMARK  status: ('A' for Active; 'I' for Inactive)
REMARK    1  A    between atoms: N1_1  and  C1_4 
ROOT
HETATM    1  C1  UNL     1      16.373   1.055  15.427  1.00  0.00     0.187 A 
HETATM    2  O1  UNL     1      16.602   1.651  14.280  1.00  0.00    -0.217 OA
HETATM    3  N2  UNL     1      16.110   2.811  13.954  1.00  0.00    -0.246 N 
ATOM      4  H2  UNL     1      16.341   3.202  13.040  1.00  0.00     0.196 HD
HETATM    5  C2  UNL     1      15.310   3.515  14.772  1.00  0.00     0.147 A 
HETATM    6 CL1  UNL     1      14.682   5.069  14.266  1.00  0.00    -0.061 Cl
HETATM    7  C3  UNL     1      15.023   2.951  15.997  1.00  0.00     0.100 A 
HETATM    8 CL2  UNL     1      13.987   3.829  17.092  1.00  0.00    -0.079 Cl
HETATM    9  C4  UNL     1      15.559   1.719  16.316  1.00  0.00     0.111 A 
HETATM   10 CL3  UNL     1      15.205   0.995  17.863  1.00  0.00    -0.078 Cl
ENDROOT
BRANCH   1  11
HETATM   11  N1  UNL     1      16.890  -0.115  15.717  1.00  0.00    -0.377 N 
ATOM     12  H12 UNL     1      16.311  -0.954  15.764  1.00  0.00     0.158 HD
ATOM     13  H11 UNL     1      17.886  -0.235  15.905  1.00  0.00     0.158 HD
ENDBRANCH   1  11
TORSDOF 1
ENDMDL
MODEL 2
REMARK VINA RESULT: -5.379600636      1.808      2.184
REMARK  1 active torsions:
REMARK  status: ('A' for Active; 'I' for Inactive)
REMARK    1  A    between atoms: N1_1  and  C1_4 
ROOT
HETATM    1  C1  UNL     1      15.591   0.756  16.625  1.00  0.00     0.187 A 
HETATM    2  O1  UNL     1      16.304   0.154  15.703  1.00  0.00    -0.217 OA
HETATM    3  N2  UNL     1      16.674   0.717  14.588  1.00  0.00    -0.246 N 
ATOM      4  H2  UNL     1      17.229   0.175  13.927  1.00  0.00     0.196 HD
HETATM    5  C2  UNL     1      16.352   1.983  14.275  1.00  0.00     0.147 A 
HETATM    6 CL1  UNL     1      16.883   2.674  12.756  1.00  0.00    -0.061 Cl
HETATM    7  C3  UNL     1      15.602   2.680  15.197  1.00  0.00     0.100 A 
HETATM    8 CL2  UNL     1      15.160   4.328  14.832  1.00  0.00    -0.079 Cl
HETATM    9  C4  UNL     1      15.224   2.058  16.370  1.00  0.00     0.111 A 
HETATM   10 CL3  UNL     1      14.275   2.929  17.546  1.00  0.00    -0.078 Cl
ENDROOT
BRANCH   1  11
HETATM   11  N1  UNL     1      15.240   0.153  17.735  1.00  0.00    -0.377 N 
ATOM     12  H12 UNL     1      15.919  -0.041  18.472  1.00  0.00     0.158 HD
ATOM     13  H11 UNL     1      14.279  -0.145  17.909  1.00  0.00     0.158 HD
ENDBRANCH   1  11
TORSDOF 1
ENDMDL
MODEL 3
REMARK VINA RESULT: -5.221882511      1.564      3.003
REMARK  1 active torsions:
REMARK  status: ('A' for Active; 'I' for Inactive)
REMARK    1  A    between atoms: N1_1  and  C1_4 
ROOT
HETATM    1  C1  UNL     1      16.430   0.917  14.576  1.00  0.00     0.187 A 
HETATM    2  O1  UNL     1      16.381   0.120  15.617  1.00  0.00    -0.217 OA
HETATM    3  N2  UNL     1      15.870   0.457  16.766  1.00  0.00    -0.246 N 
ATOM      4  H2  UNL     1      15.873  -0.227  17.523  1.00  0.00     0.196 HD
HETATM    5  C2  UNL     1      15.340   1.669  16.996  1.00  0.00     0.147 A 
HETATM    6 CL1  UNL     1      14.671   2.054  18.568  1.00  0.00    -0.061 Cl
HETATM    7  C3  UNL     1      15.356   2.564  15.947  1.00  0.00     0.100 A 
HETATM    8 CL2  UNL     1      14.679   4.152  16.199  1.00  0.00    -0.079 Cl
HETATM    9  C4  UNL     1      15.904   2.179  14.740  1.00  0.00     0.111 A 
HETATM   10 CL3  UNL     1      15.931   3.301  13.404  1.00  0.00    -0.078 Cl
ENDROOT
BRANCH   1  11
HETATM   11  N1  UNL     1      16.954   0.539  13.435  1.00  0.00    -0.377 N 
ATOM     12  H12 UNL     1      17.616  -0.236  13.386  1.00  0.00     0.158 HD
ATOM     13  H11 UNL     1      16.721   0.999  12.554  1.00  0.00     0.158 HD
ENDBRANCH   1  11
TORSDOF 1
ENDMDL
MODEL 4
REMARK VINA RESULT: -5.126898883      0.882      3.193
REMARK  1 active torsions:
REMARK  status: ('A' for Active; 'I' for Inactive)
REMARK    1  A    between atoms: N1_1  and  C1_4 
ROOT
HETATM    1  C1  UNL     1      16.410   2.435  13.850  1.00  0.00     0.187 A 
HETATM    2  O1  UNL     1      16.830   1.256  14.241  1.00  0.00    -0.217 OA
HETATM    3  N2  UNL     1      16.492   0.703  15.371  1.00  0.00    -0.246 N 
ATOM      4  H2  UNL     1      16.866  -0.219  15.595  1.00  0.00     0.196 HD
HETATM    5  C2  UNL     1      15.672   1.298  16.252  1.00  0.00     0.147 A 
HETATM    6 CL1  UNL     1      15.262   0.495  17.753  1.00  0.00    -0.061 Cl
HETATM    7  C3  UNL     1      15.190   2.543  15.909  1.00  0.00     0.100 A 
HETATM    8 CL2  UNL     1      14.121   3.355  17.024  1.00  0.00    -0.079 Cl
HETATM    9  C4  UNL     1      15.564   3.105  14.705  1.00  0.00     0.111 A 
HETATM   10 CL3  UNL     1      14.961   4.679  14.259  1.00  0.00    -0.078 Cl
ENDROOT
BRANCH   1  11
HETATM   11  N1  UNL     1      16.774   2.957  12.703  1.00  0.00    -0.377 N 
ATOM     12  H12 UNL     1      17.118   2.374  11.939  1.00  0.00     0.158 HD
ATOM     13  H11 UNL     1      16.727   3.961  12.526  1.00  0.00     0.158 HD
ENDBRANCH   1  11
TORSDOF 1
ENDMDL
MODEL 5
REMARK VINA RESULT: -4.916527089      1.983      2.713
REMARK  1 active torsions:
REMARK  status: ('A' for Active; 'I' for Inactive)
REMARK    1  A    between atoms: N1_1  and  C1_4 
ROOT
HETATM    1  C1  UNL     1      16.270   0.869  16.016  1.00  0.00     0.187 A 
HETATM    2  O1  UNL     1      15.803   0.959  17.239  1.00  0.00    -0.217 OA
HETATM    3  N2  UNL     1      15.075   1.950  17.667  1.00  0.00    -0.246 N 
ATOM      4  H2  UNL     1      14.752   1.938  18.634  1.00  0.00     0.196 HD
HETATM    5  C2  UNL     1      14.732   2.987  16.886  1.00  0.00     0.147 A 
HETATM    6 CL1  UNL     1      13.751   4.286  17.529  1.00  0.00    -0.061 Cl
HETATM    7  C3  UNL     1      15.187   2.963  15.585  1.00  0.00     0.100 A 
HETATM    8 CL2  UNL     1      14.767   4.289  14.533  1.00  0.00    -0.079 Cl
HETATM    9  C4  UNL     1      15.957   1.899  15.158  1.00  0.00     0.111 A 
HETATM   10 CL3  UNL     1      16.540   1.855  13.515  1.00  0.00    -0.078 Cl
ENDROOT
BRANCH   1  11
HETATM   11  N1  UNL     1      17.000  -0.148  15.624  1.00  0.00    -0.377 N 
ATOM     12  H12 UNL     1      16.576  -0.977  15.208  1.00  0.00     0.158 HD
ATOM     13  H11 UNL     1      18.016  -0.152  15.718  1.00  0.00     0.158 HD
ENDBRANCH   1  11
TORSDOF 1
ENDMDL
