MODEL 1
REMARK VINA RESULT: -6.232841082      0.000      0.000
REMARK  1 active torsions:
REMARK  status: ('A' for Active; 'I' for Inactive)
REMARK    1  A    between atoms: C2_2  and  O1_3 
ROOT
HETATM    1  C1  UNL     1      15.987   1.630  11.234  1.00  0.00     0.081 C 
HETATM    2  C2  UNL     1      16.741   1.682  12.525  1.00  0.00     0.185 C 
HETATM    3  C3  UNL     1      17.305   3.044  12.838  1.00  0.00     0.303 C 
HETATM    4  N1  UNL     1      17.241   3.053  14.298  1.00  0.00    -0.038 N 
ATOM      5  H11 UNL     1      17.288   3.975  14.731  1.00  0.00     0.281 HD
ATOM      6  H12 UNL     1      18.065   2.686  14.773  1.00  0.00     0.281 HD
HETATM    7  C4  UNL     1      16.014   2.322  14.535  1.00  0.00     0.229 C 
HETATM    8  C5  UNL     1      14.868   3.327  14.437  1.00  0.00     0.069 C 
HETATM    9  C6  UNL     1      15.032   4.267  15.624  1.00  0.00     0.005 C 
HETATM   10  C7  UNL     1      14.783   3.521  16.915  1.00  0.00     0.000 C 
HETATM   11  C8  UNL     1      14.738   2.043  16.649  1.00  0.00     0.005 C 
HETATM   12  C9  UNL     1      16.007   1.671  15.902  1.00  0.00     0.069 C 
HETATM   13  O2  UNL     1      15.926   1.331  13.585  1.00  0.00    -0.316 OA
ENDROOT
BRANCH   2  14
HETATM   14  O1  UNL     1      17.835   0.792  12.461  1.00  0.00    -0.364 OA
ATOM     15  H1  UNL     1      18.104   0.564  13.343  1.00  0.00     0.213 HD
ENDBRANCH   2  14
TORSDOF 1
ENDMDL
MODEL 2
REMARK VINA RESULT: -5.501948393      2.040      2.776
REMARK  1 active torsions:
REMARK  status: ('A' for Active; 'I' for Inactive)
REMARK    1  A    between atoms: C2_2  and  O1_3 
ROOT
HETATM    1  C1  UNL     1      18.065   3.950  13.394  1.00  0.00     0.081 C 
HETATM    2  C2  UNL     1      16.591   3.909  13.643  1.00  0.00     0.185 C 
HETATM    3  C3  UNL     1      15.947   2.612  13.228  1.00  0.00     0.303 C 
HETATM    4  N1  UNL     1      14.870   2.499  14.210  1.00  0.00    -0.038 N 
ATOM      5  H11 UNL     1      14.479   1.563  14.322  1.00  0.00     0.281 HD
ATOM      6  H12 UNL     1      13.988   2.935  13.943  1.00  0.00     0.281 HD
HETATM    7  C4  UNL     1      15.499   3.051  15.390  1.00  0.00     0.229 C 
HETATM    8  C5  UNL     1      16.280   1.917  16.053  1.00  0.00     0.069 C 
HETATM    9  C6  UNL     1      15.237   0.930  16.558  1.00  0.00     0.005 C 
HETATM   10  C7  UNL     1      14.432   1.551  17.676  1.00  0.00     0.000 C 
HETATM   11  C8  UNL     1      14.711   3.026  17.746  1.00  0.00     0.005 C 
HETATM   12  C9  UNL     1      14.479   3.604  16.361  1.00  0.00     0.069 C 
HETATM   13  O2  UNL     1      16.315   4.084  14.986  1.00  0.00    -0.316 OA
ENDROOT
BRANCH   2  14
HETATM   14  O1  UNL     1      15.964   4.933  12.900  1.00  0.00    -0.364 OA
ATOM     15  H1  UNL     1      16.291   4.918  12.008  1.00  0.00     0.213 HD
ENDBRANCH   2  14
TORSDOF 1
ENDMDL
MODEL 3
REMARK VINA RESULT: -5.342092423      2.436      3.482
REMARK  1 active torsions:
REMARK  status: ('A' for Active; 'I' for Inactive)
REMARK    1  A    between atoms: C2_2  and  O1_3 
ROOT
HETATM    1  C1  UNL     1      17.013  -1.103  11.995  1.00  0.00     0.081 C 
HETATM    2  C2  UNL     1      17.302   0.169  11.263  1.00  0.00     0.185 C 
HETATM    3  C3  UNL     1      16.068   0.969  10.938  1.00  0.00     0.303 C 
HETATM    4  N1  UNL     1      16.585   2.335  11.005  1.00  0.00    -0.038 N 
ATOM      5  H11 UNL     1      15.880   3.063  11.115  1.00  0.00     0.281 HD
ATOM      6  H12 UNL     1      16.962   2.702  10.132  1.00  0.00     0.281 HD
HETATM    7  C4  UNL     1      17.536   2.228  12.091  1.00  0.00     0.229 C 
HETATM    8  C5  UNL     1      16.755   2.415  13.390  1.00  0.00     0.069 C 
HETATM    9  C6  UNL     1      16.281   3.862  13.389  1.00  0.00     0.005 C 
HETATM   10  C7  UNL     1      17.463   4.796  13.511  1.00  0.00     0.000 C 
HETATM   11  C8  UNL     1      18.740   4.031  13.305  1.00  0.00     0.005 C 
HETATM   12  C9  UNL     1      18.620   3.279  11.991  1.00  0.00     0.069 C 
HETATM   13  O2  UNL     1      18.128   0.988  12.009  1.00  0.00    -0.316 OA
ENDROOT
BRANCH   2  14
HETATM   14  O1  UNL     1      17.929  -0.133  10.035  1.00  0.00    -0.364 OA
ATOM     15  H1  UNL     1      18.791   0.264  10.017  1.00  0.00     0.213 HD
ENDBRANCH   2  14
TORSDOF 1
ENDMDL
MODEL 4
REMARK VINA RESULT: -5.311359853      3.663      4.831
REMARK  1 active torsions:
REMARK  status: ('A' for Active; 'I' for Inactive)
REMARK    1  A    between atoms: C2_2  and  O1_3 
ROOT
HETATM    1  C1  UNL     1      17.956   4.953   9.957  1.00  0.00     0.081 C 
HETATM    2  C2  UNL     1      18.786   3.943  10.683  1.00  0.00     0.185 C 
HETATM    3  C3  UNL     1      18.453   3.832  12.148  1.00  0.00     0.303 C 
HETATM    4  N1  UNL     1      18.725   2.418  12.399  1.00  0.00    -0.038 N 
ATOM      5  H11 UNL     1      18.295   2.034  13.241  1.00  0.00     0.281 HD
ATOM      6  H12 UNL     1      19.682   2.201  12.678  1.00  0.00     0.281 HD
HETATM    7  C4  UNL     1      18.293   1.818  11.155  1.00  0.00     0.229 C 
HETATM    8  C5  UNL     1      16.786   1.591  11.268  1.00  0.00     0.069 C 
HETATM    9  C6  UNL     1      16.603   0.521  12.335  1.00  0.00     0.005 C 
HETATM   10  C7  UNL     1      17.157  -0.798  11.849  1.00  0.00     0.000 C 
HETATM   11  C8  UNL     1      17.967  -0.582  10.601  1.00  0.00     0.005 C 
HETATM   12  C9  UNL     1      18.990   0.500  10.898  1.00  0.00     0.069 C 
HETATM   13  O2  UNL     1      18.618   2.685  10.137  1.00  0.00    -0.316 OA
ENDROOT
BRANCH   2  14
HETATM   14  O1  UNL     1      20.146   4.311  10.601  1.00  0.00    -0.364 OA
ATOM     15  H1  UNL     1      20.687   3.543  10.739  1.00  0.00     0.213 HD
ENDBRANCH   2  14
TORSDOF 1
ENDMDL
MODEL 5
REMARK VINA RESULT: -5.249559908      3.337      5.176
REMARK  1 active torsions:
REMARK  status: ('A' for Active; 'I' for Inactive)
REMARK    1  A    between atoms: C2_2  and  O1_3 
ROOT
HETATM    1  C1  UNL     1      16.324  -0.308  10.535  1.00  0.00     0.081 C 
HETATM    2  C2  UNL     1      16.434   1.076  11.093  1.00  0.00     0.185 C 
HETATM    3  C3  UNL     1      17.054   1.123  12.465  1.00  0.00     0.303 C 
HETATM    4  N1  UNL     1      17.742   2.413  12.425  1.00  0.00    -0.038 N 
ATOM      5  H11 UNL     1      18.475   2.537  13.123  1.00  0.00     0.281 HD
ATOM      6  H12 UNL     1      17.187   3.212  12.730  1.00  0.00     0.281 HD
HETATM    7  C4  UNL     1      18.185   2.458  11.048  1.00  0.00     0.229 C 
HETATM    8  C5  UNL     1      19.511   1.702  10.980  1.00  0.00     0.069 C 
HETATM    9  C6  UNL     1      20.510   2.536  11.770  1.00  0.00     0.005 C 
HETATM   10  C7  UNL     1      20.773   3.842  11.058  1.00  0.00     0.000 C 
HETATM   11  C8  UNL     1      19.765   4.037   9.960  1.00  0.00     0.005 C 
HETATM   12  C9  UNL     1      18.384   3.880  10.571  1.00  0.00     0.069 C 
HETATM   13  O2  UNL     1      17.208   1.876  10.273  1.00  0.00    -0.316 OA
ENDROOT
BRANCH   2  14
HETATM   14  O1  UNL     1      15.143   1.635  11.208  1.00  0.00    -0.364 OA
ATOM     15  H1  UNL     1      15.218   2.577  11.308  1.00  0.00     0.213 HD
ENDBRANCH   2  14
TORSDOF 1
ENDMDL
