MODEL 1
REMARK VINA RESULT: -4.005715185      0.000      0.000
REMARK  1 active torsions:
REMARK  status: ('A' for Active; 'I' for Inactive)
REMARK    1  A    between atoms: O1_1  and  C1_3 
ROOT
HETATM    1  C1  UNL     1      16.558   0.757  16.117  1.00  0.00     0.127 C 
HETATM    2  C2  UNL     1      15.708   0.823  17.364  1.00  0.00     0.033 C 
HETATM    3  C3  UNL     1      14.251   0.904  16.970  1.00  0.00     0.013 C 
HETATM    4  C4  UNL     1      13.941   2.402  16.844  1.00  0.00     0.074 C 
HETATM    5  S1  UNL     1      15.081   3.042  15.605  1.00  0.00    -0.167 SA
HETATM    6  C5  UNL     1      16.441   1.953  15.242  1.00  0.00     0.105 C 
ENDROOT
BRANCH   1   7
HETATM    7  O1  UNL     1      16.205  -0.441  15.463  1.00  0.00    -0.395 OA
ATOM      8  H1  UNL     1      16.773  -1.114  15.819  1.00  0.00     0.210 HD
ENDBRANCH   1   7
TORSDOF 1
ENDMDL
MODEL 2
REMARK VINA RESULT: -3.971365572      1.511      1.945
REMARK  1 active torsions:
REMARK  status: ('A' for Active; 'I' for Inactive)
REMARK    1  A    between atoms: O1_1  and  C1_3 
ROOT
HETATM    1  C1  UNL     1      15.214   0.729  17.265  1.00  0.00     0.127 C 
HETATM    2  C2  UNL     1      14.793   2.136  17.617  1.00  0.00     0.033 C 
HETATM    3  C3  UNL     1      14.125   2.770  16.418  1.00  0.00     0.013 C 
HETATM    4  C4  UNL     1      15.254   3.451  15.631  1.00  0.00     0.074 C 
HETATM    5  S1  UNL     1      16.429   2.149  15.223  1.00  0.00    -0.167 SA
HETATM    6  C5  UNL     1      16.207   0.654  16.162  1.00  0.00     0.105 C 
ENDROOT
BRANCH   1   7
HETATM    7  O1  UNL     1      14.028   0.021  16.987  1.00  0.00    -0.395 OA
ATOM      8  H1  UNL     1      14.079  -0.234  16.074  1.00  0.00     0.210 HD
ENDBRANCH   1   7
TORSDOF 1
ENDMDL
MODEL 3
REMARK VINA RESULT: -3.961888465      1.368      2.284
REMARK  1 active torsions:
REMARK  status: ('A' for Active; 'I' for Inactive)
REMARK    1  A    between atoms: O1_1  and  C1_3 
ROOT
HETATM    1  C1  UNL     1      16.406   0.669  15.873  1.00  0.00     0.127 C 
HETATM    2  C2  UNL     1      16.255   1.631  14.718  1.00  0.00     0.033 C 
HETATM    3  C3  UNL     1      16.375   3.048  15.231  1.00  0.00     0.013 C 
HETATM    4  C4  UNL     1      14.946   3.475  15.595  1.00  0.00     0.074 C 
HETATM    5  S1  UNL     1      14.372   2.289  16.822  1.00  0.00    -0.167 SA
HETATM    6  C5  UNL     1      15.358   0.811  16.917  1.00  0.00     0.105 C 
ENDROOT
BRANCH   1   7
HETATM    7  O1  UNL     1      17.711   0.855  16.371  1.00  0.00    -0.395 OA
ATOM      8  H1  UNL     1      17.871   0.134  16.969  1.00  0.00     0.210 HD
ENDBRANCH   1   7
TORSDOF 1
ENDMDL
MODEL 4
REMARK VINA RESULT: -3.767375687      5.518      6.272
REMARK  1 active torsions:
REMARK  status: ('A' for Active; 'I' for Inactive)
REMARK    1  A    between atoms: O1_1  and  C1_3 
ROOT
HETATM    1  C1  UNL     1      16.367   1.693  11.452  1.00  0.00     0.127 C 
HETATM    2  C2  UNL     1      17.687   2.088  12.071  1.00  0.00     0.033 C 
HETATM    3  C3  UNL     1      18.785   1.931  11.044  1.00  0.00     0.013 C 
HETATM    4  C4  UNL     1      19.296   0.492  11.206  1.00  0.00     0.074 C 
HETATM    5  S1  UNL     1      17.869  -0.574  10.935  1.00  0.00    -0.167 SA
HETATM    6  C5  UNL     1      16.307   0.276  11.010  1.00  0.00     0.105 C 
ENDROOT
BRANCH   1   7
HETATM    7  O1  UNL     1      16.135   2.608  10.405  1.00  0.00    -0.395 OA
ATOM      8  H1  UNL     1      15.355   3.095  10.646  1.00  0.00     0.210 HD
ENDBRANCH   1   7
TORSDOF 1
ENDMDL
MODEL 5
REMARK VINA RESULT: -3.741789150      5.890      6.221
REMARK  1 active torsions:
REMARK  status: ('A' for Active; 'I' for Inactive)
REMARK    1  A    between atoms: O1_1  and  C1_3 
ROOT
HETATM    1  C1  UNL     1      19.283   1.368  11.081  1.00  0.00     0.127 C 
HETATM    2  C2  UNL     1      18.764  -0.021  11.373  1.00  0.00     0.033 C 
HETATM    3  C3  UNL     1      17.674  -0.364  10.383  1.00  0.00     0.013 C 
HETATM    4  C4  UNL     1      16.366   0.113  11.030  1.00  0.00     0.074 C 
HETATM    5  S1  UNL     1      16.573   1.878  11.323  1.00  0.00    -0.167 SA
HETATM    6  C5  UNL     1      18.259   2.436  11.219  1.00  0.00     0.105 C 
ENDROOT
BRANCH   1   7
HETATM    7  O1  UNL     1      19.851   1.312   9.792  1.00  0.00    -0.395 OA
ATOM      8  H1  UNL     1      19.998   2.212   9.529  1.00  0.00     0.210 HD
ENDBRANCH   1   7
TORSDOF 1
ENDMDL
