MODEL 1
REMARK VINA RESULT: -3.288498051      0.000      0.000
REMARK  0 active torsions:
REMARK  status: ('A' for Active; 'I' for Inactive)
ROOT
HETATM    1  C1  UNL     1      14.044   1.507  16.926  1.00  0.00     0.012 C 
HETATM    2  C2  UNL     1      15.322   0.820  17.285  1.00  0.00     0.012 C 
HETATM    3  C3  UNL     1      16.231   0.575  16.136  1.00  0.00     0.086 C 
HETATM    4  S1  UNL     1      16.352   1.920  14.970  1.00  0.00    -0.098 SA
HETATM    5  S2  UNL     1      14.986   3.502  15.406  1.00  0.00    -0.098 SA
HETATM    6  C4  UNL     1      14.162   3.027  16.975  1.00  0.00     0.086 C 
ENDROOT
TORSDOF 0
ENDMDL
MODEL 2
REMARK VINA RESULT: -3.241198432      1.796      2.381
REMARK  0 active torsions:
REMARK  status: ('A' for Active; 'I' for Inactive)
ROOT
HETATM    1  C1  UNL     1      14.258   2.868  16.997  1.00  0.00     0.012 C 
HETATM    2  C2  UNL     1      14.760   3.122  15.612  1.00  0.00     0.012 C 
HETATM    3  C3  UNL     1      16.179   2.743  15.393  1.00  0.00     0.086 C 
HETATM    4  S1  UNL     1      16.673   1.203  16.147  1.00  0.00    -0.098 SA
HETATM    5  S2  UNL     1      15.136   0.364  17.369  1.00  0.00    -0.098 SA
HETATM    6  C4  UNL     1      13.683   1.465  17.164  1.00  0.00     0.086 C 
ENDROOT
TORSDOF 0
ENDMDL
MODEL 3
REMARK VINA RESULT: -3.234221313      1.074      2.456
REMARK  0 active torsions:
REMARK  status: ('A' for Active; 'I' for Inactive)
ROOT
HETATM    1  C1  UNL     1      14.912   1.778  17.843  1.00  0.00     0.012 C 
HETATM    2  C2  UNL     1      14.040   2.619  16.968  1.00  0.00     0.012 C 
HETATM    3  C3  UNL     1      14.772   3.387  15.928  1.00  0.00     0.086 C 
HETATM    4  S1  UNL     1      16.087   2.494  15.117  1.00  0.00    -0.098 SA
HETATM    5  S2  UNL     1      16.429   0.576  15.990  1.00  0.00    -0.098 SA
HETATM    6  C4  UNL     1      15.136   0.380  17.277  1.00  0.00     0.086 C 
ENDROOT
TORSDOF 0
ENDMDL
MODEL 4
REMARK VINA RESULT: -3.155281644      5.037      5.535
REMARK  0 active torsions:
REMARK  status: ('A' for Active; 'I' for Inactive)
ROOT
HETATM    1  C1  UNL     1      16.165   0.520  11.227  1.00  0.00     0.012 C 
HETATM    2  C2  UNL     1      16.927  -0.614  11.833  1.00  0.00     0.012 C 
HETATM    3  C3  UNL     1      18.308  -0.776  11.311  1.00  0.00     0.086 C 
HETATM    4  S1  UNL     1      19.206   0.747  11.072  1.00  0.00    -0.098 SA
HETATM    5  S2  UNL     1      17.992   2.471  11.408  1.00  0.00    -0.098 SA
HETATM    6  C4  UNL     1      16.370   1.831  11.978  1.00  0.00     0.086 C 
ENDROOT
TORSDOF 0
ENDMDL
MODEL 5
REMARK VINA RESULT: -3.131156451      1.045      1.335
REMARK  0 active torsions:
REMARK  status: ('A' for Active; 'I' for Inactive)
ROOT
HETATM    1  C1  UNL     1      13.914   2.354  16.775  1.00  0.00     0.012 C 
HETATM    2  C2  UNL     1      14.605   1.645  17.894  1.00  0.00     0.012 C 
HETATM    3  C3  UNL     1      15.390   0.455  17.477  1.00  0.00     0.086 C 
HETATM    4  S1  UNL     1      16.323   0.658  15.969  1.00  0.00    -0.098 SA
HETATM    5  S2  UNL     1      15.920   2.520  15.006  1.00  0.00    -0.098 SA
HETATM    6  C4  UNL     1      14.787   3.426  16.131  1.00  0.00     0.086 C 
ENDROOT
TORSDOF 0
ENDMDL
