MODEL 1
REMARK VINA RESULT: -5.958038383      0.000      0.000
REMARK  2 active torsions:
REMARK  status: ('A' for Active; 'I' for Inactive)
REMARK    1  A    between atoms: C4_10  and  N4_11 
REMARK    2  A    between atoms: N4_11  and  C5_13 
ROOT
HETATM    1  N1  UNL     1     -11.569  18.522  -8.862  1.00  0.00    -0.190 NA
HETATM    2  C1  UNL     1     -11.887  17.409  -8.805  1.00  0.00     0.121 C 
HETATM    3  C2  UNL     1     -12.286  16.023  -8.711  1.00  0.00     0.160 A 
HETATM    4  N2  UNL     1     -13.444  15.543  -8.239  1.00  0.00    -0.321 N 
ATOM      5  H2  UNL     1     -14.216  16.101  -7.875  1.00  0.00     0.169 HD
HETATM    6  C3  UNL     1     -13.418  14.205  -8.327  1.00  0.00     0.178 A 
HETATM    7  S1  UNL     1     -14.619  13.198  -7.866  1.00  0.00    -0.040 SA
HETATM    8  N3  UNL     1     -12.215  13.852  -8.866  1.00  0.00    -0.317 N 
ATOM      9  H3  UNL     1     -11.913  12.896  -9.051  1.00  0.00     0.170 HD
HETATM   10  C4  UNL     1     -11.493  14.947  -9.114  1.00  0.00     0.142 A 
ENDROOT
BRANCH  10  11
HETATM   11  N4  UNL     1     -10.197  15.053  -9.678  1.00  0.00    -0.369 N 
ATOM     12  H4  UNL     1      -9.588  15.793  -9.331  1.00  0.00     0.161 HD
BRANCH  11  13
HETATM   13  C5  UNL     1      -9.681  14.194 -10.702  1.00  0.00     0.083 C 
HETATM   14  C6  UNL     1      -9.095  12.904 -10.212  1.00  0.00     0.025 C 
HETATM   15  C7  UNL     1      -9.001  12.002 -11.443  1.00  0.00     0.002 C 
HETATM   16  C8  UNL     1      -8.000  12.597 -12.371  1.00  0.00     0.000 C 
HETATM   17  C9  UNL     1      -7.624  14.009 -12.118  1.00  0.00     0.002 C 
HETATM   18  C10 UNL     1      -8.741  14.902 -11.645  1.00  0.00     0.025 C 
ENDBRANCH  11  13
ENDBRANCH  10  11
TORSDOF 2
ENDMDL
MODEL 2
REMARK VINA RESULT: -5.927633377      3.254      5.160
REMARK  2 active torsions:
REMARK  status: ('A' for Active; 'I' for Inactive)
REMARK    1  A    between atoms: C4_10  and  N4_11 
REMARK    2  A    between atoms: N4_11  and  C5_13 
ROOT
HETATM    1  N1  UNL     1      -7.767  12.364 -12.478  1.00  0.00    -0.190 NA
HETATM    2  C1  UNL     1      -8.269  13.239 -11.908  1.00  0.00     0.121 C 
HETATM    3  C2  UNL     1      -8.876  14.335 -11.188  1.00  0.00     0.160 A 
HETATM    4  N2  UNL     1      -8.551  15.632 -11.262  1.00  0.00    -0.321 N 
ATOM      5  H2  UNL     1      -7.816  16.030 -11.847  1.00  0.00     0.169 HD
HETATM    6  C3  UNL     1      -9.353  16.321 -10.436  1.00  0.00     0.178 A 
HETATM    7  S1  UNL     1      -9.315  17.937 -10.202  1.00  0.00    -0.040 SA
HETATM    8  N3  UNL     1     -10.194  15.426  -9.840  1.00  0.00    -0.317 N 
ATOM      9  H3  UNL     1     -10.917  15.663  -9.161  1.00  0.00     0.170 HD
HETATM   10  C4  UNL     1      -9.927  14.194 -10.280  1.00  0.00     0.142 A 
ENDROOT
BRANCH  10  11
HETATM   11  N4  UNL     1     -10.556  12.970  -9.940  1.00  0.00    -0.369 N 
ATOM     12  H4  UNL     1     -11.305  12.638 -10.546  1.00  0.00     0.161 HD
BRANCH  11  13
HETATM   13  C5  UNL     1     -10.214  12.166  -8.806  1.00  0.00     0.083 C 
HETATM   14  C6  UNL     1      -8.927  11.407  -8.931  1.00  0.00     0.025 C 
HETATM   15  C7  UNL     1      -8.564  10.976  -7.509  1.00  0.00     0.002 C 
HETATM   16  C8  UNL     1      -9.590   9.999  -7.051  1.00  0.00     0.000 C 
HETATM   17  C9  UNL     1     -10.847   9.945  -7.837  1.00  0.00     0.002 C 
HETATM   18  C10 UNL     1     -11.341  11.269  -8.360  1.00  0.00     0.025 C 
ENDBRANCH  11  13
ENDBRANCH  10  11
TORSDOF 2
ENDMDL
MODEL 3
REMARK VINA RESULT: -5.833383754      2.682      3.948
REMARK  2 active torsions:
REMARK  status: ('A' for Active; 'I' for Inactive)
REMARK    1  A    between atoms: C4_10  and  N4_11 
REMARK    2  A    between atoms: N4_11  and  C5_13 
ROOT
HETATM    1  N1  UNL     1      -8.327  14.576 -11.502  1.00  0.00    -0.190 NA
HETATM    2  C1  UNL     1      -9.265  14.654 -10.824  1.00  0.00     0.121 C 
HETATM    3  C2  UNL     1     -10.421  14.759  -9.964  1.00  0.00     0.160 A 
HETATM    4  N2  UNL     1     -10.878  15.859  -9.350  1.00  0.00    -0.321 N 
ATOM      5  H2  UNL     1     -10.464  16.789  -9.409  1.00  0.00     0.169 HD
HETATM    6  C3  UNL     1     -11.971  15.531  -8.646  1.00  0.00     0.178 A 
HETATM    7  S1  UNL     1     -12.861  16.558  -7.739  1.00  0.00    -0.040 SA
HETATM    8  N3  UNL     1     -12.194  14.198  -8.831  1.00  0.00    -0.317 N 
ATOM      9  H3  UNL     1     -12.960  13.667  -8.416  1.00  0.00     0.170 HD
HETATM   10  C4  UNL     1     -11.257  13.691  -9.636  1.00  0.00     0.142 A 
ENDROOT
BRANCH  10  11
HETATM   11  N4  UNL     1     -11.106  12.360 -10.102  1.00  0.00    -0.369 N 
ATOM     12  H4  UNL     1     -11.383  12.160 -11.062  1.00  0.00     0.161 HD
BRANCH  11  13
HETATM   13  C5  UNL     1     -10.590  11.277  -9.320  1.00  0.00     0.083 C 
HETATM   14  C6  UNL     1     -11.474  10.830  -8.194  1.00  0.00     0.025 C 
HETATM   15  C7  UNL     1     -10.951   9.453  -7.782  1.00  0.00     0.002 C 
HETATM   16  C8  UNL     1      -9.590   9.635  -7.207  1.00  0.00     0.000 C 
HETATM   17  C9  UNL     1      -8.924  10.931  -7.483  1.00  0.00     0.002 C 
HETATM   18  C10 UNL     1      -9.177  11.511  -8.850  1.00  0.00     0.025 C 
ENDBRANCH  11  13
ENDBRANCH  10  11
TORSDOF 2
ENDMDL
MODEL 4
REMARK VINA RESULT: -5.811317282      1.567      2.642
REMARK  2 active torsions:
REMARK  status: ('A' for Active; 'I' for Inactive)
REMARK    1  A    between atoms: C4_10  and  N4_11 
REMARK    2  A    between atoms: N4_11  and  C5_13 
ROOT
HETATM    1  N1  UNL     1     -12.340  11.838  -8.760  1.00  0.00    -0.190 NA
HETATM    2  C1  UNL     1     -12.318  12.997  -8.778  1.00  0.00     0.121 C 
HETATM    3  C2  UNL     1     -12.306  14.441  -8.817  1.00  0.00     0.160 A 
HETATM    4  N2  UNL     1     -13.341  15.266  -8.609  1.00  0.00    -0.321 N 
ATOM      5  H2  UNL     1     -14.296  14.981  -8.391  1.00  0.00     0.169 HD
HETATM    6  C3  UNL     1     -12.910  16.530  -8.735  1.00  0.00     0.178 A 
HETATM    7  S1  UNL     1     -13.830  17.869  -8.566  1.00  0.00    -0.040 SA
HETATM    8  N3  UNL     1     -11.578  16.483  -9.027  1.00  0.00    -0.317 N 
ATOM      9  H3  UNL     1     -10.981  17.296  -9.178  1.00  0.00     0.170 HD
HETATM   10  C4  UNL     1     -11.174  15.212  -9.086  1.00  0.00     0.142 A 
ENDROOT
BRANCH  10  11
HETATM   11  N4  UNL     1      -9.878  14.699  -9.348  1.00  0.00    -0.369 N 
ATOM     12  H4  UNL     1      -9.158  14.850  -8.643  1.00  0.00     0.161 HD
BRANCH  11  13
HETATM   13  C5  UNL     1      -9.509  13.984 -10.532  1.00  0.00     0.083 C 
HETATM   14  C6  UNL     1      -8.888  12.640 -10.294  1.00  0.00     0.025 C 
HETATM   15  C7  UNL     1      -8.964  11.909 -11.636  1.00  0.00     0.002 C 
HETATM   16  C8  UNL     1      -8.078  12.623 -12.596  1.00  0.00     0.000 C 
HETATM   17  C9  UNL     1      -7.649  13.989 -12.209  1.00  0.00     0.002 C 
HETATM   18  C10 UNL     1      -8.684  14.811 -11.485  1.00  0.00     0.025 C 
ENDBRANCH  11  13
ENDBRANCH  10  11
TORSDOF 2
ENDMDL
MODEL 5
REMARK VINA RESULT: -5.800258214      3.932      5.350
REMARK  2 active torsions:
REMARK  status: ('A' for Active; 'I' for Inactive)
REMARK    1  A    between atoms: C4_10  and  N4_11 
REMARK    2  A    between atoms: N4_11  and  C5_13 
ROOT
HETATM    1  N1  UNL     1     -13.353  13.909  -9.375  1.00  0.00    -0.190 NA
HETATM    2  C1  UNL     1     -12.237  13.800  -9.673  1.00  0.00     0.121 C 
HETATM    3  C2  UNL     1     -10.854  13.656 -10.064  1.00  0.00     0.160 A 
HETATM    4  N2  UNL     1     -10.251  14.204 -11.127  1.00  0.00    -0.321 N 
ATOM      5  H2  UNL     1     -10.695  14.809 -11.818  1.00  0.00     0.169 HD
HETATM    6  C3  UNL     1      -8.964  13.824 -11.130  1.00  0.00     0.178 A 
HETATM    7  S1  UNL     1      -7.849  14.254 -12.243  1.00  0.00    -0.040 SA
HETATM    8  N3  UNL     1      -8.771  13.023 -10.043  1.00  0.00    -0.317 N 
ATOM      9  H3  UNL     1      -7.885  12.586  -9.786  1.00  0.00     0.170 HD
HETATM   10  C4  UNL     1      -9.913  12.898  -9.365  1.00  0.00     0.142 A 
ENDROOT
BRANCH  10  11
HETATM   11  N4  UNL     1     -10.170  12.172  -8.174  1.00  0.00    -0.369 N 
ATOM     12  H4  UNL     1     -10.082  12.670  -7.288  1.00  0.00     0.161 HD
BRANCH  11  13
HETATM   13  C5  UNL     1     -10.544  10.791  -8.125  1.00  0.00     0.083 C 
HETATM   14  C6  UNL     1     -12.020  10.535  -8.078  1.00  0.00     0.025 C 
HETATM   15  C7  UNL     1     -12.193   9.061  -8.446  1.00  0.00     0.002 C 
HETATM   16  C8  UNL     1     -11.585   8.243  -7.361  1.00  0.00     0.000 C 
HETATM   17  C9  UNL     1     -10.678   8.955  -6.428  1.00  0.00     0.002 C 
HETATM   18  C10 UNL     1      -9.817  10.022  -7.052  1.00  0.00     0.025 C 
ENDBRANCH  11  13
ENDBRANCH  10  11
TORSDOF 2
ENDMDL
