MODEL 1
REMARK VINA RESULT: -5.553895543      0.000      0.000
REMARK  1 active torsions:
REMARK  status: ('A' for Active; 'I' for Inactive)
REMARK    1  A    between atoms: N1_1  and  C1_5 
ROOT
HETATM    1  C1  UNL     1      16.013   1.478  14.968  1.00  0.00     0.185 C 
HETATM    2  C2  UNL     1      16.239   2.956  15.077  1.00  0.00     0.033 C 
HETATM    3  C3  UNL     1      14.950   3.733  14.954  1.00  0.00     0.002 C 
HETATM    4  C4  UNL     1      14.639   4.462  16.246  1.00  0.00     0.005 C 
HETATM    5  C5  UNL     1      14.265   3.472  17.351  1.00  0.00     0.044 C 
HETATM    6  C6  UNL     1      13.629   2.257  16.823  1.00  0.00     0.055 C 
HETATM    7  N2  UNL     1      14.122   1.099  16.798  1.00  0.00    -0.402 N 
ATOM      8  H2  UNL     1      13.546   0.361  16.395  1.00  0.00     0.158 HD
HETATM    9  C7  UNL     1      15.409   0.723  17.277  1.00  0.00     0.120 C 
HETATM   10  C8  UNL     1      16.493   0.822  16.247  1.00  0.00     0.052 C 
ENDROOT
BRANCH   1  11
HETATM   11  N1  UNL     1      16.791   1.010  13.811  1.00  0.00    -0.075 N 
ATOM     12  H13 UNL     1      16.446   1.373  12.923  1.00  0.00     0.274 HD
ATOM     13  H12 UNL     1      17.725   1.417  13.764  1.00  0.00     0.274 HD
ATOM     14  H11 UNL     1      16.800  -0.009  13.852  1.00  0.00     0.274 HD
ENDBRANCH   1  11
TORSDOF 1
ENDMDL
MODEL 2
REMARK VINA RESULT: -5.404403732      1.248      3.049
REMARK  1 active torsions:
REMARK  status: ('A' for Active; 'I' for Inactive)
REMARK    1  A    between atoms: N1_1  and  C1_5 
ROOT
HETATM    1  C1  UNL     1      15.084   2.300  17.474  1.00  0.00     0.185 C 
HETATM    2  C2  UNL     1      14.089   3.154  16.747  1.00  0.00     0.033 C 
HETATM    3  C3  UNL     1      14.738   4.364  16.116  1.00  0.00     0.002 C 
HETATM    4  C4  UNL     1      14.634   4.300  14.606  1.00  0.00     0.005 C 
HETATM    5  C5  UNL     1      15.519   3.184  14.047  1.00  0.00     0.044 C 
HETATM    6  C6  UNL     1      16.701   2.936  14.883  1.00  0.00     0.055 C 
HETATM    7  N2  UNL     1      16.922   1.920  15.592  1.00  0.00    -0.402 N 
ATOM      8  H2  UNL     1      17.798   1.903  16.114  1.00  0.00     0.158 HD
HETATM    9  C7  UNL     1      16.066   0.791  15.734  1.00  0.00     0.120 C 
HETATM   10  C8  UNL     1      15.077   0.918  16.853  1.00  0.00     0.052 C 
ENDROOT
BRANCH   1  11
HETATM   11  N1  UNL     1      14.659   2.250  18.880  1.00  0.00    -0.075 N 
ATOM     12  H13 UNL     1      15.439   2.176  19.533  1.00  0.00     0.274 HD
ATOM     13  H12 UNL     1      14.288   3.138  19.219  1.00  0.00     0.274 HD
ATOM     14  H11 UNL     1      13.993   1.482  18.962  1.00  0.00     0.274 HD
ENDBRANCH   1  11
TORSDOF 1
ENDMDL
MODEL 3
REMARK VINA RESULT: -5.071508744      1.424      2.865
REMARK  1 active torsions:
REMARK  status: ('A' for Active; 'I' for Inactive)
REMARK    1  A    between atoms: N1_1  and  C1_5 
ROOT
HETATM    1  C1  UNL     1      16.592   3.036  14.770  1.00  0.00     0.185 C 
HETATM    2  C2  UNL     1      16.232   1.604  15.032  1.00  0.00     0.033 C 
HETATM    3  C3  UNL     1      16.130   1.310  16.510  1.00  0.00     0.002 C 
HETATM    4  C4  UNL     1      14.710   0.934  16.884  1.00  0.00     0.005 C 
HETATM    5  C5  UNL     1      13.781   2.145  16.774  1.00  0.00     0.044 C 
HETATM    6  C6  UNL     1      14.478   3.411  17.034  1.00  0.00     0.055 C 
HETATM    7  N2  UNL     1      14.745   4.310  16.194  1.00  0.00    -0.402 N 
ATOM      8  H2  UNL     1      15.237   5.134  16.540  1.00  0.00     0.158 HD
HETATM    9  C7  UNL     1      14.424   4.287  14.807  1.00  0.00     0.120 C 
HETATM   10  C8  UNL     1      15.486   3.668  13.950  1.00  0.00     0.052 C 
ENDROOT
BRANCH   1  11
HETATM   11  N1  UNL     1      17.862   3.029  14.029  1.00  0.00    -0.075 N 
ATOM     12  H13 UNL     1      18.331   2.123  14.045  1.00  0.00     0.274 HD
ATOM     13  H12 UNL     1      17.737   3.093  13.019  1.00  0.00     0.274 HD
ATOM     14  H11 UNL     1      18.432   3.783  14.410  1.00  0.00     0.274 HD
ENDBRANCH   1  11
TORSDOF 1
ENDMDL
MODEL 4
REMARK VINA RESULT: -4.904106603      4.327      6.090
REMARK  1 active torsions:
REMARK  status: ('A' for Active; 'I' for Inactive)
REMARK    1  A    between atoms: N1_1  and  C1_5 
ROOT
HETATM    1  C1  UNL     1      19.356   2.381  11.736  1.00  0.00     0.185 C 
HETATM    2  C2  UNL     1      19.350   1.433  10.575  1.00  0.00     0.033 C 
HETATM    3  C3  UNL     1      19.084   0.011  11.009  1.00  0.00     0.002 C 
HETATM    4  C4  UNL     1      17.772  -0.488  10.435  1.00  0.00     0.005 C 
HETATM    5  C5  UNL     1      16.588   0.230  11.085  1.00  0.00     0.044 C 
HETATM    6  C6  UNL     1      16.871   0.642  12.466  1.00  0.00     0.055 C 
HETATM    7  N2  UNL     1      17.026   1.819  12.885  1.00  0.00    -0.402 N 
ATOM      8  H2  UNL     1      17.218   1.933  13.880  1.00  0.00     0.158 HD
HETATM    9  C7  UNL     1      16.960   3.006  12.101  1.00  0.00     0.120 C 
HETATM   10  C8  UNL     1      18.276   3.420  11.516  1.00  0.00     0.052 C 
ENDROOT
BRANCH   1  11
HETATM   11  N1  UNL     1      20.688   3.003  11.773  1.00  0.00    -0.075 N 
ATOM     12  H13 UNL     1      20.695   3.910  12.240  1.00  0.00     0.274 HD
ATOM     13  H12 UNL     1      21.336   2.528  12.401  1.00  0.00     0.274 HD
ATOM     14  H11 UNL     1      21.022   3.045  10.810  1.00  0.00     0.274 HD
ENDBRANCH   1  11
TORSDOF 1
ENDMDL
MODEL 5
REMARK VINA RESULT: -4.893919159      1.319      1.810
REMARK  1 active torsions:
REMARK  status: ('A' for Active; 'I' for Inactive)
REMARK    1  A    between atoms: N1_1  and  C1_5 
ROOT
HETATM    1  C1  UNL     1      15.263   2.841  15.064  1.00  0.00     0.185 C 
HETATM    2  C2  UNL     1      15.190   3.959  16.061  1.00  0.00     0.033 C 
HETATM    3  C3  UNL     1      13.912   3.915  16.865  1.00  0.00     0.002 C 
HETATM    4  C4  UNL     1      14.209   3.656  18.328  1.00  0.00     0.005 C 
HETATM    5  C5  UNL     1      14.719   2.228  18.534  1.00  0.00     0.044 C 
HETATM    6  C6  UNL     1      14.176   1.290  17.543  1.00  0.00     0.055 C 
HETATM    7  N2  UNL     1      14.809   0.728  16.611  1.00  0.00    -0.402 N 
ATOM      8  H2  UNL     1      14.279   0.100  16.007  1.00  0.00     0.158 HD
HETATM    9  C7  UNL     1      16.193   0.886  16.321  1.00  0.00     0.120 C 
HETATM   10  C8  UNL     1      16.490   2.005  15.368  1.00  0.00     0.052 C 
ENDROOT
BRANCH   1  11
HETATM   11  N1  UNL     1      15.363   3.460  13.734  1.00  0.00    -0.075 N 
ATOM     12  H13 UNL     1      15.463   2.779  12.981  1.00  0.00     0.274 HD
ATOM     13  H12 UNL     1      14.487   3.875  13.418  1.00  0.00     0.274 HD
ATOM     14  H11 UNL     1      16.131   4.129  13.775  1.00  0.00     0.274 HD
ENDBRANCH   1  11
TORSDOF 1
ENDMDL
