MODEL 1
REMARK VINA RESULT: -4.409357792      0.000      0.000
REMARK  0 active torsions:
REMARK  status: ('A' for Active; 'I' for Inactive)
ROOT
HETATM    1  C1  UNL     1      19.062   1.011  10.488  1.00  0.00     0.002 C 
HETATM    2  C2  UNL     1      18.724   2.349  11.142  1.00  0.00     0.001 C 
HETATM    3  C3  UNL     1      17.337   2.711  10.714  1.00  0.00     0.016 C 
HETATM    4  C4  UNL     1      16.358   1.762  11.295  1.00  0.00     0.066 C 
HETATM    5  C5  UNL     1      16.356   0.454  10.567  1.00  0.00     0.038 C 
HETATM    6  C6  UNL     1      17.229  -0.506  11.300  1.00  0.00     0.089 C 
HETATM    7  C7  UNL     1      18.672  -0.145  11.337  1.00  0.00     0.022 C 
HETATM    8  N1  UNL     1      16.752  -0.533  12.683  1.00  0.00    -0.174 NA
HETATM    9  S1  UNL     1      16.818   1.229  12.989  1.00  0.00    -0.061 SA
ENDROOT
TORSDOF 0
ENDMDL
MODEL 2
REMARK VINA RESULT: -4.299552276      1.623      2.600
REMARK  0 active torsions:
REMARK  status: ('A' for Active; 'I' for Inactive)
ROOT
HETATM    1  C1  UNL     1      19.117   1.772  11.491  1.00  0.00     0.002 C 
HETATM    2  C2  UNL     1      19.068   0.551  10.575  1.00  0.00     0.001 C 
HETATM    3  C3  UNL     1      18.520  -0.583  11.384  1.00  0.00     0.016 C 
HETATM    4  C4  UNL     1      17.101  -0.328  11.728  1.00  0.00     0.066 C 
HETATM    5  C5  UNL     1      16.973   0.667  12.840  1.00  0.00     0.038 C 
HETATM    6  C6  UNL     1      16.734   2.016  12.253  1.00  0.00     0.089 C 
HETATM    7  C7  UNL     1      17.857   2.560  11.444  1.00  0.00     0.022 C 
HETATM    8  N1  UNL     1      15.580   1.887  11.363  1.00  0.00    -0.174 NA
HETATM    9  S1  UNL     1      16.194   0.523  10.379  1.00  0.00    -0.061 SA
ENDROOT
TORSDOF 0
ENDMDL
MODEL 3
REMARK VINA RESULT: -3.920103066      1.547      2.079
REMARK  0 active torsions:
REMARK  status: ('A' for Active; 'I' for Inactive)
ROOT
HETATM    1  C1  UNL     1      18.332   0.334  11.072  1.00  0.00     0.002 C 
HETATM    2  C2  UNL     1      19.480   1.318  11.290  1.00  0.00     0.001 C 
HETATM    3  C3  UNL     1      19.175   2.537  10.479  1.00  0.00     0.016 C 
HETATM    4  C4  UNL     1      17.988   3.234  11.028  1.00  0.00     0.066 C 
HETATM    5  C5  UNL     1      16.716   2.538  10.654  1.00  0.00     0.038 C 
HETATM    6  C6  UNL     1      16.308   1.647  11.777  1.00  0.00     0.089 C 
HETATM    7  C7  UNL     1      17.237   0.520  12.060  1.00  0.00     0.022 C 
HETATM    8  N1  UNL     1      16.261   2.482  12.978  1.00  0.00    -0.174 NA
HETATM    9  S1  UNL     1      17.915   3.157  12.860  1.00  0.00    -0.061 SA
ENDROOT
TORSDOF 0
ENDMDL
MODEL 4
REMARK VINA RESULT: -3.815335679      1.157      2.238
REMARK  0 active torsions:
REMARK  status: ('A' for Active; 'I' for Inactive)
ROOT
HETATM    1  C1  UNL     1      17.706  -0.117  10.314  1.00  0.00     0.002 C 
HETATM    2  C2  UNL     1      18.819   0.091  11.339  1.00  0.00     0.001 C 
HETATM    3  C3  UNL     1      19.337   1.482  11.150  1.00  0.00     0.016 C 
HETATM    4  C4  UNL     1      18.301   2.470  11.530  1.00  0.00     0.066 C 
HETATM    5  C5  UNL     1      17.250   2.605  10.472  1.00  0.00     0.038 C 
HETATM    6  C6  UNL     1      16.092   1.738  10.833  1.00  0.00     0.089 C 
HETATM    7  C7  UNL     1      16.374   0.278  10.843  1.00  0.00     0.022 C 
HETATM    8  N1  UNL     1      15.696   2.113  12.191  1.00  0.00    -0.174 NA
HETATM    9  S1  UNL     1      17.299   1.919  12.965  1.00  0.00    -0.061 SA
ENDROOT
TORSDOF 0
ENDMDL
MODEL 5
REMARK VINA RESULT: -3.772848167      2.498      3.344
REMARK  0 active torsions:
REMARK  status: ('A' for Active; 'I' for Inactive)
ROOT
HETATM    1  C1  UNL     1      17.433   3.423  13.964  1.00  0.00     0.002 C 
HETATM    2  C2  UNL     1      18.387   4.340  13.203  1.00  0.00     0.001 C 
HETATM    3  C3  UNL     1      19.338   3.461  12.453  1.00  0.00     0.016 C 
HETATM    4  C4  UNL     1      18.620   2.719  11.391  1.00  0.00     0.066 C 
HETATM    5  C5  UNL     1      17.836   1.572  11.951  1.00  0.00     0.038 C 
HETATM    6  C6  UNL     1      16.424   2.007  12.149  1.00  0.00     0.089 C 
HETATM    7  C7  UNL     1      16.229   3.076  13.165  1.00  0.00     0.022 C 
HETATM    8  N1  UNL     1      15.966   2.539  10.865  1.00  0.00    -0.174 NA
HETATM    9  S1  UNL     1      17.291   3.716  10.613  1.00  0.00    -0.061 SA
ENDROOT
TORSDOF 0
ENDMDL
