MODEL 1
REMARK VINA RESULT: -10.772649123      0.000      0.000
REMARK  17 active torsions:
REMARK  status: ('A' for Active; 'I' for Inactive)
REMARK    1  A    between atoms: O1_2  and  C2_3 
REMARK    2  A    between atoms: C2_3  and  C3_5 
REMARK    3  A    between atoms: C3_5  and  O3_6 
REMARK    4  A    between atoms: C3_5  and  C6_10 
REMARK    5  A    between atoms: O3_6  and  C4_7 
REMARK    6  A    between atoms: C7_11  and  O5_12 
REMARK    7  A    between atoms: O5_12  and  C8_13 
REMARK    8  A    between atoms: C8_13  and  C9_15 
REMARK    9  A    between atoms: C11_17  and  O7_18 
REMARK   10  A    between atoms: C12_20  and  O8_21 
REMARK   11  A    between atoms: C13_23  and  O9_24 
REMARK   12  A    between atoms: C16_28  and  C17_29 
REMARK       I    between atoms: C17_29  and  N1_31 
REMARK   13  A    between atoms: N1_31  and  C18_33 
REMARK   14  A    between atoms: C18_33  and  C19_34 
REMARK   15  A    between atoms: C18_33  and  C26_49 
REMARK   16  A    between atoms: C19_34  and  N2_35 
REMARK   17  A    between atoms: C21_39  and  N3_40 
REMARK       I    between atoms: N3_40  and  C22_42 
ROOT
HETATM    1  C6  UNL     1      44.331  22.415  25.523  1.00  0.00     0.057 C 
HETATM    2  C7  UNL     1      44.726  23.437  24.785  1.00  0.00     0.071 C 
HETATM    3  C15 UNL     1      46.101  23.193  24.263  1.00  0.00     0.088 C 
HETATM    4  C16 UNL     1      46.284  21.695  24.385  1.00  0.00     0.158 C 
HETATM    5  C27 UNL     1      45.396  21.413  25.552  1.00  0.00     0.174 C 
HETATM    6  O17 UNL     1      45.603  20.472  26.353  1.00  0.00    -0.292 OA
ENDROOT
BRANCH   4   7
HETATM    7  C17 UNL     1      47.724  21.424  24.708  1.00  0.00     0.230 C 
HETATM    8  O10 UNL     1      48.263  20.508  24.047  1.00  0.00    -0.273 OA
HETATM    9  N1  UNL     1      48.406  22.158  25.689  1.00  0.00    -0.344 N 
ATOM     10  H1  UNL     1      47.910  22.891  26.198  1.00  0.00     0.163 HD
BRANCH   9  11
HETATM   11  C18 UNL     1      49.793  21.900  25.997  1.00  0.00     0.206 C 
BRANCH  11  12
HETATM   12  C19 UNL     1      50.531  23.199  25.871  1.00  0.00     0.196 C 
BRANCH  12  13
HETATM   13  N2  UNL     1      51.701  23.113  25.039  1.00  0.00    -0.209 N 
HETATM   14  O11 UNL     1      51.632  22.508  23.873  1.00  0.00    -0.188 OA
HETATM   15  C20 UNL     1      52.674  22.380  23.093  1.00  0.00     0.334 A 
HETATM   16  O12 UNL     1      52.534  21.790  21.991  1.00  0.00    -0.256 OA
HETATM   17  C21 UNL     1      53.918  22.864  23.433  1.00  0.00     0.142 A 
HETATM   18  C24 UNL     1      54.043  23.514  24.659  1.00  0.00     0.149 A 
HETATM   19  N4  UNL     1      55.300  24.034  25.064  1.00  0.00    -0.094 NA
HETATM   20  C25 UNL     1      52.907  23.608  25.416  1.00  0.00     0.294 A 
HETATM   21  O14 UNL     1      52.962  24.194  26.541  1.00  0.00    -0.264 OA
BRANCH  17  22
HETATM   22  N3  UNL     1      55.064  22.733  22.600  1.00  0.00    -0.321 N 
HETATM   23  C22 UNL     1      55.403  23.682  21.622  1.00  0.00     0.218 C 
HETATM   24  C23 UNL     1      56.594  23.499  20.790  1.00  0.00     0.117 C 
HETATM   25  O13 UNL     1      54.663  24.691  21.473  1.00  0.00    -0.274 OA
ATOM     26  H3  UNL     1      55.665  21.917  22.718  1.00  0.00     0.169 HD
ENDBRANCH  17  22
ENDBRANCH  12  13
ENDBRANCH  11  12
BRANCH  11  27
HETATM   27  C26 UNL     1      49.995  21.137  27.223  1.00  0.00     0.198 C 
HETATM   28  O15 UNL     1      51.053  21.237  27.925  1.00  0.00    -0.646 OA
HETATM   29  O16 UNL     1      49.060  20.248  27.735  1.00  0.00    -0.646 OA
ENDBRANCH  11  27
ENDBRANCH   9  11
ENDBRANCH   4   7
BRANCH   2  30
HETATM   30  O5  UNL     1      44.001  24.573  24.519  1.00  0.00    -0.279 OA
BRANCH  30  31
HETATM   31  C8  UNL     1      44.097  25.757  25.191  1.00  0.00     0.298 C 
HETATM   32  O6  UNL     1      45.111  26.007  25.851  1.00  0.00    -0.259 OA
BRANCH  31  33
HETATM   33  C9  UNL     1      42.989  26.705  25.111  1.00  0.00     0.045 A 
HETATM   34  C10 UNL     1      42.490  27.130  23.890  1.00  0.00     0.057 A 
HETATM   35  C11 UNL     1      41.446  28.020  23.794  1.00  0.00     0.102 A 
HETATM   36  C12 UNL     1      40.861  28.520  24.933  1.00  0.00     0.132 A 
HETATM   37  C13 UNL     1      41.336  28.114  26.155  1.00  0.00     0.102 A 
HETATM   38  C14 UNL     1      42.397  27.210  26.244  1.00  0.00     0.057 A 
BRANCH  35  39
HETATM   39  O7  UNL     1      40.961  28.433  22.569  1.00  0.00    -0.358 OA
ATOM     40  H7  UNL     1      40.223  29.027  22.502  1.00  0.00     0.217 HD
ENDBRANCH  35  39
BRANCH  36  41
HETATM   41  O8  UNL     1      39.794  29.430  24.875  1.00  0.00    -0.356 OA
ATOM     42  H8  UNL     1      39.934  30.354  24.704  1.00  0.00     0.218 HD
ENDBRANCH  36  41
BRANCH  37  43
HETATM   43  O9  UNL     1      40.742  28.622  27.300  1.00  0.00    -0.358 OA
ATOM     44  H9  UNL     1      40.280  28.024  27.876  1.00  0.00     0.217 HD
ENDBRANCH  37  43
ENDBRANCH  31  33
ENDBRANCH  30  31
ENDBRANCH   2  30
BRANCH   1  45
HETATM   45  C3  UNL     1      43.036  22.282  26.212  1.00  0.00     0.270 C 
BRANCH  45  46
HETATM   46  C2  UNL     1      43.122  22.566  27.655  1.00  0.00     0.293 C 
HETATM   47  O2  UNL     1      42.606  21.786  28.470  1.00  0.00    -0.262 OA
BRANCH  46  48
HETATM   48  O1  UNL     1      43.772  23.690  28.092  1.00  0.00    -0.324 OA
HETATM   49  C1  UNL     1      43.106  24.733  28.821  1.00  0.00     0.213 C 
ENDBRANCH  46  48
ENDBRANCH  45  46
BRANCH  45  50
HETATM   50  O3  UNL     1      42.425  21.035  25.944  1.00  0.00    -0.301 OA
BRANCH  50  51
HETATM   51  C4  UNL     1      42.276  20.558  24.674  1.00  0.00     0.255 C 
HETATM   52  C5  UNL     1      42.737  19.209  24.308  1.00  0.00     0.126 C 
HETATM   53  O4  UNL     1      41.734  21.292  23.810  1.00  0.00    -0.266 OA
ENDBRANCH  50  51
ENDBRANCH  45  50
ENDBRANCH   1  45
TORSDOF 17
ENDMDL
MODEL 2
REMARK VINA RESULT: -10.694507154      1.938      3.131
REMARK  17 active torsions:
REMARK  status: ('A' for Active; 'I' for Inactive)
REMARK    1  A    between atoms: O1_2  and  C2_3 
REMARK    2  A    between atoms: C2_3  and  C3_5 
REMARK    3  A    between atoms: C3_5  and  O3_6 
REMARK    4  A    between atoms: C3_5  and  C6_10 
REMARK    5  A    between atoms: O3_6  and  C4_7 
REMARK    6  A    between atoms: C7_11  and  O5_12 
REMARK    7  A    between atoms: O5_12  and  C8_13 
REMARK    8  A    between atoms: C8_13  and  C9_15 
REMARK    9  A    between atoms: C11_17  and  O7_18 
REMARK   10  A    between atoms: C12_20  and  O8_21 
REMARK   11  A    between atoms: C13_23  and  O9_24 
REMARK   12  A    between atoms: C16_28  and  C17_29 
REMARK       I    between atoms: C17_29  and  N1_31 
REMARK   13  A    between atoms: N1_31  and  C18_33 
REMARK   14  A    between atoms: C18_33  and  C19_34 
REMARK   15  A    between atoms: C18_33  and  C26_49 
REMARK   16  A    between atoms: C19_34  and  N2_35 
REMARK   17  A    between atoms: C21_39  and  N3_40 
REMARK       I    between atoms: N3_40  and  C22_42 
ROOT
HETATM    1  C6  UNL     1      44.577  22.712  24.455  1.00  0.00     0.057 C 
HETATM    2  C7  UNL     1      45.288  23.709  24.951  1.00  0.00     0.071 C 
HETATM    3  C15 UNL     1      46.700  23.281  25.156  1.00  0.00     0.088 C 
HETATM    4  C16 UNL     1      46.850  22.060  24.275  1.00  0.00     0.158 C 
HETATM    5  C27 UNL     1      45.448  21.549  24.287  1.00  0.00     0.174 C 
HETATM    6  O17 UNL     1      45.164  20.334  24.169  1.00  0.00    -0.292 OA
ENDROOT
BRANCH   4   7
HETATM    7  C17 UNL     1      47.792  21.107  24.951  1.00  0.00     0.230 C 
HETATM    8  O10 UNL     1      48.422  20.339  24.190  1.00  0.00    -0.273 OA
HETATM    9  N1  UNL     1      47.942  21.090  26.345  1.00  0.00    -0.344 N 
ATOM     10  H1  UNL     1      47.396  21.739  26.913  1.00  0.00     0.163 HD
BRANCH   9  11
HETATM   11  C18 UNL     1      48.850  20.176  26.995  1.00  0.00     0.206 C 
BRANCH  11  12
HETATM   12  C19 UNL     1      50.030  20.973  27.466  1.00  0.00     0.196 C 
BRANCH  12  13
HETATM   13  N2  UNL     1      50.570  21.846  26.458  1.00  0.00    -0.209 N 
HETATM   14  O11 UNL     1      50.015  23.019  26.243  1.00  0.00    -0.188 OA
HETATM   15  C20 UNL     1      50.450  23.836  25.320  1.00  0.00     0.334 A 
HETATM   16  O12 UNL     1      49.871  24.942  25.170  1.00  0.00    -0.256 OA
HETATM   17  C21 UNL     1      51.519  23.531  24.504  1.00  0.00     0.142 A 
HETATM   18  C24 UNL     1      52.141  22.299  24.693  1.00  0.00     0.149 A 
HETATM   19  N4  UNL     1      53.247  21.929  23.884  1.00  0.00    -0.094 NA
HETATM   20  C25 UNL     1      51.627  21.502  25.679  1.00  0.00     0.294 A 
HETATM   21  O14 UNL     1      52.158  20.370  25.898  1.00  0.00    -0.264 OA
BRANCH  17  22
HETATM   22  N3  UNL     1      52.007  24.405  23.493  1.00  0.00    -0.321 N 
HETATM   23  C22 UNL     1      52.869  25.478  23.771  1.00  0.00     0.218 C 
HETATM   24  C23 UNL     1      53.343  26.349  22.693  1.00  0.00     0.117 C 
HETATM   25  O13 UNL     1      53.226  25.678  24.962  1.00  0.00    -0.274 OA
ATOM     26  H3  UNL     1      51.719  24.246  22.528  1.00  0.00     0.169 HD
ENDBRANCH  17  22
ENDBRANCH  12  13
ENDBRANCH  11  12
BRANCH  11  27
HETATM   27  C26 UNL     1      48.212  19.297  27.967  1.00  0.00     0.198 C 
HETATM   28  O15 UNL     1      48.789  18.931  29.042  1.00  0.00    -0.646 OA
HETATM   29  O16 UNL     1      46.928  18.792  27.815  1.00  0.00    -0.646 OA
ENDBRANCH  11  27
ENDBRANCH   9  11
ENDBRANCH   4   7
BRANCH   2  30
HETATM   30  O5  UNL     1      44.822  24.968  25.246  1.00  0.00    -0.279 OA
BRANCH  30  31
HETATM   31  C8  UNL     1      43.936  25.280  26.237  1.00  0.00     0.298 C 
HETATM   32  O6  UNL     1      43.976  24.669  27.309  1.00  0.00    -0.259 OA
BRANCH  31  33
HETATM   33  C9  UNL     1      42.957  26.336  25.998  1.00  0.00     0.045 A 
HETATM   34  C10 UNL     1      42.355  27.012  27.047  1.00  0.00     0.057 A 
HETATM   35  C11 UNL     1      41.432  28.011  26.842  1.00  0.00     0.102 A 
HETATM   36  C12 UNL     1      41.077  28.369  25.564  1.00  0.00     0.132 A 
HETATM   37  C13 UNL     1      41.659  27.715  24.506  1.00  0.00     0.102 A 
HETATM   38  C14 UNL     1      42.596  26.702  24.722  1.00  0.00     0.057 A 
BRANCH  35  39
HETATM   39  O7  UNL     1      40.842  28.675  27.900  1.00  0.00    -0.358 OA
ATOM     40  H7  UNL     1      39.904  28.821  27.932  1.00  0.00     0.217 HD
ENDBRANCH  35  39
BRANCH  36  41
HETATM   41  O8  UNL     1      40.138  29.383  25.315  1.00  0.00    -0.356 OA
ATOM     42  H8  UNL     1      39.484  29.301  24.631  1.00  0.00     0.218 HD
ENDBRANCH  36  41
BRANCH  37  43
HETATM   43  O9  UNL     1      41.297  28.080  23.219  1.00  0.00    -0.358 OA
ATOM     44  H9  UNL     1      40.864  27.438  22.669  1.00  0.00     0.217 HD
ENDBRANCH  37  43
ENDBRANCH  31  33
ENDBRANCH  30  31
ENDBRANCH   2  30
BRANCH   1  45
HETATM   45  C3  UNL     1      43.144  22.743  24.116  1.00  0.00     0.270 C 
BRANCH  45  46
HETATM   46  C2  UNL     1      42.353  21.764  24.883  1.00  0.00     0.293 C 
HETATM   47  O2  UNL     1      42.404  21.763  26.122  1.00  0.00    -0.262 OA
BRANCH  46  48
HETATM   48  O1  UNL     1      41.564  20.858  24.224  1.00  0.00    -0.324 OA
HETATM   49  C1  UNL     1      41.952  19.489  24.036  1.00  0.00     0.213 C 
ENDBRANCH  46  48
ENDBRANCH  45  46
BRANCH  45  50
HETATM   50  O3  UNL     1      42.931  22.632  22.723  1.00  0.00    -0.301 OA
BRANCH  50  51
HETATM   51  C4  UNL     1      43.308  23.613  21.852  1.00  0.00     0.255 C 
HETATM   52  C5  UNL     1      44.404  23.399  20.891  1.00  0.00     0.126 C 
HETATM   53  O4  UNL     1      42.703  24.714  21.878  1.00  0.00    -0.266 OA
ENDBRANCH  50  51
ENDBRANCH  45  50
ENDBRANCH   1  45
TORSDOF 17
ENDMDL
MODEL 3
REMARK VINA RESULT: -10.676656150      3.397     10.632
REMARK  17 active torsions:
REMARK  status: ('A' for Active; 'I' for Inactive)
REMARK    1  A    between atoms: O1_2  and  C2_3 
REMARK    2  A    between atoms: C2_3  and  C3_5 
REMARK    3  A    between atoms: C3_5  and  O3_6 
REMARK    4  A    between atoms: C3_5  and  C6_10 
REMARK    5  A    between atoms: O3_6  and  C4_7 
REMARK    6  A    between atoms: C7_11  and  O5_12 
REMARK    7  A    between atoms: O5_12  and  C8_13 
REMARK    8  A    between atoms: C8_13  and  C9_15 
REMARK    9  A    between atoms: C11_17  and  O7_18 
REMARK   10  A    between atoms: C12_20  and  O8_21 
REMARK   11  A    between atoms: C13_23  and  O9_24 
REMARK   12  A    between atoms: C16_28  and  C17_29 
REMARK       I    between atoms: C17_29  and  N1_31 
REMARK   13  A    between atoms: N1_31  and  C18_33 
REMARK   14  A    between atoms: C18_33  and  C19_34 
REMARK   15  A    between atoms: C18_33  and  C26_49 
REMARK   16  A    between atoms: C19_34  and  N2_35 
REMARK   17  A    between atoms: C21_39  and  N3_40 
REMARK       I    between atoms: N3_40  and  C22_42 
ROOT
HETATM    1  C6  UNL     1      51.972  22.814  24.651  1.00  0.00     0.057 C 
HETATM    2  C7  UNL     1      52.478  23.350  25.747  1.00  0.00     0.071 C 
HETATM    3  C15 UNL     1      51.897  22.698  26.955  1.00  0.00     0.088 C 
HETATM    4  C16 UNL     1      51.346  21.386  26.439  1.00  0.00     0.158 C 
HETATM    5  C27 UNL     1      51.023  21.767  25.032  1.00  0.00     0.174 C 
HETATM    6  O17 UNL     1      50.096  21.236  24.378  1.00  0.00    -0.292 OA
ENDROOT
BRANCH   4   7
HETATM    7  C17 UNL     1      50.107  21.058  27.221  1.00  0.00     0.230 C 
HETATM    8  O10 UNL     1      50.089  21.470  28.402  1.00  0.00    -0.273 OA
HETATM    9  N1  UNL     1      49.050  20.335  26.650  1.00  0.00    -0.344 N 
ATOM     10  H1  UNL     1      49.126  20.022  25.682  1.00  0.00     0.163 HD
BRANCH   9  11
HETATM   11  C18 UNL     1      47.857  20.023  27.401  1.00  0.00     0.206 C 
BRANCH  11  12
HETATM   12  C19 UNL     1      46.698  20.093  26.452  1.00  0.00     0.196 C 
BRANCH  12  13
HETATM   13  N2  UNL     1      45.845  21.230  26.674  1.00  0.00    -0.209 N 
HETATM   14  O11 UNL     1      44.750  21.096  27.391  1.00  0.00    -0.188 OA
HETATM   15  C20 UNL     1      43.929  22.092  27.598  1.00  0.00     0.334 A 
HETATM   16  O12 UNL     1      42.900  21.892  28.294  1.00  0.00    -0.256 OA
HETATM   17  C21 UNL     1      44.144  23.351  27.081  1.00  0.00     0.142 A 
HETATM   18  C24 UNL     1      45.291  23.543  26.314  1.00  0.00     0.149 A 
HETATM   19  N4  UNL     1      45.568  24.819  25.756  1.00  0.00    -0.094 NA
HETATM   20  C25 UNL     1      46.100  22.454  26.145  1.00  0.00     0.294 A 
HETATM   21  O14 UNL     1      47.162  22.573  25.459  1.00  0.00    -0.264 OA
BRANCH  17  22
HETATM   22  N3  UNL     1      43.261  24.447  27.293  1.00  0.00    -0.321 N 
HETATM   23  C22 UNL     1      43.249  25.191  28.483  1.00  0.00     0.218 C 
HETATM   24  C23 UNL     1      42.320  26.310  28.651  1.00  0.00     0.117 C 
HETATM   25  O13 UNL     1      44.051  24.877  29.404  1.00  0.00    -0.274 OA
ATOM     26  H3  UNL     1      42.611  24.702  26.550  1.00  0.00     0.169 HD
ENDBRANCH  17  22
ENDBRANCH  12  13
ENDBRANCH  11  12
BRANCH  11  27
HETATM   27  C26 UNL     1      47.971  18.825  28.223  1.00  0.00     0.198 C 
HETATM   28  O15 UNL     1      47.255  17.790  28.029  1.00  0.00    -0.646 OA
HETATM   29  O16 UNL     1      48.867  18.702  29.277  1.00  0.00    -0.646 OA
ENDBRANCH  11  27
ENDBRANCH   9  11
ENDBRANCH   4   7
BRANCH   2  30
HETATM   30  O5  UNL     1      53.405  24.363  25.800  1.00  0.00    -0.279 OA
BRANCH  30  31
HETATM   31  C8  UNL     1      54.753  24.220  25.637  1.00  0.00     0.298 C 
HETATM   32  O6  UNL     1      55.472  24.023  26.621  1.00  0.00    -0.259 OA
BRANCH  31  33
HETATM   33  C9  UNL     1      55.312  24.306  24.291  1.00  0.00     0.045 A 
HETATM   34  C10 UNL     1      54.676  25.021  23.290  1.00  0.00     0.057 A 
HETATM   35  C11 UNL     1      55.188  25.115  22.017  1.00  0.00     0.102 A 
HETATM   36  C12 UNL     1      56.369  24.486  21.701  1.00  0.00     0.132 A 
HETATM   37  C13 UNL     1      57.019  23.770  22.675  1.00  0.00     0.102 A 
HETATM   38  C14 UNL     1      56.493  23.680  23.966  1.00  0.00     0.057 A 
BRANCH  35  39
HETATM   39  O7  UNL     1      54.541  25.833  21.030  1.00  0.00    -0.358 OA
ATOM     40  H7  UNL     1      54.996  26.489  20.515  1.00  0.00     0.217 HD
ENDBRANCH  35  39
BRANCH  36  41
HETATM   41  O8  UNL     1      56.922  24.558  20.413  1.00  0.00    -0.356 OA
ATOM     42  H8  UNL     1      57.714  24.086  20.183  1.00  0.00     0.218 HD
ENDBRANCH  36  41
BRANCH  37  43
HETATM   43  O9  UNL     1      58.209  23.138  22.352  1.00  0.00    -0.358 OA
ATOM     44  H9  UNL     1      58.960  23.264  22.919  1.00  0.00     0.217 HD
ENDBRANCH  37  43
ENDBRANCH  31  33
ENDBRANCH  30  31
ENDBRANCH   2  30
BRANCH   1  45
HETATM   45  C3  UNL     1      52.295  23.187  23.264  1.00  0.00     0.270 C 
BRANCH  45  46
HETATM   46  C2  UNL     1      51.357  24.175  22.703  1.00  0.00     0.293 C 
HETATM   47  O2  UNL     1      50.346  24.500  23.344  1.00  0.00    -0.262 OA
BRANCH  46  48
HETATM   48  O1  UNL     1      51.604  24.730  21.475  1.00  0.00    -0.324 OA
HETATM   49  C1  UNL     1      50.936  25.915  21.015  1.00  0.00     0.213 C 
ENDBRANCH  46  48
ENDBRANCH  45  46
BRANCH  45  50
HETATM   50  O3  UNL     1      52.440  22.051  22.434  1.00  0.00    -0.301 OA
BRANCH  50  51
HETATM   51  C4  UNL     1      53.656  21.646  21.966  1.00  0.00     0.255 C 
HETATM   52  C5  UNL     1      54.573  20.859  22.808  1.00  0.00     0.126 C 
HETATM   53  O4  UNL     1      53.989  21.954  20.794  1.00  0.00    -0.266 OA
ENDBRANCH  50  51
ENDBRANCH  45  50
ENDBRANCH   1  45
TORSDOF 17
ENDMDL
MODEL 4
REMARK VINA RESULT: -10.600730720      3.559     11.022
REMARK  17 active torsions:
REMARK  status: ('A' for Active; 'I' for Inactive)
REMARK    1  A    between atoms: O1_2  and  C2_3 
REMARK    2  A    between atoms: C2_3  and  C3_5 
REMARK    3  A    between atoms: C3_5  and  O3_6 
REMARK    4  A    between atoms: C3_5  and  C6_10 
REMARK    5  A    between atoms: O3_6  and  C4_7 
REMARK    6  A    between atoms: C7_11  and  O5_12 
REMARK    7  A    between atoms: O5_12  and  C8_13 
REMARK    8  A    between atoms: C8_13  and  C9_15 
REMARK    9  A    between atoms: C11_17  and  O7_18 
REMARK   10  A    between atoms: C12_20  and  O8_21 
REMARK   11  A    between atoms: C13_23  and  O9_24 
REMARK   12  A    between atoms: C16_28  and  C17_29 
REMARK       I    between atoms: C17_29  and  N1_31 
REMARK   13  A    between atoms: N1_31  and  C18_33 
REMARK   14  A    between atoms: C18_33  and  C19_34 
REMARK   15  A    between atoms: C18_33  and  C26_49 
REMARK   16  A    between atoms: C19_34  and  N2_35 
REMARK   17  A    between atoms: C21_39  and  N3_40 
REMARK       I    between atoms: N3_40  and  C22_42 
ROOT
HETATM    1  C6  UNL     1      51.837  23.537  24.679  1.00  0.00     0.057 C 
HETATM    2  C7  UNL     1      52.478  22.398  24.867  1.00  0.00     0.071 C 
HETATM    3  C15 UNL     1      51.560  21.381  25.453  1.00  0.00     0.088 C 
HETATM    4  C16 UNL     1      50.176  21.908  25.143  1.00  0.00     0.158 C 
HETATM    5  C27 UNL     1      50.450  23.376  25.115  1.00  0.00     0.174 C 
HETATM    6  O17 UNL     1      49.592  24.235  25.425  1.00  0.00    -0.292 OA
ENDROOT
BRANCH   4   7
HETATM    7  C17 UNL     1      49.267  21.537  26.278  1.00  0.00     0.230 C 
HETATM    8  O10 UNL     1      49.576  22.010  27.394  1.00  0.00    -0.273 OA
HETATM    9  N1  UNL     1      48.151  20.711  26.083  1.00  0.00    -0.344 N 
ATOM     10  H1  UNL     1      47.954  20.352  25.148  1.00  0.00     0.163 HD
BRANCH   9  11
HETATM   11  C18 UNL     1      47.275  20.356  27.174  1.00  0.00     0.206 C 
BRANCH  11  12
HETATM   12  C19 UNL     1      45.877  20.312  26.633  1.00  0.00     0.196 C 
BRANCH  12  13
HETATM   13  N2  UNL     1      45.089  21.461  26.989  1.00  0.00    -0.209 N 
HETATM   14  O11 UNL     1      44.181  21.362  27.937  1.00  0.00    -0.188 OA
HETATM   15  C20 UNL     1      43.420  22.369  28.278  1.00  0.00     0.334 A 
HETATM   16  O12 UNL     1      42.573  22.203  29.193  1.00  0.00    -0.256 OA
HETATM   17  C21 UNL     1      43.509  23.604  27.673  1.00  0.00     0.142 A 
HETATM   18  C24 UNL     1      44.457  23.759  26.663  1.00  0.00     0.149 A 
HETATM   19  N4  UNL     1      44.596  25.008  26.004  1.00  0.00    -0.094 NA
HETATM   20  C25 UNL     1      45.214  22.659  26.366  1.00  0.00     0.294 A 
HETATM   21  O14 UNL     1      46.096  22.745  25.457  1.00  0.00    -0.264 OA
BRANCH  17  22
HETATM   22  N3  UNL     1      42.690  24.712  28.029  1.00  0.00    -0.321 N 
HETATM   23  C22 UNL     1      42.924  25.491  29.172  1.00  0.00     0.218 C 
HETATM   24  C23 UNL     1      42.049  26.621  29.494  1.00  0.00     0.117 C 
HETATM   25  O13 UNL     1      43.897  25.200  29.917  1.00  0.00    -0.274 OA
ATOM     26  H3  UNL     1      41.900  24.949  27.428  1.00  0.00     0.169 HD
ENDBRANCH  17  22
ENDBRANCH  12  13
ENDBRANCH  11  12
BRANCH  11  27
HETATM   27  C26 UNL     1      47.726  19.204  27.945  1.00  0.00     0.198 C 
HETATM   28  O15 UNL     1      47.105  18.092  27.941  1.00  0.00    -0.646 OA
HETATM   29  O16 UNL     1      48.866  19.212  28.738  1.00  0.00    -0.646 OA
ENDBRANCH  11  27
ENDBRANCH   9  11
ENDBRANCH   4   7
BRANCH   2  30
HETATM   30  O5  UNL     1      53.800  22.155  24.577  1.00  0.00    -0.279 OA
BRANCH  30  31
HETATM   31  C8  UNL     1      54.268  21.511  23.468  1.00  0.00     0.298 C 
HETATM   32  O6  UNL     1      54.088  20.297  23.343  1.00  0.00    -0.259 OA
BRANCH  31  33
HETATM   33  C9  UNL     1      54.975  22.285  22.452  1.00  0.00     0.045 A 
HETATM   34  C10 UNL     1      56.359  22.310  22.397  1.00  0.00     0.057 A 
HETATM   35  C11 UNL     1      57.043  23.032  21.447  1.00  0.00     0.102 A 
HETATM   36  C12 UNL     1      56.353  23.761  20.508  1.00  0.00     0.132 A 
HETATM   37  C13 UNL     1      54.981  23.753  20.539  1.00  0.00     0.102 A 
HETATM   38  C14 UNL     1      54.294  23.018  21.508  1.00  0.00     0.057 A 
BRANCH  35  39
HETATM   39  O7  UNL     1      58.423  23.045  21.407  1.00  0.00    -0.358 OA
ATOM     40  H7  UNL     1      58.894  23.321  20.629  1.00  0.00     0.217 HD
ENDBRANCH  35  39
BRANCH  36  41
HETATM   41  O8  UNL     1      57.016  24.510  19.522  1.00  0.00    -0.356 OA
ATOM     42  H8  UNL     1      56.549  24.893  18.788  1.00  0.00     0.218 HD
ENDBRANCH  36  41
BRANCH  37  43
HETATM   43  O9  UNL     1      54.290  24.491  19.591  1.00  0.00    -0.358 OA
ATOM     44  H9  UNL     1      54.026  25.377  19.808  1.00  0.00     0.217 HD
ENDBRANCH  37  43
ENDBRANCH  31  33
ENDBRANCH  30  31
ENDBRANCH   2  30
BRANCH   1  45
HETATM   45  C3  UNL     1      52.401  24.778  24.121  1.00  0.00     0.270 C 
BRANCH  45  46
HETATM   46  C2  UNL     1      52.886  25.705  25.158  1.00  0.00     0.293 C 
HETATM   47  O2  UNL     1      52.078  26.256  25.921  1.00  0.00    -0.262 OA
BRANCH  46  48
HETATM   48  O1  UNL     1      54.227  25.955  25.277  1.00  0.00    -0.324 OA
HETATM   49  C1  UNL     1      55.183  25.522  24.297  1.00  0.00     0.213 C 
ENDBRANCH  46  48
ENDBRANCH  45  46
BRANCH  45  50
HETATM   50  O3  UNL     1      51.508  25.401  23.217  1.00  0.00    -0.301 OA
BRANCH  50  51
HETATM   51  C4  UNL     1      51.868  25.705  21.937  1.00  0.00     0.255 C 
HETATM   52  C5  UNL     1      51.068  25.241  20.790  1.00  0.00     0.126 C 
HETATM   53  O4  UNL     1      52.900  26.395  21.743  1.00  0.00    -0.266 OA
ENDBRANCH  50  51
ENDBRANCH  45  50
ENDBRANCH   1  45
TORSDOF 17
ENDMDL
MODEL 5
REMARK VINA RESULT: -10.577989381      1.676      2.689
REMARK  17 active torsions:
REMARK  status: ('A' for Active; 'I' for Inactive)
REMARK    1  A    between atoms: O1_2  and  C2_3 
REMARK    2  A    between atoms: C2_3  and  C3_5 
REMARK    3  A    between atoms: C3_5  and  O3_6 
REMARK    4  A    between atoms: C3_5  and  C6_10 
REMARK    5  A    between atoms: O3_6  and  C4_7 
REMARK    6  A    between atoms: C7_11  and  O5_12 
REMARK    7  A    between atoms: O5_12  and  C8_13 
REMARK    8  A    between atoms: C8_13  and  C9_15 
REMARK    9  A    between atoms: C11_17  and  O7_18 
REMARK   10  A    between atoms: C12_20  and  O8_21 
REMARK   11  A    between atoms: C13_23  and  O9_24 
REMARK   12  A    between atoms: C16_28  and  C17_29 
REMARK       I    between atoms: C17_29  and  N1_31 
REMARK   13  A    between atoms: N1_31  and  C18_33 
REMARK   14  A    between atoms: C18_33  and  C19_34 
REMARK   15  A    between atoms: C18_33  and  C26_49 
REMARK   16  A    between atoms: C19_34  and  N2_35 
REMARK   17  A    between atoms: C21_39  and  N3_40 
REMARK       I    between atoms: N3_40  and  C22_42 
ROOT
HETATM    1  C6  UNL     1      44.496  22.605  24.281  1.00  0.00     0.057 C 
HETATM    2  C7  UNL     1      45.185  23.644  24.718  1.00  0.00     0.071 C 
HETATM    3  C15 UNL     1      46.610  23.262  24.933  1.00  0.00     0.088 C 
HETATM    4  C16 UNL     1      46.784  22.001  24.114  1.00  0.00     0.158 C 
HETATM    5  C27 UNL     1      45.395  21.457  24.165  1.00  0.00     0.174 C 
HETATM    6  O17 UNL     1      45.142  20.231  24.112  1.00  0.00    -0.292 OA
ENDROOT
BRANCH   4   7
HETATM    7  C17 UNL     1      47.754  21.108  24.830  1.00  0.00     0.230 C 
HETATM    8  O10 UNL     1      48.465  20.384  24.097  1.00  0.00    -0.273 OA
HETATM    9  N1  UNL     1      47.845  21.097  26.230  1.00  0.00    -0.344 N 
ATOM     10  H1  UNL     1      47.235  21.708  26.774  1.00  0.00     0.163 HD
BRANCH   9  11
HETATM   11  C18 UNL     1      48.781  20.240  26.918  1.00  0.00     0.206 C 
BRANCH  11  12
HETATM   12  C19 UNL     1      49.891  21.108  27.431  1.00  0.00     0.196 C 
BRANCH  12  13
HETATM   13  N2  UNL     1      50.832  21.495  26.413  1.00  0.00    -0.209 N 
HETATM   14  O11 UNL     1      51.724  20.628  25.984  1.00  0.00    -0.188 OA
HETATM   15  C20 UNL     1      52.617  20.940  25.082  1.00  0.00     0.334 A 
HETATM   16  O12 UNL     1      53.440  20.060  24.718  1.00  0.00    -0.256 OA
HETATM   17  C21 UNL     1      52.693  22.193  24.515  1.00  0.00     0.142 A 
HETATM   18  C24 UNL     1      51.768  23.147  24.936  1.00  0.00     0.149 A 
HETATM   19  N4  UNL     1      51.796  24.456  24.388  1.00  0.00    -0.094 NA
HETATM   20  C25 UNL     1      50.866  22.743  25.882  1.00  0.00     0.294 A 
HETATM   21  O14 UNL     1      49.998  23.569  26.300  1.00  0.00    -0.264 OA
BRANCH  17  22
HETATM   22  N3  UNL     1      53.658  22.552  23.533  1.00  0.00    -0.321 N 
HETATM   23  C22 UNL     1      53.495  22.264  22.169  1.00  0.00     0.218 C 
HETATM   24  C23 UNL     1      54.520  22.655  21.198  1.00  0.00     0.117 C 
HETATM   25  O13 UNL     1      52.453  21.661  21.795  1.00  0.00    -0.274 OA
ATOM     26  H3  UNL     1      54.503  23.040  23.832  1.00  0.00     0.169 HD
ENDBRANCH  17  22
ENDBRANCH  12  13
ENDBRANCH  11  12
BRANCH  11  27
HETATM   27  C26 UNL     1      48.159  19.326  27.868  1.00  0.00     0.198 C 
HETATM   28  O15 UNL     1      47.003  18.825  27.680  1.00  0.00    -0.646 OA
HETATM   29  O16 UNL     1      48.766  18.918  29.048  1.00  0.00    -0.646 OA
ENDBRANCH  11  27
ENDBRANCH   9  11
ENDBRANCH   4   7
BRANCH   2  30
HETATM   30  O5  UNL     1      44.690  24.904  24.952  1.00  0.00    -0.279 OA
BRANCH  30  31
HETATM   31  C8  UNL     1      43.935  25.278  26.026  1.00  0.00     0.298 C 
HETATM   32  O6  UNL     1      44.092  24.714  27.112  1.00  0.00    -0.259 OA
BRANCH  31  33
HETATM   33  C9  UNL     1      42.952  26.345  25.857  1.00  0.00     0.045 A 
HETATM   34  C10 UNL     1      42.558  26.771  24.598  1.00  0.00     0.057 A 
HETATM   35  C11 UNL     1      41.633  27.772  24.420  1.00  0.00     0.102 A 
HETATM   36  C12 UNL     1      41.065  28.389  25.509  1.00  0.00     0.132 A 
HETATM   37  C13 UNL     1      41.438  27.985  26.767  1.00  0.00     0.102 A 
HETATM   38  C14 UNL     1      42.379  26.967  26.941  1.00  0.00     0.057 A 
BRANCH  35  39
HETATM   39  O7  UNL     1      41.250  28.183  23.158  1.00  0.00    -0.358 OA
ATOM     40  H7  UNL     1      41.077  27.558  22.464  1.00  0.00     0.217 HD
ENDBRANCH  35  39
BRANCH  36  41
HETATM   41  O8  UNL     1      40.118  29.415  25.367  1.00  0.00    -0.356 OA
ATOM     42  H8  UNL     1      40.352  30.329  25.474  1.00  0.00     0.218 HD
ENDBRANCH  36  41
BRANCH  37  43
HETATM   43  O9  UNL     1      40.863  28.611  27.863  1.00  0.00    -0.358 OA
ATOM     44  H9  UNL     1      40.239  28.124  28.388  1.00  0.00     0.217 HD
ENDBRANCH  37  43
ENDBRANCH  31  33
ENDBRANCH  30  31
ENDBRANCH   2  30
BRANCH   1  45
HETATM   45  C3  UNL     1      43.061  22.582  23.953  1.00  0.00     0.270 C 
BRANCH  45  46
HETATM   46  C2  UNL     1      42.312  21.575  24.726  1.00  0.00     0.293 C 
HETATM   47  O2  UNL     1      42.347  21.597  25.966  1.00  0.00    -0.262 OA
BRANCH  46  48
HETATM   48  O1  UNL     1      41.581  20.619  24.073  1.00  0.00    -0.324 OA
HETATM   49  C1  UNL     1      41.941  19.229  24.085  1.00  0.00     0.213 C 
ENDBRANCH  46  48
ENDBRANCH  45  46
BRANCH  45  50
HETATM   50  O3  UNL     1      42.842  22.464  22.561  1.00  0.00    -0.301 OA
BRANCH  50  51
HETATM   51  C4  UNL     1      43.203  23.445  21.684  1.00  0.00     0.255 C 
HETATM   52  C5  UNL     1      44.122  23.167  20.567  1.00  0.00     0.126 C 
HETATM   53  O4  UNL     1      42.738  24.601  21.841  1.00  0.00    -0.266 OA
ENDBRANCH  50  51
ENDBRANCH  45  50
ENDBRANCH   1  45
TORSDOF 17
ENDMDL
