MODEL 1
REMARK VINA RESULT: -9.754590659      0.000      0.000
REMARK  17 active torsions:
REMARK  status: ('A' for Active; 'I' for Inactive)
REMARK    1  A    between atoms: O1_2  and  C2_3 
REMARK    2  A    between atoms: C2_3  and  C3_5 
REMARK    3  A    between atoms: C3_5  and  O3_6 
REMARK    4  A    between atoms: C3_5  and  C4_8 
REMARK    5  A    between atoms: C3_5  and  O4_10 
REMARK    6  A    between atoms: O4_10  and  N1_11 
REMARK    7  A    between atoms: C5_13  and  C6_14 
REMARK    8  A    between atoms: C5_13  and  N8_41 
REMARK    9  A    between atoms: C6_14  and  C7_15 
REMARK       I    between atoms: C7_15  and  N2_17 
REMARK   10  A    between atoms: C11_22  and  N3_23 
REMARK   11  A    between atoms: C11_22  and  C12_27 
REMARK   12  A    between atoms: C14_32  and  C15_33 
REMARK       I    between atoms: N8_41  and  C17_43 
REMARK   13  A    between atoms: C17_43  and  C18_45 
REMARK   14  A    between atoms: C19_48  and  O9_49 
REMARK   15  A    between atoms: C20_51  and  N10_52 
REMARK   16  A    between atoms: N10_52  and  O10_53 
REMARK   17  A    between atoms: N10_52  and  O11_55 
ROOT
HETATM    1  N1  UNL     1      44.083  21.010  26.395  1.00  0.00    -0.250 N 
ATOM      2  H1  UNL     1      43.803  20.342  25.676  1.00  0.00     0.196 HD
HETATM    3  C5  UNL     1      43.520  22.083  26.471  1.00  0.00     0.113 C 
ENDROOT
BRANCH   3   4
HETATM    4  C6  UNL     1      42.521  21.501  25.045  1.00  0.00     0.181 C 
BRANCH   4   5
HETATM    5  C7  UNL     1      43.432  21.818  23.993  1.00  0.00     0.232 C 
HETATM    6  O5  UNL     1      44.064  22.885  23.931  1.00  0.00    -0.273 OA
HETATM    7  N2  UNL     1      43.642  20.857  22.919  1.00  0.00    -0.301 N 
HETATM    8  C8  UNL     1      44.418  21.035  21.732  1.00  0.00     0.170 C 
HETATM    9  C13 UNL     1      43.123  19.492  22.879  1.00  0.00     0.115 C 
HETATM   10  C9  UNL     1      43.943  19.933  20.808  1.00  0.00     0.169 C 
HETATM   11  S2  UNL     1      43.138  20.580  19.317  1.00  0.00    -0.137 SA
HETATM   12  N4  UNL     1      42.784  19.307  21.491  1.00  0.00    -0.309 N 
HETATM   13  C10 UNL     1      41.481  19.921  19.632  1.00  0.00     0.149 C 
HETATM   14  C11 UNL     1      41.851  18.754  20.542  1.00  0.00     0.296 C 
HETATM   15  C14 UNL     1      43.090  18.729  23.924  1.00  0.00     0.098 C 
BRANCH  14  16
HETATM   16  N3  UNL     1      40.628  18.354  21.170  1.00  0.00    -0.041 N 
ATOM     17  H33 UNL     1      39.915  19.083  21.178  1.00  0.00     0.278 HD
ATOM     18  H32 UNL     1      40.096  17.670  20.633  1.00  0.00     0.278 HD
ATOM     19  H31 UNL     1      40.892  18.029  22.100  1.00  0.00     0.278 HD
ENDBRANCH  14  16
BRANCH  14  20
HETATM   20  C12 UNL     1      42.420  17.650  19.837  1.00  0.00     0.233 C 
HETATM   21  O6  UNL     1      42.515  17.280  18.732  1.00  0.00    -0.645 OA
HETATM   22  O7  UNL     1      43.116  16.656  20.747  1.00  0.00    -0.645 OA
ENDBRANCH  14  20
BRANCH  15  23
HETATM   23  C15 UNL     1      42.632  17.384  24.173  1.00  0.00     0.124 A 
HETATM   24  N5  UNL     1      43.038  16.165  23.655  1.00  0.00    -0.336 N 
HETATM   25  C16 UNL     1      42.222  15.232  24.315  1.00  0.00     0.199 A 
ATOM     26  H5  UNL     1      43.761  15.988  22.957  1.00  0.00     0.168 HD
HETATM   27  N6  UNL     1      41.422  15.868  25.134  1.00  0.00    -0.295 N 
HETATM   28  N7  UNL     1      41.685  17.135  25.029  1.00  0.00    -0.284 N 
ATOM     29  H6  UNL     1      40.721  15.446  25.744  1.00  0.00     0.187 HD
ATOM     30  H7  UNL     1      41.200  17.858  25.560  1.00  0.00     0.188 HD
ENDBRANCH  15  23
ENDBRANCH   4   5
ENDBRANCH   3   4
BRANCH   3  31
HETATM   31  N8  UNL     1      42.900  23.261  26.547  1.00  0.00    -0.309 N 
HETATM   32  C17 UNL     1      43.706  24.435  26.923  1.00  0.00     0.280 C 
HETATM   33  O8  UNL     1      44.924  24.267  27.303  1.00  0.00    -0.265 OA
ATOM     34  H8  UNL     1      41.903  23.347  26.350  1.00  0.00     0.170 HD
BRANCH  32  35
HETATM   35  C18 UNL     1      43.106  25.750  26.844  1.00  0.00     0.146 A 
HETATM   36  N9  UNL     1      42.417  26.252  27.925  1.00  0.00    -0.325 N 
HETATM   37  C19 UNL     1      41.762  27.324  27.712  1.00  0.00     0.174 A 
ATOM     38  H9  UNL     1      42.429  25.795  28.837  1.00  0.00     0.169 HD
HETATM   39  C20 UNL     1      41.729  27.968  26.562  1.00  0.00     0.159 A 
HETATM   40  S3  UNL     1      42.751  26.902  25.635  1.00  0.00    -0.046 SA
BRANCH  37  41
HETATM   41  O9  UNL     1      40.980  27.910  28.819  1.00  0.00    -0.344 OA
ATOM     42  H9  UNL     1      41.423  28.476  29.441  1.00  0.00     0.219 HD
ENDBRANCH  37  41
BRANCH  39  43
HETATM   43  N10 UNL     1      41.104  29.187  26.147  1.00  0.00    -0.025 NA
BRANCH  43  44
HETATM   44  O10 UNL     1      41.133  30.038  27.177  1.00  0.00    -0.284 OA
ATOM     45  H10 UNL     1      41.720  29.685  27.835  1.00  0.00     0.240 HD
ENDBRANCH  43  44
BRANCH  43  46
HETATM   46  O11 UNL     1      39.820  28.994  25.747  1.00  0.00    -0.284 OA
ATOM     47  H11 UNL     1      39.483  29.735  25.257  1.00  0.00     0.240 HD
ENDBRANCH  43  46
ENDBRANCH  39  43
ENDBRANCH  32  35
ENDBRANCH   3  31
BRANCH   1  48
HETATM   48  O4  UNL     1      45.117  20.680  27.289  1.00  0.00    -0.227 OA
BRANCH  48  49
HETATM   49  C3  UNL     1      46.468  20.672  26.908  1.00  0.00     0.285 C 
BRANCH  49  50
HETATM   50  C2  UNL     1      47.068  19.415  27.413  1.00  0.00     0.324 C 
HETATM   51  O2  UNL     1      46.559  18.300  27.175  1.00  0.00    -0.259 OA
BRANCH  50  52
HETATM   52  O1  UNL     1      48.255  19.409  28.206  1.00  0.00    -0.322 OA
HETATM   53  C1  UNL     1      48.341  18.381  29.223  1.00  0.00     0.213 C 
ENDBRANCH  50  52
ENDBRANCH  49  50
BRANCH  49  54
HETATM   54  O3  UNL     1      47.094  21.823  27.399  1.00  0.00    -0.355 OA
ATOM     55  H3  UNL     1      46.752  22.109  28.238  1.00  0.00     0.213 HD
ENDBRANCH  49  54
BRANCH  49  56
HETATM   56  C4  UNL     1      46.486  20.729  25.378  1.00  0.00     0.168 C 
HETATM   57  S1  UNL     1      48.223  20.549  24.828  1.00  0.00    -0.091 SA
ENDBRANCH  49  56
ENDBRANCH  48  49
ENDBRANCH   1  48
TORSDOF 17
ENDMDL
MODEL 2
REMARK VINA RESULT: -9.491156774      0.865      1.121
REMARK  17 active torsions:
REMARK  status: ('A' for Active; 'I' for Inactive)
REMARK    1  A    between atoms: O1_2  and  C2_3 
REMARK    2  A    between atoms: C2_3  and  C3_5 
REMARK    3  A    between atoms: C3_5  and  O3_6 
REMARK    4  A    between atoms: C3_5  and  C4_8 
REMARK    5  A    between atoms: C3_5  and  O4_10 
REMARK    6  A    between atoms: O4_10  and  N1_11 
REMARK    7  A    between atoms: C5_13  and  C6_14 
REMARK    8  A    between atoms: C5_13  and  N8_41 
REMARK    9  A    between atoms: C6_14  and  C7_15 
REMARK       I    between atoms: C7_15  and  N2_17 
REMARK   10  A    between atoms: C11_22  and  N3_23 
REMARK   11  A    between atoms: C11_22  and  C12_27 
REMARK   12  A    between atoms: C14_32  and  C15_33 
REMARK       I    between atoms: N8_41  and  C17_43 
REMARK   13  A    between atoms: C17_43  and  C18_45 
REMARK   14  A    between atoms: C19_48  and  O9_49 
REMARK   15  A    between atoms: C20_51  and  N10_52 
REMARK   16  A    between atoms: N10_52  and  O10_53 
REMARK   17  A    between atoms: N10_52  and  O11_55 
ROOT
HETATM    1  N1  UNL     1      44.454  21.067  26.542  1.00  0.00    -0.250 N 
ATOM      2  H1  UNL     1      44.262  20.249  25.962  1.00  0.00     0.196 HD
HETATM    3  C5  UNL     1      43.733  22.041  26.465  1.00  0.00     0.113 C 
ENDROOT
BRANCH   3   4
HETATM    4  C6  UNL     1      42.798  21.077  25.214  1.00  0.00     0.181 C 
BRANCH   4   5
HETATM    5  C7  UNL     1      43.585  21.385  24.064  1.00  0.00     0.232 C 
HETATM    6  O5  UNL     1      44.262  22.420  23.954  1.00  0.00    -0.273 OA
HETATM    7  N2  UNL     1      43.606  20.455  22.943  1.00  0.00    -0.301 N 
HETATM    8  C8  UNL     1      44.233  20.638  21.673  1.00  0.00     0.170 C 
HETATM    9  C13 UNL     1      43.011  19.121  22.929  1.00  0.00     0.115 C 
HETATM   10  C9  UNL     1      43.586  19.596  20.785  1.00  0.00     0.169 C 
HETATM   11  S2  UNL     1      42.637  20.337  19.429  1.00  0.00    -0.137 SA
HETATM   12  N4  UNL     1      42.490  19.004  21.591  1.00  0.00    -0.309 N 
HETATM   13  C10 UNL     1      40.999  19.752  19.934  1.00  0.00     0.149 C 
HETATM   14  C11 UNL     1      41.416  18.535  20.753  1.00  0.00     0.296 C 
HETATM   15  C14 UNL     1      43.069  18.322  23.946  1.00  0.00     0.098 C 
BRANCH  14  16
HETATM   16  N3  UNL     1      40.262  18.175  21.520  1.00  0.00    -0.041 N 
ATOM     17  H33 UNL     1      40.391  18.277  22.526  1.00  0.00     0.278 HD
ATOM     18  H32 UNL     1      39.488  18.834  21.431  1.00  0.00     0.278 HD
ATOM     19  H31 UNL     1      40.026  17.225  21.231  1.00  0.00     0.278 HD
ENDBRANCH  14  16
BRANCH  14  20
HETATM   20  C12 UNL     1      41.830  17.430  19.948  1.00  0.00     0.233 C 
HETATM   21  O6  UNL     1      41.813  17.122  18.820  1.00  0.00    -0.645 OA
HETATM   22  O7  UNL     1      42.491  16.324  20.748  1.00  0.00    -0.645 OA
ENDBRANCH  14  20
BRANCH  15  23
HETATM   23  C15 UNL     1      42.572  16.994  24.212  1.00  0.00     0.124 A 
HETATM   24  N5  UNL     1      42.947  15.757  23.712  1.00  0.00    -0.336 N 
HETATM   25  C16 UNL     1      42.103  14.856  24.380  1.00  0.00     0.199 A 
ATOM     26  H5  UNL     1      43.667  15.551  23.020  1.00  0.00     0.168 HD
HETATM   27  N6  UNL     1      41.316  15.525  25.187  1.00  0.00    -0.295 N 
HETATM   28  N7  UNL     1      41.614  16.783  25.066  1.00  0.00    -0.284 N 
ATOM     29  H6  UNL     1      40.602  15.131  25.798  1.00  0.00     0.187 HD
ATOM     30  H7  UNL     1      41.147  17.526  25.585  1.00  0.00     0.188 HD
ENDBRANCH  15  23
ENDBRANCH   4   5
ENDBRANCH   3   4
BRANCH   3  31
HETATM   31  N8  UNL     1      42.940  23.109  26.374  1.00  0.00    -0.309 N 
HETATM   32  C17 UNL     1      43.532  24.428  26.656  1.00  0.00     0.280 C 
HETATM   33  O8  UNL     1      44.732  24.494  27.116  1.00  0.00    -0.265 OA
ATOM     34  H8  UNL     1      41.957  23.016  26.117  1.00  0.00     0.170 HD
BRANCH  32  35
HETATM   35  C18 UNL     1      42.749  25.617  26.396  1.00  0.00     0.146 A 
HETATM   36  N9  UNL     1      42.504  26.002  25.097  1.00  0.00    -0.325 N 
HETATM   37  C19 UNL     1      41.976  27.153  24.953  1.00  0.00     0.174 A 
ATOM     38  H9  UNL     1      42.730  25.405  24.301  1.00  0.00     0.169 HD
HETATM   39  C20 UNL     1      41.643  27.955  25.945  1.00  0.00     0.159 A 
HETATM   40  S3  UNL     1      42.165  26.958  27.276  1.00  0.00    -0.046 SA
BRANCH  37  41
HETATM   41  O9  UNL     1      41.703  27.644  23.587  1.00  0.00    -0.344 OA
ATOM     42  H9  UNL     1      41.023  27.219  23.077  1.00  0.00     0.219 HD
ENDBRANCH  37  41
BRANCH  39  43
HETATM   43  N10 UNL     1      41.010  29.238  25.988  1.00  0.00    -0.025 NA
BRANCH  43  44
HETATM   44  O10 UNL     1      40.809  29.559  27.270  1.00  0.00    -0.284 OA
ATOM     45  H10 UNL     1      41.218  30.401  27.431  1.00  0.00     0.240 HD
ENDBRANCH  43  44
BRANCH  43  46
HETATM   46  O11 UNL     1      39.825  29.247  25.322  1.00  0.00    -0.284 OA
ATOM     47  H11 UNL     1      39.441  30.115  25.288  1.00  0.00     0.240 HD
ENDBRANCH  43  46
ENDBRANCH  39  43
ENDBRANCH  32  35
ENDBRANCH   3  31
BRANCH   1  48
HETATM   48  O4  UNL     1      45.550  21.056  27.423  1.00  0.00    -0.227 OA
BRANCH  48  49
HETATM   49  C3  UNL     1      46.856  20.766  26.995  1.00  0.00     0.285 C 
BRANCH  49  50
HETATM   50  C2  UNL     1      47.205  19.421  27.508  1.00  0.00     0.324 C 
HETATM   51  O2  UNL     1      46.494  18.422  27.275  1.00  0.00    -0.259 OA
BRANCH  50  52
HETATM   52  O1  UNL     1      48.370  19.194  28.302  1.00  0.00    -0.322 OA
HETATM   53  C1  UNL     1      48.279  18.128  29.281  1.00  0.00     0.213 C 
ENDBRANCH  50  52
ENDBRANCH  49  50
BRANCH  49  54
HETATM   54  O3  UNL     1      47.722  21.772  27.438  1.00  0.00    -0.355 OA
ATOM     55  H3  UNL     1      47.637  22.584  26.952  1.00  0.00     0.213 HD
ENDBRANCH  49  54
BRANCH  49  56
HETATM   56  C4  UNL     1      46.827  20.794  25.465  1.00  0.00     0.168 C 
HETATM   57  S1  UNL     1      48.495  20.342  24.860  1.00  0.00    -0.091 SA
ENDBRANCH  49  56
ENDBRANCH  48  49
ENDBRANCH   1  48
TORSDOF 17
ENDMDL
MODEL 3
REMARK VINA RESULT: -9.471982270      3.266      7.125
REMARK  17 active torsions:
REMARK  status: ('A' for Active; 'I' for Inactive)
REMARK    1  A    between atoms: O1_2  and  C2_3 
REMARK    2  A    between atoms: C2_3  and  C3_5 
REMARK    3  A    between atoms: C3_5  and  O3_6 
REMARK    4  A    between atoms: C3_5  and  C4_8 
REMARK    5  A    between atoms: C3_5  and  O4_10 
REMARK    6  A    between atoms: O4_10  and  N1_11 
REMARK    7  A    between atoms: C5_13  and  C6_14 
REMARK    8  A    between atoms: C5_13  and  N8_41 
REMARK    9  A    between atoms: C6_14  and  C7_15 
REMARK       I    between atoms: C7_15  and  N2_17 
REMARK   10  A    between atoms: C11_22  and  N3_23 
REMARK   11  A    between atoms: C11_22  and  C12_27 
REMARK   12  A    between atoms: C14_32  and  C15_33 
REMARK       I    between atoms: N8_41  and  C17_43 
REMARK   13  A    between atoms: C17_43  and  C18_45 
REMARK   14  A    between atoms: C19_48  and  O9_49 
REMARK   15  A    between atoms: C20_51  and  N10_52 
REMARK   16  A    between atoms: N10_52  and  O10_53 
REMARK   17  A    between atoms: N10_52  and  O11_55 
ROOT
HETATM    1  N1  UNL     1      44.170  20.633  22.394  1.00  0.00    -0.250 N 
ATOM      2  H1  UNL     1      45.030  20.250  22.000  1.00  0.00     0.196 HD
HETATM    3  C5  UNL     1      44.222  21.346  23.375  1.00  0.00     0.113 C 
ENDROOT
BRANCH   3   4
HETATM    4  C6  UNL     1      46.037  21.091  23.291  1.00  0.00     0.181 C 
BRANCH   4   5
HETATM    5  C7  UNL     1      46.460  22.438  23.498  1.00  0.00     0.232 C 
HETATM    6  O5  UNL     1      46.006  23.405  22.864  1.00  0.00    -0.273 OA
HETATM    7  N2  UNL     1      47.483  22.720  24.496  1.00  0.00    -0.301 N 
HETATM    8  C8  UNL     1      48.112  23.974  24.766  1.00  0.00     0.170 C 
HETATM    9  C13 UNL     1      48.032  21.761  25.451  1.00  0.00     0.115 C 
HETATM   10  C9  UNL     1      49.351  23.606  25.556  1.00  0.00     0.169 C 
HETATM   11  S2  UNL     1      50.881  24.033  24.680  1.00  0.00    -0.137 SA
HETATM   12  N4  UNL     1      49.425  22.125  25.522  1.00  0.00    -0.309 N 
HETATM   13  C10 UNL     1      51.509  22.349  24.457  1.00  0.00     0.149 C 
HETATM   14  C11 UNL     1      50.788  21.664  25.612  1.00  0.00     0.296 C 
HETATM   15  C14 UNL     1      47.299  20.881  26.054  1.00  0.00     0.098 C 
BRANCH  14  16
HETATM   16  N3  UNL     1      50.892  20.260  25.352  1.00  0.00    -0.041 N 
ATOM     17  H33 UNL     1      51.496  20.034  24.562  1.00  0.00     0.278 HD
ATOM     18  H32 UNL     1      51.421  19.750  26.058  1.00  0.00     0.278 HD
ATOM     19  H31 UNL     1      49.933  19.930  25.241  1.00  0.00     0.278 HD
ENDBRANCH  14  16
BRANCH  14  20
HETATM   20  C12 UNL     1      51.354  21.966  26.888  1.00  0.00     0.233 C 
HETATM   21  O6  UNL     1      52.174  22.674  27.329  1.00  0.00    -0.645 OA
HETATM   22  O7  UNL     1      50.738  21.166  28.019  1.00  0.00    -0.645 OA
ENDBRANCH  14  20
BRANCH  15  23
HETATM   23  C15 UNL     1      47.567  19.830  27.006  1.00  0.00     0.124 A 
HETATM   24  N5  UNL     1      48.257  19.835  28.207  1.00  0.00    -0.336 N 
HETATM   25  C16 UNL     1      48.138  18.513  28.666  1.00  0.00     0.199 A 
ATOM     26  H5  UNL     1      48.738  20.615  28.654  1.00  0.00     0.168 HD
HETATM   27  N6  UNL     1      47.444  17.819  27.797  1.00  0.00    -0.295 N 
HETATM   28  N7  UNL     1      47.122  18.621  26.829  1.00  0.00    -0.284 N 
ATOM     29  H6  UNL     1      47.201  16.831  27.869  1.00  0.00     0.187 HD
ATOM     30  H7  UNL     1      46.577  18.334  26.016  1.00  0.00     0.188 HD
ENDBRANCH  15  23
ENDBRANCH   4   5
ENDBRANCH   3   4
BRANCH   3  31
HETATM   31  N8  UNL     1      44.285  22.125  24.455  1.00  0.00    -0.309 N 
HETATM   32  C17 UNL     1      43.150  22.090  25.393  1.00  0.00     0.280 C 
HETATM   33  O8  UNL     1      42.090  21.434  25.074  1.00  0.00    -0.265 OA
ATOM     34  H8  UNL     1      45.092  22.726  24.626  1.00  0.00     0.170 HD
BRANCH  32  35
HETATM   35  C18 UNL     1      43.264  22.787  26.657  1.00  0.00     0.146 A 
HETATM   36  N9  UNL     1      43.089  22.096  27.835  1.00  0.00    -0.325 N 
HETATM   37  C19 UNL     1      43.015  22.810  28.887  1.00  0.00     0.174 A 
ATOM     38  H9  UNL     1      43.023  21.078  27.863  1.00  0.00     0.169 HD
HETATM   39  C20 UNL     1      43.117  24.124  28.911  1.00  0.00     0.159 A 
HETATM   40  S3  UNL     1      43.327  24.403  27.204  1.00  0.00    -0.046 SA
BRANCH  37  41
HETATM   41  O9  UNL     1      42.806  22.140  30.186  1.00  0.00    -0.344 OA
ATOM     42  H9  UNL     1      42.032  22.359  30.694  1.00  0.00     0.219 HD
ENDBRANCH  37  41
BRANCH  39  43
HETATM   43  N10 UNL     1      43.107  25.081  29.975  1.00  0.00    -0.025 NA
BRANCH  43  44
HETATM   44  O10 UNL     1      42.213  24.681  30.884  1.00  0.00    -0.284 OA
ATOM     45  H10 UNL     1      42.417  25.111  31.707  1.00  0.00     0.240 HD
ENDBRANCH  43  44
BRANCH  43  46
HETATM   46  O11 UNL     1      42.792  26.330  29.539  1.00  0.00    -0.284 OA
ATOM     47  H11 UNL     1      41.884  26.549  29.708  1.00  0.00     0.240 HD
ENDBRANCH  43  46
ENDBRANCH  39  43
ENDBRANCH  32  35
ENDBRANCH   3  31
BRANCH   1  48
HETATM   48  O4  UNL     1      42.934  20.329  21.795  1.00  0.00    -0.227 OA
BRANCH  48  49
HETATM   49  C3  UNL     1      42.645  19.061  21.266  1.00  0.00     0.285 C 
BRANCH  49  50
HETATM   50  C2  UNL     1      42.752  18.081  22.373  1.00  0.00     0.324 C 
HETATM   51  O2  UNL     1      43.197  16.929  22.191  1.00  0.00    -0.259 OA
BRANCH  50  52
HETATM   52  O1  UNL     1      42.345  18.397  23.704  1.00  0.00    -0.322 OA
HETATM   53  C1  UNL     1      43.252  17.996  24.762  1.00  0.00     0.213 C 
ENDBRANCH  50  52
ENDBRANCH  49  50
BRANCH  49  54
HETATM   54  O3  UNL     1      43.515  18.795  20.203  1.00  0.00    -0.355 OA
ATOM     55  H3  UNL     1      43.236  19.184  19.382  1.00  0.00     0.213 HD
ENDBRANCH  49  54
BRANCH  49  56
HETATM   56  C4  UNL     1      41.219  19.135  20.716  1.00  0.00     0.168 C 
HETATM   57  S1  UNL     1      40.415  20.617  21.430  1.00  0.00    -0.091 SA
ENDBRANCH  49  56
ENDBRANCH  48  49
ENDBRANCH   1  48
TORSDOF 17
ENDMDL
MODEL 4
REMARK VINA RESULT: -9.408701492      3.443      7.403
REMARK  17 active torsions:
REMARK  status: ('A' for Active; 'I' for Inactive)
REMARK    1  A    between atoms: O1_2  and  C2_3 
REMARK    2  A    between atoms: C2_3  and  C3_5 
REMARK    3  A    between atoms: C3_5  and  O3_6 
REMARK    4  A    between atoms: C3_5  and  C4_8 
REMARK    5  A    between atoms: C3_5  and  O4_10 
REMARK    6  A    between atoms: O4_10  and  N1_11 
REMARK    7  A    between atoms: C5_13  and  C6_14 
REMARK    8  A    between atoms: C5_13  and  N8_41 
REMARK    9  A    between atoms: C6_14  and  C7_15 
REMARK       I    between atoms: C7_15  and  N2_17 
REMARK   10  A    between atoms: C11_22  and  N3_23 
REMARK   11  A    between atoms: C11_22  and  C12_27 
REMARK   12  A    between atoms: C14_32  and  C15_33 
REMARK       I    between atoms: N8_41  and  C17_43 
REMARK   13  A    between atoms: C17_43  and  C18_45 
REMARK   14  A    between atoms: C19_48  and  O9_49 
REMARK   15  A    between atoms: C20_51  and  N10_52 
REMARK   16  A    between atoms: N10_52  and  O10_53 
REMARK   17  A    between atoms: N10_52  and  O11_55 
ROOT
HETATM    1  N1  UNL     1      44.157  20.891  22.476  1.00  0.00    -0.250 N 
ATOM      2  H1  UNL     1      44.992  20.587  21.974  1.00  0.00     0.196 HD
HETATM    3  C5  UNL     1      44.264  21.362  23.591  1.00  0.00     0.113 C 
ENDROOT
BRANCH   3   4
HETATM    4  C6  UNL     1      46.066  21.088  23.382  1.00  0.00     0.181 C 
BRANCH   4   5
HETATM    5  C7  UNL     1      46.517  22.429  23.568  1.00  0.00     0.232 C 
HETATM    6  O5  UNL     1      46.072  23.398  22.930  1.00  0.00    -0.273 OA
HETATM    7  N2  UNL     1      47.562  22.702  24.546  1.00  0.00    -0.301 N 
HETATM    8  C8  UNL     1      48.219  23.946  24.793  1.00  0.00     0.170 C 
HETATM    9  C13 UNL     1      48.108  21.742  25.502  1.00  0.00     0.115 C 
HETATM   10  C9  UNL     1      49.463  23.563  25.566  1.00  0.00     0.169 C 
HETATM   11  S2  UNL     1      50.986  23.952  24.662  1.00  0.00    -0.137 SA
HETATM   12  N4  UNL     1      49.508  22.080  25.547  1.00  0.00    -0.309 N 
HETATM   13  C10 UNL     1      51.579  22.254  24.446  1.00  0.00     0.149 C 
HETATM   14  C11 UNL     1      50.863  21.594  25.621  1.00  0.00     0.296 C 
HETATM   15  C14 UNL     1      47.368  20.882  26.126  1.00  0.00     0.098 C 
BRANCH  14  16
HETATM   16  N3  UNL     1      50.937  20.186  25.373  1.00  0.00    -0.041 N 
ATOM     17  H33 UNL     1      51.874  19.860  25.142  1.00  0.00     0.278 HD
ATOM     18  H32 UNL     1      50.815  19.616  26.210  1.00  0.00     0.278 HD
ATOM     19  H31 UNL     1      50.247  20.000  24.646  1.00  0.00     0.278 HD
ENDBRANCH  14  16
BRANCH  14  20
HETATM   20  C12 UNL     1      51.456  21.899  26.884  1.00  0.00     0.233 C 
HETATM   21  O6  UNL     1      52.315  22.574  27.301  1.00  0.00    -0.645 OA
HETATM   22  O7  UNL     1      50.809  21.162  28.040  1.00  0.00    -0.645 OA
ENDBRANCH  14  20
BRANCH  15  23
HETATM   23  C15 UNL     1      47.632  19.837  27.085  1.00  0.00     0.124 A 
HETATM   24  N5  UNL     1      48.282  19.856  28.308  1.00  0.00    -0.336 N 
HETATM   25  C16 UNL     1      48.182  18.531  28.760  1.00  0.00     0.199 A 
ATOM     26  H5  UNL     1      48.729  20.648  28.770  1.00  0.00     0.168 HD
HETATM   27  N6  UNL     1      47.533  17.822  27.870  1.00  0.00    -0.295 N 
HETATM   28  N7  UNL     1      47.222  18.618  26.892  1.00  0.00    -0.284 N 
ATOM     29  H6  UNL     1      47.312  16.828  27.933  1.00  0.00     0.187 HD
ATOM     30  H7  UNL     1      46.711  18.319  26.062  1.00  0.00     0.188 HD
ENDBRANCH  15  23
ENDBRANCH   4   5
ENDBRANCH   3   4
BRANCH   3  31
HETATM   31  N8  UNL     1      44.387  21.875  24.815  1.00  0.00    -0.309 N 
HETATM   32  C17 UNL     1      43.602  23.079  25.136  1.00  0.00     0.280 C 
HETATM   33  O8  UNL     1      42.948  23.672  24.200  1.00  0.00    -0.265 OA
ATOM     34  H8  UNL     1      45.004  21.448  25.506  1.00  0.00     0.170 HD
BRANCH  32  35
HETATM   35  C18 UNL     1      43.578  23.556  26.503  1.00  0.00     0.146 A 
HETATM   36  N9  UNL     1      43.341  22.671  27.530  1.00  0.00    -0.325 N 
HETATM   37  C19 UNL     1      43.146  23.194  28.675  1.00  0.00     0.174 A 
ATOM     38  H9  UNL     1      43.323  21.661  27.384  1.00  0.00     0.169 HD
HETATM   39  C20 UNL     1      43.181  24.488  28.924  1.00  0.00     0.159 A 
HETATM   40  S3  UNL     1      43.516  25.058  27.312  1.00  0.00    -0.046 SA
BRANCH  37  41
HETATM   41  O9  UNL     1      42.866  22.308  29.823  1.00  0.00    -0.344 OA
ATOM     42  H9  UNL     1      42.034  22.395  30.274  1.00  0.00     0.219 HD
ENDBRANCH  37  41
BRANCH  39  43
HETATM   43  N10 UNL     1      43.038  25.251  30.127  1.00  0.00    -0.025 NA
BRANCH  43  44
HETATM   44  O10 UNL     1      42.357  24.512  31.008  1.00  0.00    -0.284 OA
ATOM     45  H10 UNL     1      41.927  25.101  31.617  1.00  0.00     0.240 HD
ENDBRANCH  43  44
BRANCH  43  46
HETATM   46  O11 UNL     1      42.390  26.426  29.914  1.00  0.00    -0.284 OA
ATOM     47  H11 UNL     1      42.864  27.167  30.273  1.00  0.00     0.240 HD
ENDBRANCH  43  46
ENDBRANCH  39  43
ENDBRANCH  32  35
ENDBRANCH   3  31
BRANCH   1  48
HETATM   48  O4  UNL     1      42.893  20.762  21.873  1.00  0.00    -0.227 OA
BRANCH  48  49
HETATM   49  C3  UNL     1      42.476  21.588  20.817  1.00  0.00     0.285 C 
BRANCH  49  50
HETATM   50  C2  UNL     1      43.540  21.567  19.786  1.00  0.00     0.324 C 
HETATM   51  O2  UNL     1      44.039  20.498  19.376  1.00  0.00    -0.259 OA
BRANCH  50  52
HETATM   52  O1  UNL     1      44.058  22.766  19.209  1.00  0.00    -0.322 OA
HETATM   53  C1  UNL     1      45.416  23.118  19.575  1.00  0.00     0.213 C 
ENDBRANCH  50  52
ENDBRANCH  49  50
BRANCH  49  54
HETATM   54  O3  UNL     1      42.207  22.869  21.311  1.00  0.00    -0.355 OA
ATOM     55  H3  UNL     1      41.295  23.001  21.541  1.00  0.00     0.213 HD
ENDBRANCH  49  54
BRANCH  49  56
HETATM   56  C4  UNL     1      41.170  20.991  20.289  1.00  0.00     0.168 C 
HETATM   57  S1  UNL     1      40.731  19.565  21.351  1.00  0.00    -0.091 SA
ENDBRANCH  49  56
ENDBRANCH  48  49
ENDBRANCH   1  48
TORSDOF 17
ENDMDL
MODEL 5
REMARK VINA RESULT: -9.388513575      3.317      7.349
REMARK  17 active torsions:
REMARK  status: ('A' for Active; 'I' for Inactive)
REMARK    1  A    between atoms: O1_2  and  C2_3 
REMARK    2  A    between atoms: C2_3  and  C3_5 
REMARK    3  A    between atoms: C3_5  and  O3_6 
REMARK    4  A    between atoms: C3_5  and  C4_8 
REMARK    5  A    between atoms: C3_5  and  O4_10 
REMARK    6  A    between atoms: O4_10  and  N1_11 
REMARK    7  A    between atoms: C5_13  and  C6_14 
REMARK    8  A    between atoms: C5_13  and  N8_41 
REMARK    9  A    between atoms: C6_14  and  C7_15 
REMARK       I    between atoms: C7_15  and  N2_17 
REMARK   10  A    between atoms: C11_22  and  N3_23 
REMARK   11  A    between atoms: C11_22  and  C12_27 
REMARK   12  A    between atoms: C14_32  and  C15_33 
REMARK       I    between atoms: N8_41  and  C17_43 
REMARK   13  A    between atoms: C17_43  and  C18_45 
REMARK   14  A    between atoms: C19_48  and  O9_49 
REMARK   15  A    between atoms: C20_51  and  N10_52 
REMARK   16  A    between atoms: N10_52  and  O10_53 
REMARK   17  A    between atoms: N10_52  and  O11_55 
ROOT
HETATM    1  N1  UNL     1      44.154  20.903  22.501  1.00  0.00    -0.250 N 
ATOM      2  H1  UNL     1      44.991  20.594  22.007  1.00  0.00     0.196 HD
HETATM    3  C5  UNL     1      44.253  21.374  23.616  1.00  0.00     0.113 C 
ENDROOT
BRANCH   3   4
HETATM    4  C6  UNL     1      46.056  21.089  23.424  1.00  0.00     0.181 C 
BRANCH   4   5
HETATM    5  C7  UNL     1      46.512  22.429  23.609  1.00  0.00     0.232 C 
HETATM    6  O5  UNL     1      46.066  23.399  22.976  1.00  0.00    -0.273 OA
HETATM    7  N2  UNL     1      47.563  22.697  24.581  1.00  0.00    -0.301 N 
HETATM    8  C8  UNL     1      48.226  23.939  24.825  1.00  0.00     0.170 C 
HETATM    9  C13 UNL     1      48.113  21.735  25.532  1.00  0.00     0.115 C 
HETATM   10  C9  UNL     1      49.474  23.551  25.590  1.00  0.00     0.169 C 
HETATM   11  S2  UNL     1      50.992  23.937  24.677  1.00  0.00    -0.137 SA
HETATM   12  N4  UNL     1      49.514  22.069  25.569  1.00  0.00    -0.309 N 
HETATM   13  C10 UNL     1      51.578  22.237  24.456  1.00  0.00     0.149 C 
HETATM   14  C11 UNL     1      50.868  21.579  25.634  1.00  0.00     0.296 C 
HETATM   15  C14 UNL     1      47.374  20.876  26.160  1.00  0.00     0.098 C 
BRANCH  14  16
HETATM   16  N3  UNL     1      50.936  20.171  25.384  1.00  0.00    -0.041 N 
ATOM     17  H33 UNL     1      51.255  19.936  24.445  1.00  0.00     0.278 HD
ATOM     18  H32 UNL     1      51.689  19.701  25.887  1.00  0.00     0.278 HD
ATOM     19  H31 UNL     1      50.009  19.809  25.604  1.00  0.00     0.278 HD
ENDBRANCH  14  16
BRANCH  14  20
HETATM   20  C12 UNL     1      51.470  21.880  26.893  1.00  0.00     0.233 C 
HETATM   21  O6  UNL     1      52.335  22.550  27.305  1.00  0.00    -0.645 OA
HETATM   22  O7  UNL     1      50.824  21.147  28.053  1.00  0.00    -0.645 OA
ENDBRANCH  14  20
BRANCH  15  23
HETATM   23  C15 UNL     1      47.641  19.828  27.116  1.00  0.00     0.124 A 
HETATM   24  N5  UNL     1      48.307  19.843  28.330  1.00  0.00    -0.336 N 
HETATM   25  C16 UNL     1      48.201  18.518  28.785  1.00  0.00     0.199 A 
ATOM     26  H5  UNL     1      48.766  20.630  28.787  1.00  0.00     0.168 HD
HETATM   27  N6  UNL     1      47.535  17.815  27.902  1.00  0.00    -0.295 N 
HETATM   28  N7  UNL     1      47.218  18.613  26.929  1.00  0.00    -0.284 N 
ATOM     29  H6  UNL     1      47.306  16.823  27.968  1.00  0.00     0.187 HD
ATOM     30  H7  UNL     1      46.695  18.318  26.105  1.00  0.00     0.188 HD
ENDBRANCH  15  23
ENDBRANCH   4   5
ENDBRANCH   3   4
BRANCH   3  31
HETATM   31  N8  UNL     1      44.368  21.886  24.842  1.00  0.00    -0.309 N 
HETATM   32  C17 UNL     1      43.579  23.088  25.159  1.00  0.00     0.280 C 
HETATM   33  O8  UNL     1      42.931  23.681  24.219  1.00  0.00    -0.265 OA
ATOM     34  H8  UNL     1      44.982  21.459  25.537  1.00  0.00     0.170 HD
BRANCH  32  35
HETATM   35  C18 UNL     1      43.546  23.564  26.526  1.00  0.00     0.146 A 
HETATM   36  N9  UNL     1      43.331  22.673  27.553  1.00  0.00    -0.325 N 
HETATM   37  C19 UNL     1      43.126  23.192  28.699  1.00  0.00     0.174 A 
ATOM     38  H9  UNL     1      43.337  21.664  27.407  1.00  0.00     0.169 HD
HETATM   39  C20 UNL     1      43.131  24.486  28.948  1.00  0.00     0.159 A 
HETATM   40  S3  UNL     1      43.450  25.064  27.335  1.00  0.00    -0.046 SA
BRANCH  37  41
HETATM   41  O9  UNL     1      42.868  22.299  29.846  1.00  0.00    -0.344 OA
ATOM     42  H9  UNL     1      43.211  22.540  30.699  1.00  0.00     0.219 HD
ENDBRANCH  37  41
BRANCH  39  43
HETATM   43  N10 UNL     1      42.972  25.246  30.151  1.00  0.00    -0.025 NA
BRANCH  43  44
HETATM   44  O10 UNL     1      42.053  24.637  30.907  1.00  0.00    -0.284 OA
ATOM     45  H10 UNL     1      41.285  24.483  30.370  1.00  0.00     0.240 HD
ENDBRANCH  43  44
BRANCH  43  46
HETATM   46  O11 UNL     1      42.588  26.525  29.903  1.00  0.00    -0.284 OA
ATOM     47  H11 UNL     1      43.278  27.150  30.096  1.00  0.00     0.240 HD
ENDBRANCH  43  46
ENDBRANCH  39  43
ENDBRANCH  32  35
ENDBRANCH   3  31
BRANCH   1  48
HETATM   48  O4  UNL     1      42.895  20.780  21.886  1.00  0.00    -0.227 OA
BRANCH  48  49
HETATM   49  C3  UNL     1      42.750  20.544  20.510  1.00  0.00     0.285 C 
BRANCH  49  50
HETATM   50  C2  UNL     1      43.904  19.723  20.074  1.00  0.00     0.324 C 
HETATM   51  O2  UNL     1      44.872  20.219  19.462  1.00  0.00    -0.259 OA
BRANCH  50  52
HETATM   52  O1  UNL     1      43.970  18.319  20.325  1.00  0.00    -0.322 OA
HETATM   53  C1  UNL     1      44.478  17.498  19.243  1.00  0.00     0.213 C 
ENDBRANCH  50  52
ENDBRANCH  49  50
BRANCH  49  54
HETATM   54  O3  UNL     1      42.654  21.767  19.838  1.00  0.00    -0.355 OA
ATOM     55  H3  UNL     1      41.759  22.052  19.699  1.00  0.00     0.213 HD
ENDBRANCH  49  54
BRANCH  49  56
HETATM   56  C4  UNL     1      41.428  19.793  20.336  1.00  0.00     0.168 C 
HETATM   57  S1  UNL     1      40.212  20.515  21.499  1.00  0.00    -0.091 SA
ENDBRANCH  49  56
ENDBRANCH  48  49
ENDBRANCH   1  48
TORSDOF 17
ENDMDL
