MODEL 1
REMARK VINA RESULT: -5.822651552      0.000      0.000
REMARK  1 active torsions:
REMARK  status: ('A' for Active; 'I' for Inactive)
REMARK    1  A    between atoms: N1_1  and  C1_5 
ROOT
HETATM    1  C1  UNL     1      16.153   1.447  15.992  1.00  0.00     0.184 C 
HETATM    2  C2  UNL     1      16.204   1.938  14.615  1.00  0.00     0.044 C 
HETATM    3  C3  UNL     1      16.196   3.492  14.420  1.00  0.00     0.082 C 
HETATM    4  C4  UNL     1      15.317   3.956  15.412  1.00  0.00    -0.183 C 
HETATM    5  C5  UNL     1      14.588   4.791  16.273  1.00  0.00     0.080 C 
HETATM    6  C6  UNL     1      13.898   3.805  17.276  1.00  0.00     0.011 C 
HETATM    7  C7  UNL     1      14.684   2.628  17.668  1.00  0.00     0.003 C 
HETATM    8  C8  UNL     1      14.847   1.425  16.777  1.00  0.00     0.033 C 
ENDROOT
BRANCH   1   9
HETATM    9  N1  UNL     1      16.616   0.038  15.893  1.00  0.00    -0.075 N 
ATOM     10  H13 UNL     1      15.883  -0.627  15.644  1.00  0.00     0.274 HD
ATOM     11  H12 UNL     1      17.215  -0.151  15.090  1.00  0.00     0.274 HD
ATOM     12  H11 UNL     1      17.056  -0.144  16.795  1.00  0.00     0.274 HD
ENDBRANCH   1   9
TORSDOF 1
ENDMDL
MODEL 2
REMARK VINA RESULT: -5.735495030      0.859      2.658
REMARK  1 active torsions:
REMARK  status: ('A' for Active; 'I' for Inactive)
REMARK    1  A    between atoms: N1_1  and  C1_5 
ROOT
HETATM    1  C1  UNL     1      14.998   1.406  16.843  1.00  0.00     0.184 C 
HETATM    2  C2  UNL     1      14.625   2.356  17.891  1.00  0.00     0.044 C 
HETATM    3  C3  UNL     1      13.965   3.697  17.423  1.00  0.00     0.082 C 
HETATM    4  C4  UNL     1      14.654   4.023  16.243  1.00  0.00    -0.183 C 
HETATM    5  C5  UNL     1      15.040   4.642  15.044  1.00  0.00     0.080 C 
HETATM    6  C6  UNL     1      16.165   3.712  14.475  1.00  0.00     0.011 C 
HETATM    7  C7  UNL     1      15.981   2.270  14.688  1.00  0.00     0.003 C 
HETATM    8  C8  UNL     1      16.257   1.602  16.008  1.00  0.00     0.033 C 
ENDROOT
BRANCH   1   9
HETATM    9  N1  UNL     1      15.160   0.115  17.563  1.00  0.00    -0.075 N 
ATOM     10  H13 UNL     1      15.653   0.191  18.453  1.00  0.00     0.274 HD
ATOM     11  H12 UNL     1      14.293  -0.261  17.947  1.00  0.00     0.274 HD
ATOM     12  H11 UNL     1      15.615  -0.494  16.884  1.00  0.00     0.274 HD
ENDBRANCH   1   9
TORSDOF 1
ENDMDL
MODEL 3
REMARK VINA RESULT: -5.720600920      0.753      2.454
REMARK  1 active torsions:
REMARK  status: ('A' for Active; 'I' for Inactive)
REMARK    1  A    between atoms: N1_1  and  C1_5 
ROOT
HETATM    1  C1  UNL     1      15.763   1.078  15.938  1.00  0.00     0.184 C 
HETATM    2  C2  UNL     1      15.627   0.875  17.381  1.00  0.00     0.044 C 
HETATM    3  C3  UNL     1      14.443   1.617  18.088  1.00  0.00     0.082 C 
HETATM    4  C4  UNL     1      14.379   2.859  17.435  1.00  0.00    -0.183 C 
HETATM    5  C5  UNL     1      13.962   4.130  17.011  1.00  0.00     0.080 C 
HETATM    6  C6  UNL     1      14.934   4.483  15.835  1.00  0.00     0.011 C 
HETATM    7  C7  UNL     1      15.332   3.365  14.968  1.00  0.00     0.003 C 
HETATM    8  C8  UNL     1      16.372   2.354  15.371  1.00  0.00     0.033 C 
ENDROOT
BRANCH   1   9
HETATM    9  N1  UNL     1      16.631  -0.044  15.494  1.00  0.00    -0.075 N 
ATOM     10  H13 UNL     1      16.963   0.039  14.532  1.00  0.00     0.274 HD
ATOM     11  H12 UNL     1      17.553  -0.058  15.929  1.00  0.00     0.274 HD
ATOM     12  H11 UNL     1      16.072  -0.878  15.672  1.00  0.00     0.274 HD
ENDBRANCH   1   9
TORSDOF 1
ENDMDL
MODEL 4
REMARK VINA RESULT: -5.605579391      1.587      2.995
REMARK  1 active torsions:
REMARK  status: ('A' for Active; 'I' for Inactive)
REMARK    1  A    between atoms: N1_1  and  C1_5 
ROOT
HETATM    1  C1  UNL     1      15.967   3.340  15.133  1.00  0.00     0.184 C 
HETATM    2  C2  UNL     1      14.783   4.165  15.369  1.00  0.00     0.044 C 
HETATM    3  C3  UNL     1      14.241   4.217  16.838  1.00  0.00     0.082 C 
HETATM    4  C4  UNL     1      14.425   2.909  17.315  1.00  0.00    -0.183 C 
HETATM    5  C5  UNL     1      14.496   1.786  18.154  1.00  0.00     0.080 C 
HETATM    6  C6  UNL     1      15.150   0.677  17.262  1.00  0.00     0.011 C 
HETATM    7  C7  UNL     1      16.189   1.130  16.327  1.00  0.00     0.003 C 
HETATM    8  C8  UNL     1      15.869   1.824  15.029  1.00  0.00     0.033 C 
ENDROOT
BRANCH   1   9
HETATM    9  N1  UNL     1      16.494   3.824  13.829  1.00  0.00    -0.075 N 
ATOM     10  H13 UNL     1      16.571   3.100  13.114  1.00  0.00     0.274 HD
ATOM     11  H12 UNL     1      15.849   4.422  13.313  1.00  0.00     0.274 HD
ATOM     12  H11 UNL     1      17.379   4.272  14.068  1.00  0.00     0.274 HD
ENDBRANCH   1   9
TORSDOF 1
ENDMDL
MODEL 5
REMARK VINA RESULT: -5.591980592      0.926      2.455
REMARK  1 active torsions:
REMARK  status: ('A' for Active; 'I' for Inactive)
REMARK    1  A    between atoms: N1_1  and  C1_5 
ROOT
HETATM    1  C1  UNL     1      15.859   1.981  14.743  1.00  0.00     0.184 C 
HETATM    2  C2  UNL     1      16.096   1.224  15.972  1.00  0.00     0.044 C 
HETATM    3  C3  UNL     1      15.045   1.397  17.120  1.00  0.00     0.082 C 
HETATM    4  C4  UNL     1      14.697   2.757  17.062  1.00  0.00    -0.183 C 
HETATM    5  C5  UNL     1      14.060   3.988  17.282  1.00  0.00     0.080 C 
HETATM    6  C6  UNL     1      14.679   4.941  16.204  1.00  0.00     0.011 C 
HETATM    7  C7  UNL     1      14.971   4.336  14.897  1.00  0.00     0.003 C 
HETATM    8  C8  UNL     1      16.177   3.468  14.655  1.00  0.00     0.033 C 
ENDROOT
BRANCH   1   9
HETATM    9  N1  UNL     1      16.707   1.302  13.728  1.00  0.00    -0.075 N 
ATOM     10  H13 UNL     1      17.320   1.929  13.207  1.00  0.00     0.274 HD
ATOM     11  H12 UNL     1      17.448   0.723  14.122  1.00  0.00     0.274 HD
ATOM     12  H11 UNL     1      16.041   0.791  13.148  1.00  0.00     0.274 HD
ENDBRANCH   1   9
TORSDOF 1
ENDMDL
