MODEL 1
REMARK VINA RESULT: -5.217174575      0.000      0.000
REMARK  1 active torsions:
REMARK  status: ('A' for Active; 'I' for Inactive)
REMARK    1  A    between atoms: N1_1  and  C1_5 
ROOT
HETATM    1  C1  UNL     1      14.449   1.875  16.802  1.00  0.00     0.127 C 
HETATM    2  C2  UNL     1      14.580   2.928  17.854  1.00  0.00     0.039 C 
HETATM    3  C3  UNL     1      13.942   4.231  17.366  1.00  0.00     0.002 C 
HETATM    4  C4  UNL     1      14.847   4.687  16.217  1.00  0.00     0.001 C 
HETATM    5  C5  UNL     1      14.654   3.717  15.097  1.00  0.00     0.007 C 
HETATM    6  C6  UNL     1      14.829   2.299  15.434  1.00  0.00     0.021 C 
HETATM    7  C7  UNL     1      16.275   1.932  15.792  1.00  0.00     0.009 C 
HETATM    8  C8  UNL     1      15.650   0.917  16.755  1.00  0.00     0.039 C 
ENDROOT
BRANCH   1   9
HETATM    9  N1  UNL     1      13.247   1.072  16.930  1.00  0.00    -0.070 N 
ATOM     10  H13 UNL     1      13.042   0.883  17.911  1.00  0.00     0.275 HD
ATOM     11  H12 UNL     1      12.421   1.617  16.685  1.00  0.00     0.275 HD
ATOM     12  H11 UNL     1      13.277   0.204  16.395  1.00  0.00     0.275 HD
ENDBRANCH   1   9
TORSDOF 1
ENDMDL
MODEL 2
REMARK VINA RESULT: -5.201449985      1.413      3.232
REMARK  1 active torsions:
REMARK  status: ('A' for Active; 'I' for Inactive)
REMARK    1  A    between atoms: N1_1  and  C1_5 
ROOT
HETATM    1  C1  UNL     1      14.886   2.998  15.670  1.00  0.00     0.127 C 
HETATM    2  C2  UNL     1      16.179   2.321  15.994  1.00  0.00     0.039 C 
HETATM    3  C3  UNL     1      15.953   0.813  16.134  1.00  0.00     0.002 C 
HETATM    4  C4  UNL     1      15.093   0.676  17.394  1.00  0.00     0.001 C 
HETATM    5  C5  UNL     1      13.749   1.241  17.070  1.00  0.00     0.007 C 
HETATM    6  C6  UNL     1      13.736   2.600  16.515  1.00  0.00     0.021 C 
HETATM    7  C7  UNL     1      14.185   3.671  17.519  1.00  0.00     0.009 C 
HETATM    8  C8  UNL     1      14.764   4.396  16.298  1.00  0.00     0.039 C 
ENDROOT
BRANCH   1   9
HETATM    9  N1  UNL     1      14.640   3.130  14.246  1.00  0.00    -0.070 N 
ATOM     10  H13 UNL     1      14.198   2.288  13.877  1.00  0.00     0.275 HD
ATOM     11  H12 UNL     1      13.895   3.804  14.070  1.00  0.00     0.275 HD
ATOM     12  H11 UNL     1      15.473   3.365  13.708  1.00  0.00     0.275 HD
ENDBRANCH   1   9
TORSDOF 1
ENDMDL
MODEL 3
REMARK VINA RESULT: -4.468341428      1.424      2.401
REMARK  1 active torsions:
REMARK  status: ('A' for Active; 'I' for Inactive)
REMARK    1  A    between atoms: N1_1  and  C1_5 
ROOT
HETATM    1  C1  UNL     1      15.274   1.797  16.495  1.00  0.00     0.127 C 
HETATM    2  C2  UNL     1      14.718   2.697  15.438  1.00  0.00     0.039 C 
HETATM    3  C3  UNL     1      14.881   4.159  15.864  1.00  0.00     0.002 C 
HETATM    4  C4  UNL     1      13.942   4.309  17.065  1.00  0.00     0.001 C 
HETATM    5  C5  UNL     1      14.530   3.512  18.183  1.00  0.00     0.007 C 
HETATM    6  C6  UNL     1      14.848   2.111  17.879  1.00  0.00     0.021 C 
HETATM    7  C7  UNL     1      13.606   1.246  17.625  1.00  0.00     0.009 C 
HETATM    8  C8  UNL     1      14.494   0.480  16.636  1.00  0.00     0.039 C 
ENDROOT
BRANCH   1   9
HETATM    9  N1  UNL     1      16.672   1.464  16.298  1.00  0.00    -0.070 N 
ATOM     10  H13 UNL     1      16.849   0.489  16.540  1.00  0.00     0.275 HD
ATOM     11  H12 UNL     1      16.900   1.437  15.304  1.00  0.00     0.275 HD
ATOM     12  H11 UNL     1      17.313   2.081  16.797  1.00  0.00     0.275 HD
ENDBRANCH   1   9
TORSDOF 1
ENDMDL
MODEL 4
REMARK VINA RESULT: -4.439056636      5.500      6.638
REMARK  1 active torsions:
REMARK  status: ('A' for Active; 'I' for Inactive)
REMARK    1  A    between atoms: N1_1  and  C1_5 
ROOT
HETATM    1  C1  UNL     1      17.275   1.095  11.786  1.00  0.00     0.127 C 
HETATM    2  C2  UNL     1      17.965   0.248  10.766  1.00  0.00     0.039 C 
HETATM    3  C3  UNL     1      19.481   0.335  10.960  1.00  0.00     0.002 C 
HETATM    4  C4  UNL     1      19.827   1.781  10.593  1.00  0.00     0.001 C 
HETATM    5  C5  UNL     1      19.249   2.653  11.659  1.00  0.00     0.007 C 
HETATM    6  C6  UNL     1      17.822   2.463  11.946  1.00  0.00     0.021 C 
HETATM    7  C7  UNL     1      16.907   2.894  10.792  1.00  0.00     0.009 C 
HETATM    8  C8  UNL     1      15.992   1.754  11.255  1.00  0.00     0.039 C 
ENDROOT
BRANCH   1   9
HETATM    9  N1  UNL     1      16.934   0.378  13.001  1.00  0.00    -0.070 N 
ATOM     10  H13 UNL     1      16.636   1.026  13.731  1.00  0.00     0.275 HD
ATOM     11  H12 UNL     1      16.070  -0.148  12.878  1.00  0.00     0.275 HD
ATOM     12  H11 UNL     1      17.680  -0.228  13.340  1.00  0.00     0.275 HD
ENDBRANCH   1   9
TORSDOF 1
ENDMDL
MODEL 5
REMARK VINA RESULT: -4.402338537      5.304      6.585
REMARK  1 active torsions:
REMARK  status: ('A' for Active; 'I' for Inactive)
REMARK    1  A    between atoms: N1_1  and  C1_5 
ROOT
HETATM    1  C1  UNL     1      17.138   1.889  11.964  1.00  0.00     0.127 C 
HETATM    2  C2  UNL     1      16.240   0.943  11.233  1.00  0.00     0.039 C 
HETATM    3  C3  UNL     1      16.855  -0.460  11.235  1.00  0.00     0.002 C 
HETATM    4  C4  UNL     1      18.106  -0.324  10.361  1.00  0.00     0.001 C 
HETATM    5  C5  UNL     1      19.076   0.525  11.115  1.00  0.00     0.007 C 
HETATM    6  C6  UNL     1      18.569   1.818  11.590  1.00  0.00     0.021 C 
HETATM    7  C7  UNL     1      18.255   2.802  10.455  1.00  0.00     0.009 C 
HETATM    8  C8  UNL     1      17.132   3.306  11.369  1.00  0.00     0.039 C 
ENDROOT
BRANCH   1   9
HETATM    9  N1  UNL     1      16.834   2.002  13.379  1.00  0.00    -0.070 N 
ATOM     10  H13 UNL     1      15.844   1.826  13.551  1.00  0.00     0.275 HD
ATOM     11  H12 UNL     1      17.238   1.223  13.898  1.00  0.00     0.275 HD
ATOM     12  H11 UNL     1      17.118   2.892  13.787  1.00  0.00     0.275 HD
ENDBRANCH   1   9
TORSDOF 1
ENDMDL
