MODEL 1
REMARK VINA RESULT: -9.351148342      0.000      0.000
REMARK  2 active torsions:
REMARK  status: ('A' for Active; 'I' for Inactive)
REMARK    1  A    between atoms: C4_7  and  S1_8 
REMARK    2  A    between atoms: S1_8  and  C5_9 
ROOT
HETATM    1  N1  UNL     1     -55.031 -44.033  33.925  1.00  0.00    -0.191 NA
HETATM    2  C1  UNL     1     -54.409 -44.819  33.340  1.00  0.00     0.106 C 
HETATM    3  C2  UNL     1     -53.625 -45.782  32.630  1.00  0.00     0.127 A 
HETATM    4  C3  UNL     1     -52.499 -45.425  31.914  1.00  0.00     0.118 A 
HETATM    5  N2  UNL     1     -51.757 -46.320  31.244  1.00  0.00    -0.345 N 
ATOM      6  H2  UNL     1     -50.932 -46.017  30.726  1.00  0.00     0.167 HD
HETATM    7  C4  UNL     1     -52.112 -47.635  31.260  1.00  0.00     0.152 A 
HETATM    8  N3  UNL     1     -53.193 -48.030  31.940  1.00  0.00    -0.302 N 
ATOM      9  H3  UNL     1     -53.455 -49.016  31.950  1.00  0.00     0.171 HD
HETATM   10  C11 UNL     1     -53.933 -47.135  32.608  1.00  0.00     0.269 A 
HETATM   11  O1  UNL     1     -54.968 -47.487  33.263  1.00  0.00    -0.266 OA
ENDROOT
BRANCH   7  12
HETATM   12  S1  UNL     1     -51.068 -48.786  30.342  1.00  0.00    -0.052 SA
BRANCH  12  13
HETATM   13  C5  UNL     1     -49.496 -48.047  29.942  1.00  0.00     0.032 A 
HETATM   14  C6  UNL     1     -48.454 -48.010  30.874  1.00  0.00     0.046 A 
HETATM   15  C7  UNL     1     -47.284 -47.424  30.493  1.00  0.00     0.057 A 
HETATM   16 CL1  UNL     1     -45.968 -47.365  31.637  1.00  0.00    -0.083 Cl
HETATM   17  C8  UNL     1     -47.109 -46.881  29.245  1.00  0.00     0.057 A 
HETATM   18 CL2  UNL     1     -45.579 -46.134  28.798  1.00  0.00    -0.082 Cl
HETATM   19  C9  UNL     1     -48.130 -46.921  28.344  1.00  0.00     0.051 A 
HETATM   20  C10 UNL     1     -49.332 -47.505  28.687  1.00  0.00     0.052 A 
HETATM   21 CL3  UNL     1     -50.600 -47.513  27.478  1.00  0.00    -0.083 Cl
ENDBRANCH  12  13
ENDBRANCH   7  12
TORSDOF 2
ENDMDL
MODEL 2
REMARK VINA RESULT: -8.296654458      6.335      9.378
REMARK  2 active torsions:
REMARK  status: ('A' for Active; 'I' for Inactive)
REMARK    1  A    between atoms: C4_7  and  S1_8 
REMARK    2  A    between atoms: S1_8  and  C5_9 
ROOT
HETATM    1  N1  UNL     1     -42.210 -52.496  25.213  1.00  0.00    -0.191 NA
HETATM    2  C1  UNL     1     -42.630 -51.575  25.780  1.00  0.00     0.106 C 
HETATM    3  C2  UNL     1     -43.129 -50.434  26.483  1.00  0.00     0.127 A 
HETATM    4  C3  UNL     1     -42.782 -50.173  27.795  1.00  0.00     0.118 A 
HETATM    5  N2  UNL     1     -43.244 -49.105  28.464  1.00  0.00    -0.345 N 
ATOM      6  H2  UNL     1     -42.965 -48.947  29.432  1.00  0.00     0.167 HD
HETATM    7  C4  UNL     1     -44.088 -48.235  27.843  1.00  0.00     0.152 A 
HETATM    8  N3  UNL     1     -44.453 -48.445  26.574  1.00  0.00    -0.302 N 
ATOM      9  H3  UNL     1     -45.085 -47.791  26.111  1.00  0.00     0.171 HD
HETATM   10  C11 UNL     1     -43.990 -49.511  25.907  1.00  0.00     0.269 A 
HETATM   11  O1  UNL     1     -44.324 -49.733  24.697  1.00  0.00    -0.266 OA
ENDROOT
BRANCH   7  12
HETATM   12  S1  UNL     1     -44.669 -46.819  28.798  1.00  0.00    -0.052 SA
BRANCH  12  13
HETATM   13  C5  UNL     1     -46.377 -47.019  29.267  1.00  0.00     0.032 A 
HETATM   14  C6  UNL     1     -47.372 -47.233  28.307  1.00  0.00     0.046 A 
HETATM   15  C7  UNL     1     -48.655 -47.373  28.745  1.00  0.00     0.057 A 
HETATM   16 CL1  UNL     1     -49.915 -47.641  27.569  1.00  0.00    -0.083 Cl
HETATM   17  C8  UNL     1     -48.985 -47.309  30.076  1.00  0.00     0.057 A 
HETATM   18 CL2  UNL     1     -50.658 -47.495  30.595  1.00  0.00    -0.082 Cl
HETATM   19  C9  UNL     1     -48.010 -47.100  31.004  1.00  0.00     0.051 A 
HETATM   20  C10 UNL     1     -46.698 -46.953  30.604  1.00  0.00     0.052 A 
HETATM   21 CL3  UNL     1     -45.500 -46.681  31.853  1.00  0.00    -0.083 Cl
ENDBRANCH  12  13
ENDBRANCH   7  12
TORSDOF 2
ENDMDL
MODEL 3
REMARK VINA RESULT: -8.105172857      6.216      9.319
REMARK  2 active torsions:
REMARK  status: ('A' for Active; 'I' for Inactive)
REMARK    1  A    between atoms: C4_7  and  S1_8 
REMARK    2  A    between atoms: S1_8  and  C5_9 
ROOT
HETATM    1  N1  UNL     1     -39.425 -50.289  28.639  1.00  0.00    -0.191 NA
HETATM    2  C1  UNL     1     -40.335 -49.575  28.729  1.00  0.00     0.106 C 
HETATM    3  C2  UNL     1     -41.453 -48.687  28.822  1.00  0.00     0.127 A 
HETATM    4  C3  UNL     1     -41.312 -47.318  28.698  1.00  0.00     0.118 A 
HETATM    5  N2  UNL     1     -42.353 -46.476  28.783  1.00  0.00    -0.345 N 
ATOM      6  H2  UNL     1     -42.209 -45.471  28.686  1.00  0.00     0.167 HD
HETATM    7  C4  UNL     1     -43.603 -46.972  29.000  1.00  0.00     0.152 A 
HETATM    8  N3  UNL     1     -43.790 -48.289  29.126  1.00  0.00    -0.302 N 
ATOM      9  H3  UNL     1     -44.728 -48.657  29.288  1.00  0.00     0.171 HD
HETATM   10  C11 UNL     1     -42.749 -49.129  29.041  1.00  0.00     0.269 A 
HETATM   11  O1  UNL     1     -42.902 -50.389  29.158  1.00  0.00    -0.266 OA
ENDROOT
BRANCH   7  12
HETATM   12  S1  UNL     1     -44.960 -45.785  29.100  1.00  0.00    -0.052 SA
BRANCH  12  13
HETATM   13  C5  UNL     1     -46.503 -46.603  29.454  1.00  0.00     0.032 A 
HETATM   14  C6  UNL     1     -47.439 -46.853  28.445  1.00  0.00     0.046 A 
HETATM   15  C7  UNL     1     -48.597 -47.481  28.797  1.00  0.00     0.057 A 
HETATM   16 CL1  UNL     1     -49.781 -47.805  27.558  1.00  0.00    -0.083 Cl
HETATM   17  C8  UNL     1     -48.859 -47.863  30.090  1.00  0.00     0.057 A 
HETATM   18 CL2  UNL     1     -50.370 -48.670  30.496  1.00  0.00    -0.082 Cl
HETATM   19  C9  UNL     1     -47.942 -47.615  31.065  1.00  0.00     0.051 A 
HETATM   20  C10 UNL     1     -46.756 -46.982  30.753  1.00  0.00     0.052 A 
HETATM   21 CL3  UNL     1     -45.628 -46.691  32.062  1.00  0.00    -0.083 Cl
ENDBRANCH  12  13
ENDBRANCH   7  12
TORSDOF 2
ENDMDL
MODEL 4
REMARK VINA RESULT: -8.082512417      6.558      9.613
REMARK  2 active torsions:
REMARK  status: ('A' for Active; 'I' for Inactive)
REMARK    1  A    between atoms: C4_7  and  S1_8 
REMARK    2  A    between atoms: S1_8  and  C5_9 
ROOT
HETATM    1  N1  UNL     1     -39.421 -50.105  28.676  1.00  0.00    -0.191 NA
HETATM    2  C1  UNL     1     -40.295 -49.345  28.746  1.00  0.00     0.106 C 
HETATM    3  C2  UNL     1     -41.376 -48.415  28.853  1.00  0.00     0.127 A 
HETATM    4  C3  UNL     1     -42.660 -48.817  29.168  1.00  0.00     0.118 A 
HETATM    5  N2  UNL     1     -43.681 -47.954  29.271  1.00  0.00    -0.345 N 
ATOM      6  H2  UNL     1     -44.615 -48.290  29.506  1.00  0.00     0.167 HD
HETATM    7  C4  UNL     1     -43.464 -46.626  29.059  1.00  0.00     0.152 A 
HETATM    8  N3  UNL     1     -42.239 -46.188  28.751  1.00  0.00    -0.302 N 
ATOM      9  H3  UNL     1     -42.080 -45.192  28.593  1.00  0.00     0.171 HD
HETATM   10  C11 UNL     1     -41.220 -47.052  28.649  1.00  0.00     0.269 A 
HETATM   11  O1  UNL     1     -40.043 -46.658  28.357  1.00  0.00    -0.266 OA
ENDROOT
BRANCH   7  12
HETATM   12  S1  UNL     1     -44.880 -45.518  29.216  1.00  0.00    -0.052 SA
BRANCH  12  13
HETATM   13  C5  UNL     1     -46.373 -46.431  29.554  1.00  0.00     0.032 A 
HETATM   14  C6  UNL     1     -47.309 -46.689  28.547  1.00  0.00     0.046 A 
HETATM   15  C7  UNL     1     -48.427 -47.391  28.885  1.00  0.00     0.057 A 
HETATM   16 CL1  UNL     1     -49.610 -47.726  27.648  1.00  0.00    -0.083 Cl
HETATM   17  C8  UNL     1     -48.651 -47.839  30.164  1.00  0.00     0.057 A 
HETATM   18 CL2  UNL     1     -50.112 -48.742  30.554  1.00  0.00    -0.082 Cl
HETATM   19  C9  UNL     1     -47.735 -47.583  31.138  1.00  0.00     0.051 A 
HETATM   20  C10 UNL     1     -46.588 -46.876  30.839  1.00  0.00     0.052 A 
HETATM   21 CL3  UNL     1     -45.459 -46.580  32.145  1.00  0.00    -0.083 Cl
ENDBRANCH  12  13
ENDBRANCH   7  12
TORSDOF 2
ENDMDL
MODEL 5
REMARK VINA RESULT: -7.878314310      6.166      9.370
REMARK  2 active torsions:
REMARK  status: ('A' for Active; 'I' for Inactive)
REMARK    1  A    between atoms: C4_7  and  S1_8 
REMARK    2  A    between atoms: S1_8  and  C5_9 
ROOT
HETATM    1  N1  UNL     1     -40.567 -49.859  25.251  1.00  0.00    -0.191 NA
HETATM    2  C1  UNL     1     -41.312 -49.232  25.882  1.00  0.00     0.106 C 
HETATM    3  C2  UNL     1     -42.225 -48.443  26.650  1.00  0.00     0.127 A 
HETATM    4  C3  UNL     1     -41.818 -47.321  27.346  1.00  0.00     0.118 A 
HETATM    5  N2  UNL     1     -42.665 -46.573  28.068  1.00  0.00    -0.345 N 
ATOM      6  H2  UNL     1     -42.326 -45.752  28.569  1.00  0.00     0.167 HD
HETATM    7  C4  UNL     1     -43.982 -46.918  28.129  1.00  0.00     0.152 A 
HETATM    8  N3  UNL     1     -44.425 -47.994  27.472  1.00  0.00    -0.302 N 
ATOM      9  H3  UNL     1     -45.412 -48.249  27.520  1.00  0.00     0.171 HD
HETATM   10  C11 UNL     1     -43.577 -48.740  26.751  1.00  0.00     0.269 A 
HETATM   11  O1  UNL     1     -43.975 -49.771  26.116  1.00  0.00    -0.266 OA
ENDROOT
BRANCH   7  12
HETATM   12  S1  UNL     1     -45.069 -45.867  29.116  1.00  0.00    -0.052 SA
BRANCH  12  13
HETATM   13  C5  UNL     1     -46.620 -46.681  29.446  1.00  0.00     0.032 A 
HETATM   14  C6  UNL     1     -47.568 -46.871  28.435  1.00  0.00     0.046 A 
HETATM   15  C7  UNL     1     -48.731 -47.499  28.768  1.00  0.00     0.057 A 
HETATM   16 CL1  UNL     1     -49.931 -47.748  27.526  1.00  0.00    -0.083 Cl
HETATM   17  C8  UNL     1     -48.988 -47.937  30.043  1.00  0.00     0.057 A 
HETATM   18 CL2  UNL     1     -50.506 -48.743  30.426  1.00  0.00    -0.082 Cl
HETATM   19  C9  UNL     1     -48.059 -47.748  31.021  1.00  0.00     0.051 A 
HETATM   20  C10 UNL     1     -46.867 -47.117  30.728  1.00  0.00     0.052 A 
HETATM   21 CL3  UNL     1     -45.724 -46.902  32.038  1.00  0.00    -0.083 Cl
ENDBRANCH  12  13
ENDBRANCH   7  12
TORSDOF 2
ENDMDL
