MODEL 1
REMARK VINA RESULT: -6.536842355      0.000      0.000
REMARK  5 active torsions:
REMARK  status: ('A' for Active; 'I' for Inactive)
REMARK    1  A    between atoms: N1_2  and  C3_4 
REMARK    2  A    between atoms: C3_4  and  C4_5 
REMARK    3  A    between atoms: C3_4  and  C17_21 
REMARK    4  A    between atoms: C4_5  and  C5_6 
REMARK       I    between atoms: C5_6  and  N2_8 
REMARK    5  A    between atoms: N2_8  and  C6_10 
ROOT
HETATM    1  C5  UNL     1      23.834  50.287   0.336  1.00  0.00     0.224 C 
HETATM    2  O1  UNL     1      24.643  50.914   1.044  1.00  0.00    -0.273 OA
HETATM    3  N2  UNL     1      24.038  50.155  -1.072  1.00  0.00    -0.351 N 
ATOM      4  H2  UNL     1      23.346  49.632  -1.609  1.00  0.00     0.163 HD
ENDROOT
BRANCH   3   5
HETATM    5  C6  UNL     1      25.153  50.712  -1.775  1.00  0.00     0.034 C 
HETATM    6  C7  UNL     1      25.291  52.202  -1.598  1.00  0.00     0.035 C 
HETATM    7  C8  UNL     1      26.462  52.687  -2.415  1.00  0.00    -0.012 C 
HETATM    8  C9  UNL     1      26.142  52.843  -3.879  1.00  0.00     0.005 C 
HETATM    9  C14 UNL     1      27.713  51.917  -2.229  1.00  0.00     0.009 C 
HETATM   10  C10 UNL     1      26.555  51.661  -4.711  1.00  0.00     0.005 C 
HETATM   11  C11 UNL     1      26.191  50.335  -4.063  1.00  0.00    -0.012 C 
HETATM   12  C12 UNL     1      27.369  49.712  -3.372  1.00  0.00     0.009 C 
HETATM   13  C16 UNL     1      24.969  50.411  -3.232  1.00  0.00     0.035 C 
HETATM   14  C13 UNL     1      27.570  50.451  -2.074  1.00  0.00    -0.012 C 
HETATM   15  C15 UNL     1      26.409  50.114  -1.197  1.00  0.00     0.035 C 
ENDBRANCH   3   5
BRANCH   1  16
HETATM   16  C4  UNL     1      22.660  49.678   0.948  1.00  0.00     0.165 C 
BRANCH  16  17
HETATM   17  C3  UNL     1      22.809  48.427   1.714  1.00  0.00     0.081 C 
BRANCH  17  18
HETATM   18  N1  UNL     1      23.937  47.622   1.606  1.00  0.00    -0.388 N 
HETATM   19  C1  UNL     1      24.150  46.665   0.612  1.00  0.00     0.149 C 
HETATM   20  C2  UNL     1      24.512  47.223   2.891  1.00  0.00     0.149 C 
ENDBRANCH  17  18
BRANCH  17  21
HETATM   21  C17 UNL     1      21.568  47.589   1.687  1.00  0.00     0.277 C 
HETATM   22  N3  UNL     1      21.263  46.647   2.685  1.00  0.00    -0.056 NA
HETATM   23  O2  UNL     1      20.778  47.744   0.732  1.00  0.00    -0.270 OA
ENDBRANCH  17  21
ENDBRANCH  16  17
ENDBRANCH   1  16
TORSDOF 5
ENDMDL
MODEL 2
REMARK VINA RESULT: -6.487780154      3.204      6.505
REMARK  5 active torsions:
REMARK  status: ('A' for Active; 'I' for Inactive)
REMARK    1  A    between atoms: N1_2  and  C3_4 
REMARK    2  A    between atoms: C3_4  and  C4_5 
REMARK    3  A    between atoms: C3_4  and  C17_21 
REMARK    4  A    between atoms: C4_5  and  C5_6 
REMARK       I    between atoms: C5_6  and  N2_8 
REMARK    5  A    between atoms: N2_8  and  C6_10 
ROOT
HETATM    1  C5  UNL     1      24.165  51.131  -3.614  1.00  0.00     0.224 C 
HETATM    2  O1  UNL     1      23.116  51.616  -3.149  1.00  0.00    -0.273 OA
HETATM    3  N2  UNL     1      25.080  50.421  -2.777  1.00  0.00    -0.351 N 
ATOM      4  H2  UNL     1      25.925  50.043  -3.204  1.00  0.00     0.163 HD
ENDROOT
BRANCH   3   5
HETATM    5  C6  UNL     1      24.883  50.209  -1.375  1.00  0.00     0.034 C 
HETATM    6  C7  UNL     1      26.046  49.528  -0.701  1.00  0.00     0.035 C 
HETATM    7  C8  UNL     1      25.713  49.313   0.753  1.00  0.00    -0.012 C 
HETATM    8  C9  UNL     1      24.821  48.122   0.988  1.00  0.00     0.005 C 
HETATM    9  C14 UNL     1      25.195  50.507   1.458  1.00  0.00     0.009 C 
HETATM   10  C10 UNL     1      23.366  48.481   1.115  1.00  0.00     0.005 C 
HETATM   11  C11 UNL     1      22.918  49.482   0.062  1.00  0.00    -0.012 C 
HETATM   12  C12 UNL     1      22.864  50.878   0.609  1.00  0.00     0.009 C 
HETATM   13  C16 UNL     1      23.661  49.356  -1.212  1.00  0.00     0.035 C 
HETATM   14  C13 UNL     1      24.282  51.384   0.688  1.00  0.00    -0.012 C 
HETATM   15  C15 UNL     1      24.760  51.558  -0.716  1.00  0.00     0.035 C 
ENDBRANCH   3   5
BRANCH   1  16
HETATM   16  C4  UNL     1      24.467  51.289  -5.030  1.00  0.00     0.165 C 
BRANCH  16  17
HETATM   17  C3  UNL     1      25.184  50.215  -5.742  1.00  0.00     0.081 C 
BRANCH  17  18
HETATM   18  N1  UNL     1      26.571  50.163  -5.800  1.00  0.00    -0.388 N 
HETATM   19  C1  UNL     1      27.361  49.139  -5.275  1.00  0.00     0.149 C 
HETATM   20  C2  UNL     1      27.222  51.470  -5.702  1.00  0.00     0.149 C 
ENDBRANCH  17  18
BRANCH  17  21
HETATM   21  C17 UNL     1      24.596  49.930  -7.090  1.00  0.00     0.277 C 
HETATM   22  N3  UNL     1      24.102  50.939  -7.934  1.00  0.00    -0.056 NA
HETATM   23  O2  UNL     1      24.548  48.740  -7.468  1.00  0.00    -0.270 OA
ENDBRANCH  17  21
ENDBRANCH  16  17
ENDBRANCH   1  16
TORSDOF 5
ENDMDL
MODEL 3
REMARK VINA RESULT: -6.393949434      1.834      2.954
REMARK  5 active torsions:
REMARK  status: ('A' for Active; 'I' for Inactive)
REMARK    1  A    between atoms: N1_2  and  C3_4 
REMARK    2  A    between atoms: C3_4  and  C4_5 
REMARK    3  A    between atoms: C3_4  and  C17_21 
REMARK    4  A    between atoms: C4_5  and  C5_6 
REMARK       I    between atoms: C5_6  and  N2_8 
REMARK    5  A    between atoms: N2_8  and  C6_10 
ROOT
HETATM    1  C5  UNL     1      24.334  47.864   1.071  1.00  0.00     0.224 C 
HETATM    2  O1  UNL     1      23.426  47.561   0.275  1.00  0.00    -0.273 OA
HETATM    3  N2  UNL     1      25.134  49.030   0.863  1.00  0.00    -0.351 N 
ATOM      4  H2  UNL     1      25.866  49.235   1.543  1.00  0.00     0.163 HD
ENDROOT
BRANCH   3   5
HETATM    5  C6  UNL     1      24.971  49.926  -0.240  1.00  0.00     0.034 C 
HETATM    6  C7  UNL     1      23.597  49.876  -0.857  1.00  0.00     0.035 C 
HETATM    7  C8  UNL     1      23.552  50.819  -2.032  1.00  0.00    -0.012 C 
HETATM    8  C9  UNL     1      24.181  50.249  -3.276  1.00  0.00     0.005 C 
HETATM    9  C14 UNL     1      24.064  52.181  -1.759  1.00  0.00     0.009 C 
HETATM   10  C10 UNL     1      25.605  50.688  -3.481  1.00  0.00     0.005 C 
HETATM   11  C11 UNL     1      26.424  50.627  -2.203  1.00  0.00    -0.012 C 
HETATM   12  C12 UNL     1      26.556  51.977  -1.561  1.00  0.00     0.009 C 
HETATM   13  C16 UNL     1      25.984  49.556  -1.281  1.00  0.00     0.035 C 
HETATM   14  C13 UNL     1      25.248  52.276  -0.874  1.00  0.00    -0.012 C 
HETATM   15  C15 UNL     1      25.136  51.331   0.278  1.00  0.00     0.035 C 
ENDBRANCH   3   5
BRANCH   1  16
HETATM   16  C4  UNL     1      24.588  47.021   2.231  1.00  0.00     0.165 C 
BRANCH  16  17
HETATM   17  C3  UNL     1      23.585  46.949   3.309  1.00  0.00     0.081 C 
BRANCH  17  18
HETATM   18  N1  UNL     1      23.932  46.688   4.628  1.00  0.00    -0.388 N 
HETATM   19  C1  UNL     1      23.489  47.413   5.736  1.00  0.00     0.149 C 
HETATM   20  C2  UNL     1      25.301  46.198   4.800  1.00  0.00     0.149 C 
ENDBRANCH  17  18
BRANCH  17  21
HETATM   21  C17 UNL     1      22.383  46.143   2.919  1.00  0.00     0.277 C 
HETATM   22  N3  UNL     1      21.141  46.727   2.615  1.00  0.00    -0.056 NA
HETATM   23  O2  UNL     1      22.504  44.901   2.866  1.00  0.00    -0.270 OA
ENDBRANCH  17  21
ENDBRANCH  16  17
ENDBRANCH   1  16
TORSDOF 5
ENDMDL
MODEL 4
REMARK VINA RESULT: -6.392504719      1.436      2.122
REMARK  5 active torsions:
REMARK  status: ('A' for Active; 'I' for Inactive)
REMARK    1  A    between atoms: N1_2  and  C3_4 
REMARK    2  A    between atoms: C3_4  and  C4_5 
REMARK    3  A    between atoms: C3_4  and  C17_21 
REMARK    4  A    between atoms: C4_5  and  C5_6 
REMARK       I    between atoms: C5_6  and  N2_8 
REMARK    5  A    between atoms: N2_8  and  C6_10 
ROOT
HETATM    1  C5  UNL     1      24.303  49.620   0.637  1.00  0.00     0.224 C 
HETATM    2  O1  UNL     1      23.518  50.555   0.885  1.00  0.00    -0.273 OA
HETATM    3  N2  UNL     1      25.035  49.581  -0.589  1.00  0.00    -0.351 N 
ATOM      4  H2  UNL     1      25.666  48.795  -0.744  1.00  0.00     0.163 HD
ENDROOT
BRANCH   3   5
HETATM    5  C6  UNL     1      24.938  50.577  -1.612  1.00  0.00     0.034 C 
HETATM    6  C7  UNL     1      23.558  50.695  -2.205  1.00  0.00     0.035 C 
HETATM    7  C8  UNL     1      23.581  51.734  -3.298  1.00  0.00    -0.012 C 
HETATM    8  C9  UNL     1      24.146  51.218  -4.596  1.00  0.00     0.005 C 
HETATM    9  C14 UNL     1      24.211  53.019  -2.923  1.00  0.00     0.009 C 
HETATM   10  C10 UNL     1      25.600  51.551  -4.790  1.00  0.00     0.005 C 
HETATM   11  C11 UNL     1      26.424  51.314  -3.535  1.00  0.00    -0.012 C 
HETATM   12  C12 UNL     1      26.678  52.590  -2.787  1.00  0.00     0.009 C 
HETATM   13  C16 UNL     1      25.904  50.211  -2.697  1.00  0.00     0.035 C 
HETATM   14  C13 UNL     1      25.408  52.940  -2.054  1.00  0.00    -0.012 C 
HETATM   15  C15 UNL     1      25.228  51.915  -0.983  1.00  0.00     0.035 C 
ENDBRANCH   3   5
BRANCH   1  16
HETATM   16  C4  UNL     1      24.480  48.550   1.610  1.00  0.00     0.165 C 
BRANCH  16  17
HETATM   17  C3  UNL     1      23.308  47.773   2.054  1.00  0.00     0.081 C 
BRANCH  17  18
HETATM   18  N1  UNL     1      23.433  46.603   2.792  1.00  0.00    -0.388 N 
HETATM   19  C1  UNL     1      22.369  45.840   3.277  1.00  0.00     0.149 C 
HETATM   20  C2  UNL     1      24.584  46.586   3.696  1.00  0.00     0.149 C 
ENDBRANCH  17  18
BRANCH  17  21
HETATM   21  C17 UNL     1      22.293  47.597   0.966  1.00  0.00     0.277 C 
HETATM   22  N3  UNL     1      20.936  47.920   1.132  1.00  0.00    -0.056 NA
HETATM   23  O2  UNL     1      22.684  47.143  -0.129  1.00  0.00    -0.270 OA
ENDBRANCH  17  21
ENDBRANCH  16  17
ENDBRANCH   1  16
TORSDOF 5
ENDMDL
MODEL 5
REMARK VINA RESULT: -6.379618217      3.120      6.713
REMARK  5 active torsions:
REMARK  status: ('A' for Active; 'I' for Inactive)
REMARK    1  A    between atoms: N1_2  and  C3_4 
REMARK    2  A    between atoms: C3_4  and  C4_5 
REMARK    3  A    between atoms: C3_4  and  C17_21 
REMARK    4  A    between atoms: C4_5  and  C5_6 
REMARK       I    between atoms: C5_6  and  N2_8 
REMARK    5  A    between atoms: N2_8  and  C6_10 
ROOT
HETATM    1  C5  UNL     1      24.034  51.105  -3.772  1.00  0.00     0.224 C 
HETATM    2  O1  UNL     1      23.001  51.601  -3.285  1.00  0.00    -0.273 OA
HETATM    3  N2  UNL     1      24.981  50.422  -2.949  1.00  0.00    -0.351 N 
ATOM      4  H2  UNL     1      25.810  50.032  -3.396  1.00  0.00     0.163 HD
ENDROOT
BRANCH   3   5
HETATM    5  C6  UNL     1      24.835  50.250  -1.535  1.00  0.00     0.034 C 
HETATM    6  C7  UNL     1      26.040  49.628  -0.879  1.00  0.00     0.035 C 
HETATM    7  C8  UNL     1      25.761  49.451   0.593  1.00  0.00    -0.012 C 
HETATM    8  C9  UNL     1      24.913  48.244   0.896  1.00  0.00     0.005 C 
HETATM    9  C14 UNL     1      25.229  50.653   1.274  1.00  0.00     0.009 C 
HETATM   10  C10 UNL     1      23.453  48.563   1.059  1.00  0.00     0.005 C 
HETATM   11  C11 UNL     1      22.941  49.514  -0.011  1.00  0.00    -0.012 C 
HETATM   12  C12 UNL     1      22.862  50.926   0.492  1.00  0.00     0.009 C 
HETATM   13  C16 UNL     1      23.646  49.368  -1.304  1.00  0.00     0.035 C 
HETATM   14  C13 UNL     1      24.265  51.476   0.507  1.00  0.00    -0.012 C 
HETATM   15  C15 UNL     1      24.693  51.617  -0.917  1.00  0.00     0.035 C 
ENDBRANCH   3   5
BRANCH   1  16
HETATM   16  C4  UNL     1      24.284  51.221  -5.203  1.00  0.00     0.165 C 
BRANCH  16  17
HETATM   17  C3  UNL     1      25.619  50.889  -5.735  1.00  0.00     0.081 C 
BRANCH  17  18
HETATM   18  N1  UNL     1      26.357  51.788  -6.494  1.00  0.00    -0.388 N 
HETATM   19  C1  UNL     1      27.622  52.274  -6.161  1.00  0.00     0.149 C 
HETATM   20  C2  UNL     1      25.546  52.787  -7.193  1.00  0.00     0.149 C 
ENDBRANCH  17  18
BRANCH  17  21
HETATM   21  C17 UNL     1      25.666  49.525  -6.352  1.00  0.00     0.277 C 
HETATM   22  N3  UNL     1      24.671  49.048  -7.223  1.00  0.00    -0.056 NA
HETATM   23  O2  UNL     1      26.636  48.790  -6.073  1.00  0.00    -0.270 OA
ENDBRANCH  17  21
ENDBRANCH  16  17
ENDBRANCH   1  16
TORSDOF 5
ENDMDL
