MODEL 1
REMARK VINA RESULT: -6.714355648      0.000      0.000
REMARK  10 active torsions:
REMARK  status: ('A' for Active; 'I' for Inactive)
REMARK    1  A    between atoms: O1_2  and  C2_3 
REMARK    2  A    between atoms: C4_5  and  C5_6 
REMARK    3  A    between atoms: C11_19  and  O5_20 
REMARK    4  A    between atoms: O5_20  and  C12_21 
REMARK    5  A    between atoms: C12_21  and  C13_23 
REMARK    6  A    between atoms: C13_23  and  O8_25 
REMARK    7  A    between atoms: O8_25  and  C14_26 
REMARK    8  A    between atoms: C14_26  and  C16_30 
REMARK    9  A    between atoms: C15_27  and  O9_28 
REMARK   10  A    between atoms: C17_33  and  O12_34 
ROOT
HETATM    1  C2  UNL     1      -8.306  13.838   8.855  1.00  0.00     0.105 A 
HETATM    2  C3  UNL     1      -7.263  13.510   9.694  1.00  0.00     0.051 A 
HETATM    3  C4  UNL     1      -5.972  13.663   9.246  1.00  0.00    -0.030 A 
HETATM    4  C10 UNL     1      -5.744  14.150   7.944  1.00  0.00     0.052 A 
HETATM    5  C11 UNL     1      -6.795  14.473   7.119  1.00  0.00     0.116 A 
HETATM    6  C17 UNL     1      -8.089  14.322   7.559  1.00  0.00     0.135 A 
ENDROOT
BRANCH   5   7
HETATM    7  O5  UNL     1      -6.597  14.954   5.834  1.00  0.00    -0.268 OA
BRANCH   7   8
HETATM    8  C12 UNL     1      -5.763  16.033   5.592  1.00  0.00     0.364 C 
HETATM    9  O6  UNL     1      -4.539  15.842   5.389  1.00  0.00    -0.253 OA
BRANCH   8  10
HETATM   10  C13 UNL     1      -6.237  17.411   5.559  1.00  0.00     0.365 C 
HETATM   11  O7  UNL     1      -7.487  17.624   5.622  1.00  0.00    -0.253 OA
BRANCH  10  12
HETATM   12  O8  UNL     1      -5.410  18.496   5.463  1.00  0.00    -0.262 OA
BRANCH  12  13
HETATM   13  C14 UNL     1      -5.225  19.237   4.292  1.00  0.00     0.177 C 
HETATM   14  C15 UNL     1      -4.332  18.902   3.385  1.00  0.00     0.175 C 
BRANCH  14  15
HETATM   15  O9  UNL     1      -3.559  17.766   3.622  1.00  0.00    -0.370 OA
ATOM     16  H9  UNL     1      -3.062  17.408   2.895  1.00  0.00     0.216 HD
ENDBRANCH  14  15
BRANCH  13  17
HETATM   17  C16 UNL     1      -6.055  20.404   4.099  1.00  0.00     0.236 C 
HETATM   18  O10 UNL     1      -5.773  21.499   4.635  1.00  0.00    -0.642 OA
HETATM   19  O11 UNL     1      -7.182  20.308   3.307  1.00  0.00    -0.642 OA
ENDBRANCH  13  17
ENDBRANCH  12  13
ENDBRANCH  10  12
ENDBRANCH   8  10
ENDBRANCH   7   8
ENDBRANCH   5   7
BRANCH   6  20
HETATM   20  O12 UNL     1      -9.120  14.650   6.720  1.00  0.00    -0.351 OA
HETATM   21  C18 UNL     1      -9.951  15.761   6.761  1.00  0.00     0.210 C 
ENDBRANCH   6  20
BRANCH   3  22
HETATM   22  C5  UNL     1      -4.850  13.324  10.061  1.00  0.00     0.034 C 
HETATM   23  C6  UNL     1      -4.151  12.238  10.194  1.00  0.00     0.101 A 
HETATM   24  C7  UNL     1      -4.364  10.999   9.471  1.00  0.00     0.265 A 
HETATM   25  C9  UNL     1      -3.045  12.191  11.187  1.00  0.00     0.265 A 
HETATM   26  O2  UNL     1      -5.254  10.880   8.597  1.00  0.00    -0.267 OA
HETATM   27  N1  UNL     1      -3.571   9.840   9.705  1.00  0.00    -0.275 N 
HETATM   28  C8  UNL     1      -2.530   9.838  10.658  1.00  0.00     0.329 A 
ATOM     29  H1  UNL     1      -3.760   8.991   9.172  1.00  0.00     0.173 HD
HETATM   30  O3  UNL     1      -1.843   8.777  10.837  1.00  0.00    -0.246 OA
HETATM   31  N2  UNL     1      -2.287  11.020  11.383  1.00  0.00    -0.275 N 
ATOM     32  H2  UNL     1      -1.536  11.028  12.074  1.00  0.00     0.173 HD
HETATM   33  O4  UNL     1      -2.778  13.218  11.867  1.00  0.00    -0.267 OA
ENDBRANCH   3  22
BRANCH   1  34
HETATM   34  O1  UNL     1      -9.637  13.701   9.258  1.00  0.00    -0.353 OA
HETATM   35  C1  UNL     1      -9.975  13.118  10.485  1.00  0.00     0.210 C 
ENDBRANCH   1  34
TORSDOF 10
ENDMDL
MODEL 2
REMARK VINA RESULT: -6.697455229      1.722      2.366
REMARK  10 active torsions:
REMARK  status: ('A' for Active; 'I' for Inactive)
REMARK    1  A    between atoms: O1_2  and  C2_3 
REMARK    2  A    between atoms: C4_5  and  C5_6 
REMARK    3  A    between atoms: C11_19  and  O5_20 
REMARK    4  A    between atoms: O5_20  and  C12_21 
REMARK    5  A    between atoms: C12_21  and  C13_23 
REMARK    6  A    between atoms: C13_23  and  O8_25 
REMARK    7  A    between atoms: O8_25  and  C14_26 
REMARK    8  A    between atoms: C14_26  and  C16_30 
REMARK    9  A    between atoms: C15_27  and  O9_28 
REMARK   10  A    between atoms: C17_33  and  O12_34 
ROOT
HETATM    1  C2  UNL     1      -8.273  11.696   9.058  1.00  0.00     0.105 A 
HETATM    2  C3  UNL     1      -7.306  10.903   9.636  1.00  0.00     0.051 A 
HETATM    3  C4  UNL     1      -5.999  11.041   9.230  1.00  0.00    -0.030 A 
HETATM    4  C10 UNL     1      -5.678  11.987   8.238  1.00  0.00     0.052 A 
HETATM    5  C11 UNL     1      -6.654  12.771   7.671  1.00  0.00     0.116 A 
HETATM    6  C17 UNL     1      -7.963  12.639   8.070  1.00  0.00     0.135 A 
ENDROOT
BRANCH   5   7
HETATM    7  O5  UNL     1      -6.364  13.709   6.693  1.00  0.00    -0.268 OA
BRANCH   7   8
HETATM    8  C12 UNL     1      -5.880  14.964   7.023  1.00  0.00     0.364 C 
HETATM    9  O6  UNL     1      -5.128  15.100   8.019  1.00  0.00    -0.253 OA
BRANCH   8  10
HETATM   10  C13 UNL     1      -6.202  16.165   6.262  1.00  0.00     0.365 C 
HETATM   11  O7  UNL     1      -7.345  16.248   5.716  1.00  0.00    -0.253 OA
BRANCH  10  12
HETATM   12  O8  UNL     1      -5.341  17.214   6.100  1.00  0.00    -0.262 OA
BRANCH  12  13
HETATM   13  C14 UNL     1      -4.915  17.692   4.857  1.00  0.00     0.177 C 
HETATM   14  C15 UNL     1      -4.218  16.949   4.023  1.00  0.00     0.175 C 
BRANCH  14  15
HETATM   15  O9  UNL     1      -3.907  15.647   4.415  1.00  0.00    -0.370 OA
ATOM     16  H9  UNL     1      -3.095  15.270   4.097  1.00  0.00     0.216 HD
ENDBRANCH  14  15
BRANCH  13  17
HETATM   17  C16 UNL     1      -5.267  19.049   4.503  1.00  0.00     0.236 C 
HETATM   18  O10 UNL     1      -5.815  19.814   5.327  1.00  0.00    -0.642 OA
HETATM   19  O11 UNL     1      -4.991  19.508   3.230  1.00  0.00    -0.642 OA
ENDBRANCH  13  17
ENDBRANCH  12  13
ENDBRANCH  10  12
ENDBRANCH   8  10
ENDBRANCH   7   8
ENDBRANCH   5   7
BRANCH   6  20
HETATM   20  O12 UNL     1      -8.919  13.431   7.492  1.00  0.00    -0.351 OA
HETATM   21  C18 UNL     1      -9.503  14.587   7.989  1.00  0.00     0.210 C 
ENDBRANCH   6  20
BRANCH   3  22
HETATM   22  C5  UNL     1      -4.955  10.235   9.778  1.00  0.00     0.034 C 
HETATM   23  C6  UNL     1      -4.054  10.456  10.688  1.00  0.00     0.101 A 
HETATM   24  C7  UNL     1      -3.887  11.687  11.435  1.00  0.00     0.265 A 
HETATM   25  C9  UNL     1      -3.056   9.400  11.006  1.00  0.00     0.265 A 
HETATM   26  O2  UNL     1      -4.651  12.669  11.284  1.00  0.00    -0.267 OA
HETATM   27  N1  UNL     1      -2.847  11.858  12.392  1.00  0.00    -0.275 N 
HETATM   28  C8  UNL     1      -1.919  10.829  12.665  1.00  0.00     0.329 A 
ATOM     29  H1  UNL     1      -2.770  12.743  12.891  1.00  0.00     0.173 HD
HETATM   30  O3  UNL     1      -1.002  11.023  13.530  1.00  0.00    -0.246 OA
HETATM   31  N2  UNL     1      -2.044   9.615  11.963  1.00  0.00    -0.275 N 
ATOM     32  H2  UNL     1      -1.379   8.866  12.154  1.00  0.00     0.173 HD
HETATM   33  O4  UNL     1      -3.116   8.290  10.412  1.00  0.00    -0.267 OA
ENDBRANCH   3  22
BRANCH   1  34
HETATM   34  O1  UNL     1      -9.616  11.597   9.431  1.00  0.00    -0.353 OA
HETATM   35  C1  UNL     1     -10.031  11.845  10.745  1.00  0.00     0.210 C 
ENDBRANCH   1  34
TORSDOF 10
ENDMDL
MODEL 3
REMARK VINA RESULT: -6.671715679      3.744      9.742
REMARK  10 active torsions:
REMARK  status: ('A' for Active; 'I' for Inactive)
REMARK    1  A    between atoms: O1_2  and  C2_3 
REMARK    2  A    between atoms: C4_5  and  C5_6 
REMARK    3  A    between atoms: C11_19  and  O5_20 
REMARK    4  A    between atoms: O5_20  and  C12_21 
REMARK    5  A    between atoms: C12_21  and  C13_23 
REMARK    6  A    between atoms: C13_23  and  O8_25 
REMARK    7  A    between atoms: O8_25  and  C14_26 
REMARK    8  A    between atoms: C14_26  and  C16_30 
REMARK    9  A    between atoms: C15_27  and  O9_28 
REMARK   10  A    between atoms: C17_33  and  O12_34 
ROOT
HETATM    1  C2  UNL     1      -6.320   9.149  12.372  1.00  0.00     0.105 A 
HETATM    2  C3  UNL     1      -6.221  10.426  11.865  1.00  0.00     0.051 A 
HETATM    3  C4  UNL     1      -5.155  10.743  11.056  1.00  0.00    -0.030 A 
HETATM    4  C10 UNL     1      -4.191   9.758  10.763  1.00  0.00     0.052 A 
HETATM    5  C11 UNL     1      -4.305   8.488  11.276  1.00  0.00     0.116 A 
HETATM    6  C17 UNL     1      -5.367   8.163  12.086  1.00  0.00     0.135 A 
ENDROOT
BRANCH   5   7
HETATM    7  O5  UNL     1      -3.370   7.501  11.003  1.00  0.00    -0.268 OA
BRANCH   7   8
HETATM    8  C12 UNL     1      -2.052   7.628  11.410  1.00  0.00     0.364 C 
HETATM    9  O6  UNL     1      -1.190   8.060  10.605  1.00  0.00    -0.253 OA
BRANCH   8  10
HETATM   10  C13 UNL     1      -1.598   7.281  12.751  1.00  0.00     0.365 C 
HETATM   11  O7  UNL     1      -1.543   6.055  13.073  1.00  0.00    -0.253 OA
BRANCH  10  12
HETATM   12  O8  UNL     1      -1.225   8.204  13.688  1.00  0.00    -0.262 OA
BRANCH  12  13
HETATM   13  C14 UNL     1      -1.994   9.318  14.038  1.00  0.00     0.177 C 
HETATM   14  C15 UNL     1      -1.827  10.492  13.465  1.00  0.00     0.175 C 
BRANCH  14  15
HETATM   15  O9  UNL     1      -0.846  10.602  12.480  1.00  0.00    -0.370 OA
ATOM     16  H9  UNL     1      -0.362  11.417  12.426  1.00  0.00     0.216 HD
ENDBRANCH  14  15
BRANCH  13  17
HETATM   17  C16 UNL     1      -2.997   9.146  15.064  1.00  0.00     0.236 C 
HETATM   18  O10 UNL     1      -2.854   8.302  15.977  1.00  0.00    -0.642 OA
HETATM   19  O11 UNL     1      -4.134   9.929  15.036  1.00  0.00    -0.642 OA
ENDBRANCH  13  17
ENDBRANCH  12  13
ENDBRANCH  10  12
ENDBRANCH   8  10
ENDBRANCH   7   8
ENDBRANCH   5   7
BRANCH   6  20
HETATM   20  O12 UNL     1      -5.460   6.892  12.585  1.00  0.00    -0.351 OA
HETATM   21  C18 UNL     1      -5.054   6.417  13.825  1.00  0.00     0.210 C 
ENDBRANCH   6  20
BRANCH   3  22
HETATM   22  C5  UNL     1      -4.986  12.054  10.516  1.00  0.00     0.034 C 
HETATM   23  C6  UNL     1      -5.488  12.652   9.478  1.00  0.00     0.101 A 
HETATM   24  C7  UNL     1      -6.431  12.075   8.540  1.00  0.00     0.265 A 
HETATM   25  C9  UNL     1      -5.066  14.040   9.153  1.00  0.00     0.265 A 
HETATM   26  O2  UNL     1      -6.885  10.915   8.678  1.00  0.00    -0.267 OA
HETATM   27  N1  UNL     1      -6.904  12.791   7.403  1.00  0.00    -0.275 N 
HETATM   28  C8  UNL     1      -6.477  14.109   7.131  1.00  0.00     0.329 A 
ATOM     29  H1  UNL     1      -7.566  12.341   6.771  1.00  0.00     0.173 HD
HETATM   30  O3  UNL     1      -6.926  14.716   6.102  1.00  0.00    -0.246 OA
HETATM   31  N2  UNL     1      -5.563  14.709   8.017  1.00  0.00    -0.275 N 
ATOM     32  H2  UNL     1      -5.248  15.662   7.829  1.00  0.00     0.173 HD
HETATM   33  O4  UNL     1      -4.248  14.633   9.908  1.00  0.00    -0.267 OA
ENDBRANCH   3  22
BRANCH   1  34
HETATM   34  O1  UNL     1      -7.382   8.773  13.198  1.00  0.00    -0.353 OA
HETATM   35  C1  UNL     1      -7.595   9.383  14.440  1.00  0.00     0.210 C 
ENDBRANCH   1  34
TORSDOF 10
ENDMDL
MODEL 4
REMARK VINA RESULT: -6.560780327      4.512      8.979
REMARK  10 active torsions:
REMARK  status: ('A' for Active; 'I' for Inactive)
REMARK    1  A    between atoms: O1_2  and  C2_3 
REMARK    2  A    between atoms: C4_5  and  C5_6 
REMARK    3  A    between atoms: C11_19  and  O5_20 
REMARK    4  A    between atoms: O5_20  and  C12_21 
REMARK    5  A    between atoms: C12_21  and  C13_23 
REMARK    6  A    between atoms: C13_23  and  O8_25 
REMARK    7  A    between atoms: O8_25  and  C14_26 
REMARK    8  A    between atoms: C14_26  and  C16_30 
REMARK    9  A    between atoms: C15_27  and  O9_28 
REMARK   10  A    between atoms: C17_33  and  O12_34 
ROOT
HETATM    1  C2  UNL     1      -8.100  10.907  11.969  1.00  0.00     0.105 A 
HETATM    2  C3  UNL     1      -8.955  11.401  11.008  1.00  0.00     0.051 A 
HETATM    3  C4  UNL     1      -8.493  11.565   9.723  1.00  0.00    -0.030 A 
HETATM    4  C10 UNL     1      -7.161  11.226   9.417  1.00  0.00     0.052 A 
HETATM    5  C11 UNL     1      -6.321  10.733  10.387  1.00  0.00     0.116 A 
HETATM    6  C17 UNL     1      -6.774  10.567  11.674  1.00  0.00     0.135 A 
ENDROOT
BRANCH   5   7
HETATM    7  O5  UNL     1      -5.005  10.392  10.112  1.00  0.00    -0.268 OA
BRANCH   7   8
HETATM    8  C12 UNL     1      -4.057  11.360   9.825  1.00  0.00     0.364 C 
HETATM    9  O6  UNL     1      -4.120  11.992   8.742  1.00  0.00    -0.253 OA
BRANCH   8  10
HETATM   10  C13 UNL     1      -2.964  11.694  10.729  1.00  0.00     0.365 C 
HETATM   11  O7  UNL     1      -3.023  12.788  11.372  1.00  0.00    -0.253 OA
BRANCH  10  12
HETATM   12  O8  UNL     1      -1.872  10.896  10.928  1.00  0.00    -0.262 OA
BRANCH  12  13
HETATM   13  C14 UNL     1      -1.846   9.813  11.812  1.00  0.00     0.177 C 
HETATM   14  C15 UNL     1      -1.551   9.956  13.087  1.00  0.00     0.175 C 
BRANCH  14  15
HETATM   15  O9  UNL     1      -1.261  11.239  13.548  1.00  0.00    -0.370 OA
ATOM     16  H9  UNL     1      -0.699  11.320  14.309  1.00  0.00     0.216 HD
ENDBRANCH  14  15
BRANCH  13  17
HETATM   17  C16 UNL     1      -2.157   8.505  11.279  1.00  0.00     0.236 C 
HETATM   18  O10 UNL     1      -1.384   7.926  10.484  1.00  0.00    -0.642 OA
HETATM   19  O11 UNL     1      -3.331   7.885  11.656  1.00  0.00    -0.642 OA
ENDBRANCH  13  17
ENDBRANCH  12  13
ENDBRANCH  10  12
ENDBRANCH   8  10
ENDBRANCH   7   8
ENDBRANCH   5   7
BRANCH   6  20
HETATM   20  O12 UNL     1      -5.919  10.076  12.624  1.00  0.00    -0.351 OA
HETATM   21  C18 UNL     1      -5.151  10.776  13.544  1.00  0.00     0.210 C 
ENDBRANCH   6  20
BRANCH   3  22
HETATM   22  C5  UNL     1      -9.325  12.089   8.688  1.00  0.00     0.034 C 
HETATM   23  C6  UNL     1      -9.591  13.298   8.295  1.00  0.00     0.101 A 
HETATM   24  C7  UNL     1      -9.046  14.514   8.867  1.00  0.00     0.265 A 
HETATM   25  C9  UNL     1     -10.560  13.517   7.188  1.00  0.00     0.265 A 
HETATM   26  O2  UNL     1      -8.214  14.497   9.804  1.00  0.00    -0.267 OA
HETATM   27  N1  UNL     1      -9.421  15.806   8.398  1.00  0.00    -0.275 N 
HETATM   28  C8  UNL     1     -10.345  15.969   7.344  1.00  0.00     0.329 A 
ATOM     29  H1  UNL     1      -9.011  16.632   8.834  1.00  0.00     0.173 HD
HETATM   30  O3  UNL     1     -10.653  17.145   6.953  1.00  0.00    -0.246 OA
HETATM   31  N2  UNL     1     -10.898  14.815   6.758  1.00  0.00    -0.275 N 
ATOM     32  H2  UNL     1     -11.567  14.922   5.995  1.00  0.00     0.173 HD
HETATM   33  O4  UNL     1     -11.089  12.523   6.622  1.00  0.00    -0.267 OA
ENDBRANCH   3  22
BRANCH   1  34
HETATM   34  O1  UNL     1      -8.516  10.721  13.289  1.00  0.00    -0.353 OA
HETATM   35  C1  UNL     1      -8.728  11.805  14.150  1.00  0.00     0.210 C 
ENDBRANCH   1  34
TORSDOF 10
ENDMDL
MODEL 5
REMARK VINA RESULT: -6.512852154      2.641      6.650
REMARK  10 active torsions:
REMARK  status: ('A' for Active; 'I' for Inactive)
REMARK    1  A    between atoms: O1_2  and  C2_3 
REMARK    2  A    between atoms: C4_5  and  C5_6 
REMARK    3  A    between atoms: C11_19  and  O5_20 
REMARK    4  A    between atoms: O5_20  and  C12_21 
REMARK    5  A    between atoms: C12_21  and  C13_23 
REMARK    6  A    between atoms: C13_23  and  O8_25 
REMARK    7  A    between atoms: O8_25  and  C14_26 
REMARK    8  A    between atoms: C14_26  and  C16_30 
REMARK    9  A    between atoms: C15_27  and  O9_28 
REMARK   10  A    between atoms: C17_33  and  O12_34 
ROOT
HETATM    1  C2  UNL     1      -6.885  15.829   6.055  1.00  0.00     0.105 A 
HETATM    2  C3  UNL     1      -6.296  14.652   6.463  1.00  0.00     0.051 A 
HETATM    3  C4  UNL     1      -7.022  13.772   7.231  1.00  0.00    -0.030 A 
HETATM    4  C10 UNL     1      -8.348  14.092   7.584  1.00  0.00     0.052 A 
HETATM    5  C11 UNL     1      -8.921  15.270   7.169  1.00  0.00     0.116 A 
HETATM    6  C17 UNL     1      -8.202  16.155   6.401  1.00  0.00     0.135 A 
ENDROOT
BRANCH   5   7
HETATM    7  O5  UNL     1     -10.224  15.608   7.502  1.00  0.00    -0.268 OA
BRANCH   7   8
HETATM    8  C12 UNL     1     -11.113  14.657   7.976  1.00  0.00     0.364 C 
HETATM    9  O6  UNL     1     -11.313  14.553   9.211  1.00  0.00    -0.253 OA
BRANCH   8  10
HETATM   10  C13 UNL     1     -11.847  13.750   7.103  1.00  0.00     0.365 C 
HETATM   11  O7  UNL     1     -12.913  14.168   6.553  1.00  0.00    -0.253 OA
BRANCH  10  12
HETATM   12  O8  UNL     1     -11.454  12.467   6.839  1.00  0.00    -0.262 OA
BRANCH  12  13
HETATM   13  C14 UNL     1     -12.147  11.332   7.273  1.00  0.00     0.177 C 
HETATM   14  C15 UNL     1     -12.369  10.303   6.482  1.00  0.00     0.175 C 
BRANCH  14  15
HETATM   15  O9  UNL     1     -11.886  10.370   5.176  1.00  0.00    -0.370 OA
ATOM     16  H9  UNL     1     -11.069   9.926   4.981  1.00  0.00     0.216 HD
ENDBRANCH  14  15
BRANCH  13  17
HETATM   17  C16 UNL     1     -12.623  11.318   8.638  1.00  0.00     0.236 C 
HETATM   18  O10 UNL     1     -11.845  11.110   9.595  1.00  0.00    -0.642 OA
HETATM   19  O11 UNL     1     -13.963  11.539   8.888  1.00  0.00    -0.642 OA
ENDBRANCH  13  17
ENDBRANCH  12  13
ENDBRANCH  10  12
ENDBRANCH   8  10
ENDBRANCH   7   8
ENDBRANCH   5   7
BRANCH   6  20
HETATM   20  O12 UNL     1      -8.794  17.323   6.000  1.00  0.00    -0.351 OA
HETATM   21  C18 UNL     1      -9.674  17.531   4.947  1.00  0.00     0.210 C 
ENDBRANCH   6  20
BRANCH   3  22
HETATM   22  C5  UNL     1      -6.462  12.545   7.699  1.00  0.00     0.034 C 
HETATM   23  C6  UNL     1      -5.614  12.264   8.642  1.00  0.00     0.101 A 
HETATM   24  C7  UNL     1      -4.985  13.223   9.530  1.00  0.00     0.265 A 
HETATM   25  C9  UNL     1      -5.188  10.855   8.853  1.00  0.00     0.265 A 
HETATM   26  O2  UNL     1      -5.244  14.448   9.481  1.00  0.00    -0.267 OA
HETATM   27  N1  UNL     1      -4.037  12.832  10.517  1.00  0.00    -0.275 N 
HETATM   28  C8  UNL     1      -3.659  11.482  10.684  1.00  0.00     0.329 A 
ATOM     29  H1  UNL     1      -3.620  13.543  11.117  1.00  0.00     0.173 HD
HETATM   30  O3  UNL     1      -2.805  11.174  11.581  1.00  0.00    -0.246 OA
HETATM   31  N2  UNL     1      -4.246  10.517   9.844  1.00  0.00    -0.275 N 
ATOM     32  H2  UNL     1      -3.980   9.538   9.958  1.00  0.00     0.173 HD
HETATM   33  O4  UNL     1      -5.678   9.944   8.132  1.00  0.00    -0.267 OA
ENDBRANCH   3  22
BRANCH   1  34
HETATM   34  O1  UNL     1      -6.193  16.759   5.275  1.00  0.00    -0.353 OA
HETATM   35  C1  UNL     1      -4.805  16.686   5.107  1.00  0.00     0.210 C 
ENDBRANCH   1  34
TORSDOF 10
ENDMDL
