MODEL 1
REMARK VINA RESULT: -6.476908489      0.000      0.000
REMARK  12 active torsions:
REMARK  status: ('A' for Active; 'I' for Inactive)
REMARK    1  A    between atoms: C2_2  and  C3_3 
REMARK    2  A    between atoms: C3_3  and  O1_4 
REMARK    3  A    between atoms: O1_4  and  C4_5 
REMARK    4  A    between atoms: C4_5  and  O2_6 
REMARK    5  A    between atoms: C6_10  and  C7_11 
REMARK    6  A    between atoms: C9_15  and  O4_16 
REMARK    7  A    between atoms: C10_18  and  C11_19 
REMARK    8  A    between atoms: C11_19  and  O5_20 
REMARK    9  A    between atoms: C12_22  and  N2_23 
REMARK   10  A    between atoms: N2_23  and  N3_24 
REMARK   11  A    between atoms: N3_24  and  S1_26 
REMARK   12  A    between atoms: C15_32  and  O9_33 
ROOT
HETATM    1  C7  UNL     1      -4.230  11.754  10.647  1.00  0.00     0.085 A 
HETATM    2  N1  UNL     1      -4.258  12.942  10.023  1.00  0.00    -0.348 N 
ATOM      3  H1  UNL     1      -3.511  13.634  10.090  1.00  0.00     0.166 HD
HETATM    4  C8  UNL     1      -5.373  13.121   9.302  1.00  0.00     0.104 A 
HETATM    5  C9  UNL     1      -5.811  14.165   8.521  1.00  0.00     0.109 A 
HETATM    6  C10 UNL     1      -7.066  13.998   7.899  1.00  0.00     0.069 A 
HETATM    7  C12 UNL     1      -7.811  12.852   8.064  1.00  0.00     0.258 A 
HETATM    8  O8  UNL     1      -7.280  11.888   8.857  1.00  0.00    -0.275 OA
HETATM    9  C14 UNL     1      -6.137  11.988   9.451  1.00  0.00     0.143 A 
HETATM   10  C15 UNL     1      -5.405  11.139  10.299  1.00  0.00     0.130 A 
ENDROOT
BRANCH   1  11
HETATM   11  C6  UNL     1      -3.143  11.270  11.517  1.00  0.00     0.070 C 
HETATM   12  C5  UNL     1      -2.681  11.957  12.568  1.00  0.00     0.159 C 
HETATM   13  O3  UNL     1      -1.655  11.246  13.196  1.00  0.00    -0.295 OA
HETATM   14  C4  UNL     1      -1.751   9.882  12.803  1.00  0.00     0.355 C 
HETATM   15  C16 UNL     1      -2.384  10.063  11.451  1.00  0.00     0.255 C 
HETATM   16  O10 UNL     1      -2.229   9.276  10.510  1.00  0.00    -0.283 OA
BRANCH  14  17
HETATM   17  O1  UNL     1      -2.661   9.191  13.579  1.00  0.00    -0.322 OA
BRANCH  17  18
HETATM   18  C3  UNL     1      -2.140   8.771  14.794  1.00  0.00     0.201 C 
BRANCH  18  19
HETATM   19  C2  UNL     1      -2.284   7.282  14.857  1.00  0.00    -0.011 C 
HETATM   20  C1  UNL     1      -1.261   6.475  14.667  1.00  0.00     0.009 C 
ENDBRANCH  18  19
ENDBRANCH  17  18
ENDBRANCH  14  17
BRANCH  14  21
HETATM   21  O2  UNL     1      -0.514   9.291  12.710  1.00  0.00    -0.337 OA
ATOM     22  H2  UNL     1       0.216   9.867  12.908  1.00  0.00     0.216 HD
ENDBRANCH  14  21
ENDBRANCH   1  11
BRANCH  10  23
HETATM   23  O9  UNL     1      -5.849   9.888  10.688  1.00  0.00    -0.356 OA
ATOM     24  H9  UNL     1      -6.631   9.681  11.186  1.00  0.00     0.218 HD
ENDBRANCH  10  23
BRANCH   5  25
HETATM   25  O4  UNL     1      -5.084  15.308   8.347  1.00  0.00    -0.357 OA
ATOM     26  H4  UNL     1      -4.723  15.561   7.506  1.00  0.00     0.217 HD
ENDBRANCH   5  25
BRANCH   6  27
HETATM   27  C11 UNL     1      -7.516  15.128   7.065  1.00  0.00     0.211 C 
BRANCH  27  28
HETATM   28  O5  UNL     1      -8.778  15.565   7.357  1.00  0.00    -0.396 OA
ATOM     29  H5  UNL     1      -8.804  16.283   7.979  1.00  0.00     0.209 HD
ENDBRANCH  27  28
ENDBRANCH   6  27
BRANCH   7  30
HETATM   30  N2  UNL     1      -8.896  12.676   7.543  1.00  0.00    -0.289 NA
BRANCH  30  31
HETATM   31  N3  UNL     1     -10.040  12.501   7.003  1.00  0.00    -0.158 N 
ATOM     32  H3  UNL     1     -10.164  11.693   6.393  1.00  0.00     0.215 HD
BRANCH  31  33
HETATM   33  S1  UNL     1     -11.406  13.566   7.248  1.00  0.00     0.249 S 
HETATM   34  C13 UNL     1     -12.903  12.652   7.358  1.00  0.00     0.188 C 
HETATM   35  O6  UNL     1     -11.234  14.364   8.501  1.00  0.00    -0.204 OA
HETATM   36  O7  UNL     1     -11.490  14.561   6.111  1.00  0.00    -0.204 OA
ENDBRANCH  31  33
ENDBRANCH  30  31
ENDBRANCH   7  30
TORSDOF 12
ENDMDL
MODEL 2
REMARK VINA RESULT: -6.459738646      2.652      3.858
REMARK  12 active torsions:
REMARK  status: ('A' for Active; 'I' for Inactive)
REMARK    1  A    between atoms: C2_2  and  C3_3 
REMARK    2  A    between atoms: C3_3  and  O1_4 
REMARK    3  A    between atoms: O1_4  and  C4_5 
REMARK    4  A    between atoms: C4_5  and  O2_6 
REMARK    5  A    between atoms: C6_10  and  C7_11 
REMARK    6  A    between atoms: C9_15  and  O4_16 
REMARK    7  A    between atoms: C10_18  and  C11_19 
REMARK    8  A    between atoms: C11_19  and  O5_20 
REMARK    9  A    between atoms: C12_22  and  N2_23 
REMARK   10  A    between atoms: N2_23  and  N3_24 
REMARK   11  A    between atoms: N3_24  and  S1_26 
REMARK   12  A    between atoms: C15_32  and  O9_33 
ROOT
HETATM    1  C7  UNL     1      -4.258  11.217  12.143  1.00  0.00     0.085 A 
HETATM    2  N1  UNL     1      -5.236  10.880  11.288  1.00  0.00    -0.348 N 
ATOM      3  H1  UNL     1      -5.771  10.014  11.353  1.00  0.00     0.166 HD
HETATM    4  C8  UNL     1      -5.433  11.805  10.339  1.00  0.00     0.104 A 
HETATM    5  C9  UNL     1      -6.310  11.872   9.282  1.00  0.00     0.109 A 
HETATM    6  C10 UNL     1      -6.229  13.024   8.473  1.00  0.00     0.069 A 
HETATM    7  C12 UNL     1      -5.322  14.029   8.728  1.00  0.00     0.258 A 
HETATM    8  O8  UNL     1      -4.506  13.856   9.799  1.00  0.00    -0.275 OA
HETATM    9  C14 UNL     1      -4.536  12.821  10.572  1.00  0.00     0.143 A 
HETATM   10  C15 UNL     1      -3.806  12.436  11.709  1.00  0.00     0.130 A 
ENDROOT
BRANCH   1  11
HETATM   11  C6  UNL     1      -3.804  10.404  13.287  1.00  0.00     0.070 C 
HETATM   12  C5  UNL     1      -4.641   9.747  14.100  1.00  0.00     0.159 C 
HETATM   13  O3  UNL     1      -3.920   9.067  15.085  1.00  0.00    -0.295 OA
HETATM   14  C4  UNL     1      -2.575   8.930  14.642  1.00  0.00     0.355 C 
HETATM   15  C16 UNL     1      -2.484  10.148  13.764  1.00  0.00     0.255 C 
HETATM   16  O10 UNL     1      -1.431  10.759  13.545  1.00  0.00    -0.283 OA
BRANCH  14  17
HETATM   17  O1  UNL     1      -2.420   7.833  13.817  1.00  0.00    -0.322 OA
BRANCH  17  18
HETATM   18  C3  UNL     1      -1.105   7.406  13.712  1.00  0.00     0.201 C 
BRANCH  18  19
HETATM   19  C2  UNL     1      -0.693   7.562  12.280  1.00  0.00    -0.011 C 
HETATM   20  C1  UNL     1      -1.564   7.824  11.329  1.00  0.00     0.009 C 
ENDBRANCH  18  19
ENDBRANCH  17  18
ENDBRANCH  14  17
BRANCH  14  21
HETATM   21  O2  UNL     1      -1.685   8.990  15.687  1.00  0.00    -0.337 OA
ATOM     22  H2  UNL     1      -1.801   9.738  16.263  1.00  0.00     0.216 HD
ENDBRANCH  14  21
ENDBRANCH   1  11
BRANCH  10  23
HETATM   23  O9  UNL     1      -2.798  13.207  12.261  1.00  0.00    -0.356 OA
ATOM     24  H9  UNL     1      -2.190  13.776  11.805  1.00  0.00     0.218 HD
ENDBRANCH  10  23
BRANCH   5  25
HETATM   25  O4  UNL     1      -7.215  10.885   9.014  1.00  0.00    -0.357 OA
ATOM     26  H4  UNL     1      -7.003   9.962   9.090  1.00  0.00     0.217 HD
ENDBRANCH   5  25
BRANCH   6  27
HETATM   27  C11 UNL     1      -7.179  13.077   7.347  1.00  0.00     0.211 C 
BRANCH  27  28
HETATM   28  O5  UNL     1      -8.156  14.024   7.489  1.00  0.00    -0.396 OA
ATOM     29  H5  UNL     1      -9.035  13.697   7.340  1.00  0.00     0.209 HD
ENDBRANCH  27  28
ENDBRANCH   6  27
BRANCH   7  30
HETATM   30  N2  UNL     1      -5.225  15.035   8.052  1.00  0.00    -0.289 NA
BRANCH  30  31
HETATM   31  N3  UNL     1      -5.120  16.098   7.354  1.00  0.00    -0.158 N 
ATOM     32  H3  UNL     1      -4.545  16.857   7.719  1.00  0.00     0.215 HD
BRANCH  31  33
HETATM   33  S1  UNL     1      -5.905  16.330   5.807  1.00  0.00     0.249 S 
HETATM   34  C13 UNL     1      -5.359  17.814   5.042  1.00  0.00     0.188 C 
HETATM   35  O6  UNL     1      -5.618  15.181   4.894  1.00  0.00    -0.204 OA
HETATM   36  O7  UNL     1      -7.405  16.366   5.995  1.00  0.00    -0.204 OA
ENDBRANCH  31  33
ENDBRANCH  30  31
ENDBRANCH   7  30
TORSDOF 12
ENDMDL
MODEL 3
REMARK VINA RESULT: -6.457005351      3.299      9.094
REMARK  12 active torsions:
REMARK  status: ('A' for Active; 'I' for Inactive)
REMARK    1  A    between atoms: C2_2  and  C3_3 
REMARK    2  A    between atoms: C3_3  and  O1_4 
REMARK    3  A    between atoms: O1_4  and  C4_5 
REMARK    4  A    between atoms: C4_5  and  O2_6 
REMARK    5  A    between atoms: C6_10  and  C7_11 
REMARK    6  A    between atoms: C9_15  and  O4_16 
REMARK    7  A    between atoms: C10_18  and  C11_19 
REMARK    8  A    between atoms: C11_19  and  O5_20 
REMARK    9  A    between atoms: C12_22  and  N2_23 
REMARK   10  A    between atoms: N2_23  and  N3_24 
REMARK   11  A    between atoms: N3_24  and  S1_26 
REMARK   12  A    between atoms: C15_32  and  O9_33 
ROOT
HETATM    1  C7  UNL     1      -5.516  12.521   9.181  1.00  0.00     0.085 A 
HETATM    2  N1  UNL     1      -4.720  12.894  10.195  1.00  0.00    -0.348 N 
ATOM      3  H1  UNL     1      -4.644  13.854  10.531  1.00  0.00     0.166 HD
HETATM    4  C8  UNL     1      -4.036  11.867  10.718  1.00  0.00     0.104 A 
HETATM    5  C9  UNL     1      -3.125  11.791  11.746  1.00  0.00     0.109 A 
HETATM    6  C10 UNL     1      -2.598  10.513  12.022  1.00  0.00     0.069 A 
HETATM    7  C12 UNL     1      -2.975   9.401  11.303  1.00  0.00     0.258 A 
HETATM    8  O8  UNL     1      -3.881   9.594  10.311  1.00  0.00    -0.275 OA
HETATM    9  C14 UNL     1      -4.395  10.741  10.015  1.00  0.00     0.143 A 
HETATM   10  C15 UNL     1      -5.326  11.169   9.053  1.00  0.00     0.130 A 
ENDROOT
BRANCH   1  11
HETATM   11  C6  UNL     1      -6.386  13.421   8.402  1.00  0.00     0.070 C 
HETATM   12  C5  UNL     1      -6.135  13.771   7.134  1.00  0.00     0.159 C 
HETATM   13  O3  UNL     1      -7.133  14.629   6.664  1.00  0.00    -0.295 OA
HETATM   14  C4  UNL     1      -8.276  14.486   7.500  1.00  0.00     0.355 C 
HETATM   15  C16 UNL     1      -7.594  14.083   8.778  1.00  0.00     0.255 C 
HETATM   16  O10 UNL     1      -8.051  14.317   9.903  1.00  0.00    -0.283 OA
BRANCH  14  17
HETATM   17  O1  UNL     1      -9.059  13.416   7.113  1.00  0.00    -0.322 OA
BRANCH  17  18
HETATM   18  C3  UNL     1     -10.419  13.684   7.162  1.00  0.00     0.201 C 
BRANCH  18  19
HETATM   19  C2  UNL     1     -11.141  12.442   6.737  1.00  0.00    -0.011 C 
HETATM   20  C1  UNL     1     -11.653  11.601   7.610  1.00  0.00     0.009 C 
ENDBRANCH  18  19
ENDBRANCH  17  18
ENDBRANCH  14  17
BRANCH  14  21
HETATM   21  O2  UNL     1      -8.956  15.672   7.639  1.00  0.00    -0.337 OA
ATOM     22  H2  UNL     1      -9.817  15.590   8.033  1.00  0.00     0.216 HD
ENDBRANCH  14  21
ENDBRANCH   1  11
BRANCH  10  23
HETATM   23  O9  UNL     1      -5.925  10.316   8.143  1.00  0.00    -0.356 OA
ATOM     24  H9  UNL     1      -5.556   9.982   7.335  1.00  0.00     0.218 HD
ENDBRANCH  10  23
BRANCH   5  25
HETATM   25  O4  UNL     1      -2.741  12.884  12.469  1.00  0.00    -0.357 OA
ATOM     26  H4  UNL     1      -1.999  12.870  13.063  1.00  0.00     0.217 HD
ENDBRANCH   5  25
BRANCH   6  27
HETATM   27  C11 UNL     1      -1.626  10.453  13.130  1.00  0.00     0.211 C 
BRANCH  27  28
HETATM   28  O5  UNL     1      -0.545   9.654  12.877  1.00  0.00    -0.396 OA
ATOM     29  H5  UNL     1       0.225   9.872  13.389  1.00  0.00     0.209 HD
ENDBRANCH  27  28
ENDBRANCH   6  27
BRANCH   7  30
HETATM   30  N2  UNL     1      -2.540   8.285  11.515  1.00  0.00    -0.289 NA
BRANCH  30  31
HETATM   31  N3  UNL     1      -2.087   7.115  11.750  1.00  0.00    -0.158 N 
ATOM     32  H3  UNL     1      -1.687   6.590  10.972  1.00  0.00     0.215 HD
BRANCH  31  33
HETATM   33  S1  UNL     1      -2.110   6.360  13.329  1.00  0.00     0.249 S 
HETATM   34  C13 UNL     1      -3.729   6.374  14.008  1.00  0.00     0.188 C 
HETATM   35  O6  UNL     1      -1.633   4.945  13.242  1.00  0.00    -0.204 OA
HETATM   36  O7  UNL     1      -1.154   7.080  14.254  1.00  0.00    -0.204 OA
ENDBRANCH  31  33
ENDBRANCH  30  31
ENDBRANCH   7  30
TORSDOF 12
ENDMDL
MODEL 4
REMARK VINA RESULT: -6.426532433      3.957      9.330
REMARK  12 active torsions:
REMARK  status: ('A' for Active; 'I' for Inactive)
REMARK    1  A    between atoms: C2_2  and  C3_3 
REMARK    2  A    between atoms: C3_3  and  O1_4 
REMARK    3  A    between atoms: O1_4  and  C4_5 
REMARK    4  A    between atoms: C4_5  and  O2_6 
REMARK    5  A    between atoms: C6_10  and  C7_11 
REMARK    6  A    between atoms: C9_15  and  O4_16 
REMARK    7  A    between atoms: C10_18  and  C11_19 
REMARK    8  A    between atoms: C11_19  and  O5_20 
REMARK    9  A    between atoms: C12_22  and  N2_23 
REMARK   10  A    between atoms: N2_23  and  N3_24 
REMARK   11  A    between atoms: N3_24  and  S1_26 
REMARK   12  A    between atoms: C15_32  and  O9_33 
ROOT
HETATM    1  C7  UNL     1      -4.471  11.457  10.099  1.00  0.00     0.085 A 
HETATM    2  N1  UNL     1      -3.315  11.369  10.775  1.00  0.00    -0.348 N 
ATOM      3  H1  UNL     1      -2.730  12.173  11.003  1.00  0.00     0.166 HD
HETATM    4  C8  UNL     1      -3.012  10.110  11.119  1.00  0.00     0.104 A 
HETATM    5  C9  UNL     1      -1.949   9.569  11.802  1.00  0.00     0.109 A 
HETATM    6  C10 UNL     1      -1.965   8.170  11.980  1.00  0.00     0.069 A 
HETATM    7  C12 UNL     1      -2.992   7.388  11.498  1.00  0.00     0.258 A 
HETATM    8  O8  UNL     1      -3.989   8.031  10.840  1.00  0.00    -0.275 OA
HETATM    9  C14 UNL     1      -4.024   9.307  10.646  1.00  0.00     0.143 A 
HETATM   10  C15 UNL     1      -4.932  10.169  10.008  1.00  0.00     0.130 A 
ENDROOT
BRANCH   1  11
HETATM   11  C6  UNL     1      -5.066  12.703   9.581  1.00  0.00     0.070 C 
HETATM   12  C5  UNL     1      -4.505  13.908   9.740  1.00  0.00     0.159 C 
HETATM   13  O3  UNL     1      -5.297  14.891   9.142  1.00  0.00    -0.295 OA
HETATM   14  C4  UNL     1      -6.164  14.260   8.206  1.00  0.00     0.355 C 
HETATM   15  C16 UNL     1      -6.278  12.908   8.855  1.00  0.00     0.255 C 
HETATM   16  O10 UNL     1      -7.265  12.172   8.738  1.00  0.00    -0.283 OA
BRANCH  14  17
HETATM   17  O1  UNL     1      -5.543  14.066   6.988  1.00  0.00    -0.322 OA
BRANCH  17  18
HETATM   18  C3  UNL     1      -6.091  14.825   5.965  1.00  0.00     0.201 C 
BRANCH  18  19
HETATM   19  C2  UNL     1      -5.313  16.102   5.883  1.00  0.00    -0.011 C 
HETATM   20  C1  UNL     1      -4.598  16.416   4.823  1.00  0.00     0.009 C 
ENDBRANCH  18  19
ENDBRANCH  17  18
ENDBRANCH  14  17
BRANCH  14  21
HETATM   21  O2  UNL     1      -7.382  14.892   8.134  1.00  0.00    -0.337 OA
ATOM     22  H2  UNL     1      -7.866  14.913   8.952  1.00  0.00     0.216 HD
ENDBRANCH  14  21
ENDBRANCH   1  11
BRANCH  10  23
HETATM   23  O9  UNL     1      -6.095   9.731   9.400  1.00  0.00    -0.356 OA
ATOM     24  H9  UNL     1      -6.740   9.129   9.750  1.00  0.00     0.218 HD
ENDBRANCH  10  23
BRANCH   5  25
HETATM   25  O4  UNL     1      -0.923  10.329  12.287  1.00  0.00    -0.357 OA
ATOM     26  H4  UNL     1      -0.139  10.511  11.783  1.00  0.00     0.217 HD
ENDBRANCH   5  25
BRANCH   6  27
HETATM   27  C11 UNL     1      -0.817   7.610  12.718  1.00  0.00     0.211 C 
BRANCH  27  28
HETATM   28  O5  UNL     1      -1.149   7.059  13.925  1.00  0.00    -0.396 OA
ATOM     29  H5  UNL     1      -0.504   6.447  14.259  1.00  0.00     0.209 HD
ENDBRANCH  27  28
ENDBRANCH   6  27
BRANCH   7  30
HETATM   30  N2  UNL     1      -3.038   6.181  11.634  1.00  0.00    -0.289 NA
BRANCH  30  31
HETATM   31  N3  UNL     1      -3.095   4.915  11.787  1.00  0.00    -0.158 N 
ATOM     32  H3  UNL     1      -3.384   4.348  10.989  1.00  0.00     0.215 HD
BRANCH  31  33
HETATM   33  S1  UNL     1      -2.709   4.094  13.284  1.00  0.00     0.249 S 
HETATM   34  C13 UNL     1      -3.368   2.466  13.295  1.00  0.00     0.188 C 
HETATM   35  O6  UNL     1      -1.229   4.019  13.476  1.00  0.00    -0.204 OA
HETATM   36  O7  UNL     1      -3.256   4.882  14.454  1.00  0.00    -0.204 OA
ENDBRANCH  31  33
ENDBRANCH  30  31
ENDBRANCH   7  30
TORSDOF 12
ENDMDL
MODEL 5
REMARK VINA RESULT: -6.334914940      1.642      2.420
REMARK  12 active torsions:
REMARK  status: ('A' for Active; 'I' for Inactive)
REMARK    1  A    between atoms: C2_2  and  C3_3 
REMARK    2  A    between atoms: C3_3  and  O1_4 
REMARK    3  A    between atoms: O1_4  and  C4_5 
REMARK    4  A    between atoms: C4_5  and  O2_6 
REMARK    5  A    between atoms: C6_10  and  C7_11 
REMARK    6  A    between atoms: C9_15  and  O4_16 
REMARK    7  A    between atoms: C10_18  and  C11_19 
REMARK    8  A    between atoms: C11_19  and  O5_20 
REMARK    9  A    between atoms: C12_22  and  N2_23 
REMARK   10  A    between atoms: N2_23  and  N3_24 
REMARK   11  A    between atoms: N3_24  and  S1_26 
REMARK   12  A    between atoms: C15_32  and  O9_33 
ROOT
HETATM    1  C7  UNL     1      -4.315  11.731  10.886  1.00  0.00     0.085 A 
HETATM    2  N1  UNL     1      -5.472  11.088  10.663  1.00  0.00    -0.348 N 
ATOM      3  H1  UNL     1      -5.681  10.157  11.024  1.00  0.00     0.166 HD
HETATM    4  C8  UNL     1      -6.323  11.801   9.913  1.00  0.00     0.104 A 
HETATM    5  C9  UNL     1      -7.590  11.538   9.449  1.00  0.00     0.109 A 
HETATM    6  C10 UNL     1      -8.194  12.546   8.669  1.00  0.00     0.069 A 
HETATM    7  C12 UNL     1      -7.550  13.730   8.388  1.00  0.00     0.258 A 
HETATM    8  O8  UNL     1      -6.301  13.881   8.898  1.00  0.00    -0.275 OA
HETATM    9  C14 UNL     1      -5.701  12.992   9.617  1.00  0.00     0.143 A 
HETATM   10  C15 UNL     1      -4.440  12.931  10.235  1.00  0.00     0.130 A 
ENDROOT
BRANCH   1  11
HETATM   11  C6  UNL     1      -3.181  11.204  11.668  1.00  0.00     0.070 C 
HETATM   12  C5  UNL     1      -2.652  11.844  12.718  1.00  0.00     0.159 C 
HETATM   13  O3  UNL     1      -1.596  11.101  13.253  1.00  0.00    -0.295 OA
HETATM   14  C4  UNL     1      -1.726   9.755  12.809  1.00  0.00     0.355 C 
HETATM   15  C16 UNL     1      -2.437   9.997  11.505  1.00  0.00     0.255 C 
HETATM   16  O10 UNL     1      -2.345   9.249  10.525  1.00  0.00    -0.283 OA
BRANCH  14  17
HETATM   17  O1  UNL     1      -2.594   9.037  13.608  1.00  0.00    -0.322 OA
BRANCH  17  18
HETATM   18  C3  UNL     1      -2.009   8.577  14.779  1.00  0.00     0.201 C 
BRANCH  18  19
HETATM   19  C2  UNL     1      -2.143   7.085  14.795  1.00  0.00    -0.011 C 
HETATM   20  C1  UNL     1      -1.132   6.291  14.510  1.00  0.00     0.009 C 
ENDBRANCH  18  19
ENDBRANCH  17  18
ENDBRANCH  14  17
BRANCH  14  21
HETATM   21  O2  UNL     1      -0.502   9.162  12.616  1.00  0.00    -0.337 OA
ATOM     22  H2  UNL     1      -0.106   9.336  11.769  1.00  0.00     0.216 HD
ENDBRANCH  14  21
ENDBRANCH   1  11
BRANCH  10  23
HETATM   23  O9  UNL     1      -3.511  13.953  10.166  1.00  0.00    -0.356 OA
ATOM     24  H9  UNL     1      -3.679  14.887  10.123  1.00  0.00     0.218 HD
ENDBRANCH  10  23
BRANCH   5  25
HETATM   25  O4  UNL     1      -8.244  10.369   9.719  1.00  0.00    -0.357 OA
ATOM     26  H4  UNL     1      -8.854  10.280  10.441  1.00  0.00     0.217 HD
ENDBRANCH   5  25
BRANCH   6  27
HETATM   27  C11 UNL     1      -9.553  12.245   8.184  1.00  0.00     0.211 C 
BRANCH  27  28
HETATM   28  O5  UNL     1      -9.740  12.509   6.855  1.00  0.00    -0.396 OA
ATOM     29  H5  UNL     1      -8.951  12.433   6.332  1.00  0.00     0.209 HD
ENDBRANCH  27  28
ENDBRANCH   6  27
BRANCH   7  30
HETATM   30  N2  UNL     1      -8.040  14.620   7.719  1.00  0.00    -0.289 NA
BRANCH  30  31
HETATM   31  N3  UNL     1      -8.545  15.562   7.022  1.00  0.00    -0.158 N 
ATOM     32  H3  UNL     1      -7.945  16.031   6.343  1.00  0.00     0.215 HD
BRANCH  31  33
HETATM   33  S1  UNL     1     -10.206  16.096   7.161  1.00  0.00     0.249 S 
HETATM   34  C13 UNL     1     -10.705  16.162   8.844  1.00  0.00     0.188 C 
HETATM   35  O6  UNL     1     -10.376  17.450   6.551  1.00  0.00    -0.204 OA
HETATM   36  O7  UNL     1     -11.110  15.159   6.389  1.00  0.00    -0.204 OA
ENDBRANCH  31  33
ENDBRANCH  30  31
ENDBRANCH   7  30
TORSDOF 12
ENDMDL
