MODEL 1
REMARK VINA RESULT: -6.506062972      0.000      0.000
REMARK  10 active torsions:
REMARK  status: ('A' for Active; 'I' for Inactive)
REMARK    1  A    between atoms: C2_2  and  C3_4 
REMARK    2  A    between atoms: C3_4  and  C4_5 
REMARK    3  A    between atoms: C4_5  and  C5_6 
REMARK    4  A    between atoms: C5_6  and  N1_7 
REMARK    5  A    between atoms: N1_7  and  C6_9 
REMARK    6  A    between atoms: C6_9  and  C7_10 
REMARK    7  A    between atoms: C9_13  and  O3_14 
REMARK    8  A    between atoms: C16_24  and  O6_26 
REMARK    9  A    between atoms: C19_29  and  O7_30 
REMARK   10  A    between atoms: C19_29  and  C20_32 
ROOT
HETATM    1  C7  UNL     1      -6.849  12.482   9.408  1.00  0.00     0.213 A 
HETATM    2  O2  UNL     1      -5.984  12.748  10.448  1.00  0.00    -0.347 OA
HETATM    3  C8  UNL     1      -4.661  12.701  10.286  1.00  0.00     0.213 C 
HETATM    4  C9  UNL     1      -3.862  11.673  10.993  1.00  0.00     0.118 C 
HETATM    5  C10 UNL     1      -2.616  12.226  11.674  1.00  0.00     0.154 C 
HETATM    6  C11 UNL     1      -2.299  11.117  12.613  1.00  0.00     0.262 C 
HETATM    7  O4  UNL     1      -1.162  10.987  13.183  1.00  0.00    -0.265 OA
HETATM    8  O5  UNL     1      -3.384  10.313  12.744  1.00  0.00    -0.309 OA
HETATM    9  C12 UNL     1      -4.549  10.889  12.074  1.00  0.00     0.192 C 
HETATM   10  C13 UNL     1      -5.318   9.778  11.482  1.00  0.00     0.014 C 
HETATM   11  C14 UNL     1      -6.575   9.735  11.114  1.00  0.00    -0.051 C 
HETATM   12  C15 UNL     1      -7.145   8.455  10.519  1.00  0.00     0.046 C 
HETATM   13  C16 UNL     1      -7.557  10.849  11.221  1.00  0.00     0.092 C 
HETATM   14  C17 UNL     1      -8.822  10.197  11.798  1.00  0.00     0.051 C 
HETATM   15  C18 UNL     1      -7.826  11.409   9.863  1.00  0.00     0.162 A 
HETATM   16  C19 UNL     1      -8.937  12.349   9.654  1.00  0.00     0.239 A 
HETATM   17  O9  UNL     1      -7.962  13.280   9.235  1.00  0.00    -0.305 OA
ENDROOT
BRANCH   1  18
HETATM   18  C6  UNL     1      -6.146  12.262   8.128  1.00  0.00     0.124 C 
BRANCH  18  19
HETATM   19  N1  UNL     1      -6.333  13.121   7.028  1.00  0.00    -0.398 N 
ATOM     20  H1  UNL     1      -6.928  12.844   6.247  1.00  0.00     0.158 HD
BRANCH  19  21
HETATM   21  C5  UNL     1      -5.669  14.394   7.027  1.00  0.00     0.119 C 
BRANCH  21  22
HETATM   22  C4  UNL     1      -6.050  15.245   5.817  1.00  0.00     0.027 C 
BRANCH  22  23
HETATM   23  C3  UNL     1      -4.937  16.178   5.403  1.00  0.00     0.079 C 
BRANCH  23  24
HETATM   24  C2  UNL     1      -5.376  17.573   5.146  1.00  0.00     0.123 C 
HETATM   25  C1  UNL     1      -4.595  18.448   4.201  1.00  0.00     0.091 C 
HETATM   26  O1  UNL     1      -6.371  18.055   5.681  1.00  0.00    -0.298 OA
ENDBRANCH  23  24
ENDBRANCH  22  23
ENDBRANCH  21  22
ENDBRANCH  19  21
ENDBRANCH  18  19
ENDBRANCH   1  18
BRANCH  13  27
HETATM   27  O6  UNL     1      -7.186  11.774  12.180  1.00  0.00    -0.385 OA
ATOM     28  H6  UNL     1      -7.836  12.459  12.281  1.00  0.00     0.211 HD
ENDBRANCH  13  27
BRANCH  16  29
HETATM   29  O7  UNL     1      -9.821  11.907   8.662  1.00  0.00    -0.359 OA
ATOM     30  H7  UNL     1     -10.716  12.176   8.836  1.00  0.00     0.213 HD
ENDBRANCH  16  29
BRANCH  16  31
HETATM   31  C20 UNL     1      -9.708  12.946  10.739  1.00  0.00     0.185 C 
HETATM   32  C21 UNL     1     -11.201  12.692  10.860  1.00  0.00     0.097 C 
HETATM   33  O8  UNL     1      -9.287  13.671  11.618  1.00  0.00    -0.292 OA
ENDBRANCH  16  31
BRANCH   4  34
HETATM   34  O3  UNL     1      -3.360  10.718  10.081  1.00  0.00    -0.384 OA
ATOM     35  H3  UNL     1      -2.811  10.085  10.528  1.00  0.00     0.210 HD
ENDBRANCH   4  34
TORSDOF 10
ENDMDL
MODEL 2
REMARK VINA RESULT: -6.401863423      3.162      6.394
REMARK  10 active torsions:
REMARK  status: ('A' for Active; 'I' for Inactive)
REMARK    1  A    between atoms: C2_2  and  C3_4 
REMARK    2  A    between atoms: C3_4  and  C4_5 
REMARK    3  A    between atoms: C4_5  and  C5_6 
REMARK    4  A    between atoms: C5_6  and  N1_7 
REMARK    5  A    between atoms: N1_7  and  C6_9 
REMARK    6  A    between atoms: C6_9  and  C7_10 
REMARK    7  A    between atoms: C9_13  and  O3_14 
REMARK    8  A    between atoms: C16_24  and  O6_26 
REMARK    9  A    between atoms: C19_29  and  O7_30 
REMARK   10  A    between atoms: C19_29  and  C20_32 
ROOT
HETATM    1  C7  UNL     1      -4.893   8.303  12.469  1.00  0.00     0.213 A 
HETATM    2  O2  UNL     1      -5.500   8.833  13.588  1.00  0.00    -0.347 OA
HETATM    3  C8  UNL     1      -6.647   9.511  13.506  1.00  0.00     0.213 C 
HETATM    4  C9  UNL     1      -6.681  10.955  13.833  1.00  0.00     0.118 C 
HETATM    5  C10 UNL     1      -7.834  11.349  14.748  1.00  0.00     0.154 C 
HETATM    6  C11 UNL     1      -7.363  12.674  15.231  1.00  0.00     0.262 C 
HETATM    7  O4  UNL     1      -8.133  13.531  15.784  1.00  0.00    -0.265 OA
HETATM    8  O5  UNL     1      -6.034  12.798  14.985  1.00  0.00    -0.309 OA
HETATM    9  C12 UNL     1      -5.470  11.539  14.502  1.00  0.00     0.192 C 
HETATM   10  C13 UNL     1      -4.445  11.868  13.494  1.00  0.00     0.014 C 
HETATM   11  C14 UNL     1      -3.443  11.146  13.055  1.00  0.00    -0.051 C 
HETATM   12  C15 UNL     1      -2.509  11.714  11.995  1.00  0.00     0.046 C 
HETATM   13  C16 UNL     1      -3.094   9.769  13.502  1.00  0.00     0.092 C 
HETATM   14  C17 UNL     1      -1.572   9.804  13.715  1.00  0.00     0.051 C 
HETATM   15  C18 UNL     1      -3.453   8.791  12.433  1.00  0.00     0.162 A 
HETATM   16  C19 UNL     1      -2.991   7.398  12.514  1.00  0.00     0.239 A 
HETATM   17  O9  UNL     1      -4.355   7.034  12.532  1.00  0.00    -0.305 OA
ENDROOT
BRANCH   1  18
HETATM   18  C6  UNL     1      -5.702   8.480  11.247  1.00  0.00     0.124 C 
BRANCH  18  19
HETATM   19  N1  UNL     1      -5.210   9.193  10.136  1.00  0.00    -0.398 N 
ATOM     20  H1  UNL     1      -4.367   8.883   9.651  1.00  0.00     0.158 HD
BRANCH  19  21
HETATM   21  C5  UNL     1      -5.917  10.363   9.699  1.00  0.00     0.119 C 
BRANCH  21  22
HETATM   22  C4  UNL     1      -4.979  11.439   9.156  1.00  0.00     0.027 C 
BRANCH  22  23
HETATM   23  C3  UNL     1      -5.202  12.777   9.817  1.00  0.00     0.079 C 
BRANCH  23  24
HETATM   24  C2  UNL     1      -5.257  13.921   8.873  1.00  0.00     0.123 C 
HETATM   25  C1  UNL     1      -5.898  13.754   7.521  1.00  0.00     0.091 C 
HETATM   26  O1  UNL     1      -4.793  15.024   9.153  1.00  0.00    -0.298 OA
ENDBRANCH  23  24
ENDBRANCH  22  23
ENDBRANCH  21  22
ENDBRANCH  19  21
ENDBRANCH  18  19
ENDBRANCH   1  18
BRANCH  13  27
HETATM   27  O6  UNL     1      -3.604   9.489  14.756  1.00  0.00    -0.385 OA
ATOM     28  H6  UNL     1      -2.997   8.980  15.280  1.00  0.00     0.211 HD
ENDBRANCH  13  27
BRANCH  16  29
HETATM   29  O7  UNL     1      -2.274   7.014  11.374  1.00  0.00    -0.359 OA
ATOM     30  H7  UNL     1      -2.314   6.076  11.227  1.00  0.00     0.213 HD
ENDBRANCH  16  29
BRANCH  16  31
HETATM   31  C20 UNL     1      -2.345   6.826  13.691  1.00  0.00     0.185 C 
HETATM   32  C21 UNL     1      -0.934   6.270  13.607  1.00  0.00     0.097 C 
HETATM   33  O8  UNL     1      -2.819   6.726  14.805  1.00  0.00    -0.292 OA
ENDBRANCH  16  31
BRANCH   4  34
HETATM   34  O3  UNL     1      -6.889  11.725  12.667  1.00  0.00    -0.384 OA
ATOM     35  H3  UNL     1      -6.571  12.611  12.791  1.00  0.00     0.210 HD
ENDBRANCH   4  34
TORSDOF 10
ENDMDL
MODEL 3
REMARK VINA RESULT: -6.318415792      3.465      7.483
REMARK  10 active torsions:
REMARK  status: ('A' for Active; 'I' for Inactive)
REMARK    1  A    between atoms: C2_2  and  C3_4 
REMARK    2  A    between atoms: C3_4  and  C4_5 
REMARK    3  A    between atoms: C4_5  and  C5_6 
REMARK    4  A    between atoms: C5_6  and  N1_7 
REMARK    5  A    between atoms: N1_7  and  C6_9 
REMARK    6  A    between atoms: C6_9  and  C7_10 
REMARK    7  A    between atoms: C9_13  and  O3_14 
REMARK    8  A    between atoms: C16_24  and  O6_26 
REMARK    9  A    between atoms: C19_29  and  O7_30 
REMARK   10  A    between atoms: C19_29  and  C20_32 
ROOT
HETATM    1  C7  UNL     1      -5.603   8.802  11.686  1.00  0.00     0.213 A 
HETATM    2  O2  UNL     1      -6.238   9.776  10.944  1.00  0.00    -0.347 OA
HETATM    3  C8  UNL     1      -5.982   9.942   9.646  1.00  0.00     0.213 C 
HETATM    4  C9  UNL     1      -5.333  11.186   9.169  1.00  0.00     0.118 C 
HETATM    5  C10 UNL     1      -6.008  11.802   7.950  1.00  0.00     0.154 C 
HETATM    6  C11 UNL     1      -5.449  13.180   7.991  1.00  0.00     0.262 C 
HETATM    7  O4  UNL     1      -5.485  13.979   6.995  1.00  0.00    -0.265 OA
HETATM    8  O5  UNL     1      -4.920  13.416   9.219  1.00  0.00    -0.309 OA
HETATM    9  C12 UNL     1      -5.229  12.325  10.143  1.00  0.00     0.192 C 
HETATM   10  C13 UNL     1      -4.058  12.138  11.019  1.00  0.00     0.014 C 
HETATM   11  C14 UNL     1      -3.977  11.564  12.195  1.00  0.00    -0.051 C 
HETATM   12  C15 UNL     1      -2.636  11.492  12.910  1.00  0.00     0.046 C 
HETATM   13  C16 UNL     1      -5.105  10.950  12.948  1.00  0.00     0.092 C 
HETATM   14  C17 UNL     1      -4.939  11.468  14.385  1.00  0.00     0.051 C 
HETATM   15  C18 UNL     1      -4.982   9.463  12.907  1.00  0.00     0.162 A 
HETATM   16  C19 UNL     1      -5.821   8.624  13.774  1.00  0.00     0.239 A 
HETATM   17  O9  UNL     1      -6.335   8.057  12.587  1.00  0.00    -0.305 OA
ENDROOT
BRANCH   1  18
HETATM   18  C6  UNL     1      -4.732   7.939  10.863  1.00  0.00     0.124 C 
BRANCH  18  19
HETATM   19  N1  UNL     1      -3.471   7.512  11.324  1.00  0.00    -0.398 N 
ATOM     20  H1  UNL     1      -3.388   6.695  11.930  1.00  0.00     0.158 HD
BRANCH  19  21
HETATM   21  C5  UNL     1      -2.305   8.249  10.927  1.00  0.00     0.119 C 
BRANCH  21  22
HETATM   22  C4  UNL     1      -1.109   7.977  11.836  1.00  0.00     0.027 C 
BRANCH  22  23
HETATM   23  C3  UNL     1      -1.503   7.905  13.291  1.00  0.00     0.079 C 
BRANCH  23  24
HETATM   24  C2  UNL     1      -1.166   6.618  13.950  1.00  0.00     0.123 C 
HETATM   25  C1  UNL     1      -1.455   6.422  15.414  1.00  0.00     0.091 C 
HETATM   26  O1  UNL     1      -0.653   5.685  13.338  1.00  0.00    -0.298 OA
ENDBRANCH  23  24
ENDBRANCH  22  23
ENDBRANCH  21  22
ENDBRANCH  19  21
ENDBRANCH  18  19
ENDBRANCH   1  18
BRANCH  13  27
HETATM   27  O6  UNL     1      -6.329  11.454  12.547  1.00  0.00    -0.385 OA
ATOM     28  H6  UNL     1      -6.936  11.529  13.273  1.00  0.00     0.211 HD
ENDBRANCH  13  27
BRANCH  16  29
HETATM   29  O7  UNL     1      -5.058   7.766  14.576  1.00  0.00    -0.359 OA
ATOM     30  H7  UNL     1      -5.580   7.349  15.251  1.00  0.00     0.213 HD
ENDBRANCH  16  29
BRANCH  16  31
HETATM   31  C20 UNL     1      -6.937   9.135  14.562  1.00  0.00     0.185 C 
HETATM   32  C21 UNL     1      -6.918   9.049  16.079  1.00  0.00     0.097 C 
HETATM   33  O8  UNL     1      -7.950   9.654  14.139  1.00  0.00    -0.292 OA
ENDBRANCH  16  31
BRANCH   4  34
HETATM   34  O3  UNL     1      -4.014  10.926   8.737  1.00  0.00    -0.384 OA
ATOM     35  H3  UNL     1      -3.687  10.124   9.126  1.00  0.00     0.210 HD
ENDBRANCH   4  34
TORSDOF 10
ENDMDL
MODEL 4
REMARK VINA RESULT: -6.235829717      2.871      6.620
REMARK  10 active torsions:
REMARK  status: ('A' for Active; 'I' for Inactive)
REMARK    1  A    between atoms: C2_2  and  C3_4 
REMARK    2  A    between atoms: C3_4  and  C4_5 
REMARK    3  A    between atoms: C4_5  and  C5_6 
REMARK    4  A    between atoms: C5_6  and  N1_7 
REMARK    5  A    between atoms: N1_7  and  C6_9 
REMARK    6  A    between atoms: C6_9  and  C7_10 
REMARK    7  A    between atoms: C9_13  and  O3_14 
REMARK    8  A    between atoms: C16_24  and  O6_26 
REMARK    9  A    between atoms: C19_29  and  O7_30 
REMARK   10  A    between atoms: C19_29  and  C20_32 
ROOT
HETATM    1  C7  UNL     1      -4.198  11.898  11.028  1.00  0.00     0.213 A 
HETATM    2  O2  UNL     1      -4.883  12.102  12.207  1.00  0.00    -0.347 OA
HETATM    3  C8  UNL     1      -4.441  11.612  13.366  1.00  0.00     0.213 C 
HETATM    4  C9  UNL     1      -5.215  10.567  14.075  1.00  0.00     0.118 C 
HETATM    5  C10 UNL     1      -5.393  10.839  15.563  1.00  0.00     0.154 C 
HETATM    6  C11 UNL     1      -6.518   9.920  15.880  1.00  0.00     0.262 C 
HETATM    7  O4  UNL     1      -6.822   9.570  17.071  1.00  0.00    -0.265 OA
HETATM    8  O5  UNL     1      -7.129   9.541  14.729  1.00  0.00    -0.309 OA
HETATM    9  C12 UNL     1      -6.608  10.290  13.586  1.00  0.00     0.192 C 
HETATM   10  C13 UNL     1      -6.566   9.372  12.433  1.00  0.00     0.014 C 
HETATM   11  C14 UNL     1      -6.528   9.642  11.151  1.00  0.00    -0.051 C 
HETATM   12  C15 UNL     1      -6.488   8.505  10.140  1.00  0.00     0.046 C 
HETATM   13  C16 UNL     1      -6.525  11.001  10.543  1.00  0.00     0.092 C 
HETATM   14  C17 UNL     1      -7.546  10.916   9.398  1.00  0.00     0.051 C 
HETATM   15  C18 UNL     1      -5.164  11.307  10.012  1.00  0.00     0.162 A 
HETATM   16  C19 UNL     1      -4.949  12.476   9.147  1.00  0.00     0.239 A 
HETATM   17  O9  UNL     1      -4.059  12.943  10.138  1.00  0.00    -0.305 OA
ENDROOT
BRANCH   1  18
HETATM   18  C6  UNL     1      -2.914  11.197  11.232  1.00  0.00     0.124 C 
BRANCH  18  19
HETATM   19  N1  UNL     1      -2.586  10.035  10.505  1.00  0.00    -0.398 N 
ATOM     20  H1  UNL     1      -2.165  10.104   9.579  1.00  0.00     0.158 HD
BRANCH  19  21
HETATM   21  C5  UNL     1      -2.856   8.754  11.094  1.00  0.00     0.119 C 
BRANCH  21  22
HETATM   22  C4  UNL     1      -1.631   7.842  11.084  1.00  0.00     0.027 C 
BRANCH  22  23
HETATM   23  C3  UNL     1      -0.842   7.933  12.368  1.00  0.00     0.079 C 
BRANCH  23  24
HETATM   24  C2  UNL     1      -1.222   6.924  13.389  1.00  0.00     0.123 C 
HETATM   25  C1  UNL     1      -1.597   7.363  14.780  1.00  0.00     0.091 C 
HETATM   26  O1  UNL     1      -1.244   5.721  13.143  1.00  0.00    -0.298 OA
ENDBRANCH  23  24
ENDBRANCH  22  23
ENDBRANCH  21  22
ENDBRANCH  19  21
ENDBRANCH  18  19
ENDBRANCH   1  18
BRANCH  13  27
HETATM   27  O6  UNL     1      -7.055  11.951  11.397  1.00  0.00    -0.385 OA
ATOM     28  H6  UNL     1      -7.203  12.779  10.958  1.00  0.00     0.211 HD
ENDBRANCH  13  27
BRANCH  16  29
HETATM   29  O7  UNL     1      -4.365  12.126   7.923  1.00  0.00    -0.359 OA
ATOM     30  H7  UNL     1      -4.552  12.763   7.243  1.00  0.00     0.213 HD
ENDBRANCH  16  29
BRANCH  16  31
HETATM   31  C20 UNL     1      -5.956  13.505   8.909  1.00  0.00     0.185 C 
HETATM   32  C21 UNL     1      -6.454  13.792   7.503  1.00  0.00     0.097 C 
HETATM   33  O8  UNL     1      -6.485  14.212   9.743  1.00  0.00    -0.292 OA
ENDBRANCH  16  31
BRANCH   4  34
HETATM   34  O3  UNL     1      -4.536   9.329  14.032  1.00  0.00    -0.384 OA
ATOM     35  H3  UNL     1      -4.233   9.083  14.898  1.00  0.00     0.210 HD
ENDBRANCH   4  34
TORSDOF 10
ENDMDL
MODEL 5
REMARK VINA RESULT: -6.226754100      2.136      5.683
REMARK  10 active torsions:
REMARK  status: ('A' for Active; 'I' for Inactive)
REMARK    1  A    between atoms: C2_2  and  C3_4 
REMARK    2  A    between atoms: C3_4  and  C4_5 
REMARK    3  A    between atoms: C4_5  and  C5_6 
REMARK    4  A    between atoms: C5_6  and  N1_7 
REMARK    5  A    between atoms: N1_7  and  C6_9 
REMARK    6  A    between atoms: C6_9  and  C7_10 
REMARK    7  A    between atoms: C9_13  and  O3_14 
REMARK    8  A    between atoms: C16_24  and  O6_26 
REMARK    9  A    between atoms: C19_29  and  O7_30 
REMARK   10  A    between atoms: C19_29  and  C20_32 
ROOT
HETATM    1  C7  UNL     1      -6.562  13.241   8.289  1.00  0.00     0.213 A 
HETATM    2  O2  UNL     1      -7.515  12.440   7.694  1.00  0.00    -0.347 OA
HETATM    3  C8  UNL     1      -8.599  12.959   7.114  1.00  0.00     0.213 C 
HETATM    4  C9  UNL     1      -9.943  12.696   7.681  1.00  0.00     0.118 C 
HETATM    5  C10 UNL     1     -10.978  12.286   6.641  1.00  0.00     0.154 C 
HETATM    6  C11 UNL     1     -12.024  11.689   7.512  1.00  0.00     0.262 C 
HETATM    7  O4  UNL     1     -13.223  11.481   7.123  1.00  0.00    -0.265 OA
HETATM    8  O5  UNL     1     -11.496  11.422   8.734  1.00  0.00    -0.309 OA
HETATM    9  C12 UNL     1     -10.049  11.635   8.738  1.00  0.00     0.192 C 
HETATM   10  C13 UNL     1      -9.685  12.193  10.053  1.00  0.00     0.014 C 
HETATM   11  C14 UNL     1      -8.523  12.211  10.661  1.00  0.00    -0.051 C 
HETATM   12  C15 UNL     1      -8.398  12.857  12.034  1.00  0.00     0.046 C 
HETATM   13  C16 UNL     1      -7.253  11.639  10.137  1.00  0.00     0.092 C 
HETATM   14  C17 UNL     1      -6.652  10.874  11.326  1.00  0.00     0.051 C 
HETATM   15  C18 UNL     1      -6.345  12.746   9.711  1.00  0.00     0.162 A 
HETATM   16  C19 UNL     1      -4.938  12.470   9.387  1.00  0.00     0.239 A 
HETATM   17  O9  UNL     1      -5.226  12.956   8.094  1.00  0.00    -0.305 OA
ENDROOT
BRANCH   1  18
HETATM   18  C6  UNL     1      -6.835  14.680   8.104  1.00  0.00     0.124 C 
BRANCH  18  19
HETATM   19  N1  UNL     1      -5.939  15.516   7.411  1.00  0.00    -0.398 N 
ATOM     20  H1  UNL     1      -5.212  16.028   7.911  1.00  0.00     0.158 HD
BRANCH  19  21
HETATM   21  C5  UNL     1      -6.067  15.634   5.986  1.00  0.00     0.119 C 
BRANCH  21  22
HETATM   22  C4  UNL     1      -5.027  16.577   5.385  1.00  0.00     0.027 C 
BRANCH  22  23
HETATM   23  C3  UNL     1      -5.561  17.978   5.211  1.00  0.00     0.079 C 
BRANCH  23  24
HETATM   24  C2  UNL     1      -4.795  18.806   4.245  1.00  0.00     0.123 C 
HETATM   25  C1  UNL     1      -4.833  20.308   4.342  1.00  0.00     0.091 C 
HETATM   26  O1  UNL     1      -4.117  18.308   3.351  1.00  0.00    -0.298 OA
ENDBRANCH  23  24
ENDBRANCH  22  23
ENDBRANCH  21  22
ENDBRANCH  19  21
ENDBRANCH  18  19
ENDBRANCH   1  18
BRANCH  13  27
HETATM   27  O6  UNL     1      -7.480  10.661   9.186  1.00  0.00    -0.385 OA
ATOM     28  H6  UNL     1      -8.257  10.841   8.670  1.00  0.00     0.211 HD
ENDBRANCH  13  27
BRANCH  16  29
HETATM   29  O7  UNL     1      -4.060  13.251  10.149  1.00  0.00    -0.359 OA
ATOM     30  H7  UNL     1      -3.169  13.208   9.822  1.00  0.00     0.213 HD
ENDBRANCH  16  29
BRANCH  16  31
HETATM   31  C20 UNL     1      -4.384  11.126   9.262  1.00  0.00     0.185 C 
HETATM   32  C21 UNL     1      -3.189  10.700  10.098  1.00  0.00     0.097 C 
HETATM   33  O8  UNL     1      -4.775  10.243   8.526  1.00  0.00    -0.292 OA
ENDBRANCH  16  31
BRANCH   4  34
HETATM   34  O3  UNL     1     -10.479  13.870   8.255  1.00  0.00    -0.384 OA
ATOM     35  H3  UNL     1     -11.374  14.004   7.968  1.00  0.00     0.210 HD
ENDBRANCH   4  34
TORSDOF 10
ENDMDL
