MODEL 1
REMARK VINA RESULT: -6.456756080      0.000      0.000
REMARK  12 active torsions:
REMARK  status: ('A' for Active; 'I' for Inactive)
REMARK    1  A    between atoms: C2_2  and  C3_3 
REMARK    2  A    between atoms: C4_4  and  C5_5 
REMARK    3  A    between atoms: C6_6  and  C8_8 
REMARK    4  A    between atoms: C8_8  and  C9_9 
REMARK    5  A    between atoms: C8_8  and  C10_11 
REMARK    6  A    between atoms: C15_16  and  O2_17 
REMARK    7  A    between atoms: N1_23  and  O3_25 
REMARK    8  A    between atoms: C22_29  and  O4_30 
REMARK    9  A    between atoms: C23_33  and  C24_34 
REMARK   10  A    between atoms: C24_34  and  C25_35 
REMARK   11  A    between atoms: C25_35  and  C26_36 
REMARK   12  A    between atoms: C26_36  and  O6_39 
ROOT
HETATM    1  C10 UNL     1      -1.688  24.078  19.228  1.00  0.00     0.086 C 
HETATM    2  C11 UNL     1      -0.243  24.233  19.574  1.00  0.00    -0.013 C 
HETATM    3  C12 UNL     1       0.690  23.801  20.391  1.00  0.00    -0.084 C 
HETATM    4  C13 UNL     1       2.004  24.457  20.131  1.00  0.00     0.043 C 
HETATM    5  C14 UNL     1       0.788  22.852  21.485  1.00  0.00     0.067 C 
HETATM    6  C15 UNL     1      -0.063  23.213  22.708  1.00  0.00     0.151 C 
HETATM    7  C16 UNL     1      -1.535  23.278  22.319  1.00  0.00     0.154 C 
HETATM    8  C17 UNL     1      -2.401  22.374  23.162  1.00  0.00     0.040 C 
HETATM    9  C18 UNL     1      -3.030  21.252  22.382  1.00  0.00     0.058 C 
HETATM   10  C19 UNL     1      -3.807  21.701  21.208  1.00  0.00     0.019 C 
HETATM   11  N1  UNL     1      -5.083  21.678  21.397  1.00  0.00    -0.277 N 
ATOM     12  H1  UNL     1      -5.475  21.372  22.287  1.00  0.00     0.193 HD
HETATM   13  C20 UNL     1      -3.328  22.176  19.839  1.00  0.00     0.092 C 
HETATM   14  C21 UNL     1      -2.486  21.009  19.324  1.00  0.00     0.022 C 
HETATM   15  C22 UNL     1      -2.490  23.355  20.195  1.00  0.00     0.178 C 
HETATM   16  O5  UNL     1      -1.570  22.744  21.064  1.00  0.00    -0.346 OA
ENDROOT
BRANCH   1  17
HETATM   17  C8  UNL     1      -1.762  23.668  17.776  1.00  0.00     0.088 C 
BRANCH  17  18
HETATM   18  C6  UNL     1      -0.446  24.030  17.132  1.00  0.00    -0.072 C 
HETATM   19  C5  UNL     1       0.444  23.083  16.852  1.00  0.00     0.003 C 
HETATM   20  C7  UNL     1      -0.079  25.418  16.779  1.00  0.00     0.044 C 
BRANCH  19  21
HETATM   21  C4  UNL     1       1.715  23.371  16.232  1.00  0.00     0.001 C 
HETATM   22  C3  UNL     1       2.856  22.999  16.830  1.00  0.00     0.006 C 
BRANCH  22  23
HETATM   23  C2  UNL     1       4.121  23.289  16.208  1.00  0.00    -0.066 C 
HETATM   24  C1  UNL     1       4.330  22.779  14.790  1.00  0.00     0.048 C 
HETATM   25  C23 UNL     1       5.113  23.954  16.747  1.00  0.00    -0.020 C 
BRANCH  25  26
HETATM   26  C24 UNL     1       5.066  24.506  18.100  1.00  0.00     0.030 C 
BRANCH  26  27
HETATM   27  C25 UNL     1       6.362  24.621  18.812  1.00  0.00     0.040 C 
BRANCH  27  28
HETATM   28  C26 UNL     1       6.386  25.227  20.160  1.00  0.00     0.051 C 
HETATM   29  C27 UNL     1       7.627  25.927  20.580  1.00  0.00     0.045 C 
HETATM   30  C28 UNL     1       5.237  26.257  20.189  1.00  0.00     0.045 C 
BRANCH  28  31
HETATM   31  O6  UNL     1       6.093  24.274  21.161  1.00  0.00    -0.391 OA
ATOM     32  H6  UNL     1       6.862  23.767  21.394  1.00  0.00     0.210 HD
ENDBRANCH  28  31
ENDBRANCH  27  28
ENDBRANCH  26  27
ENDBRANCH  25  26
ENDBRANCH  22  23
ENDBRANCH  19  21
ENDBRANCH  17  18
BRANCH  17  33
HETATM   33  C9  UNL     1      -2.751  24.497  17.019  1.00  0.00     0.240 C 
HETATM   34  O1  UNL     1      -3.575  25.182  17.550  1.00  0.00    -0.306 OA
ENDBRANCH  17  33
ENDBRANCH   1  17
BRANCH  15  35
HETATM   35  O4  UNL     1      -3.349  24.208  20.939  1.00  0.00    -0.364 OA
ATOM     36  H4  UNL     1      -3.943  23.726  21.503  1.00  0.00     0.213 HD
ENDBRANCH  15  35
BRANCH   6  37
HETATM   37  O2  UNL     1       0.104  22.190  23.617  1.00  0.00    -0.393 OA
ATOM     38  H2  UNL     1      -0.403  22.426  24.385  1.00  0.00     0.210 HD
ENDBRANCH   6  37
BRANCH  11  39
HETATM   39  O3  UNL     1      -5.895  22.074  20.377  1.00  0.00    -0.290 OA
ATOM     40  H3  UNL     1      -6.806  21.805  20.394  1.00  0.00     0.244 HD
ENDBRANCH  11  39
TORSDOF 12
ENDMDL
MODEL 2
REMARK VINA RESULT: -6.398032180      4.673      8.470
REMARK  12 active torsions:
REMARK  status: ('A' for Active; 'I' for Inactive)
REMARK    1  A    between atoms: C2_2  and  C3_3 
REMARK    2  A    between atoms: C4_4  and  C5_5 
REMARK    3  A    between atoms: C6_6  and  C8_8 
REMARK    4  A    between atoms: C8_8  and  C9_9 
REMARK    5  A    between atoms: C8_8  and  C10_11 
REMARK    6  A    between atoms: C15_16  and  O2_17 
REMARK    7  A    between atoms: N1_23  and  O3_25 
REMARK    8  A    between atoms: C22_29  and  O4_30 
REMARK    9  A    between atoms: C23_33  and  C24_34 
REMARK   10  A    between atoms: C24_34  and  C25_35 
REMARK   11  A    between atoms: C25_35  and  C26_36 
REMARK   12  A    between atoms: C26_36  and  O6_39 
ROOT
HETATM    1  C10 UNL     1      -3.728  28.039  17.655  1.00  0.00     0.086 C 
HETATM    2  C11 UNL     1      -4.172  27.020  16.657  1.00  0.00    -0.013 C 
HETATM    3  C12 UNL     1      -4.622  26.882  15.431  1.00  0.00    -0.084 C 
HETATM    4  C13 UNL     1      -4.868  25.452  15.086  1.00  0.00     0.043 C 
HETATM    5  C14 UNL     1      -4.946  27.751  14.314  1.00  0.00     0.067 C 
HETATM    6  C15 UNL     1      -6.100  28.722  14.588  1.00  0.00     0.151 C 
HETATM    7  C16 UNL     1      -5.751  29.632  15.760  1.00  0.00     0.154 C 
HETATM    8  C17 UNL     1      -5.850  31.096  15.411  1.00  0.00     0.040 C 
HETATM    9  C18 UNL     1      -4.526  31.810  15.448  1.00  0.00     0.058 C 
HETATM   10  C19 UNL     1      -3.808  31.673  16.732  1.00  0.00     0.019 C 
HETATM   11  N1  UNL     1      -3.881  32.722  17.478  1.00  0.00    -0.277 N 
ATOM     12  H1  UNL     1      -4.397  33.547  17.171  1.00  0.00     0.193 HD
HETATM   13  C20 UNL     1      -3.011  30.495  17.288  1.00  0.00     0.092 C 
HETATM   14  C21 UNL     1      -1.950  30.238  16.218  1.00  0.00     0.022 C 
HETATM   15  C22 UNL     1      -4.038  29.416  17.326  1.00  0.00     0.178 C 
HETATM   16  O5  UNL     1      -4.423  29.401  15.974  1.00  0.00    -0.346 OA
ENDROOT
BRANCH   1  17
HETATM   17  C8  UNL     1      -2.314  27.691  18.055  1.00  0.00     0.088 C 
BRANCH  17  18
HETATM   18  C6  UNL     1      -2.308  26.252  18.509  1.00  0.00    -0.072 C 
HETATM   19  C5  UNL     1      -3.127  25.854  19.477  1.00  0.00     0.003 C 
HETATM   20  C7  UNL     1      -1.421  25.227  17.920  1.00  0.00     0.044 C 
BRANCH  19  21
HETATM   21  C4  UNL     1      -3.168  24.489  19.947  1.00  0.00     0.001 C 
HETATM   22  C3  UNL     1      -3.457  24.227  21.230  1.00  0.00     0.006 C 
BRANCH  22  23
HETATM   23  C2  UNL     1      -3.496  22.866  21.694  1.00  0.00    -0.066 C 
HETATM   24  C1  UNL     1      -4.766  22.074  21.417  1.00  0.00     0.048 C 
HETATM   25  C23 UNL     1      -2.539  22.239  22.332  1.00  0.00    -0.020 C 
BRANCH  25  26
HETATM   26  C24 UNL     1      -1.261  22.863  22.673  1.00  0.00     0.030 C 
BRANCH  26  27
HETATM   27  C25 UNL     1      -0.230  22.878  21.607  1.00  0.00     0.040 C 
BRANCH  27  28
HETATM   28  C26 UNL     1       1.091  23.476  21.899  1.00  0.00     0.051 C 
HETATM   29  C27 UNL     1       2.295  22.770  21.391  1.00  0.00     0.045 C 
HETATM   30  C28 UNL     1       1.075  24.884  21.266  1.00  0.00     0.045 C 
BRANCH  28  31
HETATM   31  O6  UNL     1       1.278  23.664  23.286  1.00  0.00    -0.391 OA
ATOM     32  H6  UNL     1       0.713  24.348  23.624  1.00  0.00     0.210 HD
ENDBRANCH  28  31
ENDBRANCH  27  28
ENDBRANCH  26  27
ENDBRANCH  25  26
ENDBRANCH  22  23
ENDBRANCH  19  21
ENDBRANCH  17  18
BRANCH  17  33
HETATM   33  C9  UNL     1      -1.888  28.438  19.280  1.00  0.00     0.240 C 
HETATM   34  O1  UNL     1      -0.746  28.689  19.531  1.00  0.00    -0.306 OA
ENDBRANCH  17  33
ENDBRANCH   1  17
BRANCH  15  35
HETATM   35  O4  UNL     1      -5.097  29.941  18.114  1.00  0.00    -0.364 OA
ATOM     36  H4  UNL     1      -5.008  29.727  19.035  1.00  0.00     0.213 HD
ENDBRANCH  15  35
BRANCH   6  37
HETATM   37  O2  UNL     1      -6.236  29.499  13.458  1.00  0.00    -0.393 OA
ATOM     38  H2  UNL     1      -6.997  29.170  12.993  1.00  0.00     0.210 HD
ENDBRANCH   6  37
BRANCH  11  39
HETATM   39  O3  UNL     1      -3.253  32.702  18.686  1.00  0.00    -0.290 OA
ATOM     40  H3  UNL     1      -3.786  32.669  19.472  1.00  0.00     0.244 HD
ENDBRANCH  11  39
TORSDOF 12
ENDMDL
MODEL 3
REMARK VINA RESULT: -6.374978656      2.802      4.345
REMARK  12 active torsions:
REMARK  status: ('A' for Active; 'I' for Inactive)
REMARK    1  A    between atoms: C2_2  and  C3_3 
REMARK    2  A    between atoms: C4_4  and  C5_5 
REMARK    3  A    between atoms: C6_6  and  C8_8 
REMARK    4  A    between atoms: C8_8  and  C9_9 
REMARK    5  A    between atoms: C8_8  and  C10_11 
REMARK    6  A    between atoms: C15_16  and  O2_17 
REMARK    7  A    between atoms: N1_23  and  O3_25 
REMARK    8  A    between atoms: C22_29  and  O4_30 
REMARK    9  A    between atoms: C23_33  and  C24_34 
REMARK   10  A    between atoms: C24_34  and  C25_35 
REMARK   11  A    between atoms: C25_35  and  C26_36 
REMARK   12  A    between atoms: C26_36  and  O6_39 
ROOT
HETATM    1  C10 UNL     1      -3.164  23.956  16.798  1.00  0.00     0.086 C 
HETATM    2  C11 UNL     1      -3.275  25.132  17.713  1.00  0.00    -0.013 C 
HETATM    3  C12 UNL     1      -3.145  25.499  18.967  1.00  0.00    -0.084 C 
HETATM    4  C13 UNL     1      -3.439  26.948  19.155  1.00  0.00     0.043 C 
HETATM    5  C14 UNL     1      -2.790  24.870  20.227  1.00  0.00     0.067 C 
HETATM    6  C15 UNL     1      -3.770  23.785  20.685  1.00  0.00     0.151 C 
HETATM    7  C16 UNL     1      -3.839  22.670  19.647  1.00  0.00     0.154 C 
HETATM    8  C17 UNL     1      -3.532  21.312  20.229  1.00  0.00     0.040 C 
HETATM    9  C18 UNL     1      -2.268  20.702  19.687  1.00  0.00     0.058 C 
HETATM   10  C19 UNL     1      -2.232  20.610  18.213  1.00  0.00     0.019 C 
HETATM   11  N1  UNL     1      -2.460  19.422  17.766  1.00  0.00    -0.277 N 
ATOM     12  H1  UNL     1      -2.642  18.648  18.405  1.00  0.00     0.193 HD
HETATM   13  C20 UNL     1      -1.971  21.693  17.169  1.00  0.00     0.092 C 
HETATM   14  C21 UNL     1      -0.601  22.248  17.559  1.00  0.00     0.022 C 
HETATM   15  C22 UNL     1      -3.066  22.663  17.448  1.00  0.00     0.178 C 
HETATM   16  O5  UNL     1      -2.803  22.942  18.800  1.00  0.00    -0.346 OA
ENDROOT
BRANCH   1  17
HETATM   17  C8  UNL     1      -2.155  24.307  15.731  1.00  0.00     0.088 C 
BRANCH  17  18
HETATM   18  C6  UNL     1      -1.332  25.463  16.245  1.00  0.00    -0.072 C 
HETATM   19  C5  UNL     1      -0.317  25.245  17.074  1.00  0.00     0.003 C 
HETATM   20  C7  UNL     1      -1.594  26.868  15.863  1.00  0.00     0.044 C 
BRANCH  19  21
HETATM   21  C4  UNL     1       0.506  26.312  17.591  1.00  0.00     0.001 C 
HETATM   22  C3  UNL     1       0.319  26.763  18.840  1.00  0.00     0.006 C 
BRANCH  22  23
HETATM   23  C2  UNL     1       1.141  27.827  19.351  1.00  0.00    -0.066 C 
HETATM   24  C1  UNL     1       0.769  29.246  18.947  1.00  0.00     0.048 C 
HETATM   25  C23 UNL     1       2.181  27.693  20.137  1.00  0.00    -0.020 C 
BRANCH  25  26
HETATM   26  C24 UNL     1       2.663  26.396  20.612  1.00  0.00     0.030 C 
BRANCH  26  27
HETATM   27  C25 UNL     1       1.704  25.584  21.402  1.00  0.00     0.040 C 
BRANCH  27  28
HETATM   28  C26 UNL     1       1.767  24.110  21.305  1.00  0.00     0.051 C 
HETATM   29  C27 UNL     1       0.482  23.369  21.233  1.00  0.00     0.045 C 
HETATM   30  C28 UNL     1       2.560  23.797  20.017  1.00  0.00     0.045 C 
BRANCH  28  31
HETATM   31  O6  UNL     1       2.504  23.553  22.373  1.00  0.00    -0.391 OA
ATOM     32  H6  UNL     1       2.022  22.855  22.801  1.00  0.00     0.210 HD
ENDBRANCH  28  31
ENDBRANCH  27  28
ENDBRANCH  26  27
ENDBRANCH  25  26
ENDBRANCH  22  23
ENDBRANCH  19  21
ENDBRANCH  17  18
BRANCH  17  33
HETATM   33  C9  UNL     1      -2.815  24.872  14.513  1.00  0.00     0.240 C 
HETATM   34  O1  UNL     1      -3.950  24.641  14.215  1.00  0.00    -0.306 OA
ENDBRANCH  17  33
ENDBRANCH   1  17
BRANCH  15  35
HETATM   35  O4  UNL     1      -4.265  21.907  17.345  1.00  0.00    -0.364 OA
ATOM     36  H4  UNL     1      -4.429  21.601  16.461  1.00  0.00     0.213 HD
ENDBRANCH  15  35
BRANCH   6  37
HETATM   37  O2  UNL     1      -3.259  23.262  21.853  1.00  0.00    -0.393 OA
ATOM     38  H2  UNL     1      -3.991  22.881  22.323  1.00  0.00     0.210 HD
ENDBRANCH   6  37
BRANCH  11  39
HETATM   39  O3  UNL     1      -2.450  19.225  16.418  1.00  0.00    -0.290 OA
ATOM     40  H3  UNL     1      -2.509  19.983  15.850  1.00  0.00     0.244 HD
ENDBRANCH  11  39
TORSDOF 12
ENDMDL
MODEL 4
REMARK VINA RESULT: -6.324053936      4.319      7.781
REMARK  12 active torsions:
REMARK  status: ('A' for Active; 'I' for Inactive)
REMARK    1  A    between atoms: C2_2  and  C3_3 
REMARK    2  A    between atoms: C4_4  and  C5_5 
REMARK    3  A    between atoms: C6_6  and  C8_8 
REMARK    4  A    between atoms: C8_8  and  C9_9 
REMARK    5  A    between atoms: C8_8  and  C10_11 
REMARK    6  A    between atoms: C15_16  and  O2_17 
REMARK    7  A    between atoms: N1_23  and  O3_25 
REMARK    8  A    between atoms: C22_29  and  O4_30 
REMARK    9  A    between atoms: C23_33  and  C24_34 
REMARK   10  A    between atoms: C24_34  and  C25_35 
REMARK   11  A    between atoms: C25_35  and  C26_36 
REMARK   12  A    between atoms: C26_36  and  O6_39 
ROOT
HETATM    1  C10 UNL     1      -3.416  23.392  16.220  1.00  0.00     0.086 C 
HETATM    2  C11 UNL     1      -2.654  22.281  16.867  1.00  0.00    -0.013 C 
HETATM    3  C12 UNL     1      -2.014  21.163  16.612  1.00  0.00    -0.084 C 
HETATM    4  C13 UNL     1      -1.464  20.542  17.851  1.00  0.00     0.043 C 
HETATM    5  C14 UNL     1      -1.696  20.365  15.442  1.00  0.00     0.067 C 
HETATM    6  C15 UNL     1      -2.920  19.783  14.726  1.00  0.00     0.151 C 
HETATM    7  C16 UNL     1      -3.830  20.909  14.249  1.00  0.00     0.154 C 
HETATM    8  C17 UNL     1      -4.110  20.844  12.768  1.00  0.00     0.040 C 
HETATM    9  C18 UNL     1      -3.541  22.007  12.001  1.00  0.00     0.058 C 
HETATM   10  C19 UNL     1      -3.967  23.326  12.511  1.00  0.00     0.019 C 
HETATM   11  N1  UNL     1      -4.881  23.886  11.793  1.00  0.00    -0.277 N 
ATOM     12  H1  UNL     1      -5.246  23.424  10.960  1.00  0.00     0.193 HD
HETATM   13  C20 UNL     1      -3.492  24.104  13.737  1.00  0.00     0.092 C 
HETATM   14  C21 UNL     1      -1.985  24.238  13.519  1.00  0.00     0.022 C 
HETATM   15  C22 UNL     1      -3.814  23.162  14.845  1.00  0.00     0.178 C 
HETATM   16  O5  UNL     1      -3.083  22.037  14.426  1.00  0.00    -0.346 OA
ENDROOT
BRANCH   1  17
HETATM   17  C8  UNL     1      -2.711  24.682  16.563  1.00  0.00     0.088 C 
BRANCH  17  18
HETATM   18  C6  UNL     1      -2.354  24.632  18.029  1.00  0.00    -0.072 C 
HETATM   19  C5  UNL     1      -1.131  24.276  18.407  1.00  0.00     0.003 C 
HETATM   20  C7  UNL     1      -3.314  24.971  19.101  1.00  0.00     0.044 C 
BRANCH  19  21
HETATM   21  C4  UNL     1      -0.734  24.216  19.794  1.00  0.00     0.001 C 
HETATM   22  C3  UNL     1      -0.672  23.036  20.427  1.00  0.00     0.006 C 
BRANCH  22  23
HETATM   23  C2  UNL     1      -0.277  22.981  21.809  1.00  0.00    -0.066 C 
HETATM   24  C1  UNL     1       1.206  23.133  22.113  1.00  0.00     0.048 C 
HETATM   25  C23 UNL     1      -1.074  22.815  22.836  1.00  0.00    -0.020 C 
BRANCH  25  26
HETATM   26  C24 UNL     1      -2.522  22.654  22.707  1.00  0.00     0.030 C 
BRANCH  26  27
HETATM   27  C25 UNL     1      -3.010  21.284  22.415  1.00  0.00     0.040 C 
BRANCH  27  28
HETATM   28  C26 UNL     1      -4.150  21.114  21.488  1.00  0.00     0.051 C 
HETATM   29  C27 UNL     1      -5.313  20.323  21.964  1.00  0.00     0.045 C 
HETATM   30  C28 UNL     1      -4.655  22.536  21.163  1.00  0.00     0.045 C 
BRANCH  28  31
HETATM   31  O6  UNL     1      -3.740  20.545  20.262  1.00  0.00    -0.391 OA
ATOM     32  H6  UNL     1      -4.483  20.245  19.753  1.00  0.00     0.210 HD
ENDBRANCH  28  31
ENDBRANCH  27  28
ENDBRANCH  26  27
ENDBRANCH  25  26
ENDBRANCH  22  23
ENDBRANCH  19  21
ENDBRANCH  17  18
BRANCH  17  33
HETATM   33  C9  UNL     1      -3.635  25.855  16.477  1.00  0.00     0.240 C 
HETATM   34  O1  UNL     1      -3.320  26.904  15.995  1.00  0.00    -0.306 OA
ENDBRANCH  17  33
ENDBRANCH   1  17
BRANCH  15  35
HETATM   35  O4  UNL     1      -5.204  22.899  14.715  1.00  0.00    -0.364 OA
ATOM     36  H4  UNL     1      -5.386  22.187  14.112  1.00  0.00     0.213 HD
ENDBRANCH  15  35
BRANCH   6  37
HETATM   37  O2  UNL     1      -2.445  19.109  13.622  1.00  0.00    -0.393 OA
ATOM     38  H2  UNL     1      -2.791  18.226  13.675  1.00  0.00     0.210 HD
ENDBRANCH   6  37
BRANCH  11  39
HETATM   39  O3  UNL     1      -5.346  25.107  12.175  1.00  0.00    -0.290 OA
ATOM     40  H3  UNL     1      -6.230  25.352  11.926  1.00  0.00     0.244 HD
ENDBRANCH  11  39
TORSDOF 12
ENDMDL
MODEL 5
REMARK VINA RESULT: -6.304055323      3.599      8.427
REMARK  12 active torsions:
REMARK  status: ('A' for Active; 'I' for Inactive)
REMARK    1  A    between atoms: C2_2  and  C3_3 
REMARK    2  A    between atoms: C4_4  and  C5_5 
REMARK    3  A    between atoms: C6_6  and  C8_8 
REMARK    4  A    between atoms: C8_8  and  C9_9 
REMARK    5  A    between atoms: C8_8  and  C10_11 
REMARK    6  A    between atoms: C15_16  and  O2_17 
REMARK    7  A    between atoms: N1_23  and  O3_25 
REMARK    8  A    between atoms: C22_29  and  O4_30 
REMARK    9  A    between atoms: C23_33  and  C24_34 
REMARK   10  A    between atoms: C24_34  and  C25_35 
REMARK   11  A    between atoms: C25_35  and  C26_36 
REMARK   12  A    between atoms: C26_36  and  O6_39 
ROOT
HETATM    1  C10 UNL     1       2.629  25.685  19.408  1.00  0.00     0.086 C 
HETATM    2  C11 UNL     1       1.832  24.584  18.789  1.00  0.00    -0.013 C 
HETATM    3  C12 UNL     1       1.942  23.464  18.112  1.00  0.00    -0.084 C 
HETATM    4  C13 UNL     1       0.611  22.859  17.818  1.00  0.00     0.043 C 
HETATM    5  C14 UNL     1       3.016  22.651  17.570  1.00  0.00     0.067 C 
HETATM    6  C15 UNL     1       3.841  23.346  16.482  1.00  0.00     0.151 C 
HETATM    7  C16 UNL     1       4.490  24.607  17.042  1.00  0.00     0.154 C 
HETATM    8  C17 UNL     1       5.988  24.620  16.863  1.00  0.00     0.040 C 
HETATM    9  C18 UNL     1       6.745  24.570  18.163  1.00  0.00     0.058 C 
HETATM   10  C19 UNL     1       6.368  25.633  19.116  1.00  0.00     0.019 C 
HETATM   11  N1  UNL     1       7.223  26.596  19.179  1.00  0.00    -0.277 N 
ATOM     12  H1  UNL     1       8.067  26.584  18.606  1.00  0.00     0.193 HD
HETATM   13  C20 UNL     1       5.141  25.752  20.017  1.00  0.00     0.092 C 
HETATM   14  C21 UNL     1       5.180  24.473  20.854  1.00  0.00     0.022 C 
HETATM   15  C22 UNL     1       4.027  25.737  19.027  1.00  0.00     0.178 C 
HETATM   16  O5  UNL     1       4.288  24.512  18.388  1.00  0.00    -0.346 OA
ENDROOT
BRANCH   1  17
HETATM   17  C8  UNL     1       2.278  25.726  20.876  1.00  0.00     0.088 C 
BRANCH  17  18
HETATM   18  C6  UNL     1       1.459  24.496  21.184  1.00  0.00    -0.072 C 
HETATM   19  C5  UNL     1       0.147  24.497  20.972  1.00  0.00     0.003 C 
HETATM   20  C7  UNL     1       2.050  23.250  21.718  1.00  0.00     0.044 C 
BRANCH  19  21
HETATM   21  C4  UNL     1      -0.684  23.347  21.243  1.00  0.00     0.001 C 
HETATM   22  C3  UNL     1      -1.951  23.315  20.807  1.00  0.00     0.006 C 
BRANCH  22  23
HETATM   23  C2  UNL     1      -2.776  22.167  21.080  1.00  0.00    -0.066 C 
HETATM   24  C1  UNL     1      -3.213  21.955  22.522  1.00  0.00     0.048 C 
HETATM   25  C23 UNL     1      -3.190  21.286  20.204  1.00  0.00    -0.020 C 
BRANCH  25  26
HETATM   26  C24 UNL     1      -2.854  21.352  18.782  1.00  0.00     0.030 C 
BRANCH  26  27
HETATM   27  C25 UNL     1      -1.986  20.270  18.258  1.00  0.00     0.040 C 
BRANCH  27  28
HETATM   28  C26 UNL     1      -1.813  20.136  16.796  1.00  0.00     0.051 C 
HETATM   29  C27 UNL     1      -2.329  21.233  15.938  1.00  0.00     0.045 C 
HETATM   30  C28 UNL     1      -0.293  20.028  16.550  1.00  0.00     0.045 C 
BRANCH  28  31
HETATM   31  O6  UNL     1      -2.382  18.936  16.315  1.00  0.00    -0.391 OA
ATOM     32  H6  UNL     1      -3.259  19.077  15.978  1.00  0.00     0.210 HD
ENDBRANCH  28  31
ENDBRANCH  27  28
ENDBRANCH  26  27
ENDBRANCH  25  26
ENDBRANCH  22  23
ENDBRANCH  19  21
ENDBRANCH  17  18
BRANCH  17  33
HETATM   33  C9  UNL     1       1.338  26.848  21.186  1.00  0.00     0.240 C 
HETATM   34  O1  UNL     1       1.687  27.875  21.688  1.00  0.00    -0.306 OA
ENDBRANCH  17  33
ENDBRANCH   1  17
BRANCH  15  35
HETATM   35  O4  UNL     1       4.311  26.806  18.135  1.00  0.00    -0.364 OA
ATOM     36  H4  UNL     1       4.990  26.587  17.507  1.00  0.00     0.213 HD
ENDBRANCH  15  35
BRANCH   6  37
HETATM   37  O2  UNL     1       4.839  22.465  16.123  1.00  0.00    -0.393 OA
ATOM     38  H2  UNL     1       5.519  22.544  16.781  1.00  0.00     0.210 HD
ENDBRANCH   6  37
BRANCH  11  39
HETATM   39  O3  UNL     1       6.973  27.630  20.029  1.00  0.00    -0.290 OA
ATOM     40  H3  UNL     1       7.699  28.000  20.518  1.00  0.00     0.244 HD
ENDBRANCH  11  39
TORSDOF 12
ENDMDL
