MODEL 1
REMARK VINA RESULT: -6.754677248      0.000      0.000
REMARK  10 active torsions:
REMARK  status: ('A' for Active; 'I' for Inactive)
REMARK    1  A    between atoms: N1_2  and  C3_4 
REMARK    2  A    between atoms: C3_4  and  C4_5 
REMARK    3  A    between atoms: C4_5  and  N2_6 
REMARK    4  A    between atoms: N2_6  and  C5_8 
REMARK    5  A    between atoms: C9_21  and  C10_22 
REMARK    6  A    between atoms: C10_22  and  C11_23 
REMARK    7  A    between atoms: C11_23  and  N7_24 
REMARK    8  A    between atoms: C15_29  and  O4_30 
REMARK    9  A    between atoms: C15_29  and  C16_32 
REMARK   10  A    between atoms: C16_32  and  O5_33 
ROOT
HETATM    1  C5  UNL     1      19.738   7.228  14.207  1.00  0.00     0.145 A 
HETATM    2  N3  UNL     1      19.254   7.324  12.939  1.00  0.00    -0.174 N 
ATOM      3  H3  UNL     1      18.505   7.943  12.631  1.00  0.00     0.186 HD
HETATM    4  C6  UNL     1      19.929   6.471  12.169  1.00  0.00     0.699 A 
HETATM    5  N4  UNL     1      19.810   6.208  10.835  1.00  0.00    -0.140 N 
ATOM      6  H4  UNL     1      19.110   6.712  10.290  1.00  0.00     0.189 HD
HETATM    7  C7  UNL     1      20.589   5.306  10.224  1.00  0.00     0.342 A 
HETATM    8  O1  UNL     1      20.469   5.069   8.982  1.00  0.00    -0.246 OA
HETATM    9  N5  UNL     1      21.485   4.674  10.968  1.00  0.00    -0.259 N 
ATOM     10  H5  UNL     1      22.085   3.985  10.515  1.00  0.00     0.175 HD
HETATM   11  C8  UNL     1      21.654   4.891  12.305  1.00  0.00     0.349 A 
HETATM   12  O2  UNL     1      22.525   4.248  12.922  1.00  0.00    -0.245 OA
HETATM   13  N6  UNL     1      20.851   5.804  12.880  1.00  0.00    -0.092 N 
HETATM   14  C9  UNL     1      20.746   6.274  14.175  1.00  0.00     0.107 A 
ENDROOT
BRANCH  14  15
HETATM   15  C10 UNL     1      21.611   5.868  15.244  1.00  0.00     0.051 C 
BRANCH  15  16
HETATM   16  C11 UNL     1      21.376   5.379  16.428  1.00  0.00     0.091 C 
BRANCH  16  17
HETATM   17  N7  UNL     1      22.149   4.263  16.935  1.00  0.00    -0.353 N 
HETATM   18  C12 UNL     1      21.582   3.518  18.026  1.00  0.00     0.151 C 
HETATM   19  C13 UNL     1      22.121   2.132  18.149  1.00  0.00     0.187 C 
HETATM   20  O3  UNL     1      23.406   1.944  17.717  1.00  0.00    -0.385 OA
HETATM   21  C14 UNL     1      24.117   3.103  17.539  1.00  0.00     0.231 C 
HETATM   22  C15 UNL     1      23.426   3.878  16.406  1.00  0.00     0.176 C 
BRANCH  22  23
HETATM   23  O4  UNL     1      23.325   3.057  15.288  1.00  0.00    -0.367 OA
ATOM     24  H4  UNL     1      24.065   2.469  15.191  1.00  0.00     0.212 HD
ENDBRANCH  22  23
BRANCH  22  25
HETATM   25  C16 UNL     1      24.313   5.044  16.080  1.00  0.00     0.227 C 
BRANCH  25  26
HETATM   26  O5  UNL     1      25.654   4.783  16.304  1.00  0.00    -0.396 OA
ATOM     27  H5  UNL     1      25.990   5.207  17.086  1.00  0.00     0.209 HD
ENDBRANCH  25  26
ENDBRANCH  22  25
ENDBRANCH  16  17
ENDBRANCH  15  16
ENDBRANCH  14  15
BRANCH   1  28
HETATM   28  N2  UNL     1      19.172   7.950  15.279  1.00  0.00    -0.372 N 
ATOM     29  H2  UNL     1      19.229   7.593  16.233  1.00  0.00     0.161 HD
BRANCH  28  30
HETATM   30  C4  UNL     1      18.499   9.228  14.998  1.00  0.00     0.140 C 
BRANCH  30  31
HETATM   31  C3  UNL     1      17.113   9.132  15.539  1.00  0.00     0.135 C 
BRANCH  31  32
HETATM   32  N1  UNL     1      16.903   9.899  16.745  1.00  0.00    -0.419 N 
HETATM   33  C1  UNL     1      16.234  11.140  16.573  1.00  0.00     0.142 C 
HETATM   34  C2  UNL     1      16.461   9.136  17.866  1.00  0.00     0.142 C 
ENDBRANCH  31  32
ENDBRANCH  30  31
ENDBRANCH  28  30
ENDBRANCH   1  28
TORSDOF 10
ENDMDL
MODEL 2
REMARK VINA RESULT: -6.553773205      1.027      1.846
REMARK  10 active torsions:
REMARK  status: ('A' for Active; 'I' for Inactive)
REMARK    1  A    between atoms: N1_2  and  C3_4 
REMARK    2  A    between atoms: C3_4  and  C4_5 
REMARK    3  A    between atoms: C4_5  and  N2_6 
REMARK    4  A    between atoms: N2_6  and  C5_8 
REMARK    5  A    between atoms: C9_21  and  C10_22 
REMARK    6  A    between atoms: C10_22  and  C11_23 
REMARK    7  A    between atoms: C11_23  and  N7_24 
REMARK    8  A    between atoms: C15_29  and  O4_30 
REMARK    9  A    between atoms: C15_29  and  C16_32 
REMARK   10  A    between atoms: C16_32  and  O5_33 
ROOT
HETATM    1  C5  UNL     1      19.704   7.196  14.161  1.00  0.00     0.145 A 
HETATM    2  N3  UNL     1      19.255   7.367  12.889  1.00  0.00    -0.174 N 
ATOM      3  H3  UNL     1      18.522   8.013  12.596  1.00  0.00     0.186 HD
HETATM    4  C6  UNL     1      19.937   6.544  12.092  1.00  0.00     0.699 A 
HETATM    5  N4  UNL     1      19.848   6.354  10.743  1.00  0.00    -0.140 N 
ATOM      6  H4  UNL     1      19.169   6.897  10.208  1.00  0.00     0.189 HD
HETATM    7  C7  UNL     1      20.629   5.474  10.104  1.00  0.00     0.342 A 
HETATM    8  O1  UNL     1      20.537   5.305   8.848  1.00  0.00    -0.246 OA
HETATM    9  N5  UNL     1      21.496   4.789  10.836  1.00  0.00    -0.259 N 
ATOM     10  H5  UNL     1      22.097   4.115  10.361  1.00  0.00     0.175 HD
HETATM   11  C8  UNL     1      21.634   4.932  12.186  1.00  0.00     0.349 A 
HETATM   12  O2  UNL     1      22.479   4.243  12.789  1.00  0.00    -0.245 OA
HETATM   13  N6  UNL     1      20.830   5.826  12.789  1.00  0.00    -0.092 N 
HETATM   14  C9  UNL     1      20.699   6.228  14.104  1.00  0.00     0.107 A 
ENDROOT
BRANCH  14  15
HETATM   15  C10 UNL     1      21.530   5.753  15.171  1.00  0.00     0.051 C 
BRANCH  15  16
HETATM   16  C11 UNL     1      21.428   4.738  15.980  1.00  0.00     0.091 C 
BRANCH  16  17
HETATM   17  N7  UNL     1      22.611   4.061  16.473  1.00  0.00    -0.353 N 
HETATM   18  C12 UNL     1      23.874   4.709  16.249  1.00  0.00     0.151 C 
HETATM   19  C13 UNL     1      24.945   4.274  17.193  1.00  0.00     0.187 C 
HETATM   20  O3  UNL     1      24.847   2.995  17.670  1.00  0.00    -0.385 OA
HETATM   21  C14 UNL     1      23.975   2.198  16.972  1.00  0.00     0.231 C 
HETATM   22  C15 UNL     1      22.574   2.802  17.159  1.00  0.00     0.176 C 
BRANCH  22  23
HETATM   23  O4  UNL     1      22.312   2.932  18.519  1.00  0.00    -0.367 OA
ATOM     24  H4  UNL     1      21.996   2.128  18.915  1.00  0.00     0.212 HD
ENDBRANCH  22  23
BRANCH  22  25
HETATM   25  C16 UNL     1      21.603   1.825  16.563  1.00  0.00     0.227 C 
BRANCH  25  26
HETATM   26  O5  UNL     1      22.221   0.827  15.828  1.00  0.00    -0.396 OA
ATOM     27  H5  UNL     1      21.629   0.385  15.231  1.00  0.00     0.209 HD
ENDBRANCH  25  26
ENDBRANCH  22  25
ENDBRANCH  16  17
ENDBRANCH  15  16
ENDBRANCH  14  15
BRANCH   1  28
HETATM   28  N2  UNL     1      19.122   7.869  15.256  1.00  0.00    -0.372 N 
ATOM     29  H2  UNL     1      19.080   7.427  16.174  1.00  0.00     0.161 HD
BRANCH  28  30
HETATM   30  C4  UNL     1      18.576   9.220  15.051  1.00  0.00     0.140 C 
BRANCH  30  31
HETATM   31  C3  UNL     1      17.141   9.189  15.452  1.00  0.00     0.135 C 
BRANCH  31  32
HETATM   32  N1  UNL     1      16.935   8.949  16.861  1.00  0.00    -0.419 N 
HETATM   33  C1  UNL     1      17.490   9.921  17.736  1.00  0.00     0.142 C 
HETATM   34  C2  UNL     1      15.618   8.522  17.207  1.00  0.00     0.142 C 
ENDBRANCH  31  32
ENDBRANCH  30  31
ENDBRANCH  28  30
ENDBRANCH   1  28
TORSDOF 10
ENDMDL
MODEL 3
REMARK VINA RESULT: -6.066223630      1.701      2.491
REMARK  10 active torsions:
REMARK  status: ('A' for Active; 'I' for Inactive)
REMARK    1  A    between atoms: N1_2  and  C3_4 
REMARK    2  A    between atoms: C3_4  and  C4_5 
REMARK    3  A    between atoms: C4_5  and  N2_6 
REMARK    4  A    between atoms: N2_6  and  C5_8 
REMARK    5  A    between atoms: C9_21  and  C10_22 
REMARK    6  A    between atoms: C10_22  and  C11_23 
REMARK    7  A    between atoms: C11_23  and  N7_24 
REMARK    8  A    between atoms: C15_29  and  O4_30 
REMARK    9  A    between atoms: C15_29  and  C16_32 
REMARK   10  A    between atoms: C16_32  and  O5_33 
ROOT
HETATM    1  C5  UNL     1      20.034   7.093  13.271  1.00  0.00     0.145 A 
HETATM    2  N3  UNL     1      19.147   6.762  12.294  1.00  0.00    -0.174 N 
ATOM      3  H3  UNL     1      18.132   6.844  12.355  1.00  0.00     0.186 HD
HETATM    4  C6  UNL     1      19.833   6.311  11.243  1.00  0.00     0.699 A 
HETATM    5  N4  UNL     1      19.391   5.864  10.032  1.00  0.00    -0.140 N 
ATOM      6  H4  UNL     1      18.388   5.847   9.844  1.00  0.00     0.189 HD
HETATM    7  C7  UNL     1      20.240   5.448   9.084  1.00  0.00     0.342 A 
HETATM    8  O1  UNL     1      19.818   5.034   7.959  1.00  0.00    -0.246 OA
HETATM    9  N5  UNL     1      21.534   5.486   9.368  1.00  0.00    -0.259 N 
ATOM     10  H5  UNL     1      22.192   5.172   8.655  1.00  0.00     0.175 HD
HETATM   11  C8  UNL     1      22.040   5.921  10.559  1.00  0.00     0.349 A 
HETATM   12  O2  UNL     1      23.273   5.920  10.734  1.00  0.00    -0.245 OA
HETATM   13  N6  UNL     1      21.153   6.330  11.484  1.00  0.00    -0.092 N 
HETATM   14  C9  UNL     1      21.299   6.826  12.765  1.00  0.00     0.107 A 
ENDROOT
BRANCH  14  15
HETATM   15  C10 UNL     1      22.568   7.077  13.384  1.00  0.00     0.051 C 
BRANCH  15  16
HETATM   16  C11 UNL     1      23.554   6.294  13.715  1.00  0.00     0.091 C 
BRANCH  16  17
HETATM   17  N7  UNL     1      23.481   5.472  14.907  1.00  0.00    -0.353 N 
HETATM   18  C12 UNL     1      24.684   5.339  15.682  1.00  0.00     0.151 C 
HETATM   19  C13 UNL     1      24.439   4.956  17.104  1.00  0.00     0.187 C 
HETATM   20  O3  UNL     1      23.321   4.205  17.343  1.00  0.00    -0.385 OA
HETATM   21  C14 UNL     1      22.767   3.643  16.221  1.00  0.00     0.231 C 
HETATM   22  C15 UNL     1      22.286   4.803  15.335  1.00  0.00     0.176 C 
BRANCH  22  23
HETATM   23  O4  UNL     1      21.441   5.622  16.076  1.00  0.00    -0.367 OA
ATOM     24  H4  UNL     1      20.587   5.235  16.227  1.00  0.00     0.212 HD
ENDBRANCH  22  23
BRANCH  22  25
HETATM   25  C16 UNL     1      21.510   4.188  14.207  1.00  0.00     0.227 C 
BRANCH  25  26
HETATM   26  O5  UNL     1      20.147   4.412  14.303  1.00  0.00    -0.396 OA
ATOM     27  H5  UNL     1      19.873   5.222  13.889  1.00  0.00     0.209 HD
ENDBRANCH  25  26
ENDBRANCH  22  25
ENDBRANCH  16  17
ENDBRANCH  15  16
ENDBRANCH  14  15
BRANCH   1  28
HETATM   28  N2  UNL     1      19.612   7.529  14.545  1.00  0.00    -0.372 N 
ATOM     29  H2  UNL     1      19.742   6.936  15.365  1.00  0.00     0.161 HD
BRANCH  28  30
HETATM   30  C4  UNL     1      18.984   8.853  14.672  1.00  0.00     0.140 C 
BRANCH  30  31
HETATM   31  C3  UNL     1      18.273   8.888  15.982  1.00  0.00     0.135 C 
BRANCH  31  32
HETATM   32  N1  UNL     1      16.864   9.186  15.873  1.00  0.00    -0.419 N 
HETATM   33  C1  UNL     1      16.100   8.971  17.051  1.00  0.00     0.142 C 
HETATM   34  C2  UNL     1      16.563  10.397  15.183  1.00  0.00     0.142 C 
ENDBRANCH  31  32
ENDBRANCH  30  31
ENDBRANCH  28  30
ENDBRANCH   1  28
TORSDOF 10
ENDMDL
MODEL 4
REMARK VINA RESULT: -5.959629243      1.517      5.731
REMARK  10 active torsions:
REMARK  status: ('A' for Active; 'I' for Inactive)
REMARK    1  A    between atoms: N1_2  and  C3_4 
REMARK    2  A    between atoms: C3_4  and  C4_5 
REMARK    3  A    between atoms: C4_5  and  N2_6 
REMARK    4  A    between atoms: N2_6  and  C5_8 
REMARK    5  A    between atoms: C9_21  and  C10_22 
REMARK    6  A    between atoms: C10_22  and  C11_23 
REMARK    7  A    between atoms: C11_23  and  N7_24 
REMARK    8  A    between atoms: C15_29  and  O4_30 
REMARK    9  A    between atoms: C15_29  and  C16_32 
REMARK   10  A    between atoms: C16_32  and  O5_33 
ROOT
HETATM    1  C5  UNL     1      20.232   6.965  14.597  1.00  0.00     0.145 A 
HETATM    2  N3  UNL     1      19.871   6.431  15.795  1.00  0.00    -0.174 N 
ATOM      3  H3  UNL     1      19.035   6.670  16.329  1.00  0.00     0.186 HD
HETATM    4  C6  UNL     1      20.798   5.542  16.151  1.00  0.00     0.699 A 
HETATM    5  N4  UNL     1      20.877   4.752  17.262  1.00  0.00    -0.140 N 
ATOM      6  H4  UNL     1      20.141   4.809  17.966  1.00  0.00     0.189 HD
HETATM    7  C7  UNL     1      21.896   3.904  17.450  1.00  0.00     0.342 A 
HETATM    8  O1  UNL     1      21.959   3.174  18.488  1.00  0.00    -0.246 OA
HETATM    9  N5  UNL     1      22.831   3.860  16.512  1.00  0.00    -0.259 N 
ATOM     10  H5  UNL     1      23.612   3.218  16.643  1.00  0.00     0.175 HD
HETATM   11  C8  UNL     1      22.811   4.622  15.380  1.00  0.00     0.349 A 
HETATM   12  O2  UNL     1      23.736   4.511  14.553  1.00  0.00    -0.245 OA
HETATM   13  N6  UNL     1      21.770   5.462  15.230  1.00  0.00    -0.092 N 
HETATM   14  C9  UNL     1      21.426   6.356  14.235  1.00  0.00     0.107 A 
ENDROOT
BRANCH  14  15
HETATM   15  C10 UNL     1      22.170   6.525  13.021  1.00  0.00     0.051 C 
BRANCH  15  16
HETATM   16  C11 UNL     1      22.526   5.693  12.085  1.00  0.00     0.091 C 
BRANCH  16  17
HETATM   17  N7  UNL     1      21.781   5.610  10.845  1.00  0.00    -0.353 N 
HETATM   18  C12 UNL     1      22.301   6.340   9.721  1.00  0.00     0.151 C 
HETATM   19  C13 UNL     1      21.835   5.820   8.402  1.00  0.00     0.187 C 
HETATM   20  O3  UNL     1      20.603   5.227   8.388  1.00  0.00    -0.385 OA
HETATM   21  C14 UNL     1      19.841   5.480   9.502  1.00  0.00     0.231 C 
HETATM   22  C15 UNL     1      20.575   4.846  10.694  1.00  0.00     0.176 C 
BRANCH  22  23
HETATM   23  O4  UNL     1      20.813   3.503  10.422  1.00  0.00    -0.367 OA
ATOM     24  H4  UNL     1      21.731   3.314  10.263  1.00  0.00     0.212 HD
ENDBRANCH  22  23
BRANCH  22  25
HETATM   25  C16 UNL     1      19.651   4.952  11.872  1.00  0.00     0.227 C 
BRANCH  25  26
HETATM   26  O5  UNL     1      18.806   6.047  11.800  1.00  0.00    -0.396 OA
ATOM     27  H5  UNL     1      18.896   6.635  12.541  1.00  0.00     0.209 HD
ENDBRANCH  25  26
ENDBRANCH  22  25
ENDBRANCH  16  17
ENDBRANCH  15  16
ENDBRANCH  14  15
BRANCH   1  28
HETATM   28  N2  UNL     1      19.492   8.001  13.989  1.00  0.00    -0.372 N 
ATOM     29  H2  UNL     1      19.210   7.932  13.011  1.00  0.00     0.161 HD
BRANCH  28  30
HETATM   30  C4  UNL     1      19.134   9.183  14.788  1.00  0.00     0.140 C 
BRANCH  30  31
HETATM   31  C3  UNL     1      17.649   9.204  14.916  1.00  0.00     0.135 C 
BRANCH  31  32
HETATM   32  N1  UNL     1      17.183   9.350  16.275  1.00  0.00    -0.419 N 
HETATM   33  C1  UNL     1      18.176   9.215  17.281  1.00  0.00     0.142 C 
HETATM   34  C2  UNL     1      16.273  10.430  16.480  1.00  0.00     0.142 C 
ENDBRANCH  31  32
ENDBRANCH  30  31
ENDBRANCH  28  30
ENDBRANCH   1  28
TORSDOF 10
ENDMDL
MODEL 5
REMARK VINA RESULT: -5.817011311      1.087      1.459
REMARK  10 active torsions:
REMARK  status: ('A' for Active; 'I' for Inactive)
REMARK    1  A    between atoms: N1_2  and  C3_4 
REMARK    2  A    between atoms: C3_4  and  C4_5 
REMARK    3  A    between atoms: C4_5  and  N2_6 
REMARK    4  A    between atoms: N2_6  and  C5_8 
REMARK    5  A    between atoms: C9_21  and  C10_22 
REMARK    6  A    between atoms: C10_22  and  C11_23 
REMARK    7  A    between atoms: C11_23  and  N7_24 
REMARK    8  A    between atoms: C15_29  and  O4_30 
REMARK    9  A    between atoms: C15_29  and  C16_32 
REMARK   10  A    between atoms: C16_32  and  O5_33 
ROOT
HETATM    1  C5  UNL     1      19.939   7.033  13.842  1.00  0.00     0.145 A 
HETATM    2  N3  UNL     1      19.153   7.008  12.733  1.00  0.00    -0.174 N 
ATOM      3  H3  UNL     1      18.243   7.457  12.635  1.00  0.00     0.186 HD
HETATM    4  C6  UNL     1      19.778   6.296  11.795  1.00  0.00     0.699 A 
HETATM    5  N4  UNL     1      19.392   5.992  10.521  1.00  0.00    -0.140 N 
ATOM      6  H4  UNL     1      18.495   6.335  10.178  1.00  0.00     0.189 HD
HETATM    7  C7  UNL     1      20.164   5.256   9.711  1.00  0.00     0.342 A 
HETATM    8  O1  UNL     1      19.796   4.979   8.527  1.00  0.00    -0.246 OA
HETATM    9  N5  UNL     1      21.322   4.831  10.195  1.00  0.00    -0.259 N 
ATOM     10  H5  UNL     1      21.919   4.270   9.588  1.00  0.00     0.175 HD
HETATM   11  C8  UNL     1      21.764   5.100  11.458  1.00  0.00     0.349 A 
HETATM   12  O2  UNL     1      22.869   4.657  11.824  1.00  0.00    -0.245 OA
HETATM   13  N6  UNL     1      20.959   5.842  12.240  1.00  0.00    -0.092 N 
HETATM   14  C9  UNL     1      21.080   6.302  13.537  1.00  0.00     0.107 A 
ENDROOT
BRANCH  14  15
HETATM   15  C10 UNL     1      22.242   6.098  14.351  1.00  0.00     0.051 C 
BRANCH  15  16
HETATM   16  C11 UNL     1      22.816   5.023  14.809  1.00  0.00     0.091 C 
BRANCH  16  17
HETATM   17  N7  UNL     1      22.443   4.476  16.099  1.00  0.00    -0.353 N 
HETATM   18  C12 UNL     1      21.364   5.121  16.795  1.00  0.00     0.151 C 
HETATM   19  C13 UNL     1      20.694   4.247  17.802  1.00  0.00     0.187 C 
HETATM   20  O3  UNL     1      21.475   3.287  18.383  1.00  0.00    -0.385 OA
HETATM   21  C14 UNL     1      22.823   3.470  18.203  1.00  0.00     0.231 C 
HETATM   22  C15 UNL     1      23.091   3.342  16.695  1.00  0.00     0.176 C 
BRANCH  22  23
HETATM   23  O4  UNL     1      22.584   2.128  16.244  1.00  0.00    -0.367 OA
ATOM     24  H4  UNL     1      23.247   1.570  15.854  1.00  0.00     0.212 HD
ENDBRANCH  22  23
BRANCH  22  25
HETATM   25  C16 UNL     1      24.582   3.346  16.521  1.00  0.00     0.227 C 
BRANCH  25  26
HETATM   26  O5  UNL     1      25.214   2.354  17.251  1.00  0.00    -0.396 OA
ATOM     27  H5  UNL     1      25.030   1.480  16.928  1.00  0.00     0.209 HD
ENDBRANCH  25  26
ENDBRANCH  22  25
ENDBRANCH  16  17
ENDBRANCH  15  16
ENDBRANCH  14  15
BRANCH   1  28
HETATM   28  N2  UNL     1      19.518   7.644  15.043  1.00  0.00    -0.372 N 
ATOM     29  H2  UNL     1      19.778   7.247  15.946  1.00  0.00     0.161 HD
BRANCH  28  30
HETATM   30  C4  UNL     1      18.699   8.863  14.970  1.00  0.00     0.140 C 
BRANCH  30  31
HETATM   31  C3  UNL     1      18.113   9.090  16.322  1.00  0.00     0.135 C 
BRANCH  31  32
HETATM   32  N1  UNL     1      16.683   9.296  16.310  1.00  0.00    -0.419 N 
HETATM   33  C1  UNL     1      16.007   8.966  17.515  1.00  0.00     0.142 C 
HETATM   34  C2  UNL     1      16.262  10.520  15.710  1.00  0.00     0.142 C 
ENDBRANCH  31  32
ENDBRANCH  30  31
ENDBRANCH  28  30
ENDBRANCH   1  28
TORSDOF 10
ENDMDL
