MODEL 1
REMARK VINA RESULT: -6.831408508      0.000      0.000
REMARK  4 active torsions:
REMARK  status: ('A' for Active; 'I' for Inactive)
REMARK    1  A    between atoms: C2_2  and  C3_3 
REMARK    2  A    between atoms: C5_5  and  C6_6 
REMARK    3  A    between atoms: C5_5  and  N2_16 
REMARK    4  A    between atoms: C6_6  and  C8_9 
ROOT
HETATM    1  C6  UNL     1      69.296  -4.912  71.712  1.00  0.00     0.184 C 
HETATM    2  C7  UNL     1      68.283  -4.390  70.799  1.00  0.00     0.075 C 
HETATM    3  N1  UNL     1      67.501  -3.948  70.060  1.00  0.00    -0.196 NA
ENDROOT
BRANCH   1   4
HETATM    4  C5  UNL     1      69.502  -6.354  71.722  1.00  0.00     0.118 C 
HETATM    5  C4  UNL     1      70.018  -7.166  72.575  1.00  0.00     0.042 C 
HETATM    6  C3  UNL     1      70.627  -6.922  73.925  1.00  0.00     0.043 C 
HETATM    7  S1  UNL     1      70.005  -8.937  72.154  1.00  0.00     0.035 SA
HETATM    8  C16 UNL     1      71.990  -7.464  74.024  1.00  0.00     0.099 C 
HETATM    9  C14 UNL     1      72.383  -8.672  73.329  1.00  0.00     0.159 C 
HETATM   10  C15 UNL     1      72.593  -7.729  75.368  1.00  0.00     0.215 C 
HETATM   11  O3  UNL     1      71.707  -9.347  72.324  1.00  0.00    -0.259 OA
HETATM   12  N3  UNL     1      73.526  -9.024  73.831  1.00  0.00    -0.247 N 
HETATM   13  O4  UNL     1      73.914  -8.116  74.827  1.00  0.00    -0.278 OA
ATOM     14  H3  UNL     1      74.064  -9.841  73.544  1.00  0.00     0.196 HD
BRANCH   6  15
HETATM   15  C2  UNL     1      69.616  -7.358  74.952  1.00  0.00     0.006 C 
HETATM   16  C1  UNL     1      69.361  -6.454  76.093  1.00  0.00     0.006 C 
ENDBRANCH   6  15
BRANCH   4  17
HETATM   17  N2  UNL     1      69.110  -6.980  70.438  1.00  0.00    -0.117 N 
HETATM   18  O1  UNL     1      70.017  -7.097  69.607  1.00  0.00    -0.532 OA
HETATM   19  O2  UNL     1      67.838  -7.401  70.209  1.00  0.00    -0.532 OA
ENDBRANCH   4  17
ENDBRANCH   1   4
BRANCH   1  20
HETATM   20  C8  UNL     1      70.567  -4.187  71.464  1.00  0.00    -0.017 A 
HETATM   21  C9  UNL     1      71.151  -4.171  70.227  1.00  0.00     0.010 A 
HETATM   22  C10 UNL     1      72.328  -3.460  70.022  1.00  0.00     0.001 A 
HETATM   23  C11 UNL     1      72.923  -2.765  71.046  1.00  0.00     0.001 A 
HETATM   24  C12 UNL     1      72.345  -2.777  72.283  1.00  0.00     0.019 A 
HETATM   25  C13 UNL     1      71.163  -3.493  72.481  1.00  0.00     0.018 A 
HETATM   26 BR1  UNL     1      70.427  -3.456  74.234  1.00  0.00    -0.051 Br
ENDBRANCH   1  20
TORSDOF 4
ENDMDL
MODEL 2
REMARK VINA RESULT: -6.747549574      3.356      4.548
REMARK  4 active torsions:
REMARK  status: ('A' for Active; 'I' for Inactive)
REMARK    1  A    between atoms: C2_2  and  C3_3 
REMARK    2  A    between atoms: C5_5  and  C6_6 
REMARK    3  A    between atoms: C5_5  and  N2_16 
REMARK    4  A    between atoms: C6_6  and  C8_9 
ROOT
HETATM    1  C6  UNL     1      71.109  -4.868  70.757  1.00  0.00     0.184 C 
HETATM    2  C7  UNL     1      71.705  -3.917  69.823  1.00  0.00     0.075 C 
HETATM    3  N1  UNL     1      72.146  -3.153  69.064  1.00  0.00    -0.196 NA
ENDROOT
BRANCH   1   4
HETATM    4  C5  UNL     1      71.489  -4.750  72.158  1.00  0.00     0.118 C 
HETATM    5  C4  UNL     1      71.383  -5.537  73.171  1.00  0.00     0.042 C 
HETATM    6  C3  UNL     1      70.804  -6.915  73.291  1.00  0.00     0.043 C 
HETATM    7  S1  UNL     1      72.069  -4.955  74.753  1.00  0.00     0.035 SA
HETATM    8  C16 UNL     1      69.772  -6.994  74.336  1.00  0.00     0.099 C 
HETATM    9  C14 UNL     1      69.849  -6.200  75.544  1.00  0.00     0.159 C 
HETATM   10  C15 UNL     1      69.398  -8.321  74.919  1.00  0.00     0.215 C 
HETATM   11  O3  UNL     1      70.679  -5.124  75.818  1.00  0.00    -0.259 OA
HETATM   12  N3  UNL     1      68.967  -6.693  76.358  1.00  0.00    -0.247 N 
HETATM   13  O4  UNL     1      68.309  -7.775  75.758  1.00  0.00    -0.278 OA
ATOM     14  H3  UNL     1      68.779  -6.344  77.298  1.00  0.00     0.196 HD
BRANCH   6  15
HETATM   15  C2  UNL     1      71.961  -7.876  73.366  1.00  0.00     0.006 C 
HETATM   16  C1  UNL     1      71.899  -9.093  72.529  1.00  0.00     0.006 C 
ENDBRANCH   6  15
BRANCH   4  17
HETATM   17  N2  UNL     1      72.022  -3.406  72.478  1.00  0.00    -0.117 N 
HETATM   18  O1  UNL     1      71.195  -2.594  72.904  1.00  0.00    -0.532 OA
HETATM   19  O2  UNL     1      73.340  -3.106  72.319  1.00  0.00    -0.532 OA
ENDBRANCH   4  17
ENDBRANCH   1   4
BRANCH   1  20
HETATM   20  C8  UNL     1      69.635  -4.823  70.592  1.00  0.00    -0.017 A 
HETATM   21  C9  UNL     1      68.925  -3.676  70.816  1.00  0.00     0.010 A 
HETATM   22  C10 UNL     1      67.548  -3.661  70.626  1.00  0.00     0.001 A 
HETATM   23  C11 UNL     1      66.877  -4.787  70.214  1.00  0.00     0.001 A 
HETATM   24  C12 UNL     1      67.581  -5.934  69.988  1.00  0.00     0.019 A 
HETATM   25  C13 UNL     1      68.964  -5.942  70.180  1.00  0.00     0.018 A 
HETATM   26 BR1  UNL     1      69.863  -7.582  69.843  1.00  0.00    -0.051 Br
ENDBRANCH   1  20
TORSDOF 4
ENDMDL
MODEL 3
REMARK VINA RESULT: -6.612113703      1.745      5.455
REMARK  4 active torsions:
REMARK  status: ('A' for Active; 'I' for Inactive)
REMARK    1  A    between atoms: C2_2  and  C3_3 
REMARK    2  A    between atoms: C5_5  and  C6_6 
REMARK    3  A    between atoms: C5_5  and  N2_16 
REMARK    4  A    between atoms: C6_6  and  C8_9 
ROOT
HETATM    1  C6  UNL     1      71.839  -6.560  73.521  1.00  0.00     0.184 C 
HETATM    2  C7  UNL     1      72.619  -7.495  74.326  1.00  0.00     0.075 C 
HETATM    3  N1  UNL     1      73.229  -8.223  74.998  1.00  0.00    -0.196 NA
ENDROOT
BRANCH   1   4
HETATM    4  C5  UNL     1      71.004  -7.124  72.469  1.00  0.00     0.118 C 
HETATM    5  C4  UNL     1      70.336  -6.606  71.499  1.00  0.00     0.042 C 
HETATM    6  C3  UNL     1      70.157  -5.177  71.078  1.00  0.00     0.043 C 
HETATM    7  S1  UNL     1      69.466  -7.750  70.382  1.00  0.00     0.035 SA
HETATM    8  C16 UNL     1      68.739  -4.798  70.991  1.00  0.00     0.099 C 
HETATM    9  C14 UNL     1      67.722  -5.743  70.577  1.00  0.00     0.159 C 
HETATM   10  C15 UNL     1      68.331  -3.607  70.181  1.00  0.00     0.215 C 
HETATM   11  O3  UNL     1      67.825  -7.120  70.449  1.00  0.00    -0.259 OA
HETATM   12  N3  UNL     1      66.654  -5.046  70.340  1.00  0.00    -0.247 N 
HETATM   13  O4  UNL     1      66.906  -3.686  70.570  1.00  0.00    -0.278 OA
ATOM     14  H3  UNL     1      65.761  -5.430  70.032  1.00  0.00     0.196 HD
BRANCH   6  15
HETATM   15  C2  UNL     1      71.023  -4.960  69.866  1.00  0.00     0.006 C 
HETATM   16  C1  UNL     1      71.773  -3.690  69.775  1.00  0.00     0.006 C 
ENDBRANCH   6  15
BRANCH   4  17
HETATM   17  N2  UNL     1      70.832  -8.587  72.621  1.00  0.00    -0.117 N 
HETATM   18  O1  UNL     1      71.646  -9.283  72.005  1.00  0.00    -0.532 OA
HETATM   19  O2  UNL     1      69.846  -9.112  73.397  1.00  0.00    -0.532 OA
ENDBRANCH   4  17
ENDBRANCH   1   4
BRANCH   1  20
HETATM   20  C8  UNL     1      71.046  -5.703  74.438  1.00  0.00    -0.017 A 
HETATM   21  C9  UNL     1      70.078  -6.228  75.248  1.00  0.00     0.010 A 
HETATM   22  C10 UNL     1      69.371  -5.401  76.114  1.00  0.00     0.001 A 
HETATM   23  C11 UNL     1      69.629  -4.054  76.175  1.00  0.00     0.001 A 
HETATM   24  C12 UNL     1      70.595  -3.524  75.370  1.00  0.00     0.019 A 
HETATM   25  C13 UNL     1      71.300  -4.361  74.502  1.00  0.00     0.018 A 
HETATM   26 BR1  UNL     1      72.627  -3.539  73.416  1.00  0.00    -0.051 Br
ENDBRANCH   1  20
TORSDOF 4
ENDMDL
MODEL 4
REMARK VINA RESULT: -6.246180403      3.334      5.743
REMARK  4 active torsions:
REMARK  status: ('A' for Active; 'I' for Inactive)
REMARK    1  A    between atoms: C2_2  and  C3_3 
REMARK    2  A    between atoms: C5_5  and  C6_6 
REMARK    3  A    between atoms: C5_5  and  N2_16 
REMARK    4  A    between atoms: C6_6  and  C8_9 
ROOT
HETATM    1  C6  UNL     1      69.494  -6.901  73.745  1.00  0.00     0.184 C 
HETATM    2  C7  UNL     1      68.907  -7.519  74.930  1.00  0.00     0.075 C 
HETATM    3  N1  UNL     1      68.457  -8.044  75.866  1.00  0.00    -0.196 NA
ENDROOT
BRANCH   1   4
HETATM    4  C5  UNL     1      70.074  -5.575  73.905  1.00  0.00     0.118 C 
HETATM    5  C4  UNL     1      70.353  -4.628  73.080  1.00  0.00     0.042 C 
HETATM    6  C3  UNL     1      70.185  -4.535  71.592  1.00  0.00     0.043 C 
HETATM    7  S1  UNL     1      71.037  -3.092  73.776  1.00  0.00     0.035 SA
HETATM    8  C16 UNL     1      71.445  -4.203  70.911  1.00  0.00     0.099 C 
HETATM    9  C14 UNL     1      72.436  -3.341  71.520  1.00  0.00     0.159 C 
HETATM   10  C15 UNL     1      71.419  -3.633  69.527  1.00  0.00     0.215 C 
HETATM   11  O3  UNL     1      72.514  -2.912  72.837  1.00  0.00    -0.259 OA
HETATM   12  N3  UNL     1      73.273  -3.029  70.579  1.00  0.00    -0.247 N 
HETATM   13  O4  UNL     1      72.890  -3.635  69.375  1.00  0.00    -0.278 OA
ATOM     14  H3  UNL     1      74.090  -2.431  70.698  1.00  0.00     0.196 HD
BRANCH   6  15
HETATM   15  C2  UNL     1      68.989  -3.657  71.336  1.00  0.00     0.006 C 
HETATM   16  C1  UNL     1      67.962  -4.150  70.393  1.00  0.00     0.006 C 
ENDBRANCH   6  15
BRANCH   4  17
HETATM   17  N2  UNL     1      70.505  -5.322  75.299  1.00  0.00    -0.117 N 
HETATM   18  O1  UNL     1      69.660  -4.791  76.027  1.00  0.00    -0.532 OA
HETATM   19  O2  UNL     1      71.746  -5.667  75.735  1.00  0.00    -0.532 OA
ENDBRANCH   4  17
ENDBRANCH   1   4
BRANCH   1  20
HETATM   20  C8  UNL     1      70.472  -7.851  73.159  1.00  0.00    -0.017 A 
HETATM   21  C9  UNL     1      71.552  -8.296  73.871  1.00  0.00     0.010 A 
HETATM   22  C10 UNL     1      72.435  -9.206  73.302  1.00  0.00     0.001 A 
HETATM   23  C11 UNL     1      72.245  -9.674  72.025  1.00  0.00     0.001 A 
HETATM   24  C12 UNL     1      71.169  -9.234  71.309  1.00  0.00     0.019 A 
HETATM   25  C13 UNL     1      70.286  -8.320  71.887  1.00  0.00     0.018 A 
HETATM   26 BR1  UNL     1      68.816  -7.762  70.819  1.00  0.00    -0.051 Br
ENDBRANCH   1  20
TORSDOF 4
ENDMDL
MODEL 5
REMARK VINA RESULT: -5.960316119      2.264      5.202
REMARK  4 active torsions:
REMARK  status: ('A' for Active; 'I' for Inactive)
REMARK    1  A    between atoms: C2_2  and  C3_3 
REMARK    2  A    between atoms: C5_5  and  C6_6 
REMARK    3  A    between atoms: C5_5  and  N2_16 
REMARK    4  A    between atoms: C6_6  and  C8_9 
ROOT
HETATM    1  C6  UNL     1      70.330  -7.975  75.020  1.00  0.00     0.184 C 
HETATM    2  C7  UNL     1      69.037  -8.319  75.606  1.00  0.00     0.075 C 
HETATM    3  N1  UNL     1      68.006  -8.558  76.089  1.00  0.00    -0.196 NA
ENDROOT
BRANCH   1   4
HETATM    4  C5  UNL     1      70.516  -8.265  73.605  1.00  0.00     0.118 C 
HETATM    5  C4  UNL     1      70.249  -7.615  72.528  1.00  0.00     0.042 C 
HETATM    6  C3  UNL     1      69.617  -6.269  72.320  1.00  0.00     0.043 C 
HETATM    7  S1  UNL     1      70.728  -8.384  70.949  1.00  0.00     0.035 SA
HETATM    8  C16 UNL     1      68.449  -6.336  71.429  1.00  0.00     0.099 C 
HETATM    9  C14 UNL     1      68.383  -7.276  70.329  1.00  0.00     0.159 C 
HETATM   10  C15 UNL     1      67.960  -5.099  70.743  1.00  0.00     0.215 C 
HETATM   11  O3  UNL     1      69.200  -8.368  70.077  1.00  0.00    -0.259 OA
HETATM   12  N3  UNL     1      67.383  -6.902  69.592  1.00  0.00    -0.247 N 
HETATM   13  O4  UNL     1      66.782  -5.761  70.141  1.00  0.00    -0.278 OA
ATOM     14  H3  UNL     1      67.078  -7.370  68.739  1.00  0.00     0.196 HD
BRANCH   6  15
HETATM   15  C2  UNL     1      70.724  -5.311  71.965  1.00  0.00     0.006 C 
HETATM   16  C1  UNL     1      70.566  -3.899  72.371  1.00  0.00     0.006 C 
ENDBRANCH   6  15
BRANCH   4  17
HETATM   17  N2  UNL     1      71.041  -9.632  73.382  1.00  0.00    -0.117 N 
HETATM   18  O1  UNL     1      70.197 -10.534  73.402  1.00  0.00    -0.532 OA
HETATM   19  O2  UNL     1      72.363  -9.860  73.160  1.00  0.00    -0.532 OA
ENDBRANCH   4  17
ENDBRANCH   1   4
BRANCH   1  20
HETATM   20  C8  UNL     1      70.615  -6.550  75.321  1.00  0.00    -0.017 A 
HETATM   21  C9  UNL     1      69.609  -5.645  75.513  1.00  0.00     0.010 A 
HETATM   22  C10 UNL     1      69.910  -4.323  75.819  1.00  0.00     0.001 A 
HETATM   23  C11 UNL     1      71.212  -3.902  75.936  1.00  0.00     0.001 A 
HETATM   24  C12 UNL     1      72.221  -4.802  75.747  1.00  0.00     0.019 A 
HETATM   25  C13 UNL     1      71.911  -6.128  75.439  1.00  0.00     0.018 A 
HETATM   26 BR1  UNL     1      73.377  -7.312  75.191  1.00  0.00    -0.051 Br
ENDBRANCH   1  20
TORSDOF 4
ENDMDL
