MODEL 1
REMARK VINA RESULT: -8.303036133      0.000      0.000
REMARK  3 active torsions:
REMARK  status: ('A' for Active; 'I' for Inactive)
REMARK    1  A    between atoms: C7_7  and  C8_8 
REMARK    2  A    between atoms: N3_15  and  O1_16 
REMARK    3  A    between atoms: N5_28  and  O2_29 
ROOT
HETATM    1  C8  UNL     1      15.857   0.590  -6.886  1.00  0.00     0.119 A 
HETATM    2  N1  UNL     1      16.390   0.276  -5.713  1.00  0.00    -0.323 N 
ATOM      3  H1  UNL     1      16.119  -0.526  -5.145  1.00  0.00     0.169 HD
HETATM    4  C9  UNL     1      17.332   1.160  -5.385  1.00  0.00     0.182 A 
HETATM    5  C10 UNL     1      17.409   2.092  -6.404  1.00  0.00     0.182 A 
HETATM    6  N2  UNL     1      16.494   1.706  -7.296  1.00  0.00    -0.323 N 
ATOM      7  H2  UNL     1      16.301   2.192  -8.173  1.00  0.00     0.169 HD
HETATM    8  N3  UNL     1      18.269   3.127  -6.384  1.00  0.00    -0.200 N 
HETATM    9  C11 UNL     1      19.080   3.240  -5.314  1.00  0.00     0.115 A 
HETATM   10  C12 UNL     1      20.024   4.330  -5.233  1.00  0.00    -0.004 A 
HETATM   11  C13 UNL     1      19.641   5.510  -4.642  1.00  0.00     0.014 A 
HETATM   12  C14 UNL     1      20.521   6.568  -4.551  1.00  0.00     0.001 A 
HETATM   13  C15 UNL     1      21.804   6.464  -5.051  1.00  0.00     0.000 A 
HETATM   14  C16 UNL     1      22.148   5.264  -5.635  1.00  0.00     0.001 A 
HETATM   15  C17 UNL     1      21.293   4.188  -5.743  1.00  0.00     0.014 A 
HETATM   16  C18 UNL     1      19.050   2.340  -4.266  1.00  0.00     0.174 A 
HETATM   17  C19 UNL     1      19.908   2.443  -3.117  1.00  0.00     0.122 C 
HETATM   18  N4  UNL     1      20.599   2.523  -2.189  1.00  0.00    -0.190 NA
HETATM   19  N5  UNL     1      18.175   1.319  -4.326  1.00  0.00    -0.191 N 
ENDROOT
BRANCH  19  20
HETATM   20  O2  UNL     1      18.091   0.386  -3.319  1.00  0.00    -0.280 OA
ATOM     21  H2  UNL     1      18.764   0.414  -2.650  1.00  0.00     0.245 HD
ENDBRANCH  19  20
BRANCH   8  22
HETATM   22  O1  UNL     1      18.297   4.024  -7.429  1.00  0.00    -0.281 OA
ATOM     23  H1  UNL     1      19.127   4.342  -7.763  1.00  0.00     0.245 HD
ENDBRANCH   8  22
BRANCH   1  24
HETATM   24  C7  UNL     1      14.799  -0.094  -7.630  1.00  0.00     0.014 A 
HETATM   25  C2  UNL     1      14.848  -0.272  -8.984  1.00  0.00    -0.048 A 
HETATM   26  C1  UNL     1      16.009   0.238  -9.774  1.00  0.00     0.049 C 
HETATM   27  C3  UNL     1      13.818  -0.927  -9.636  1.00  0.00     0.007 A 
HETATM   28  C4  UNL     1      12.718  -1.423  -8.979  1.00  0.00     0.001 A 
HETATM   29  C5  UNL     1      12.667  -1.244  -7.609  1.00  0.00     0.001 A 
HETATM   30  C6  UNL     1      13.695  -0.590  -6.961  1.00  0.00     0.016 A 
ENDBRANCH   1  24
TORSDOF 3
ENDMDL
MODEL 2
REMARK VINA RESULT: -8.052524032      1.836      7.775
REMARK  3 active torsions:
REMARK  status: ('A' for Active; 'I' for Inactive)
REMARK    1  A    between atoms: C7_7  and  C8_8 
REMARK    2  A    between atoms: N3_15  and  O1_16 
REMARK    3  A    between atoms: N5_28  and  O2_29 
ROOT
HETATM    1  C8  UNL     1      18.177   2.696  -5.566  1.00  0.00     0.119 A 
HETATM    2  N1  UNL     1      17.141   2.024  -5.083  1.00  0.00    -0.323 N 
ATOM      3  H1  UNL     1      16.886   1.973  -4.097  1.00  0.00     0.169 HD
HETATM    4  C9  UNL     1      16.481   1.424  -6.074  1.00  0.00     0.182 A 
HETATM    5  C10 UNL     1      17.128   1.729  -7.258  1.00  0.00     0.182 A 
HETATM    6  N2  UNL     1      18.154   2.505  -6.901  1.00  0.00    -0.323 N 
ATOM      7  H2  UNL     1      18.832   2.902  -7.553  1.00  0.00     0.169 HD
HETATM    8  N3  UNL     1      16.712   1.278  -8.455  1.00  0.00    -0.200 N 
HETATM    9  C11 UNL     1      15.615   0.495  -8.478  1.00  0.00     0.115 A 
HETATM   10  C12 UNL     1      15.119  -0.021  -9.731  1.00  0.00    -0.004 A 
HETATM   11  C13 UNL     1      15.579  -1.234 -10.189  1.00  0.00     0.014 A 
HETATM   12  C14 UNL     1      15.124  -1.751 -11.383  1.00  0.00     0.001 A 
HETATM   13  C15 UNL     1      14.198  -1.065 -12.143  1.00  0.00     0.000 A 
HETATM   14  C16 UNL     1      13.763   0.146 -11.649  1.00  0.00     0.001 A 
HETATM   15  C17 UNL     1      14.198   0.693 -10.460  1.00  0.00     0.014 A 
HETATM   16  C18 UNL     1      14.926   0.157  -7.328  1.00  0.00     0.174 A 
HETATM   17  C19 UNL     1      13.754  -0.676  -7.331  1.00  0.00     0.122 C 
HETATM   18  N4  UNL     1      12.808  -1.347  -7.331  1.00  0.00    -0.190 NA
HETATM   19  N5  UNL     1      15.375   0.630  -6.151  1.00  0.00    -0.191 N 
ENDROOT
BRANCH  19  20
HETATM   20  O2  UNL     1      14.740   0.333  -4.968  1.00  0.00    -0.280 OA
ATOM     21  H2  UNL     1      15.121  -0.356  -4.437  1.00  0.00     0.245 HD
ENDBRANCH  19  20
BRANCH   8  22
HETATM   22  O1  UNL     1      17.400   1.616  -9.600  1.00  0.00    -0.281 OA
ATOM     23  H1  UNL     1      17.939   0.971 -10.041  1.00  0.00     0.245 HD
ENDBRANCH   8  22
BRANCH   1  24
HETATM   24  C7  UNL     1      19.170   3.496  -4.849  1.00  0.00     0.014 A 
HETATM   25  C2  UNL     1      20.007   2.962  -3.910  1.00  0.00    -0.048 A 
HETATM   26  C1  UNL     1      19.936   1.508  -3.571  1.00  0.00     0.049 C 
HETATM   27  C3  UNL     1      20.929   3.766  -3.263  1.00  0.00     0.007 A 
HETATM   28  C4  UNL     1      21.052   5.110  -3.520  1.00  0.00     0.001 A 
HETATM   29  C5  UNL     1      20.207   5.652  -4.470  1.00  0.00     0.001 A 
HETATM   30  C6  UNL     1      19.289   4.848  -5.114  1.00  0.00     0.016 A 
ENDBRANCH   1  24
TORSDOF 3
ENDMDL
MODEL 3
REMARK VINA RESULT: -7.860199690      4.853      7.984
REMARK  3 active torsions:
REMARK  status: ('A' for Active; 'I' for Inactive)
REMARK    1  A    between atoms: C7_7  and  C8_8 
REMARK    2  A    between atoms: N3_15  and  O1_16 
REMARK    3  A    between atoms: N5_28  and  O2_29 
ROOT
HETATM    1  C8  UNL     1      20.950   5.035  -5.766  1.00  0.00     0.119 A 
HETATM    2  N1  UNL     1      21.234   4.770  -7.034  1.00  0.00    -0.323 N 
ATOM      3  H1  UNL     1      21.403   3.838  -7.412  1.00  0.00     0.169 HD
HETATM    4  C9  UNL     1      21.266   5.898  -7.743  1.00  0.00     0.182 A 
HETATM    5  C10 UNL     1      20.985   6.945  -6.884  1.00  0.00     0.182 A 
HETATM    6  N2  UNL     1      20.800   6.374  -5.692  1.00  0.00    -0.323 N 
ATOM      7  H2  UNL     1      20.574   6.883  -4.837  1.00  0.00     0.169 HD
HETATM    8  N3  UNL     1      20.938   8.228  -7.287  1.00  0.00    -0.200 N 
HETATM    9  C11 UNL     1      21.178   8.480  -8.589  1.00  0.00     0.115 A 
HETATM   10  C12 UNL     1      21.143   9.836  -9.083  1.00  0.00    -0.004 A 
HETATM   11  C13 UNL     1      22.295  10.586  -9.075  1.00  0.00     0.014 A 
HETATM   12  C14 UNL     1      22.292  11.884  -9.540  1.00  0.00     0.001 A 
HETATM   13  C15 UNL     1      21.132  12.458 -10.023  1.00  0.00     0.000 A 
HETATM   14  C16 UNL     1      19.999  11.672 -10.013  1.00  0.00     0.001 A 
HETATM   15  C17 UNL     1      19.968  10.372  -9.556  1.00  0.00     0.014 A 
HETATM   16  C18 UNL     1      21.463   7.476  -9.495  1.00  0.00     0.174 A 
HETATM   17  C19 UNL     1      21.721   7.724 -10.888  1.00  0.00     0.122 C 
HETATM   18  N4  UNL     1      21.929   7.921 -12.011  1.00  0.00    -0.190 NA
HETATM   19  N5  UNL     1      21.500   6.206  -9.051  1.00  0.00    -0.191 N 
ENDROOT
BRANCH  19  20
HETATM   20  O2  UNL     1      21.778   5.157  -9.896  1.00  0.00    -0.280 OA
ATOM     21  H2  UNL     1      22.506   5.270 -10.495  1.00  0.00     0.245 HD
ENDBRANCH  19  20
BRANCH   8  22
HETATM   22  O1  UNL     1      20.655   9.228  -6.383  1.00  0.00    -0.281 OA
ATOM     23  H1  UNL     1      19.848   9.203  -5.882  1.00  0.00     0.245 HD
ENDBRANCH   8  22
BRANCH   1  24
HETATM   24  C7  UNL     1      20.813   4.112  -4.640  1.00  0.00     0.014 A 
HETATM   25  C2  UNL     1      19.801   3.197  -4.558  1.00  0.00    -0.048 A 
HETATM   26  C1  UNL     1      18.773   3.105  -5.638  1.00  0.00     0.049 C 
HETATM   27  C3  UNL     1      19.720   2.346  -3.469  1.00  0.00     0.007 A 
HETATM   28  C4  UNL     1      20.627   2.372  -2.437  1.00  0.00     0.001 A 
HETATM   29  C5  UNL     1      21.651   3.297  -2.519  1.00  0.00     0.001 A 
HETATM   30  C6  UNL     1      21.729   4.143  -3.606  1.00  0.00     0.016 A 
ENDBRANCH   1  24
TORSDOF 3
ENDMDL
MODEL 4
REMARK VINA RESULT: -7.578847536      1.616      2.973
REMARK  3 active torsions:
REMARK  status: ('A' for Active; 'I' for Inactive)
REMARK    1  A    between atoms: C7_7  and  C8_8 
REMARK    2  A    between atoms: N3_15  and  O1_16 
REMARK    3  A    between atoms: N5_28  and  O2_29 
ROOT
HETATM    1  C8  UNL     1      15.851   0.509  -7.790  1.00  0.00     0.119 A 
HETATM    2  N1  UNL     1      16.526   1.239  -8.668  1.00  0.00    -0.323 N 
ATOM      3  H1  UNL     1      16.386   1.214  -9.678  1.00  0.00     0.169 HD
HETATM    4  C9  UNL     1      17.413   2.010  -8.039  1.00  0.00     0.182 A 
HETATM    5  C10 UNL     1      17.301   1.763  -6.683  1.00  0.00     0.182 A 
HETATM    6  N2  UNL     1      16.339   0.843  -6.577  1.00  0.00    -0.323 N 
ATOM      7  H2  UNL     1      16.015   0.446  -5.695  1.00  0.00     0.169 HD
HETATM    8  N3  UNL     1      18.061   2.384  -5.762  1.00  0.00    -0.200 N 
HETATM    9  C11 UNL     1      18.963   3.282  -6.204  1.00  0.00     0.115 A 
HETATM   10  C12 UNL     1      19.808   3.982  -5.265  1.00  0.00    -0.004 A 
HETATM   11  C13 UNL     1      21.022   3.438  -4.918  1.00  0.00     0.014 A 
HETATM   12  C14 UNL     1      21.850   4.083  -4.024  1.00  0.00     0.001 A 
HETATM   13  C15 UNL     1      21.477   5.287  -3.459  1.00  0.00     0.000 A 
HETATM   14  C16 UNL     1      20.253   5.797  -3.833  1.00  0.00     0.001 A 
HETATM   15  C17 UNL     1      19.402   5.178  -4.723  1.00  0.00     0.014 A 
HETATM   16  C18 UNL     1      19.120   3.572  -7.546  1.00  0.00     0.174 A 
HETATM   17  C19 UNL     1      20.077   4.526  -8.037  1.00  0.00     0.122 C 
HETATM   18  N4  UNL     1      20.846   5.296  -8.436  1.00  0.00    -0.190 NA
HETATM   19  N5  UNL     1      18.340   2.928  -8.435  1.00  0.00    -0.191 N 
ENDROOT
BRANCH  19  20
HETATM   20  O2  UNL     1      18.443   3.166  -9.785  1.00  0.00    -0.280 OA
ATOM     21  H2  UNL     1      18.383   4.071 -10.067  1.00  0.00     0.245 HD
ENDBRANCH  19  20
BRANCH   8  22
HETATM   22  O1  UNL     1      17.902   2.094  -4.424  1.00  0.00    -0.281 OA
ATOM     23  H1  UNL     1      18.559   1.584  -3.966  1.00  0.00     0.245 HD
ENDBRANCH   8  22
BRANCH   1  24
HETATM   24  C7  UNL     1      14.789  -0.468  -8.027  1.00  0.00     0.014 A 
HETATM   25  C2  UNL     1      14.816  -1.344  -9.075  1.00  0.00    -0.048 A 
HETATM   26  C1  UNL     1      15.956  -1.335 -10.042  1.00  0.00     0.049 C 
HETATM   27  C3  UNL     1      13.784  -2.249  -9.252  1.00  0.00     0.007 A 
HETATM   28  C4  UNL     1      12.702  -2.317  -8.407  1.00  0.00     0.001 A 
HETATM   29  C5  UNL     1      12.674  -1.432  -7.345  1.00  0.00     0.001 A 
HETATM   30  C6  UNL     1      13.705  -0.531  -7.172  1.00  0.00     0.016 A 
ENDBRANCH   1  24
TORSDOF 3
ENDMDL
MODEL 5
REMARK VINA RESULT: -7.545591272      3.243      4.610
REMARK  3 active torsions:
REMARK  status: ('A' for Active; 'I' for Inactive)
REMARK    1  A    between atoms: C7_7  and  C8_8 
REMARK    2  A    between atoms: N3_15  and  O1_16 
REMARK    3  A    between atoms: N5_28  and  O2_29 
ROOT
HETATM    1  C8  UNL     1      17.717   2.912 -10.859  1.00  0.00     0.119 A 
HETATM    2  N1  UNL     1      17.040   2.266  -9.920  1.00  0.00    -0.323 N 
ATOM      3  H1  UNL     1      16.230   1.670 -10.090  1.00  0.00     0.169 HD
HETATM    4  C9  UNL     1      17.572   2.507  -8.722  1.00  0.00     0.182 A 
HETATM    5  C10 UNL     1      18.650   3.354  -8.902  1.00  0.00     0.182 A 
HETATM    6  N2  UNL     1      18.702   3.574 -10.218  1.00  0.00    -0.323 N 
ATOM      7  H2  UNL     1      19.395   4.165 -10.678  1.00  0.00     0.169 HD
HETATM    8  N3  UNL     1      19.412   3.794  -7.883  1.00  0.00    -0.200 N 
HETATM    9  C11 UNL     1      19.091   3.378  -6.642  1.00  0.00     0.115 A 
HETATM   10  C12 UNL     1      19.869   3.815  -5.508  1.00  0.00    -0.004 A 
HETATM   11  C13 UNL     1      19.510   4.967  -4.848  1.00  0.00     0.014 A 
HETATM   12  C14 UNL     1      20.235   5.410  -3.762  1.00  0.00     0.001 A 
HETATM   13  C15 UNL     1      21.335   4.706  -3.314  1.00  0.00     0.000 A 
HETATM   14  C16 UNL     1      21.662   3.558  -4.003  1.00  0.00     0.001 A 
HETATM   15  C17 UNL     1      20.959   3.088  -5.092  1.00  0.00     0.014 A 
HETATM   16  C18 UNL     1      18.025   2.532  -6.400  1.00  0.00     0.174 A 
HETATM   17  C19 UNL     1      17.667   2.077  -5.084  1.00  0.00     0.122 C 
HETATM   18  N4  UNL     1      17.376   1.707  -4.024  1.00  0.00    -0.190 NA
HETATM   19  N5  UNL     1      17.289   2.115  -7.447  1.00  0.00    -0.191 N 
ENDROOT
BRANCH  19  20
HETATM   20  O2  UNL     1      16.215   1.273  -7.279  1.00  0.00    -0.280 OA
ATOM     21  H2  UNL     1      16.124   0.564  -7.904  1.00  0.00     0.245 HD
ENDBRANCH  19  20
BRANCH   8  22
HETATM   22  O1  UNL     1      20.474   4.638  -8.127  1.00  0.00    -0.281 OA
ATOM     23  H1  UNL     1      20.421   5.554  -7.881  1.00  0.00     0.245 HD
ENDBRANCH   8  22
BRANCH   1  24
HETATM   24  C7  UNL     1      17.491   2.939 -12.304  1.00  0.00     0.014 A 
HETATM   25  C2  UNL     1      16.776   3.927 -12.919  1.00  0.00    -0.048 A 
HETATM   26  C1  UNL     1      16.183   5.043 -12.121  1.00  0.00     0.049 C 
HETATM   27  C3  UNL     1      16.593   3.902 -14.291  1.00  0.00     0.007 A 
HETATM   28  C4  UNL     1      17.106   2.910 -15.091  1.00  0.00     0.001 A 
HETATM   29  C5  UNL     1      17.831   1.909 -14.470  1.00  0.00     0.001 A 
HETATM   30  C6  UNL     1      18.011   1.937 -13.102  1.00  0.00     0.016 A 
ENDBRANCH   1  24
TORSDOF 3
ENDMDL
