MODEL 1
REMARK VINA RESULT: -9.301125396      0.000      0.000
REMARK  3 active torsions:
REMARK  status: ('A' for Active; 'I' for Inactive)
REMARK    1  A    between atoms: C4_5  and  C5_6 
REMARK    2  A    between atoms: C8_9  and  C9_10 
REMARK       I    between atoms: C9_10  and  N2_12 
REMARK    3  A    between atoms: N2_12  and  C10_14 
ROOT
HETATM    1  N1  UNL     1      16.416   1.763  -7.771  1.00  0.00    -0.190 NA
HETATM    2  C1  UNL     1      17.197   2.086  -6.982  1.00  0.00     0.117 C 
HETATM    3  C2  UNL     1      18.170   2.516  -5.988  1.00  0.00     0.115 A 
HETATM    4  C3  UNL     1      18.703   3.777  -6.061  1.00  0.00     0.054 A 
HETATM    5  C4  UNL     1      19.640   4.181  -5.097  1.00  0.00    -0.011 A 
HETATM    6  C16 UNL     1      20.013   3.319  -4.094  1.00  0.00     0.002 A 
HETATM    7  C17 UNL     1      20.917   3.697  -3.128  1.00  0.00     0.014 A 
HETATM    8  C18 UNL     1      21.285   2.824  -2.106  1.00  0.00     0.001 A 
HETATM    9  C19 UNL     1      20.710   1.574  -2.098  1.00  0.00     0.002 A 
HETATM   10  C20 UNL     1      19.808   1.183  -3.050  1.00  0.00     0.030 A 
HETATM   11  C21 UNL     1      19.446   2.050  -4.060  1.00  0.00     0.044 A 
HETATM   12  N5  UNL     1      18.558   1.704  -4.998  1.00  0.00    -0.347 N 
ATOM     13  H5  UNL     1      18.153   0.768  -4.957  1.00  0.00     0.167 HD
ENDROOT
BRANCH   5  14
HETATM   14  C5  UNL     1      20.239   5.516  -5.222  1.00  0.00    -0.025 A 
HETATM   15  C6  UNL     1      19.990   6.516  -4.333  1.00  0.00     0.013 A 
HETATM   16  C7  UNL     1      20.556   7.749  -4.469  1.00  0.00     0.018 A 
HETATM   17  C8  UNL     1      21.399   8.036  -5.504  1.00  0.00     0.032 A 
HETATM   18  C14 UNL     1      21.670   7.043  -6.420  1.00  0.00     0.018 A 
HETATM   19  C15 UNL     1      21.102   5.793  -6.289  1.00  0.00     0.013 A 
BRANCH  17  20
HETATM   20  C9  UNL     1      21.999   9.360  -5.638  1.00  0.00     0.257 C 
HETATM   21  O1  UNL     1      21.412  10.260  -6.290  1.00  0.00    -0.267 OA
HETATM   22  N2  UNL     1      23.250   9.690  -5.052  1.00  0.00    -0.308 N 
ATOM     23  H2  UNL     1      24.090   9.216  -5.385  1.00  0.00     0.170 HD
BRANCH  22  24
HETATM   24  C10 UNL     1      23.362  10.563  -4.120  1.00  0.00     0.123 A 
HETATM   25  C11 UNL     1      24.313  10.376  -3.141  1.00  0.00     0.136 A 
HETATM   26  N3  UNL     1      24.487  11.251  -2.132  1.00  0.00    -0.371 N 
HETATM   27  C12 UNL     1      23.727  12.350  -2.048  1.00  0.00     0.104 A 
ATOM     28  H3  UNL     1      25.202  11.076  -1.427  1.00  0.00     0.164 HD
HETATM   29  C13 UNL     1      22.770  12.557  -3.018  1.00  0.00     0.106 A 
HETATM   30  N4  UNL     1      22.616  11.673  -4.011  1.00  0.00    -0.350 N 
ATOM     31  H4  UNL     1      21.901  11.851  -4.715  1.00  0.00     0.166 HD
ENDBRANCH  22  24
ENDBRANCH  17  20
ENDBRANCH   5  14
TORSDOF 3
ENDMDL
MODEL 2
REMARK VINA RESULT: -8.575811648      2.423      8.981
REMARK  3 active torsions:
REMARK  status: ('A' for Active; 'I' for Inactive)
REMARK    1  A    between atoms: C4_5  and  C5_6 
REMARK    2  A    between atoms: C8_9  and  C9_10 
REMARK       I    between atoms: C9_10  and  N2_12 
REMARK    3  A    between atoms: N2_12  and  C10_14 
ROOT
HETATM    1  N1  UNL     1      24.354  12.335  -3.777  1.00  0.00    -0.190 NA
HETATM    2  C1  UNL     1      23.773  11.591  -4.443  1.00  0.00     0.117 C 
HETATM    3  C2  UNL     1      23.027  10.646  -5.263  1.00  0.00     0.115 A 
HETATM    4  C3  UNL     1      22.681   9.424  -4.746  1.00  0.00     0.054 A 
HETATM    5  C4  UNL     1      21.962   8.522  -5.545  1.00  0.00    -0.011 A 
HETATM    6  C16 UNL     1      21.609   8.866  -6.828  1.00  0.00     0.002 A 
HETATM    7  C17 UNL     1      20.890   8.005  -7.624  1.00  0.00     0.014 A 
HETATM    8  C18 UNL     1      20.524   8.362  -8.922  1.00  0.00     0.001 A 
HETATM    9  C19 UNL     1      20.907   9.604  -9.373  1.00  0.00     0.002 A 
HETATM   10  C20 UNL     1      21.621  10.473  -8.593  1.00  0.00     0.030 A 
HETATM   11  C21 UNL     1      21.981  10.116  -7.309  1.00  0.00     0.044 A 
HETATM   12  N5  UNL     1      22.667  10.947  -6.516  1.00  0.00    -0.347 N 
ATOM     13  H5  UNL     1      22.931  11.859  -6.887  1.00  0.00     0.167 HD
ENDROOT
BRANCH   5  14
HETATM   14  C5  UNL     1      21.647   7.198  -4.993  1.00  0.00    -0.025 A 
HETATM   15  C6  UNL     1      22.396   6.094  -5.265  1.00  0.00     0.013 A 
HETATM   16  C7  UNL     1      22.085   4.875  -4.743  1.00  0.00     0.018 A 
HETATM   17  C8  UNL     1      21.008   4.705  -3.921  1.00  0.00     0.032 A 
HETATM   18  C14 UNL     1      20.231   5.804  -3.626  1.00  0.00     0.018 A 
HETATM   19  C15 UNL     1      20.539   7.041  -4.151  1.00  0.00     0.013 A 
BRANCH  17  20
HETATM   20  C9  UNL     1      20.686   3.393  -3.366  1.00  0.00     0.257 C 
HETATM   21  O1  UNL     1      20.559   3.243  -2.125  1.00  0.00    -0.267 OA
HETATM   22  N2  UNL     1      20.505   2.246  -4.184  1.00  0.00    -0.308 N 
ATOM     23  H2  UNL     1      21.301   1.888  -4.712  1.00  0.00     0.170 HD
BRANCH  22  24
HETATM   24  C10 UNL     1      19.377   1.645  -4.282  1.00  0.00     0.123 A 
HETATM   25  C11 UNL     1      18.424   2.149  -5.139  1.00  0.00     0.136 A 
HETATM   26  N3  UNL     1      17.218   1.570  -5.293  1.00  0.00    -0.371 N 
HETATM   27  C12 UNL     1      16.903   0.465  -4.606  1.00  0.00     0.104 A 
ATOM     28  H3  UNL     1      16.540   1.976  -5.938  1.00  0.00     0.164 HD
HETATM   29  C13 UNL     1      17.842  -0.057  -3.743  1.00  0.00     0.106 A 
HETATM   30  N4  UNL     1      19.034   0.537  -3.608  1.00  0.00    -0.350 N 
ATOM     31  H4  UNL     1      19.711   0.129  -2.963  1.00  0.00     0.166 HD
ENDBRANCH  22  24
ENDBRANCH  17  20
ENDBRANCH   5  14
TORSDOF 3
ENDMDL
MODEL 3
REMARK VINA RESULT: -8.207307382      1.928      2.860
REMARK  3 active torsions:
REMARK  status: ('A' for Active; 'I' for Inactive)
REMARK    1  A    between atoms: C4_5  and  C5_6 
REMARK    2  A    between atoms: C8_9  and  C9_10 
REMARK       I    between atoms: C9_10  and  N2_12 
REMARK    3  A    between atoms: N2_12  and  C10_14 
ROOT
HETATM    1  N1  UNL     1      16.565   1.961  -8.388  1.00  0.00    -0.190 NA
HETATM    2  C1  UNL     1      17.248   2.202  -7.487  1.00  0.00     0.117 C 
HETATM    3  C2  UNL     1      18.100   2.531  -6.352  1.00  0.00     0.115 A 
HETATM    4  C3  UNL     1      18.762   3.731  -6.326  1.00  0.00     0.054 A 
HETATM    5  C4  UNL     1      19.580   4.038  -5.227  1.00  0.00    -0.011 A 
HETATM    6  C16 UNL     1      19.709   3.142  -4.193  1.00  0.00     0.002 A 
HETATM    7  C17 UNL     1      20.492   3.426  -3.098  1.00  0.00     0.014 A 
HETATM    8  C18 UNL     1      20.613   2.520  -2.045  1.00  0.00     0.001 A 
HETATM    9  C19 UNL     1      19.921   1.335  -2.143  1.00  0.00     0.002 A 
HETATM   10  C20 UNL     1      19.136   1.038  -3.224  1.00  0.00     0.030 A 
HETATM   11  C21 UNL     1      19.019   1.938  -4.263  1.00  0.00     0.044 A 
HETATM   12  N5  UNL     1      18.250   1.683  -5.328  1.00  0.00    -0.347 N 
ATOM     13  H5  UNL     1      17.752   0.794  -5.362  1.00  0.00     0.167 HD
ENDROOT
BRANCH   5  14
HETATM   14  C5  UNL     1      20.322   5.305  -5.241  1.00  0.00    -0.025 A 
HETATM   15  C6  UNL     1      21.395   5.515  -6.052  1.00  0.00     0.013 A 
HETATM   16  C7  UNL     1      22.070   6.699  -6.049  1.00  0.00     0.018 A 
HETATM   17  C8  UNL     1      21.700   7.728  -5.231  1.00  0.00     0.032 A 
HETATM   18  C14 UNL     1      20.617   7.545  -4.399  1.00  0.00     0.018 A 
HETATM   19  C15 UNL     1      19.929   6.350  -4.397  1.00  0.00     0.013 A 
BRANCH  17  20
HETATM   20  C9  UNL     1      22.431   8.992  -5.237  1.00  0.00     0.257 C 
HETATM   21  O1  UNL     1      23.498   9.111  -4.584  1.00  0.00    -0.267 OA
HETATM   22  N2  UNL     1      21.983  10.126  -5.966  1.00  0.00    -0.308 N 
ATOM     23  H2  UNL     1      21.107  10.571  -5.693  1.00  0.00     0.170 HD
BRANCH  22  24
HETATM   24  C10 UNL     1      22.640  10.609  -6.955  1.00  0.00     0.123 A 
HETATM   25  C11 UNL     1      22.115  10.498  -8.223  1.00  0.00     0.136 A 
HETATM   26  N3  UNL     1      22.749  10.982  -9.308  1.00  0.00    -0.371 N 
HETATM   27  C12 UNL     1      23.931  11.599  -9.185  1.00  0.00     0.104 A 
ATOM     28  H3  UNL     1      22.326  10.879 -10.231  1.00  0.00     0.164 HD
HETATM   29  C13 UNL     1      24.474  11.722  -7.925  1.00  0.00     0.106 A 
HETATM   30  N4  UNL     1      23.825  11.233  -6.862  1.00  0.00    -0.350 N 
ATOM     31  H4  UNL     1      24.249  11.338  -5.940  1.00  0.00     0.166 HD
ENDBRANCH  22  24
ENDBRANCH  17  20
ENDBRANCH   5  14
TORSDOF 3
ENDMDL
MODEL 4
REMARK VINA RESULT: -8.031489246      2.578      8.483
REMARK  3 active torsions:
REMARK  status: ('A' for Active; 'I' for Inactive)
REMARK    1  A    between atoms: C4_5  and  C5_6 
REMARK    2  A    between atoms: C8_9  and  C9_10 
REMARK       I    between atoms: C9_10  and  N2_12 
REMARK    3  A    between atoms: N2_12  and  C10_14 
ROOT
HETATM    1  N1  UNL     1      19.714  10.604  -9.917  1.00  0.00    -0.190 NA
HETATM    2  C1  UNL     1      20.334  10.379  -8.967  1.00  0.00     0.117 C 
HETATM    3  C2  UNL     1      21.118  10.071  -7.779  1.00  0.00     0.115 A 
HETATM    4  C3  UNL     1      20.946   8.867  -7.146  1.00  0.00     0.054 A 
HETATM    5  C4  UNL     1      21.707   8.580  -6.002  1.00  0.00    -0.011 A 
HETATM    6  C16 UNL     1      22.612   9.499  -5.528  1.00  0.00     0.002 A 
HETATM    7  C17 UNL     1      23.381   9.235  -4.418  1.00  0.00     0.014 A 
HETATM    8  C18 UNL     1      24.306  10.165  -3.946  1.00  0.00     0.001 A 
HETATM    9  C19 UNL     1      24.422  11.352  -4.631  1.00  0.00     0.002 A 
HETATM   10  C20 UNL     1      23.667  11.630  -5.738  1.00  0.00     0.030 A 
HETATM   11  C21 UNL     1      22.752  10.707  -6.203  1.00  0.00     0.044 A 
HETATM   12  N5  UNL     1      22.007  10.942  -7.288  1.00  0.00    -0.347 N 
ATOM     13  H5  UNL     1      22.124  11.833  -7.769  1.00  0.00     0.167 HD
ENDROOT
BRANCH   5  14
HETATM   14  C5  UNL     1      21.471   7.308  -5.308  1.00  0.00    -0.025 A 
HETATM   15  C6  UNL     1      20.483   7.150  -4.385  1.00  0.00     0.013 A 
HETATM   16  C7  UNL     1      20.283   5.960  -3.752  1.00  0.00     0.018 A 
HETATM   17  C8  UNL     1      21.065   4.872  -4.015  1.00  0.00     0.032 A 
HETATM   18  C14 UNL     1      22.073   5.001  -4.945  1.00  0.00     0.018 A 
HETATM   19  C15 UNL     1      22.282   6.202  -5.590  1.00  0.00     0.013 A 
BRANCH  17  20
HETATM   20  C9  UNL     1      20.839   3.602  -3.330  1.00  0.00     0.257 C 
HETATM   21  O1  UNL     1      20.746   3.564  -2.078  1.00  0.00    -0.267 OA
HETATM   22  N2  UNL     1      20.717   2.372  -4.031  1.00  0.00    -0.308 N 
ATOM     23  H2  UNL     1      21.524   2.016  -4.542  1.00  0.00     0.170 HD
BRANCH  22  24
HETATM   24  C10 UNL     1      19.629   1.695  -4.042  1.00  0.00     0.123 A 
HETATM   25  C11 UNL     1      18.624   2.061  -4.911  1.00  0.00     0.136 A 
HETATM   26  N3  UNL     1      17.455   1.395  -4.977  1.00  0.00    -0.371 N 
HETATM   27  C12 UNL     1      17.229   0.338  -4.188  1.00  0.00     0.104 A 
ATOM     28  H3  UNL     1      16.736   1.699  -5.634  1.00  0.00     0.164 HD
HETATM   29  C13 UNL     1      18.221  -0.046  -3.312  1.00  0.00     0.106 A 
HETATM   30  N4  UNL     1      19.375   0.631  -3.264  1.00  0.00    -0.350 N 
ATOM     31  H4  UNL     1      20.093   0.325  -2.608  1.00  0.00     0.166 HD
ENDBRANCH  22  24
ENDBRANCH  17  20
ENDBRANCH   5  14
TORSDOF 3
ENDMDL
MODEL 5
REMARK VINA RESULT: -7.845922042      4.168      8.908
REMARK  3 active torsions:
REMARK  status: ('A' for Active; 'I' for Inactive)
REMARK    1  A    between atoms: C4_5  and  C5_6 
REMARK    2  A    between atoms: C8_9  and  C9_10 
REMARK       I    between atoms: C9_10  and  N2_12 
REMARK    3  A    between atoms: N2_12  and  C10_14 
ROOT
HETATM    1  N1  UNL     1      16.306  11.804 -10.725  1.00  0.00    -0.190 NA
HETATM    2  C1  UNL     1      17.404  11.652 -10.399  1.00  0.00     0.117 C 
HETATM    3  C2  UNL     1      18.787  11.436  -9.994  1.00  0.00     0.115 A 
HETATM    4  C3  UNL     1      19.121  10.301  -9.301  1.00  0.00     0.054 A 
HETATM    5  C4  UNL     1      20.457  10.103  -8.916  1.00  0.00    -0.011 A 
HETATM    6  C16 UNL     1      21.412  11.038  -9.234  1.00  0.00     0.002 A 
HETATM    7  C17 UNL     1      22.729  10.859  -8.882  1.00  0.00     0.014 A 
HETATM    8  C18 UNL     1      23.698  11.805  -9.215  1.00  0.00     0.001 A 
HETATM    9  C19 UNL     1      23.288  12.919  -9.909  1.00  0.00     0.002 A 
HETATM   10  C20 UNL     1      21.981  13.112 -10.269  1.00  0.00     0.030 A 
HETATM   11  C21 UNL     1      21.025  12.174  -9.937  1.00  0.00     0.044 A 
HETATM   12  N5  UNL     1      19.743  12.325 -10.285  1.00  0.00    -0.347 N 
ATOM     13  H5  UNL     1      19.479  13.165 -10.800  1.00  0.00     0.167 HD
ENDROOT
BRANCH   5  14
HETATM   14  C5  UNL     1      20.786   8.908  -8.130  1.00  0.00    -0.025 A 
HETATM   15  C6  UNL     1      20.897   8.931  -6.773  1.00  0.00     0.013 A 
HETATM   16  C7  UNL     1      21.205   7.810  -6.063  1.00  0.00     0.018 A 
HETATM   17  C8  UNL     1      21.415   6.610  -6.681  1.00  0.00     0.032 A 
HETATM   18  C14 UNL     1      21.310   6.555  -8.054  1.00  0.00     0.018 A 
HETATM   19  C15 UNL     1      20.999   7.685  -8.779  1.00  0.00     0.013 A 
BRANCH  17  20
HETATM   20  C9  UNL     1      21.744   5.415  -5.908  1.00  0.00     0.257 C 
HETATM   21  O1  UNL     1      22.416   5.508  -4.851  1.00  0.00    -0.267 OA
HETATM   22  N2  UNL     1      21.329   4.116  -6.305  1.00  0.00    -0.308 N 
ATOM     23  H2  UNL     1      21.700   3.725  -7.171  1.00  0.00     0.170 HD
BRANCH  22  24
HETATM   24  C10 UNL     1      20.505   3.418  -5.614  1.00  0.00     0.123 A 
HETATM   25  C11 UNL     1      19.172   3.424  -5.960  1.00  0.00     0.136 A 
HETATM   26  N3  UNL     1      18.251   2.714  -5.279  1.00  0.00    -0.371 N 
HETATM   27  C12 UNL     1      18.610   1.968  -4.228  1.00  0.00     0.104 A 
ATOM     28  H3  UNL     1      17.273   2.746  -5.567  1.00  0.00     0.164 HD
HETATM   29  C13 UNL     1      19.939   1.948  -3.865  1.00  0.00     0.106 A 
HETATM   30  N4  UNL     1      20.836   2.660  -4.557  1.00  0.00    -0.350 N 
ATOM     31  H4  UNL     1      21.813   2.627  -4.268  1.00  0.00     0.166 HD
ENDBRANCH  22  24
ENDBRANCH  17  20
ENDBRANCH   5  14
TORSDOF 3
ENDMDL
