MODEL 1
REMARK VINA RESULT: -6.775452621      0.000      0.000
REMARK  5 active torsions:
REMARK  status: ('A' for Active; 'I' for Inactive)
REMARK    1  A    between atoms: C2_2  and  N1_4 
REMARK       I    between atoms: C4_6  and  N3_8 
REMARK    2  A    between atoms: N3_8  and  C5_10 
REMARK    3  A    between atoms: C5_10  and  C6_11 
REMARK    4  A    between atoms: C6_11  and  N4_12 
REMARK       I    between atoms: C7_14  and  N6_16 
REMARK    5  A    between atoms: C10_19  and  N7_20 
ROOT
HETATM    1  N4  UNL     1      63.422 -34.766 -32.996  1.00  0.00    -0.363 N 
ATOM      2  H4  UNL     1      62.810 -34.050 -32.606  1.00  0.00     0.162 HD
HETATM    3  C7  UNL     1      64.528 -35.034 -32.392  1.00  0.00     0.186 C 
HETATM    4  N5  UNL     1      64.895 -34.352 -31.210  1.00  0.00    -0.064 NA
HETATM    5  N6  UNL     1      65.401 -36.026 -32.914  1.00  0.00    -0.354 N 
HETATM    6  C8  UNL     1      65.382 -37.412 -32.509  1.00  0.00     0.127 C 
HETATM    7  C9  UNL     1      66.772 -37.890 -32.948  1.00  0.00     0.054 C 
HETATM    8  C10 UNL     1      66.883 -37.178 -34.282  1.00  0.00     0.203 C 
HETATM    9  C11 UNL     1      66.421 -35.786 -33.916  1.00  0.00     0.158 C 
ENDROOT
BRANCH   1  10
HETATM   10  C6  UNL     1      63.019 -35.438 -34.196  1.00  0.00     0.142 C 
BRANCH  10  11
HETATM   11  C5  UNL     1      61.523 -35.518 -34.276  1.00  0.00     0.142 C 
BRANCH  11  12
HETATM   12  N3  UNL     1      61.039 -34.604 -35.285  1.00  0.00    -0.363 N 
HETATM   13  C4  UNL     1      60.660 -33.282 -34.932  1.00  0.00     0.184 C 
HETATM   14  N1  UNL     1      61.323 -32.294 -35.366  1.00  0.00    -0.361 N 
HETATM   15  N2  UNL     1      59.535 -33.106 -34.093  1.00  0.00    -0.064 NA
ATOM     16  H1  UNL     1      62.117 -32.522 -35.965  1.00  0.00     0.162 HD
ATOM     17  H3  UNL     1      60.971 -34.909 -36.256  1.00  0.00     0.162 HD
BRANCH  14  18
HETATM   18  C2  UNL     1      61.103 -30.906 -35.127  1.00  0.00     0.076 C 
HETATM   19  C1  UNL     1      62.376 -30.132 -34.898  1.00  0.00     0.032 C 
HETATM   20  C3  UNL     1      60.296 -30.204 -36.186  1.00  0.00     0.032 C 
ENDBRANCH  14  18
ENDBRANCH  11  12
ENDBRANCH  10  11
ENDBRANCH   1  10
BRANCH   8  21
HETATM   21  N7  UNL     1      68.247 -37.138 -34.763  1.00  0.00    -0.073 N 
ATOM     22  H73 UNL     1      68.317 -36.618 -35.638  1.00  0.00     0.274 HD
ATOM     23  H72 UNL     1      68.829 -36.542 -34.175  1.00  0.00     0.274 HD
ATOM     24  H71 UNL     1      68.647 -38.073 -34.854  1.00  0.00     0.274 HD
ENDBRANCH   8  21
TORSDOF 5
ENDMDL
MODEL 2
REMARK VINA RESULT: -6.772141757      4.082      9.325
REMARK  5 active torsions:
REMARK  status: ('A' for Active; 'I' for Inactive)
REMARK    1  A    between atoms: C2_2  and  N1_4 
REMARK       I    between atoms: C4_6  and  N3_8 
REMARK    2  A    between atoms: N3_8  and  C5_10 
REMARK    3  A    between atoms: C5_10  and  C6_11 
REMARK    4  A    between atoms: C6_11  and  N4_12 
REMARK       I    between atoms: C7_14  and  N6_16 
REMARK    5  A    between atoms: C10_19  and  N7_20 
ROOT
HETATM    1  N4  UNL     1      60.481 -28.584 -34.974  1.00  0.00    -0.363 N 
ATOM      2  H4  UNL     1      60.560 -29.329 -34.281  1.00  0.00     0.162 HD
HETATM    3  C7  UNL     1      60.518 -27.360 -34.575  1.00  0.00     0.186 C 
HETATM    4  N5  UNL     1      60.665 -27.044 -33.206  1.00  0.00    -0.064 NA
HETATM    5  N6  UNL     1      60.409 -26.302 -35.518  1.00  0.00    -0.354 N 
HETATM    6  C8  UNL     1      61.539 -25.650 -36.134  1.00  0.00     0.127 C 
HETATM    7  C9  UNL     1      60.921 -24.331 -36.617  1.00  0.00     0.054 C 
HETATM    8  C10 UNL     1      59.586 -24.839 -37.124  1.00  0.00     0.203 C 
HETATM    9  C11 UNL     1      59.158 -25.737 -35.986  1.00  0.00     0.158 C 
ENDROOT
BRANCH   1  10
HETATM   10  C6  UNL     1      60.333 -28.940 -36.354  1.00  0.00     0.142 C 
BRANCH  10  11
HETATM   11  C5  UNL     1      60.178 -30.425 -36.500  1.00  0.00     0.142 C 
BRANCH  11  12
HETATM   12  N3  UNL     1      61.132 -31.100 -35.650  1.00  0.00    -0.363 N 
HETATM   13  C4  UNL     1      60.726 -32.200 -34.849  1.00  0.00     0.184 C 
HETATM   14  N1  UNL     1      61.185 -33.358 -35.082  1.00  0.00    -0.361 N 
HETATM   15  N2  UNL     1      59.806 -31.967 -33.800  1.00  0.00    -0.064 NA
ATOM     16  H1  UNL     1      61.842 -33.426 -35.859  1.00  0.00     0.162 HD
ATOM     17  H3  UNL     1      62.102 -30.785 -35.624  1.00  0.00     0.162 HD
BRANCH  14  18
HETATM   18  C2  UNL     1      60.901 -34.576 -34.399  1.00  0.00     0.076 C 
HETATM   19  C1  UNL     1      59.686 -35.291 -34.933  1.00  0.00     0.032 C 
HETATM   20  C3  UNL     1      62.048 -35.550 -34.346  1.00  0.00     0.032 C 
ENDBRANCH  14  18
ENDBRANCH  11  12
ENDBRANCH  10  11
ENDBRANCH   1  10
BRANCH   8  21
HETATM   21  N7  UNL     1      58.630 -23.768 -37.298  1.00  0.00    -0.073 N 
ATOM     22  H73 UNL     1      58.902 -22.938 -36.770  1.00  0.00     0.274 HD
ATOM     23  H72 UNL     1      58.675 -23.380 -38.240  1.00  0.00     0.274 HD
ATOM     24  H71 UNL     1      57.681 -24.061 -37.064  1.00  0.00     0.274 HD
ENDBRANCH   8  21
TORSDOF 5
ENDMDL
MODEL 3
REMARK VINA RESULT: -6.734449633      1.817      2.265
REMARK  5 active torsions:
REMARK  status: ('A' for Active; 'I' for Inactive)
REMARK    1  A    between atoms: C2_2  and  N1_4 
REMARK       I    between atoms: C4_6  and  N3_8 
REMARK    2  A    between atoms: N3_8  and  C5_10 
REMARK    3  A    between atoms: C5_10  and  C6_11 
REMARK    4  A    between atoms: C6_11  and  N4_12 
REMARK       I    between atoms: C7_14  and  N6_16 
REMARK    5  A    between atoms: C10_19  and  N7_20 
ROOT
HETATM    1  N4  UNL     1      63.153 -35.318 -33.111  1.00  0.00    -0.363 N 
ATOM      2  H4  UNL     1      62.640 -35.441 -32.238  1.00  0.00     0.162 HD
HETATM    3  C7  UNL     1      64.302 -34.737 -33.079  1.00  0.00     0.186 C 
HETATM    4  N5  UNL     1      64.852 -34.277 -31.861  1.00  0.00    -0.064 NA
HETATM    5  N6  UNL     1      65.038 -34.551 -34.280  1.00  0.00    -0.354 N 
HETATM    6  C8  UNL     1      66.035 -35.473 -34.768  1.00  0.00     0.127 C 
HETATM    7  C9  UNL     1      66.835 -34.594 -35.737  1.00  0.00     0.054 C 
HETATM    8  C10 UNL     1      65.703 -33.819 -36.382  1.00  0.00     0.203 C 
HETATM    9  C11 UNL     1      64.891 -33.418 -35.172  1.00  0.00     0.158 C 
ENDROOT
BRANCH   1  10
HETATM   10  C6  UNL     1      62.567 -35.796 -34.328  1.00  0.00     0.142 C 
BRANCH  10  11
HETATM   11  C5  UNL     1      61.102 -35.472 -34.368  1.00  0.00     0.142 C 
BRANCH  11  12
HETATM   12  N3  UNL     1      60.866 -34.403 -35.311  1.00  0.00    -0.363 N 
HETATM   13  C4  UNL     1      60.679 -33.072 -34.853  1.00  0.00     0.184 C 
HETATM   14  N1  UNL     1      61.530 -32.178 -35.135  1.00  0.00    -0.361 N 
HETATM   15  N2  UNL     1      59.529 -32.780 -34.082  1.00  0.00    -0.064 NA
ATOM     16  H1  UNL     1      62.326 -32.484 -35.695  1.00  0.00     0.162 HD
ATOM     17  H3  UNL     1      60.834 -34.605 -36.310  1.00  0.00     0.162 HD
BRANCH  14  18
HETATM   18  C2  UNL     1      61.521 -30.800 -34.771  1.00  0.00     0.076 C 
HETATM   19  C1  UNL     1      62.885 -30.270 -34.408  1.00  0.00     0.032 C 
HETATM   20  C3  UNL     1      60.905 -29.882 -35.794  1.00  0.00     0.032 C 
ENDBRANCH  14  18
ENDBRANCH  11  12
ENDBRANCH  10  11
ENDBRANCH   1  10
BRANCH   8  21
HETATM   21  N7  UNL     1      66.178 -32.641 -37.075  1.00  0.00    -0.073 N 
ATOM     22  H73 UNL     1      65.509 -31.875 -37.005  1.00  0.00     0.274 HD
ATOM     23  H72 UNL     1      66.964 -32.215 -36.583  1.00  0.00     0.274 HD
ATOM     24  H71 UNL     1      66.414 -32.840 -38.048  1.00  0.00     0.274 HD
ENDBRANCH   8  21
TORSDOF 5
ENDMDL
MODEL 4
REMARK VINA RESULT: -6.478426915      4.034      6.596
REMARK  5 active torsions:
REMARK  status: ('A' for Active; 'I' for Inactive)
REMARK    1  A    between atoms: C2_2  and  N1_4 
REMARK       I    between atoms: C4_6  and  N3_8 
REMARK    2  A    between atoms: N3_8  and  C5_10 
REMARK    3  A    between atoms: C5_10  and  C6_11 
REMARK    4  A    between atoms: C6_11  and  N4_12 
REMARK       I    between atoms: C7_14  and  N6_16 
REMARK    5  A    between atoms: C10_19  and  N7_20 
ROOT
HETATM    1  N4  UNL     1      59.455 -30.477 -35.408  1.00  0.00    -0.363 N 
ATOM      2  H4  UNL     1      58.546 -30.069 -35.190  1.00  0.00     0.162 HD
HETATM    3  C7  UNL     1      60.086 -31.115 -34.484  1.00  0.00     0.186 C 
HETATM    4  N5  UNL     1      59.537 -31.253 -33.189  1.00  0.00    -0.064 NA
HETATM    5  N6  UNL     1      61.355 -31.693 -34.758  1.00  0.00    -0.354 N 
HETATM    6  C8  UNL     1      61.545 -33.058 -35.187  1.00  0.00     0.127 C 
HETATM    7  C9  UNL     1      63.022 -33.296 -34.845  1.00  0.00     0.054 C 
HETATM    8  C10 UNL     1      63.606 -31.962 -35.268  1.00  0.00     0.203 C 
HETATM    9  C11 UNL     1      62.622 -30.997 -34.646  1.00  0.00     0.158 C 
ENDROOT
BRANCH   1  10
HETATM   10  C6  UNL     1      59.983 -30.319 -36.731  1.00  0.00     0.142 C 
BRANCH  10  11
HETATM   11  C5  UNL     1      60.503 -28.925 -36.925  1.00  0.00     0.142 C 
BRANCH  11  12
HETATM   12  N3  UNL     1      59.396 -28.005 -37.055  1.00  0.00    -0.363 N 
HETATM   13  C4  UNL     1      59.449 -26.728 -36.437  1.00  0.00     0.184 C 
HETATM   14  N1  UNL     1      59.481 -25.680 -37.148  1.00  0.00    -0.361 N 
HETATM   15  N2  UNL     1      59.465 -26.664 -35.024  1.00  0.00    -0.064 NA
ATOM     16  H1  UNL     1      59.465 -25.828 -38.156  1.00  0.00     0.162 HD
ATOM     17  H3  UNL     1      58.573 -28.275 -37.594  1.00  0.00     0.162 HD
BRANCH  14  18
HETATM   18  C2  UNL     1      59.535 -24.321 -36.720  1.00  0.00     0.076 C 
HETATM   19  C1  UNL     1      60.942 -23.808 -36.544  1.00  0.00     0.032 C 
HETATM   20  C3  UNL     1      58.775 -23.356 -37.589  1.00  0.00     0.032 C 
ENDBRANCH  14  18
ENDBRANCH  11  12
ENDBRANCH  10  11
ENDBRANCH   1  10
BRANCH   8  21
HETATM   21  N7  UNL     1      64.926 -31.750 -34.716  1.00  0.00    -0.073 N 
ATOM     22  H73 UNL     1      65.561 -32.506 -34.973  1.00  0.00     0.274 HD
ATOM     23  H72 UNL     1      65.402 -30.977 -35.180  1.00  0.00     0.274 HD
ATOM     24  H71 UNL     1      64.900 -31.615 -33.705  1.00  0.00     0.274 HD
ENDBRANCH   8  21
TORSDOF 5
ENDMDL
MODEL 5
REMARK VINA RESULT: -6.434294498      3.853      8.276
REMARK  5 active torsions:
REMARK  status: ('A' for Active; 'I' for Inactive)
REMARK    1  A    between atoms: C2_2  and  N1_4 
REMARK       I    between atoms: C4_6  and  N3_8 
REMARK    2  A    between atoms: N3_8  and  C5_10 
REMARK    3  A    between atoms: C5_10  and  C6_11 
REMARK    4  A    between atoms: C6_11  and  N4_12 
REMARK       I    between atoms: C7_14  and  N6_16 
REMARK    5  A    between atoms: C10_19  and  N7_20 
ROOT
HETATM    1  N4  UNL     1      59.377 -27.918 -36.888  1.00  0.00    -0.363 N 
ATOM      2  H4  UNL     1      58.555 -27.862 -37.489  1.00  0.00     0.162 HD
HETATM    3  C7  UNL     1      59.539 -27.026 -35.973  1.00  0.00     0.186 C 
HETATM    4  N5  UNL     1      58.599 -25.986 -35.796  1.00  0.00    -0.064 NA
HETATM    5  N6  UNL     1      60.676 -27.079 -35.122  1.00  0.00    -0.354 N 
HETATM    6  C8  UNL     1      60.693 -27.735 -33.837  1.00  0.00     0.127 C 
HETATM    7  C9  UNL     1      61.904 -27.079 -33.160  1.00  0.00     0.054 C 
HETATM    8  C10 UNL     1      62.861 -27.025 -34.335  1.00  0.00     0.203 C 
HETATM    9  C11 UNL     1      61.963 -26.485 -35.425  1.00  0.00     0.158 C 
ENDROOT
BRANCH   1  10
HETATM   10  C6  UNL     1      60.311 -28.986 -37.095  1.00  0.00     0.142 C 
BRANCH  10  11
HETATM   11  C5  UNL     1      59.803 -30.254 -36.474  1.00  0.00     0.142 C 
BRANCH  11  12
HETATM   12  N3  UNL     1      60.868 -30.895 -35.736  1.00  0.00    -0.363 N 
HETATM   13  C4  UNL     1      60.585 -31.987 -34.874  1.00  0.00     0.184 C 
HETATM   14  N1  UNL     1      61.035 -33.140 -35.142  1.00  0.00    -0.361 N 
HETATM   15  N2  UNL     1      59.797 -31.751 -33.723  1.00  0.00    -0.064 NA
ATOM     16  H1  UNL     1      61.593 -33.212 -35.993  1.00  0.00     0.162 HD
ATOM     17  H3  UNL     1      61.826 -30.562 -35.836  1.00  0.00     0.162 HD
BRANCH  14  18
HETATM   18  C2  UNL     1      60.863 -34.350 -34.409  1.00  0.00     0.076 C 
HETATM   19  C1  UNL     1      59.713 -35.190 -34.906  1.00  0.00     0.032 C 
HETATM   20  C3  UNL     1      62.091 -35.217 -34.327  1.00  0.00     0.032 C 
ENDBRANCH  14  18
ENDBRANCH  11  12
ENDBRANCH  10  11
ENDBRANCH   1  10
BRANCH   8  21
HETATM   21  N7  UNL     1      63.958 -26.112 -34.098  1.00  0.00    -0.073 N 
ATOM     22  H73 UNL     1      63.970 -25.791 -33.129  1.00  0.00     0.274 HD
ATOM     23  H72 UNL     1      64.855 -26.598 -34.117  1.00  0.00     0.274 HD
ATOM     24  H71 UNL     1      63.949 -25.327 -34.749  1.00  0.00     0.274 HD
ENDBRANCH   8  21
TORSDOF 5
ENDMDL
