MODEL 1
REMARK VINA RESULT: -7.262013828      0.000      0.000
REMARK  10 active torsions:
REMARK  status: ('A' for Active; 'I' for Inactive)
REMARK    1  A    between atoms: C2_2  and  O2_4 
REMARK    2  A    between atoms: O2_4  and  C3_5 
REMARK    3  A    between atoms: C3_5  and  C4_6 
REMARK    4  A    between atoms: C3_5  and  C17_23 
REMARK    5  A    between atoms: C10_12  and  O3_13 
REMARK    6  A    between atoms: C17_23  and  O6_25 
REMARK    7  A    between atoms: C17_23  and  C19_27 
REMARK    8  A    between atoms: C19_27  and  C20_28 
REMARK    9  A    between atoms: C20_28  and  C21_29 
REMARK   10  A    between atoms: C21_29  and  O7_30 
ROOT
HETATM    1  C4  UNL     1      79.804  49.054  37.320  1.00  0.00     0.166 C 
HETATM    2  C5  UNL     1      79.088  49.870  38.356  1.00  0.00     0.079 C 
HETATM    3  C6  UNL     1      79.765  49.562  39.663  1.00  0.00     0.012 A 
HETATM    4  C7  UNL     1      80.955  48.979  39.312  1.00  0.00     0.087 A 
HETATM    5  C8  UNL     1      81.794  48.588  40.345  1.00  0.00     0.006 A 
HETATM    6  C9  UNL     1      83.108  47.947  40.081  1.00  0.00     0.054 C 
HETATM    7  C10 UNL     1      81.423  48.787  41.659  1.00  0.00     0.083 A 
HETATM    8  C11 UNL     1      80.207  49.381  41.976  1.00  0.00     0.013 A 
HETATM    9  C12 UNL     1      79.369  49.773  40.953  1.00  0.00     0.088 A 
HETATM   10  O4  UNL     1      78.208  50.344  41.504  1.00  0.00    -0.339 OA
HETATM   11  C13 UNL     1      78.566  50.827  42.804  1.00  0.00     0.065 C 
HETATM   12  C14 UNL     1      77.391  50.916  43.724  1.00  0.00     0.046 C 
HETATM   13  C15 UNL     1      79.355  52.100  42.710  1.00  0.00     0.046 C 
HETATM   14  C16 UNL     1      79.527  49.730  43.245  1.00  0.00     0.082 C 
HETATM   15  O5  UNL     1      81.095  48.891  37.946  1.00  0.00    -0.342 OA
ENDROOT
BRANCH   1  16
HETATM   16  C3  UNL     1      80.082  49.775  36.024  1.00  0.00     0.195 C 
BRANCH  16  17
HETATM   17  O2  UNL     1      81.099  50.736  36.413  1.00  0.00    -0.311 OA
BRANCH  17  18
HETATM   18  C2  UNL     1      80.872  52.091  36.342  1.00  0.00     0.255 C 
HETATM   19  C1  UNL     1      81.971  52.989  36.783  1.00  0.00     0.126 C 
HETATM   20  O1  UNL     1      79.768  52.490  35.918  1.00  0.00    -0.266 OA
ENDBRANCH  17  18
ENDBRANCH  16  17
BRANCH  16  21
HETATM   21  C17 UNL     1      80.810  48.896  34.994  1.00  0.00     0.083 C 
HETATM   22  C18 UNL     1      80.071  48.776  33.712  1.00  0.00     0.049 C 
BRANCH  21  23
HETATM   23  O6  UNL     1      80.753  47.600  35.597  1.00  0.00    -0.388 OA
ATOM     24  H6  UNL     1      81.657  47.312  35.551  1.00  0.00     0.210 HD
ENDBRANCH  21  23
BRANCH  21  25
HETATM   25  C19 UNL     1      82.260  49.192  34.876  1.00  0.00     0.042 C 
BRANCH  25  26
HETATM   26  C20 UNL     1      83.216  48.189  35.394  1.00  0.00     0.029 C 
BRANCH  26  27
HETATM   27  C21 UNL     1      84.177  48.739  36.402  1.00  0.00     0.164 C 
BRANCH  27  28
HETATM   28  O7  UNL     1      83.694  49.864  37.053  1.00  0.00    -0.401 OA
ATOM     29  H7  UNL     1      84.172  50.066  37.849  1.00  0.00     0.209 HD
ENDBRANCH  27  28
ENDBRANCH  26  27
ENDBRANCH  25  26
ENDBRANCH  21  25
ENDBRANCH  16  21
ENDBRANCH   1  16
BRANCH   7  30
HETATM   30  O3  UNL     1      82.221  48.416  42.730  1.00  0.00    -0.359 OA
ATOM     31  H3  UNL     1      82.316  47.514  43.014  1.00  0.00     0.217 HD
ENDBRANCH   7  30
TORSDOF 10
ENDMDL
MODEL 2
REMARK VINA RESULT: -7.169229375      1.025      1.212
REMARK  10 active torsions:
REMARK  status: ('A' for Active; 'I' for Inactive)
REMARK    1  A    between atoms: C2_2  and  O2_4 
REMARK    2  A    between atoms: O2_4  and  C3_5 
REMARK    3  A    between atoms: C3_5  and  C4_6 
REMARK    4  A    between atoms: C3_5  and  C17_23 
REMARK    5  A    between atoms: C10_12  and  O3_13 
REMARK    6  A    between atoms: C17_23  and  O6_25 
REMARK    7  A    between atoms: C17_23  and  C19_27 
REMARK    8  A    between atoms: C19_27  and  C20_28 
REMARK    9  A    between atoms: C20_28  and  C21_29 
REMARK   10  A    between atoms: C21_29  and  O7_30 
ROOT
HETATM    1  C4  UNL     1      79.307  48.931  37.077  1.00  0.00     0.166 C 
HETATM    2  C5  UNL     1      78.738  49.596  38.296  1.00  0.00     0.079 C 
HETATM    3  C6  UNL     1      79.713  49.320  39.408  1.00  0.00     0.012 A 
HETATM    4  C7  UNL     1      80.860  48.917  38.776  1.00  0.00     0.087 A 
HETATM    5  C8  UNL     1      81.944  48.593  39.580  1.00  0.00     0.006 A 
HETATM    6  C9  UNL     1      83.237  48.145  39.002  1.00  0.00     0.054 C 
HETATM    7  C10 UNL     1      81.843  48.681  40.954  1.00  0.00     0.083 A 
HETATM    8  C11 UNL     1      80.662  49.093  41.558  1.00  0.00     0.013 A 
HETATM    9  C12 UNL     1      79.582  49.417  40.764  1.00  0.00     0.088 A 
HETATM   10  O4  UNL     1      78.507  49.803  41.584  1.00  0.00    -0.339 OA
HETATM   11  C13 UNL     1      79.076  50.268  42.814  1.00  0.00     0.065 C 
HETATM   12  C14 UNL     1      78.125  50.158  43.961  1.00  0.00     0.046 C 
HETATM   13  C15 UNL     1      79.668  51.638  42.651  1.00  0.00     0.046 C 
HETATM   14  C16 UNL     1      80.234  49.290  42.963  1.00  0.00     0.082 C 
HETATM   15  O5  UNL     1      80.713  48.911  37.408  1.00  0.00    -0.342 OA
ENDROOT
BRANCH   1  16
HETATM   16  C3  UNL     1      79.211  49.741  35.808  1.00  0.00     0.195 C 
BRANCH  16  17
HETATM   17  O2  UNL     1      80.426  50.534  35.851  1.00  0.00    -0.311 OA
BRANCH  17  18
HETATM   18  C2  UNL     1      80.402  51.871  36.172  1.00  0.00     0.255 C 
HETATM   19  C1  UNL     1      81.525  52.395  36.993  1.00  0.00     0.126 C 
HETATM   20  O1  UNL     1      79.450  52.566  35.763  1.00  0.00    -0.266 OA
ENDBRANCH  17  18
ENDBRANCH  16  17
BRANCH  16  21
HETATM   21  C17 UNL     1      79.393  48.891  34.539  1.00  0.00     0.083 C 
HETATM   22  C18 UNL     1      78.114  48.617  33.839  1.00  0.00     0.049 C 
BRANCH  21  23
HETATM   23  O6  UNL     1      79.824  47.634  35.068  1.00  0.00    -0.388 OA
ATOM     24  H6  UNL     1      80.768  47.686  34.976  1.00  0.00     0.210 HD
ENDBRANCH  21  23
BRANCH  21  25
HETATM   25  C19 UNL     1      80.516  49.341  33.677  1.00  0.00     0.042 C 
BRANCH  25  26
HETATM   26  C20 UNL     1      81.622  48.391  33.429  1.00  0.00     0.029 C 
BRANCH  26  27
HETATM   27  C21 UNL     1      82.892  48.749  34.137  1.00  0.00     0.164 C 
BRANCH  27  28
HETATM   28  O7  UNL     1      82.750  48.788  35.516  1.00  0.00    -0.401 OA
ATOM     29  H7  UNL     1      83.403  49.332  35.940  1.00  0.00     0.209 HD
ENDBRANCH  27  28
ENDBRANCH  26  27
ENDBRANCH  25  26
ENDBRANCH  21  25
ENDBRANCH  16  21
ENDBRANCH   1  16
BRANCH   7  30
HETATM   30  O3  UNL     1      82.891  48.370  41.805  1.00  0.00    -0.359 OA
ATOM     31  H3  UNL     1      83.792  48.301  41.510  1.00  0.00     0.217 HD
ENDBRANCH   7  30
TORSDOF 10
ENDMDL
MODEL 3
REMARK VINA RESULT: -7.151497304      2.179      4.636
REMARK  10 active torsions:
REMARK  status: ('A' for Active; 'I' for Inactive)
REMARK    1  A    between atoms: C2_2  and  O2_4 
REMARK    2  A    between atoms: O2_4  and  C3_5 
REMARK    3  A    between atoms: C3_5  and  C4_6 
REMARK    4  A    between atoms: C3_5  and  C17_23 
REMARK    5  A    between atoms: C10_12  and  O3_13 
REMARK    6  A    between atoms: C17_23  and  O6_25 
REMARK    7  A    between atoms: C17_23  and  C19_27 
REMARK    8  A    between atoms: C19_27  and  C20_28 
REMARK    9  A    between atoms: C20_28  and  C21_29 
REMARK   10  A    between atoms: C21_29  and  O7_30 
ROOT
HETATM    1  C4  UNL     1      80.304  51.240  40.131  1.00  0.00     0.166 C 
HETATM    2  C5  UNL     1      80.233  51.161  41.628  1.00  0.00     0.079 C 
HETATM    3  C6  UNL     1      78.810  51.485  41.990  1.00  0.00     0.012 A 
HETATM    4  C7  UNL     1      78.110  51.346  40.820  1.00  0.00     0.087 A 
HETATM    5  C8  UNL     1      76.745  51.591  40.868  1.00  0.00     0.006 A 
HETATM    6  C9  UNL     1      75.889  51.469  39.660  1.00  0.00     0.054 C 
HETATM    7  C10 UNL     1      76.144  51.958  42.054  1.00  0.00     0.083 A 
HETATM    8  C11 UNL     1      76.887  52.090  43.221  1.00  0.00     0.013 A 
HETATM    9  C12 UNL     1      78.244  51.847  43.179  1.00  0.00     0.088 A 
HETATM   10  O4  UNL     1      78.784  52.039  44.463  1.00  0.00    -0.339 OA
HETATM   11  C13 UNL     1      77.714  51.834  45.394  1.00  0.00     0.065 C 
HETATM   12  C14 UNL     1      77.940  52.545  46.689  1.00  0.00     0.046 C 
HETATM   13  C15 UNL     1      77.410  50.374  45.554  1.00  0.00     0.046 C 
HETATM   14  C16 UNL     1      76.560  52.456  44.619  1.00  0.00     0.082 C 
HETATM   15  O5  UNL     1      78.929  50.974  39.778  1.00  0.00    -0.342 OA
ENDROOT
BRANCH   1  16
HETATM   16  C3  UNL     1      81.100  50.140  39.474  1.00  0.00     0.195 C 
BRANCH  16  17
HETATM   17  O2  UNL     1      80.279  48.968  39.723  1.00  0.00    -0.311 OA
BRANCH  17  18
HETATM   18  C2  UNL     1      80.771  47.876  40.399  1.00  0.00     0.255 C 
HETATM   19  C1  UNL     1      81.543  48.137  41.643  1.00  0.00     0.126 C 
HETATM   20  O1  UNL     1      80.547  46.738  39.940  1.00  0.00    -0.266 OA
ENDBRANCH  17  18
ENDBRANCH  16  17
BRANCH  16  21
HETATM   21  C17 UNL     1      81.109  50.241  37.940  1.00  0.00     0.083 C 
HETATM   22  C18 UNL     1      81.050  51.641  37.452  1.00  0.00     0.049 C 
BRANCH  21  23
HETATM   23  O6  UNL     1      79.855  49.652  37.584  1.00  0.00    -0.388 OA
ATOM     24  H6  UNL     1      79.857  49.721  36.637  1.00  0.00     0.210 HD
ENDBRANCH  21  23
BRANCH  21  25
HETATM   25  C19 UNL     1      82.127  49.375  37.292  1.00  0.00     0.042 C 
BRANCH  25  26
HETATM   26  C20 UNL     1      81.820  48.829  35.952  1.00  0.00     0.029 C 
BRANCH  26  27
HETATM   27  C21 UNL     1      81.804  47.333  35.901  1.00  0.00     0.164 C 
BRANCH  27  28
HETATM   28  O7  UNL     1      81.308  46.757  37.061  1.00  0.00    -0.401 OA
ATOM     29  H7  UNL     1      81.989  46.410  37.624  1.00  0.00     0.209 HD
ENDBRANCH  27  28
ENDBRANCH  26  27
ENDBRANCH  25  26
ENDBRANCH  21  25
ENDBRANCH  16  21
ENDBRANCH   1  16
BRANCH   7  30
HETATM   30  O3  UNL     1      74.786  52.214  42.160  1.00  0.00    -0.359 OA
ATOM     31  H3  UNL     1      74.402  52.655  42.909  1.00  0.00     0.217 HD
ENDBRANCH   7  30
TORSDOF 10
ENDMDL
MODEL 4
REMARK VINA RESULT: -7.098813808      2.802      4.583
REMARK  10 active torsions:
REMARK  status: ('A' for Active; 'I' for Inactive)
REMARK    1  A    between atoms: C2_2  and  O2_4 
REMARK    2  A    between atoms: O2_4  and  C3_5 
REMARK    3  A    between atoms: C3_5  and  C4_6 
REMARK    4  A    between atoms: C3_5  and  C17_23 
REMARK    5  A    between atoms: C10_12  and  O3_13 
REMARK    6  A    between atoms: C17_23  and  O6_25 
REMARK    7  A    between atoms: C17_23  and  C19_27 
REMARK    8  A    between atoms: C19_27  and  C20_28 
REMARK    9  A    between atoms: C20_28  and  C21_29 
REMARK   10  A    between atoms: C21_29  and  O7_30 
ROOT
HETATM    1  C4  UNL     1      78.937  49.242  40.098  1.00  0.00     0.166 C 
HETATM    2  C5  UNL     1      77.899  50.147  39.503  1.00  0.00     0.079 C 
HETATM    3  C6  UNL     1      77.263  50.863  40.663  1.00  0.00     0.012 A 
HETATM    4  C7  UNL     1      78.132  50.678  41.707  1.00  0.00     0.087 A 
HETATM    5  C8  UNL     1      77.785  51.246  42.925  1.00  0.00     0.006 A 
HETATM    6  C9  UNL     1      78.652  51.110  44.123  1.00  0.00     0.054 C 
HETATM    7  C10 UNL     1      76.611  51.960  43.052  1.00  0.00     0.083 A 
HETATM    8  C11 UNL     1      75.755  52.125  41.970  1.00  0.00     0.013 A 
HETATM    9  C12 UNL     1      76.095  51.564  40.758  1.00  0.00     0.088 A 
HETATM   10  O4  UNL     1      75.091  51.858  39.818  1.00  0.00    -0.339 OA
HETATM   11  C13 UNL     1      74.442  53.052  40.271  1.00  0.00     0.065 C 
HETATM   12  C14 UNL     1      73.043  53.171  39.758  1.00  0.00     0.046 C 
HETATM   13  C15 UNL     1      75.287  54.262  40.002  1.00  0.00     0.046 C 
HETATM   14  C16 UNL     1      74.457  52.814  41.775  1.00  0.00     0.082 C 
HETATM   15  O5  UNL     1      79.228  49.935  41.332  1.00  0.00    -0.342 OA
ENDROOT
BRANCH   1  16
HETATM   16  C3  UNL     1      80.247  49.202  39.351  1.00  0.00     0.195 C 
BRANCH  16  17
HETATM   17  O2  UNL     1      80.879  50.443  39.760  1.00  0.00    -0.311 OA
BRANCH  17  18
HETATM   18  C2  UNL     1      80.965  51.520  38.909  1.00  0.00     0.255 C 
HETATM   19  C1  UNL     1      81.060  51.232  37.453  1.00  0.00     0.126 C 
HETATM   20  O1  UNL     1      80.959  52.669  39.396  1.00  0.00    -0.266 OA
ENDBRANCH  17  18
ENDBRANCH  16  17
BRANCH  16  21
HETATM   21  C17 UNL     1      81.209  48.128  39.887  1.00  0.00     0.083 C 
HETATM   22  C18 UNL     1      80.530  46.845  40.197  1.00  0.00     0.049 C 
BRANCH  21  23
HETATM   23  O6  UNL     1      81.609  48.672  41.148  1.00  0.00    -0.388 OA
ATOM     24  H6  UNL     1      81.972  47.915  41.592  1.00  0.00     0.210 HD
ENDBRANCH  21  23
BRANCH  21  25
HETATM   25  C19 UNL     1      82.470  48.017  39.109  1.00  0.00     0.042 C 
BRANCH  25  26
HETATM   26  C20 UNL     1      82.367  47.799  37.650  1.00  0.00     0.029 C 
BRANCH  26  27
HETATM   27  C21 UNL     1      83.454  48.466  36.864  1.00  0.00     0.164 C 
BRANCH  27  28
HETATM   28  O7  UNL     1      84.351  49.159  37.663  1.00  0.00    -0.401 OA
ATOM     29  H7  UNL     1      84.467  50.062  37.392  1.00  0.00     0.209 HD
ENDBRANCH  27  28
ENDBRANCH  26  27
ENDBRANCH  25  26
ENDBRANCH  21  25
ENDBRANCH  16  21
ENDBRANCH   1  16
BRANCH   7  30
HETATM   30  O3  UNL     1      76.215  52.548  44.243  1.00  0.00    -0.359 OA
ATOM     31  H3  UNL     1      75.594  53.266  44.281  1.00  0.00     0.217 HD
ENDBRANCH   7  30
TORSDOF 10
ENDMDL
MODEL 5
REMARK VINA RESULT: -7.083162061      2.183      7.084
REMARK  10 active torsions:
REMARK  status: ('A' for Active; 'I' for Inactive)
REMARK    1  A    between atoms: C2_2  and  O2_4 
REMARK    2  A    between atoms: O2_4  and  C3_5 
REMARK    3  A    between atoms: C3_5  and  C4_6 
REMARK    4  A    between atoms: C3_5  and  C17_23 
REMARK    5  A    between atoms: C10_12  and  O3_13 
REMARK    6  A    between atoms: C17_23  and  O6_25 
REMARK    7  A    between atoms: C17_23  and  C19_27 
REMARK    8  A    between atoms: C19_27  and  C20_28 
REMARK    9  A    between atoms: C20_28  and  C21_29 
REMARK   10  A    between atoms: C21_29  and  O7_30 
ROOT
HETATM    1  C4  UNL     1      80.629  50.013  37.867  1.00  0.00     0.166 C 
HETATM    2  C5  UNL     1      79.252  49.797  37.312  1.00  0.00     0.079 C 
HETATM    3  C6  UNL     1      79.428  49.632  35.828  1.00  0.00     0.012 A 
HETATM    4  C7  UNL     1      80.764  49.375  35.660  1.00  0.00     0.087 A 
HETATM    5  C8  UNL     1      81.210  49.178  34.360  1.00  0.00     0.006 A 
HETATM    6  C9  UNL     1      82.637  48.892  34.061  1.00  0.00     0.054 C 
HETATM    7  C10 UNL     1      80.326  49.244  33.302  1.00  0.00     0.083 A 
HETATM    8  C11 UNL     1      78.978  49.507  33.513  1.00  0.00     0.013 A 
HETATM    9  C12 UNL     1      78.529  49.703  34.802  1.00  0.00     0.088 A 
HETATM   10  O4  UNL     1      77.145  49.952  34.773  1.00  0.00    -0.339 OA
HETATM   11  C13 UNL     1      76.645  49.350  33.573  1.00  0.00     0.065 C 
HETATM   12  C14 UNL     1      75.382  49.991  33.097  1.00  0.00     0.046 C 
HETATM   13  C15 UNL     1      76.549  47.860  33.715  1.00  0.00     0.046 C 
HETATM   14  C16 UNL     1      77.801  49.641  32.624  1.00  0.00     0.082 C 
HETATM   15  O5  UNL     1      81.435  49.360  36.861  1.00  0.00    -0.342 OA
ENDROOT
BRANCH   1  16
HETATM   16  C3  UNL     1      80.922  49.271  39.148  1.00  0.00     0.195 C 
BRANCH  16  17
HETATM   17  O2  UNL     1      82.370  49.163  39.124  1.00  0.00    -0.311 OA
BRANCH  17  18
HETATM   18  C2  UNL     1      83.005  47.960  39.328  1.00  0.00     0.255 C 
HETATM   19  C1  UNL     1      82.531  46.797  38.533  1.00  0.00     0.126 C 
HETATM   20  O1  UNL     1      83.932  47.909  40.161  1.00  0.00    -0.266 OA
ENDBRANCH  17  18
ENDBRANCH  16  17
BRANCH  16  21
HETATM   21  C17 UNL     1      80.656  50.117  40.404  1.00  0.00     0.083 C 
HETATM   22  C18 UNL     1      80.582  51.571  40.118  1.00  0.00     0.049 C 
BRANCH  21  23
HETATM   23  O6  UNL     1      81.855  49.930  41.162  1.00  0.00    -0.388 OA
ATOM     24  H6  UNL     1      81.572  50.132  42.046  1.00  0.00     0.210 HD
ENDBRANCH  21  23
BRANCH  21  25
HETATM   25  C19 UNL     1      79.577  49.575  41.269  1.00  0.00     0.042 C 
BRANCH  25  26
HETATM   26  C20 UNL     1      79.094  50.418  42.384  1.00  0.00     0.029 C 
BRANCH  26  27
HETATM   27  C21 UNL     1      79.451  49.887  43.738  1.00  0.00     0.164 C 
BRANCH  27  28
HETATM   28  O7  UNL     1      80.656  49.201  43.750  1.00  0.00    -0.401 OA
ATOM     29  H7  UNL     1      81.409  49.774  43.664  1.00  0.00     0.209 HD
ENDBRANCH  27  28
ENDBRANCH  26  27
ENDBRANCH  25  26
ENDBRANCH  21  25
ENDBRANCH  16  21
ENDBRANCH   1  16
BRANCH   7  30
HETATM   30  O3  UNL     1      80.716  49.056  31.986  1.00  0.00    -0.359 OA
ATOM     31  H3  UNL     1      80.150  49.251  31.248  1.00  0.00     0.217 HD
ENDBRANCH   7  30
TORSDOF 10
ENDMDL
