MODEL 1
REMARK VINA RESULT: -6.878696684      0.000      0.000
REMARK  15 active torsions:
REMARK  status: ('A' for Active; 'I' for Inactive)
REMARK    1  A    between atoms: C2_2  and  C3_3 
REMARK    2  A    between atoms: C3_3  and  C5_5 
REMARK    3  A    between atoms: C6_8  and  O1_9 
REMARK    4  A    between atoms: C7_11  and  C8_12 
REMARK    5  A    between atoms: C8_12  and  C9_13 
REMARK    6  A    between atoms: C13_20  and  C14_21 
REMARK    7  A    between atoms: C14_21  and  C15_22 
REMARK    8  A    between atoms: C19_29  and  C20_30 
REMARK    9  A    between atoms: C20_30  and  C21_31 
REMARK   10  A    between atoms: C25_38  and  C26_39 
REMARK   11  A    between atoms: C26_39  and  C27_40 
REMARK   12  A    between atoms: C27_40  and  C28_41 
REMARK   13  A    between atoms: C28_41  and  C29_42 
REMARK   14  A    between atoms: C29_42  and  N5_43 
REMARK   15  A    between atoms: C31_51  and  C32_52 
ROOT
HETATM    1  C5  UNL     1      23.698  -7.917 -10.743  1.00  0.00     0.179 C 
HETATM    2  N1  UNL     1      22.692  -7.501 -11.634  1.00  0.00    -0.356 N 
ATOM      3  H1  UNL     1      23.087  -7.257 -12.542  1.00  0.00     0.162 HD
HETATM    4  C6  UNL     1      21.323  -7.328 -11.629  1.00  0.00     0.159 C 
HETATM    5  C7  UNL     1      20.197  -7.963 -10.929  1.00  0.00     0.063 C 
HETATM    6  N2  UNL     1      19.375  -8.861 -11.659  1.00  0.00    -0.325 N 
ATOM      7  H2  UNL     1      18.500  -9.045 -11.167  1.00  0.00     0.169 HD
HETATM    8  C12 UNL     1      19.434  -9.553 -12.850  1.00  0.00     0.244 C 
HETATM    9  O2  UNL     1      19.704 -10.812 -12.757  1.00  0.00    -0.271 OA
HETATM   10  C13 UNL     1      19.240  -9.145 -14.285  1.00  0.00     0.177 C 
HETATM   11  N3  UNL     1      20.442  -8.919 -15.014  1.00  0.00    -0.346 N 
ATOM     12  H3  UNL     1      20.927  -8.050 -14.790  1.00  0.00     0.163 HD
HETATM   13  C18 UNL     1      21.065  -9.718 -16.005  1.00  0.00     0.241 C 
HETATM   14  O3  UNL     1      21.374  -9.167 -17.123  1.00  0.00    -0.271 OA
HETATM   15  C19 UNL     1      21.435 -11.140 -15.950  1.00  0.00     0.177 C 
HETATM   16  N4  UNL     1      22.923 -11.093 -16.086  1.00  0.00    -0.346 N 
ATOM     17  H4  UNL     1      23.288 -10.958 -17.029  1.00  0.00     0.163 HD
HETATM   18  C24 UNL     1      23.861 -11.212 -15.074  1.00  0.00     0.241 C 
HETATM   19  O4  UNL     1      24.733 -10.260 -14.960  1.00  0.00    -0.271 OA
HETATM   20  C25 UNL     1      24.026 -12.292 -14.076  1.00  0.00     0.177 C 
HETATM   21  N6  UNL     1      23.199 -12.169 -12.915  1.00  0.00    -0.343 N 
ATOM     22  H6  UNL     1      22.272 -12.592 -12.963  1.00  0.00     0.163 HD
HETATM   23  C30 UNL     1      23.547 -11.510 -11.695  1.00  0.00     0.265 C 
HETATM   24  O5  UNL     1      22.538 -11.174 -11.021  1.00  0.00    -0.266 OA
HETATM   25  C31 UNL     1      24.881 -11.218 -11.204  1.00  0.00     0.083 C 
HETATM   26  N7  UNL     1      25.361  -9.864 -11.346  1.00  0.00    -0.324 N 
ATOM     27  H7  UNL     1      26.377  -9.795 -11.282  1.00  0.00     0.169 HD
HETATM   28  C35 UNL     1      24.760  -8.660 -11.547  1.00  0.00     0.245 C 
HETATM   29  O6  UNL     1      25.086  -7.956 -12.572  1.00  0.00    -0.271 OA
ENDROOT
BRANCH  20  30
HETATM   30  C26 UNL     1      23.797 -13.680 -14.703  1.00  0.00     0.035 C 
BRANCH  30  31
HETATM   31  C27 UNL     1      22.768 -14.450 -13.907  1.00  0.00     0.004 C 
BRANCH  31  32
HETATM   32  C28 UNL     1      23.493 -15.656 -13.326  1.00  0.00     0.027 C 
BRANCH  32  33
HETATM   33  C29 UNL     1      23.269 -15.754 -11.831  1.00  0.00     0.229 C 
BRANCH  33  34
HETATM   34  N5  UNL     1      21.979 -15.217 -11.464  1.00  0.00    -0.079 N 
ATOM     35  H53 UNL     1      22.026 -14.213 -11.287  1.00  0.00     0.274 HD
ATOM     36  H52 UNL     1      21.337 -15.204 -12.257  1.00  0.00     0.274 HD
ATOM     37  H51 UNL     1      21.586 -15.721 -10.670  1.00  0.00     0.274 HD
ENDBRANCH  33  34
ENDBRANCH  32  33
ENDBRANCH  31  32
ENDBRANCH  30  31
ENDBRANCH  20  30
BRANCH  15  38
HETATM   38  C20 UNL     1      21.005 -12.015 -17.063  1.00  0.00     0.038 C 
BRANCH  38  39
HETATM   39  C21 UNL     1      21.945 -12.592 -18.016  1.00  0.00    -0.020 C 
HETATM   40  C22 UNL     1      21.810 -12.098 -19.409  1.00  0.00     0.009 C 
HETATM   41  C23 UNL     1      22.022 -14.115 -17.952  1.00  0.00     0.009 C 
ENDBRANCH  38  39
ENDBRANCH  15  38
BRANCH  25  42
HETATM   42  C32 UNL     1      25.226 -11.817  -9.854  1.00  0.00     0.033 C 
HETATM   43  C33 UNL     1      25.333 -13.278  -9.763  1.00  0.00     0.016 C 
HETATM   44  C34 UNL     1      26.541 -11.205  -9.336  1.00  0.00     0.016 C 
ENDBRANCH  25  42
BRANCH  10  45
HETATM   45  C14 UNL     1      18.212  -8.078 -14.427  1.00  0.00     0.038 C 
BRANCH  45  46
HETATM   46  C15 UNL     1      17.199  -8.161 -15.483  1.00  0.00    -0.020 C 
HETATM   47  C16 UNL     1      16.939  -9.697 -15.671  1.00  0.00     0.009 C 
HETATM   48  C17 UNL     1      15.794  -7.697 -15.051  1.00  0.00     0.009 C 
ENDBRANCH  45  46
ENDBRANCH  10  45
BRANCH   1  49
HETATM   49  C3  UNL     1      24.498  -6.877  -9.995  1.00  0.00     0.013 C 
HETATM   50  C4  UNL     1      24.971  -7.563  -8.662  1.00  0.00     0.012 C 
BRANCH  49  51
HETATM   51  C2  UNL     1      23.866  -5.639  -9.539  1.00  0.00     0.002 C 
HETATM   52  C1  UNL     1      24.800  -4.540  -9.195  1.00  0.00     0.005 C 
ENDBRANCH  49  51
ENDBRANCH   1  49
BRANCH   4  53
HETATM   53  O1  UNL     1      20.926  -6.376 -12.434  1.00  0.00    -0.345 OA
ATOM     54  H1  UNL     1      19.980  -6.316 -12.498  1.00  0.00     0.219 HD
ENDBRANCH   4  53
BRANCH   5  55
HETATM   55  C8  UNL     1      20.482  -8.300  -9.516  1.00  0.00     0.065 C 
BRANCH  55  56
HETATM   56  C9  UNL     1      19.497  -7.945  -8.471  1.00  0.00    -0.017 C 
HETATM   57  C10 UNL     1      18.582  -6.790  -8.689  1.00  0.00     0.010 C 
HETATM   58  C11 UNL     1      18.609  -9.146  -8.126  1.00  0.00     0.010 C 
ENDBRANCH  55  56
ENDBRANCH   5  55
TORSDOF 15
ENDMDL
MODEL 2
REMARK VINA RESULT: -6.663683959      1.043      1.234
REMARK  15 active torsions:
REMARK  status: ('A' for Active; 'I' for Inactive)
REMARK    1  A    between atoms: C2_2  and  C3_3 
REMARK    2  A    between atoms: C3_3  and  C5_5 
REMARK    3  A    between atoms: C6_8  and  O1_9 
REMARK    4  A    between atoms: C7_11  and  C8_12 
REMARK    5  A    between atoms: C8_12  and  C9_13 
REMARK    6  A    between atoms: C13_20  and  C14_21 
REMARK    7  A    between atoms: C14_21  and  C15_22 
REMARK    8  A    between atoms: C19_29  and  C20_30 
REMARK    9  A    between atoms: C20_30  and  C21_31 
REMARK   10  A    between atoms: C25_38  and  C26_39 
REMARK   11  A    between atoms: C26_39  and  C27_40 
REMARK   12  A    between atoms: C27_40  and  C28_41 
REMARK   13  A    between atoms: C28_41  and  C29_42 
REMARK   14  A    between atoms: C29_42  and  N5_43 
REMARK   15  A    between atoms: C31_51  and  C32_52 
ROOT
HETATM    1  C5  UNL     1      23.764  -7.990 -10.718  1.00  0.00     0.179 C 
HETATM    2  N1  UNL     1      22.781  -7.587 -11.641  1.00  0.00    -0.356 N 
ATOM      3  H1  UNL     1      23.203  -7.316 -12.528  1.00  0.00     0.162 HD
HETATM    4  C6  UNL     1      21.408  -7.454 -11.686  1.00  0.00     0.159 C 
HETATM    5  C7  UNL     1      20.276  -8.133 -11.040  1.00  0.00     0.063 C 
HETATM    6  N2  UNL     1      19.508  -9.042 -11.815  1.00  0.00    -0.325 N 
ATOM      7  H2  UNL     1      18.621  -9.259 -11.361  1.00  0.00     0.169 HD
HETATM    8  C12 UNL     1      19.633  -9.711 -13.014  1.00  0.00     0.244 C 
HETATM    9  O2  UNL     1      19.936 -10.963 -12.932  1.00  0.00    -0.271 OA
HETATM   10  C13 UNL     1      19.482  -9.283 -14.449  1.00  0.00     0.177 C 
HETATM   11  N3  UNL     1      20.704  -9.009 -15.128  1.00  0.00    -0.346 N 
ATOM     12  H3  UNL     1      21.155  -8.131 -14.870  1.00  0.00     0.163 HD
HETATM   13  C18 UNL     1      21.387  -9.772 -16.107  1.00  0.00     0.241 C 
HETATM   14  O3  UNL     1      21.722  -9.193 -17.203  1.00  0.00    -0.271 OA
HETATM   15  C19 UNL     1      21.796 -11.184 -16.061  1.00  0.00     0.177 C 
HETATM   16  N4  UNL     1      23.286 -11.092 -16.139  1.00  0.00    -0.346 N 
ATOM     17  H4  UNL     1      23.683 -10.930 -17.065  1.00  0.00     0.163 HD
HETATM   18  C24 UNL     1      24.188 -11.202 -15.094  1.00  0.00     0.241 C 
HETATM   19  O4  UNL     1      25.027 -10.227 -14.931  1.00  0.00    -0.271 OA
HETATM   20  C25 UNL     1      24.347 -12.295 -14.108  1.00  0.00     0.177 C 
HETATM   21  N6  UNL     1      23.473 -12.216 -12.978  1.00  0.00    -0.343 N 
ATOM     22  H6  UNL     1      22.562 -12.664 -13.069  1.00  0.00     0.163 HD
HETATM   23  C30 UNL     1      23.755 -11.569 -11.735  1.00  0.00     0.265 C 
HETATM   24  O5  UNL     1      22.711 -11.274 -11.094  1.00  0.00    -0.266 OA
HETATM   25  C31 UNL     1      25.060 -11.248 -11.188  1.00  0.00     0.083 C 
HETATM   26  N7  UNL     1      25.506  -9.878 -11.289  1.00  0.00    -0.324 N 
ATOM     27  H7  UNL     1      26.516  -9.780 -11.185  1.00  0.00     0.169 HD
HETATM   28  C35 UNL     1      24.877  -8.689 -11.493  1.00  0.00     0.245 C 
HETATM   29  O6  UNL     1      25.221  -7.957 -12.493  1.00  0.00    -0.271 OA
ENDROOT
BRANCH  20  30
HETATM   30  C26 UNL     1      24.183 -13.677 -14.766  1.00  0.00     0.035 C 
BRANCH  30  31
HETATM   31  C27 UNL     1      23.275 -14.550 -13.930  1.00  0.00     0.004 C 
BRANCH  31  32
HETATM   32  C28 UNL     1      23.561 -15.986 -14.347  1.00  0.00     0.027 C 
BRANCH  32  33
HETATM   33  C29 UNL     1      24.064 -16.046 -15.775  1.00  0.00     0.229 C 
BRANCH  33  34
HETATM   34  N5  UNL     1      23.253 -16.939 -16.572  1.00  0.00    -0.079 N 
ATOM     35  H53 UNL     1      23.372 -16.765 -17.570  1.00  0.00     0.274 HD
ATOM     36  H52 UNL     1      23.604 -17.896 -16.539  1.00  0.00     0.274 HD
ATOM     37  H51 UNL     1      22.273 -16.887 -16.296  1.00  0.00     0.274 HD
ENDBRANCH  33  34
ENDBRANCH  32  33
ENDBRANCH  31  32
ENDBRANCH  30  31
ENDBRANCH  20  30
BRANCH  15  38
HETATM   38  C20 UNL     1      21.435 -12.052 -17.204  1.00  0.00     0.038 C 
BRANCH  38  39
HETATM   39  C21 UNL     1      21.718 -13.482 -17.225  1.00  0.00    -0.020 C 
HETATM   40  C22 UNL     1      22.078 -14.031 -18.556  1.00  0.00     0.009 C 
HETATM   41  C23 UNL     1      20.656 -14.324 -16.524  1.00  0.00     0.009 C 
ENDBRANCH  38  39
ENDBRANCH  15  38
BRANCH  25  42
HETATM   42  C32 UNL     1      25.372 -11.860  -9.836  1.00  0.00     0.033 C 
HETATM   43  C33 UNL     1      25.707 -13.288  -9.795  1.00  0.00     0.016 C 
HETATM   44  C34 UNL     1      26.514 -11.078  -9.163  1.00  0.00     0.016 C 
ENDBRANCH  25  42
BRANCH  10  45
HETATM   45  C14 UNL     1      18.429  -8.243 -14.613  1.00  0.00     0.038 C 
BRANCH  45  46
HETATM   46  C15 UNL     1      17.019  -8.577 -14.394  1.00  0.00    -0.020 C 
HETATM   47  C16 UNL     1      16.552  -7.616 -13.244  1.00  0.00     0.009 C 
HETATM   48  C17 UNL     1      16.078  -8.123 -15.528  1.00  0.00     0.009 C 
ENDBRANCH  45  46
ENDBRANCH  10  45
BRANCH   1  49
HETATM   49  C3  UNL     1      24.504  -6.941  -9.923  1.00  0.00     0.013 C 
HETATM   50  C4  UNL     1      24.911  -7.624  -8.567  1.00  0.00     0.012 C 
BRANCH  49  51
HETATM   51  C2  UNL     1      23.829  -5.714  -9.501  1.00  0.00     0.002 C 
HETATM   52  C1  UNL     1      24.723  -4.574  -9.189  1.00  0.00     0.005 C 
ENDBRANCH  49  51
ENDBRANCH   1  49
BRANCH   4  53
HETATM   53  O1  UNL     1      21.015  -6.500 -12.489  1.00  0.00    -0.345 OA
ATOM     54  H1  UNL     1      21.302  -6.628 -13.385  1.00  0.00     0.219 HD
ENDBRANCH   4  53
BRANCH   5  55
HETATM   55  C8  UNL     1      20.517  -8.487  -9.622  1.00  0.00     0.065 C 
BRANCH  55  56
HETATM   56  C9  UNL     1      19.552  -8.050  -8.590  1.00  0.00    -0.017 C 
HETATM   57  C10 UNL     1      18.741  -6.821  -8.819  1.00  0.00     0.010 C 
HETATM   58  C11 UNL     1      18.560  -9.171  -8.259  1.00  0.00     0.010 C 
ENDBRANCH  55  56
ENDBRANCH   5  55
TORSDOF 15
ENDMDL
MODEL 3
REMARK VINA RESULT: -6.599906174      1.249      1.513
REMARK  15 active torsions:
REMARK  status: ('A' for Active; 'I' for Inactive)
REMARK    1  A    between atoms: C2_2  and  C3_3 
REMARK    2  A    between atoms: C3_3  and  C5_5 
REMARK    3  A    between atoms: C6_8  and  O1_9 
REMARK    4  A    between atoms: C7_11  and  C8_12 
REMARK    5  A    between atoms: C8_12  and  C9_13 
REMARK    6  A    between atoms: C13_20  and  C14_21 
REMARK    7  A    between atoms: C14_21  and  C15_22 
REMARK    8  A    between atoms: C19_29  and  C20_30 
REMARK    9  A    between atoms: C20_30  and  C21_31 
REMARK   10  A    between atoms: C25_38  and  C26_39 
REMARK   11  A    between atoms: C26_39  and  C27_40 
REMARK   12  A    between atoms: C27_40  and  C28_41 
REMARK   13  A    between atoms: C28_41  and  C29_42 
REMARK   14  A    between atoms: C29_42  and  N5_43 
REMARK   15  A    between atoms: C31_51  and  C32_52 
ROOT
HETATM    1  C5  UNL     1      23.541  -8.400 -11.116  1.00  0.00     0.179 C 
HETATM    2  N1  UNL     1      22.576  -7.927 -12.024  1.00  0.00    -0.356 N 
ATOM      3  H1  UNL     1      23.018  -7.522 -12.848  1.00  0.00     0.162 HD
HETATM    4  C6  UNL     1      21.201  -7.855 -12.116  1.00  0.00     0.159 C 
HETATM    5  C7  UNL     1      20.082  -8.665 -11.617  1.00  0.00     0.063 C 
HETATM    6  N2  UNL     1      19.395  -9.500 -12.538  1.00  0.00    -0.325 N 
ATOM      7  H2  UNL     1      18.503  -9.817 -12.157  1.00  0.00     0.169 HD
HETATM    8  C12 UNL     1      19.604 -10.000 -13.806  1.00  0.00     0.244 C 
HETATM    9  O2  UNL     1      19.969 -11.236 -13.871  1.00  0.00    -0.271 OA
HETATM   10  C13 UNL     1      19.488  -9.396 -15.179  1.00  0.00     0.177 C 
HETATM   11  N3  UNL     1      20.720  -8.978 -15.759  1.00  0.00    -0.346 N 
ATOM     12  H3  UNL     1      21.112  -8.120 -15.369  1.00  0.00     0.163 HD
HETATM   13  C18 UNL     1      21.482  -9.573 -16.795  1.00  0.00     0.241 C 
HETATM   14  O3  UNL     1      21.830  -8.840 -17.790  1.00  0.00    -0.271 OA
HETATM   15  C19 UNL     1      21.964 -10.957 -16.911  1.00  0.00     0.177 C 
HETATM   16  N4  UNL     1      23.449 -10.785 -16.907  1.00  0.00    -0.346 N 
ATOM     17  H4  UNL     1      23.873 -10.485 -17.785  1.00  0.00     0.163 HD
HETATM   18  C24 UNL     1      24.312 -10.987 -15.844  1.00  0.00     0.241 C 
HETATM   19  O4  UNL     1      25.091 -10.004 -15.517  1.00  0.00    -0.271 OA
HETATM   20  C25 UNL     1      24.489 -12.191 -15.000  1.00  0.00     0.177 C 
HETATM   21  N6  UNL     1      23.567 -12.303 -13.912  1.00  0.00    -0.343 N 
ATOM     22  H6  UNL     1      22.685 -12.778 -14.102  1.00  0.00     0.163 HD
HETATM   23  C30 UNL     1      23.763 -11.811 -12.584  1.00  0.00     0.265 C 
HETATM   24  O5  UNL     1      22.681 -11.653 -11.960  1.00  0.00    -0.266 OA
HETATM   25  C31 UNL     1      25.027 -11.502 -11.939  1.00  0.00     0.083 C 
HETATM   26  N7  UNL     1      25.402 -10.112 -11.842  1.00  0.00    -0.324 N 
ATOM     27  H7  UNL     1      26.401  -9.981 -11.679  1.00  0.00     0.169 HD
HETATM   28  C35 UNL     1      24.720  -8.937 -11.921  1.00  0.00     0.245 C 
HETATM   29  O6  UNL     1      25.065  -8.065 -12.801  1.00  0.00    -0.271 OA
ENDROOT
BRANCH  20  30
HETATM   30  C26 UNL     1      24.426 -13.482 -15.837  1.00  0.00     0.035 C 
BRANCH  30  31
HETATM   31  C27 UNL     1      23.394 -14.427 -15.265  1.00  0.00     0.004 C 
BRANCH  31  32
HETATM   32  C28 UNL     1      22.775 -15.152 -16.451  1.00  0.00     0.027 C 
BRANCH  32  33
HETATM   33  C29 UNL     1      21.294 -14.853 -16.557  1.00  0.00     0.229 C 
BRANCH  33  34
HETATM   34  N5  UNL     1      20.875 -13.940 -15.518  1.00  0.00    -0.079 N 
ATOM     35  H53 UNL     1      20.772 -14.413 -14.620  1.00  0.00     0.274 HD
ATOM     36  H52 UNL     1      21.619 -13.288 -15.266  1.00  0.00     0.274 HD
ATOM     37  H51 UNL     1      20.021 -13.450 -15.785  1.00  0.00     0.274 HD
ENDBRANCH  33  34
ENDBRANCH  32  33
ENDBRANCH  31  32
ENDBRANCH  30  31
ENDBRANCH  20  30
BRANCH  15  38
HETATM   38  C20 UNL     1      21.695 -11.684 -18.172  1.00  0.00     0.038 C 
BRANCH  38  39
HETATM   39  C21 UNL     1      22.696 -11.831 -19.223  1.00  0.00    -0.020 C 
HETATM   40  C22 UNL     1      22.431 -11.049 -20.456  1.00  0.00     0.009 C 
HETATM   41  C23 UNL     1      23.052 -13.283 -19.529  1.00  0.00     0.009 C 
ENDBRANCH  38  39
ENDBRANCH  15  38
BRANCH  25  42
HETATM   42  C32 UNL     1      25.316 -12.271 -10.664  1.00  0.00     0.033 C 
HETATM   43  C33 UNL     1      25.829 -13.640 -10.794  1.00  0.00     0.016 C 
HETATM   44  C34 UNL     1      26.296 -11.471  -9.787  1.00  0.00     0.016 C 
ENDBRANCH  25  42
BRANCH  10  45
HETATM   45  C14 UNL     1      18.389  -8.395 -15.257  1.00  0.00     0.038 C 
BRANCH  45  46
HETATM   46  C15 UNL     1      17.054  -8.720 -14.745  1.00  0.00    -0.020 C 
HETATM   47  C16 UNL     1      16.755  -7.614 -13.672  1.00  0.00     0.009 C 
HETATM   48  C17 UNL     1      15.910  -8.448 -15.743  1.00  0.00     0.009 C 
ENDBRANCH  45  46
ENDBRANCH  10  45
BRANCH   1  49
HETATM   49  C3  UNL     1      24.191  -7.430 -10.159  1.00  0.00     0.013 C 
HETATM   50  C4  UNL     1      24.350  -8.198  -8.796  1.00  0.00     0.012 C 
BRANCH  49  51
HETATM   51  C2  UNL     1      23.512  -6.192  -9.778  1.00  0.00     0.002 C 
HETATM   52  C1  UNL     1      24.402  -5.081  -9.366  1.00  0.00     0.005 C 
ENDBRANCH  49  51
ENDBRANCH   1  49
BRANCH   4  53
HETATM   53  O1  UNL     1      20.790  -6.824 -12.807  1.00  0.00    -0.345 OA
ATOM     54  H1  UNL     1      21.486  -6.210 -13.007  1.00  0.00     0.219 HD
ENDBRANCH   4  53
BRANCH   5  55
HETATM   55  C8  UNL     1      20.283  -9.190 -10.247  1.00  0.00     0.065 C 
BRANCH  55  56
HETATM   56  C9  UNL     1      19.842  -8.384  -9.088  1.00  0.00    -0.017 C 
HETATM   57  C10 UNL     1      19.387  -6.982  -9.300  1.00  0.00     0.010 C 
HETATM   58  C11 UNL     1      18.718  -9.096  -8.324  1.00  0.00     0.010 C 
ENDBRANCH  55  56
ENDBRANCH   5  55
TORSDOF 15
ENDMDL
MODEL 4
REMARK VINA RESULT: -6.451077629      0.953      1.523
REMARK  15 active torsions:
REMARK  status: ('A' for Active; 'I' for Inactive)
REMARK    1  A    between atoms: C2_2  and  C3_3 
REMARK    2  A    between atoms: C3_3  and  C5_5 
REMARK    3  A    between atoms: C6_8  and  O1_9 
REMARK    4  A    between atoms: C7_11  and  C8_12 
REMARK    5  A    between atoms: C8_12  and  C9_13 
REMARK    6  A    between atoms: C13_20  and  C14_21 
REMARK    7  A    between atoms: C14_21  and  C15_22 
REMARK    8  A    between atoms: C19_29  and  C20_30 
REMARK    9  A    between atoms: C20_30  and  C21_31 
REMARK   10  A    between atoms: C25_38  and  C26_39 
REMARK   11  A    between atoms: C26_39  and  C27_40 
REMARK   12  A    between atoms: C27_40  and  C28_41 
REMARK   13  A    between atoms: C28_41  and  C29_42 
REMARK   14  A    between atoms: C29_42  and  N5_43 
REMARK   15  A    between atoms: C31_51  and  C32_52 
ROOT
HETATM    1  C5  UNL     1      23.713  -7.941 -10.698  1.00  0.00     0.179 C 
HETATM    2  N1  UNL     1      22.716  -7.525 -11.600  1.00  0.00    -0.356 N 
ATOM      3  H1  UNL     1      23.120  -7.283 -12.504  1.00  0.00     0.162 HD
HETATM    4  C6  UNL     1      21.347  -7.351 -11.609  1.00  0.00     0.159 C 
HETATM    5  C7  UNL     1      20.214  -7.983 -10.919  1.00  0.00     0.063 C 
HETATM    6  N2  UNL     1      19.397  -8.882 -11.656  1.00  0.00    -0.325 N 
ATOM      7  H2  UNL     1      18.517  -9.063 -11.172  1.00  0.00     0.169 HD
HETATM    8  C12 UNL     1      19.468  -9.576 -12.845  1.00  0.00     0.244 C 
HETATM    9  O2  UNL     1      19.735 -10.835 -12.747  1.00  0.00    -0.271 OA
HETATM   10  C13 UNL     1      19.288  -9.170 -14.282  1.00  0.00     0.177 C 
HETATM   11  N3  UNL     1      20.498  -8.946 -15.000  1.00  0.00    -0.346 N 
ATOM     12  H3  UNL     1      20.982  -8.077 -14.772  1.00  0.00     0.163 HD
HETATM   13  C18 UNL     1      21.130  -9.747 -15.983  1.00  0.00     0.241 C 
HETATM   14  O3  UNL     1      21.451  -9.199 -17.099  1.00  0.00    -0.271 OA
HETATM   15  C19 UNL     1      21.498 -11.170 -15.922  1.00  0.00     0.177 C 
HETATM   16  N4  UNL     1      22.987 -11.125 -16.043  1.00  0.00    -0.346 N 
ATOM     17  H4  UNL     1      23.361 -10.992 -16.983  1.00  0.00     0.163 HD
HETATM   18  C24 UNL     1      23.915 -11.243 -15.022  1.00  0.00     0.241 C 
HETATM   19  O4  UNL     1      24.787 -10.292 -14.901  1.00  0.00    -0.271 OA
HETATM   20  C25 UNL     1      24.068 -12.322 -14.020  1.00  0.00     0.177 C 
HETATM   21  N6  UNL     1      23.230 -12.196 -12.868  1.00  0.00    -0.343 N 
ATOM     22  H6  UNL     1      22.303 -12.618 -12.924  1.00  0.00     0.163 HD
HETATM   23  C30 UNL     1      23.566 -11.536 -11.646  1.00  0.00     0.265 C 
HETATM   24  O5  UNL     1      22.551 -11.198 -10.982  1.00  0.00    -0.266 OA
HETATM   25  C31 UNL     1      24.896 -11.245 -11.142  1.00  0.00     0.083 C 
HETATM   26  N7  UNL     1      25.379  -9.891 -11.281  1.00  0.00    -0.324 N 
ATOM     27  H7  UNL     1      26.394  -9.823 -11.207  1.00  0.00     0.169 HD
HETATM   28  C35 UNL     1      24.781  -8.687 -11.491  1.00  0.00     0.245 C 
HETATM   29  O6  UNL     1      25.119  -7.985 -12.513  1.00  0.00    -0.271 OA
ENDROOT
BRANCH  20  30
HETATM   30  C26 UNL     1      23.844 -13.711 -14.647  1.00  0.00     0.035 C 
BRANCH  30  31
HETATM   31  C27 UNL     1      24.997 -14.067 -15.557  1.00  0.00     0.004 C 
BRANCH  31  32
HETATM   32  C28 UNL     1      26.261 -13.922 -14.721  1.00  0.00     0.027 C 
BRANCH  32  33
HETATM   33  C29 UNL     1      27.333 -13.173 -15.484  1.00  0.00     0.229 C 
BRANCH  33  34
HETATM   34  N5  UNL     1      27.537 -11.854 -14.930  1.00  0.00    -0.079 N 
ATOM     35  H53 UNL     1      28.089 -11.887 -14.072  1.00  0.00     0.274 HD
ATOM     36  H52 UNL     1      28.174 -11.299 -15.503  1.00  0.00     0.274 HD
ATOM     37  H51 UNL     1      26.648 -11.377 -14.786  1.00  0.00     0.274 HD
ENDBRANCH  33  34
ENDBRANCH  32  33
ENDBRANCH  31  32
ENDBRANCH  30  31
ENDBRANCH  20  30
BRANCH  15  38
HETATM   38  C20 UNL     1      21.078 -12.047 -17.038  1.00  0.00     0.038 C 
BRANCH  38  39
HETATM   39  C21 UNL     1      22.022 -12.592 -18.007  1.00  0.00    -0.020 C 
HETATM   40  C22 UNL     1      21.886 -12.056 -19.384  1.00  0.00     0.009 C 
HETATM   41  C23 UNL     1      22.103 -14.116 -17.988  1.00  0.00     0.009 C 
ENDBRANCH  38  39
ENDBRANCH  15  38
BRANCH  25  42
HETATM   42  C32 UNL     1      25.227 -11.842  -9.787  1.00  0.00     0.033 C 
HETATM   43  C33 UNL     1      25.440 -13.292  -9.715  1.00  0.00     0.016 C 
HETATM   44  C34 UNL     1      26.468 -11.143  -9.202  1.00  0.00     0.016 C 
ENDBRANCH  25  42
BRANCH  10  45
HETATM   45  C14 UNL     1      18.263  -8.101 -14.436  1.00  0.00     0.038 C 
BRANCH  45  46
HETATM   46  C15 UNL     1      17.256  -8.189 -15.498  1.00  0.00    -0.020 C 
HETATM   47  C16 UNL     1      17.037  -9.727 -15.718  1.00  0.00     0.009 C 
HETATM   48  C17 UNL     1      15.838  -7.771 -15.061  1.00  0.00     0.009 C 
ENDBRANCH  45  46
ENDBRANCH  10  45
BRANCH   1  49
HETATM   49  C3  UNL     1      24.506  -6.901  -9.944  1.00  0.00     0.013 C 
HETATM   50  C4  UNL     1      24.962  -7.584  -8.604  1.00  0.00     0.012 C 
BRANCH  49  51
HETATM   51  C2  UNL     1      23.872  -5.660  -9.500  1.00  0.00     0.002 C 
HETATM   52  C1  UNL     1      24.804  -4.555  -9.169  1.00  0.00     0.005 C 
ENDBRANCH  49  51
ENDBRANCH   1  49
BRANCH   4  53
HETATM   53  O1  UNL     1      20.959  -6.400 -12.419  1.00  0.00    -0.345 OA
ATOM     54  H1  UNL     1      20.491  -6.727 -13.178  1.00  0.00     0.219 HD
ENDBRANCH   4  53
BRANCH   5  55
HETATM   55  C8  UNL     1      20.484  -8.318  -9.503  1.00  0.00     0.065 C 
BRANCH  55  56
HETATM   56  C9  UNL     1      19.485  -7.968  -8.470  1.00  0.00    -0.017 C 
HETATM   57  C10 UNL     1      18.569  -6.816  -8.696  1.00  0.00     0.010 C 
HETATM   58  C11 UNL     1      18.596  -9.173  -8.139  1.00  0.00     0.010 C 
ENDBRANCH  55  56
ENDBRANCH   5  55
TORSDOF 15
ENDMDL
MODEL 5
REMARK VINA RESULT: -6.015247763      2.072      7.483
REMARK  15 active torsions:
REMARK  status: ('A' for Active; 'I' for Inactive)
REMARK    1  A    between atoms: C2_2  and  C3_3 
REMARK    2  A    between atoms: C3_3  and  C5_5 
REMARK    3  A    between atoms: C6_8  and  O1_9 
REMARK    4  A    between atoms: C7_11  and  C8_12 
REMARK    5  A    between atoms: C8_12  and  C9_13 
REMARK    6  A    between atoms: C13_20  and  C14_21 
REMARK    7  A    between atoms: C14_21  and  C15_22 
REMARK    8  A    between atoms: C19_29  and  C20_30 
REMARK    9  A    between atoms: C20_30  and  C21_31 
REMARK   10  A    between atoms: C25_38  and  C26_39 
REMARK   11  A    between atoms: C26_39  and  C27_40 
REMARK   12  A    between atoms: C27_40  and  C28_41 
REMARK   13  A    between atoms: C28_41  and  C29_42 
REMARK   14  A    between atoms: C29_42  and  N5_43 
REMARK   15  A    between atoms: C31_51  and  C32_52 
ROOT
HETATM    1  C5  UNL     1      22.733 -14.244 -15.548  1.00  0.00     0.179 C 
HETATM    2  N1  UNL     1      21.545 -13.502 -15.411  1.00  0.00    -0.356 N 
ATOM      3  H1  UNL     1      21.033 -13.785 -14.575  1.00  0.00     0.162 HD
HETATM    4  C6  UNL     1      20.875 -12.503 -16.086  1.00  0.00     0.159 C 
HETATM    5  C7  UNL     1      21.275 -11.374 -16.937  1.00  0.00     0.063 C 
HETATM    6  N2  UNL     1      21.225 -10.067 -16.385  1.00  0.00    -0.325 N 
ATOM      7  H2  UNL     1      21.278  -9.355 -17.114  1.00  0.00     0.169 HD
HETATM    8  C12 UNL     1      21.125  -9.496 -15.134  1.00  0.00     0.244 C 
HETATM    9  O2  UNL     1      22.219  -9.018 -14.644  1.00  0.00    -0.271 OA
HETATM   10  C13 UNL     1      19.974  -9.298 -14.186  1.00  0.00     0.177 C 
HETATM   11  N3  UNL     1      19.891 -10.252 -13.131  1.00  0.00    -0.346 N 
ATOM     12  H3  UNL     1      19.558 -11.176 -13.408  1.00  0.00     0.163 HD
HETATM   13  C18 UNL     1      20.202 -10.111 -11.756  1.00  0.00     0.241 C 
HETATM   14  O3  UNL     1      19.315 -10.458 -10.895  1.00  0.00    -0.271 OA
HETATM   15  C19 UNL     1      21.437  -9.613 -11.132  1.00  0.00     0.177 C 
HETATM   16  N4  UNL     1      21.921 -10.808 -10.374  1.00  0.00    -0.346 N 
ATOM     17  H4  UNL     1      21.459 -10.997  -9.484  1.00  0.00     0.163 HD
HETATM   18  C24 UNL     1      22.925 -11.686 -10.745  1.00  0.00     0.241 C 
HETATM   19  O4  UNL     1      22.624 -12.946 -10.789  1.00  0.00    -0.271 OA
HETATM   20  C25 UNL     1      24.331 -11.396 -11.109  1.00  0.00     0.177 C 
HETATM   21  N6  UNL     1      24.533 -11.024 -12.475  1.00  0.00    -0.343 N 
ATOM     22  H6  UNL     1      24.454 -10.032 -12.699  1.00  0.00     0.163 HD
HETATM   23  C30 UNL     1      24.836 -11.908 -13.557  1.00  0.00     0.265 C 
HETATM   24  O5  UNL     1      24.547 -11.417 -14.680  1.00  0.00    -0.266 OA
HETATM   25  C31 UNL     1      25.413 -13.237 -13.470  1.00  0.00     0.083 C 
HETATM   26  N7  UNL     1      24.520 -14.361 -13.620  1.00  0.00    -0.324 N 
ATOM     27  H7  UNL     1      24.906 -15.228 -13.245  1.00  0.00     0.169 HD
HETATM   28  C35 UNL     1      23.277 -14.522 -14.150  1.00  0.00     0.245 C 
HETATM   29  O6  UNL     1      22.332 -14.987 -13.412  1.00  0.00    -0.271 OA
ENDROOT
BRANCH  20  30
HETATM   30  C26 UNL     1      24.936 -10.308 -10.203  1.00  0.00     0.035 C 
BRANCH  30  31
HETATM   31  C27 UNL     1      25.398  -9.133 -11.034  1.00  0.00     0.004 C 
BRANCH  31  32
HETATM   32  C28 UNL     1      24.953  -7.883 -10.289  1.00  0.00     0.027 C 
BRANCH  32  33
HETATM   33  C29 UNL     1      24.706  -8.183  -8.825  1.00  0.00     0.229 C 
BRANCH  33  34
HETATM   34  N5  UNL     1      25.694  -7.538  -7.990  1.00  0.00    -0.079 N 
ATOM     35  H53 UNL     1      26.600  -7.478  -8.456  1.00  0.00     0.274 HD
ATOM     36  H52 UNL     1      25.506  -6.540  -7.888  1.00  0.00     0.274 HD
ATOM     37  H51 UNL     1      25.766  -8.001  -7.085  1.00  0.00     0.274 HD
ENDBRANCH  33  34
ENDBRANCH  32  33
ENDBRANCH  31  32
ENDBRANCH  30  31
ENDBRANCH  20  30
BRANCH  15  38
HETATM   38  C20 UNL     1      21.320  -8.561 -10.098  1.00  0.00     0.038 C 
BRANCH  38  39
HETATM   39  C21 UNL     1      20.741  -7.251 -10.372  1.00  0.00    -0.020 C 
HETATM   40  C22 UNL     1      21.652  -6.102 -10.143  1.00  0.00     0.009 C 
HETATM   41  C23 UNL     1      19.375  -7.040  -9.725  1.00  0.00     0.009 C 
ENDBRANCH  38  39
ENDBRANCH  15  38
BRANCH  25  42
HETATM   42  C32 UNL     1      26.721 -13.432 -14.213  1.00  0.00     0.033 C 
HETATM   43  C33 UNL     1      27.896 -12.698 -13.731  1.00  0.00     0.016 C 
HETATM   44  C34 UNL     1      27.074 -14.930 -14.257  1.00  0.00     0.016 C 
ENDBRANCH  25  42
BRANCH  10  45
HETATM   45  C14 UNL     1      18.694  -9.050 -14.906  1.00  0.00     0.038 C 
BRANCH  45  46
HETATM   46  C15 UNL     1      17.902  -7.851 -14.617  1.00  0.00    -0.020 C 
HETATM   47  C16 UNL     1      16.458  -8.191 -15.130  1.00  0.00     0.009 C 
HETATM   48  C17 UNL     1      17.614  -7.629 -13.118  1.00  0.00     0.009 C 
ENDBRANCH  45  46
ENDBRANCH  10  45
BRANCH   1  49
HETATM   49  C3  UNL     1      22.678 -15.616 -16.175  1.00  0.00     0.013 C 
HETATM   50  C4  UNL     1      24.085 -15.852 -16.837  1.00  0.00     0.012 C 
BRANCH  49  51
HETATM   51  C2  UNL     1      21.737 -15.902 -17.257  1.00  0.00     0.002 C 
HETATM   52  C1  UNL     1      22.006 -17.144 -18.020  1.00  0.00     0.005 C 
ENDBRANCH  49  51
ENDBRANCH   1  49
BRANCH   4  53
HETATM   53  O1  UNL     1      19.577 -12.570 -15.939  1.00  0.00    -0.345 OA
ATOM     54  H1  UNL     1      19.120 -12.738 -16.755  1.00  0.00     0.219 HD
ENDBRANCH   4  53
BRANCH   5  55
HETATM   55  C8  UNL     1      22.398 -11.680 -17.852  1.00  0.00     0.065 C 
BRANCH  55  56
HETATM   56  C9  UNL     1      22.112 -12.226 -19.197  1.00  0.00    -0.017 C 
HETATM   57  C10 UNL     1      22.129 -11.315 -20.376  1.00  0.00     0.010 C 
HETATM   58  C11 UNL     1      23.059 -13.386 -19.529  1.00  0.00     0.010 C 
ENDBRANCH  55  56
ENDBRANCH   5  55
TORSDOF 15
ENDMDL
