MODEL 1
REMARK VINA RESULT: -6.214117926      0.000      0.000
REMARK  15 active torsions:
REMARK  status: ('A' for Active; 'I' for Inactive)
REMARK    1  A    between atoms: C2_2  and  C3_3 
REMARK    2  A    between atoms: C3_3  and  C5_5 
REMARK    3  A    between atoms: C6_8  and  O1_9 
REMARK    4  A    between atoms: C7_11  and  C8_12 
REMARK    5  A    between atoms: C8_12  and  C9_13 
REMARK    6  A    between atoms: C13_18  and  C14_19 
REMARK    7  A    between atoms: C14_19  and  C15_20 
REMARK    8  A    between atoms: C15_20  and  C16_21 
REMARK    9  A    between atoms: C16_21  and  N2_22 
REMARK       I    between atoms: N2_22  and  C17_24 
REMARK   10  A    between atoms: C18_31  and  O3_32 
REMARK   11  A    between atoms: C20_35  and  C21_36 
REMARK   12  A    between atoms: C25_41  and  O4_42 
REMARK   13  A    between atoms: C26_44  and  C27_45 
REMARK   14  A    between atoms: C27_45  and  C28_46 
REMARK   15  A    between atoms: C31_51  and  O5_52 
ROOT
HETATM    1  C5  UNL     1      19.214  -9.108 -14.586  1.00  0.00     0.179 C 
HETATM    2  N1  UNL     1      19.477  -7.885 -13.901  1.00  0.00    -0.357 N 
ATOM      3  H1  UNL     1      19.752  -7.162 -14.566  1.00  0.00     0.162 HD
HETATM    4  C6  UNL     1      19.474  -7.380 -12.631  1.00  0.00     0.150 C 
HETATM    5  C7  UNL     1      20.230  -7.597 -11.374  1.00  0.00     0.059 C 
HETATM    6  C12 UNL     1      21.625  -7.937 -11.658  1.00  0.00     0.186 C 
HETATM    7  O2  UNL     1      21.976  -7.725 -12.843  1.00  0.00    -0.290 OA
HETATM    8  C13 UNL     1      22.751  -8.472 -10.913  1.00  0.00     0.159 C 
HETATM    9  N5  UNL     1      22.924  -9.858 -11.369  1.00  0.00    -0.357 N 
ATOM     10  H5  UNL     1      22.831  -9.936 -12.381  1.00  0.00     0.162 HD
HETATM   11  C18 UNL     1      23.176 -11.063 -10.796  1.00  0.00     0.164 C 
HETATM   12  C19 UNL     1      24.355 -11.802 -10.300  1.00  0.00     0.083 C 
HETATM   13  C20 UNL     1      25.640 -11.152 -10.191  1.00  0.00     0.011 C 
HETATM   14  N6  UNL     1      24.354 -13.206 -10.764  1.00  0.00    -0.331 N 
HETATM   15  C24 UNL     1      25.155 -14.083  -9.862  1.00  0.00     0.158 C 
HETATM   16  C25 UNL     1      23.708 -13.785 -11.863  1.00  0.00     0.141 C 
HETATM   17  C26 UNL     1      23.779 -13.651 -13.313  1.00  0.00     0.158 C 
HETATM   18  N7  UNL     1      23.443 -12.436 -13.967  1.00  0.00    -0.361 N 
ATOM     19  H7  UNL     1      23.984 -11.644 -13.620  1.00  0.00     0.162 HD
HETATM   20  C31 UNL     1      22.554 -12.073 -14.968  1.00  0.00     0.135 C 
HETATM   21  C32 UNL     1      21.077 -12.058 -15.052  1.00  0.00     0.155 C 
HETATM   22  C33 UNL     1      20.395 -12.054 -13.704  1.00  0.00     0.041 C 
HETATM   23  N8  UNL     1      20.612 -10.907 -15.831  1.00  0.00    -0.348 N 
ATOM     24  H8  UNL     1      20.507 -11.089 -16.829  1.00  0.00     0.163 HD
HETATM   25  C34 UNL     1      20.295  -9.631 -15.456  1.00  0.00     0.241 C 
HETATM   26  O6  UNL     1      21.046  -8.682 -15.921  1.00  0.00    -0.271 OA
ENDROOT
BRANCH   8  27
HETATM   27  C14 UNL     1      22.858  -8.281  -9.482  1.00  0.00     0.035 C 
BRANCH  27  28
HETATM   28  C15 UNL     1      24.096  -7.884  -8.805  1.00  0.00     0.022 C 
BRANCH  28  29
HETATM   29  C16 UNL     1      25.201  -7.325  -9.594  1.00  0.00     0.122 C 
BRANCH  29  30
HETATM   30  N2  UNL     1      25.880  -6.182  -9.093  1.00  0.00    -0.365 N 
HETATM   31  C17 UNL     1      25.512  -4.878  -9.568  1.00  0.00     0.181 C 
HETATM   32  N3  UNL     1      24.468  -4.300  -9.105  1.00  0.00    -0.374 N 
HETATM   33  N4  UNL     1      26.263  -4.184 -10.551  1.00  0.00    -0.064 NA
ATOM     34  H32 UNL     1      23.928  -4.799  -8.399  1.00  0.00     0.158 HD
ATOM     35  H31 UNL     1      24.207  -3.373  -9.442  1.00  0.00     0.158 HD
ATOM     36  H2  UNL     1      26.622  -6.287  -8.401  1.00  0.00     0.162 HD
ENDBRANCH  29  30
ENDBRANCH  28  29
ENDBRANCH  27  28
ENDBRANCH   8  27
BRANCH   5  37
HETATM   37  C8  UNL     1      19.557  -8.198 -10.241  1.00  0.00    -0.003 C 
BRANCH  37  38
HETATM   38  C9  UNL     1      19.389  -7.649  -8.909  1.00  0.00     0.001 C 
HETATM   39  C10 UNL     1      18.296  -6.535  -8.890  1.00  0.00     0.013 C 
HETATM   40  C11 UNL     1      18.865  -8.593  -7.858  1.00  0.00     0.013 C 
ENDBRANCH  37  38
ENDBRANCH   5  37
BRANCH  11  41
HETATM   41  O3  UNL     1      22.140 -11.848 -10.595  1.00  0.00    -0.345 OA
ATOM     42  H3  UNL     1      22.107 -12.304  -9.762  1.00  0.00     0.219 HD
ENDBRANCH  11  41
BRANCH   4  43
HETATM   43  O1  UNL     1      18.555  -6.438 -12.465  1.00  0.00    -0.346 OA
ATOM     44  H1  UNL     1      18.816  -5.789 -11.823  1.00  0.00     0.219 HD
ENDBRANCH   4  43
BRANCH  13  45
HETATM   45  C21 UNL     1      26.393 -10.565 -11.293  1.00  0.00     0.002 C 
HETATM   46  C22 UNL     1      26.902 -11.482 -12.361  1.00  0.00     0.013 C 
HETATM   47  C23 UNL     1      27.645  -9.913 -10.664  1.00  0.00     0.013 C 
ENDBRANCH  13  45
BRANCH   1  48
HETATM   48  C3  UNL     1      18.022  -8.958 -15.555  1.00  0.00     0.013 C 
HETATM   49  C4  UNL     1      17.435 -10.323 -15.799  1.00  0.00     0.012 C 
BRANCH  48  50
HETATM   50  C2  UNL     1      16.967  -8.039 -15.049  1.00  0.00     0.002 C 
HETATM   51  C1  UNL     1      15.592  -8.573 -15.490  1.00  0.00     0.005 C 
ENDBRANCH  48  50
ENDBRANCH   1  48
BRANCH  16  52
HETATM   52  O4  UNL     1      22.809 -14.677 -11.498  1.00  0.00    -0.348 OA
ATOM     53  H4  UNL     1      23.195 -15.530 -11.339  1.00  0.00     0.219 HD
ENDBRANCH  16  52
BRANCH  17  54
HETATM   54  C27 UNL     1      23.088 -14.797 -14.065  1.00  0.00     0.037 C 
BRANCH  54  55
HETATM   55  C28 UNL     1      23.952 -15.444 -15.106  1.00  0.00    -0.020 C 
HETATM   56  C29 UNL     1      24.315 -16.868 -14.715  1.00  0.00     0.009 C 
HETATM   57  C30 UNL     1      23.146 -15.486 -16.415  1.00  0.00     0.009 C 
ENDBRANCH  54  55
ENDBRANCH  17  54
BRANCH  20  58
HETATM   58  O5  UNL     1      23.025 -11.640 -16.104  1.00  0.00    -0.348 OA
ATOM     59  H5  UNL     1      22.691 -12.012 -16.912  1.00  0.00     0.219 HD
ENDBRANCH  20  58
TORSDOF 15
ENDMDL
MODEL 2
REMARK VINA RESULT: -6.106702639      2.997      7.677
REMARK  15 active torsions:
REMARK  status: ('A' for Active; 'I' for Inactive)
REMARK    1  A    between atoms: C2_2  and  C3_3 
REMARK    2  A    between atoms: C3_3  and  C5_5 
REMARK    3  A    between atoms: C6_8  and  O1_9 
REMARK    4  A    between atoms: C7_11  and  C8_12 
REMARK    5  A    between atoms: C8_12  and  C9_13 
REMARK    6  A    between atoms: C13_18  and  C14_19 
REMARK    7  A    between atoms: C14_19  and  C15_20 
REMARK    8  A    between atoms: C15_20  and  C16_21 
REMARK    9  A    between atoms: C16_21  and  N2_22 
REMARK       I    between atoms: N2_22  and  C17_24 
REMARK   10  A    between atoms: C18_31  and  O3_32 
REMARK   11  A    between atoms: C20_35  and  C21_36 
REMARK   12  A    between atoms: C25_41  and  O4_42 
REMARK   13  A    between atoms: C26_44  and  C27_45 
REMARK   14  A    between atoms: C27_45  and  C28_46 
REMARK   15  A    between atoms: C31_51  and  O5_52 
ROOT
HETATM    1  C5  UNL     1      22.028 -11.346 -18.678  1.00  0.00     0.179 C 
HETATM    2  N1  UNL     1      22.979 -12.378 -18.425  1.00  0.00    -0.357 N 
ATOM      3  H1  UNL     1      22.601 -13.282 -18.706  1.00  0.00     0.162 HD
HETATM    4  C6  UNL     1      24.241 -12.532 -17.922  1.00  0.00     0.150 C 
HETATM    5  C7  UNL     1      24.920 -12.354 -16.615  1.00  0.00     0.059 C 
HETATM    6  C12 UNL     1      24.016 -12.681 -15.512  1.00  0.00     0.186 C 
HETATM    7  O2  UNL     1      22.973 -13.283 -15.861  1.00  0.00    -0.290 OA
HETATM    8  C13 UNL     1      24.000 -12.489 -14.072  1.00  0.00     0.159 C 
HETATM    9  N5  UNL     1      23.009 -11.437 -13.809  1.00  0.00    -0.357 N 
ATOM     10  H5  UNL     1      22.167 -11.564 -14.370  1.00  0.00     0.162 HD
HETATM   11  C18 UNL     1      22.921 -10.340 -13.014  1.00  0.00     0.164 C 
HETATM   12  C19 UNL     1      22.596 -10.046 -11.604  1.00  0.00     0.083 C 
HETATM   13  C20 UNL     1      22.450 -11.114 -10.643  1.00  0.00     0.011 C 
HETATM   14  N6  UNL     1      21.657  -8.909 -11.485  1.00  0.00    -0.331 N 
HETATM   15  C24 UNL     1      21.763  -8.247 -10.152  1.00  0.00     0.158 C 
HETATM   16  C25 UNL     1      20.758  -8.389 -12.424  1.00  0.00     0.141 C 
HETATM   17  C26 UNL     1      19.570  -8.870 -13.117  1.00  0.00     0.158 C 
HETATM   18  N7  UNL     1      19.626  -9.961 -14.024  1.00  0.00    -0.361 N 
ATOM     19  H7  UNL     1      20.020 -10.800 -13.599  1.00  0.00     0.162 HD
HETATM   20  C31 UNL     1      19.271 -10.155 -15.351  1.00  0.00     0.135 C 
HETATM   21  C32 UNL     1      19.771  -9.592 -16.624  1.00  0.00     0.155 C 
HETATM   22  C33 UNL     1      21.161  -9.010 -16.523  1.00  0.00     0.041 C 
HETATM   23  N8  UNL     1      19.747 -10.604 -17.685  1.00  0.00    -0.348 N 
ATOM     24  H8  UNL     1      18.880 -10.630 -18.222  1.00  0.00     0.163 HD
HETATM   25  C34 UNL     1      20.682 -11.519 -18.080  1.00  0.00     0.241 C 
HETATM   26  O6  UNL     1      20.377 -12.770 -17.924  1.00  0.00    -0.271 OA
ENDROOT
BRANCH   8  27
HETATM   27  C14 UNL     1      25.232 -12.373 -13.321  1.00  0.00     0.035 C 
BRANCH  27  28
HETATM   28  C15 UNL     1      25.774 -13.442 -12.478  1.00  0.00     0.022 C 
BRANCH  28  29
HETATM   29  C16 UNL     1      25.962 -14.782 -13.046  1.00  0.00     0.122 C 
BRANCH  29  30
HETATM   30  N2  UNL     1      25.005 -15.787 -12.741  1.00  0.00    -0.365 N 
HETATM   31  C17 UNL     1      23.728 -15.770 -13.396  1.00  0.00     0.181 C 
HETATM   32  N3  UNL     1      23.618 -16.212 -14.593  1.00  0.00    -0.374 N 
HETATM   33  N4  UNL     1      22.556 -15.272 -12.772  1.00  0.00    -0.064 NA
ATOM     34  H32 UNL     1      24.461 -16.570 -15.042  1.00  0.00     0.158 HD
ATOM     35  H31 UNL     1      22.710 -16.200 -15.059  1.00  0.00     0.158 HD
ATOM     36  H2  UNL     1      25.224 -16.515 -12.061  1.00  0.00     0.162 HD
ENDBRANCH  29  30
ENDBRANCH  28  29
ENDBRANCH  27  28
ENDBRANCH   8  27
BRANCH   5  37
HETATM   37  C8  UNL     1      25.891 -11.290 -16.463  1.00  0.00    -0.003 C 
BRANCH  37  38
HETATM   38  C9  UNL     1      25.652  -9.914 -16.074  1.00  0.00     0.001 C 
HETATM   39  C10 UNL     1      26.989  -9.114 -15.976  1.00  0.00     0.013 C 
HETATM   40  C11 UNL     1      24.875  -9.069 -17.050  1.00  0.00     0.013 C 
ENDBRANCH  37  38
ENDBRANCH   5  37
BRANCH  11  41
HETATM   41  O3  UNL     1      23.177  -9.180 -13.580  1.00  0.00    -0.345 OA
ATOM     42  H3  UNL     1      23.216  -8.425 -13.005  1.00  0.00     0.219 HD
ENDBRANCH  11  41
BRANCH   4  43
HETATM   43  O1  UNL     1      25.101 -12.958 -18.839  1.00  0.00    -0.346 OA
ATOM     44  H1  UNL     1      24.962 -13.869 -19.068  1.00  0.00     0.219 HD
ENDBRANCH   4  43
BRANCH  13  45
HETATM   45  C21 UNL     1      21.470 -12.191 -10.711  1.00  0.00     0.002 C 
HETATM   46  C22 UNL     1      20.080 -11.905 -10.235  1.00  0.00     0.013 C 
HETATM   47  C23 UNL     1      22.003 -13.320  -9.800  1.00  0.00     0.013 C 
ENDBRANCH  13  45
BRANCH   1  48
HETATM   48  C3  UNL     1      21.731 -11.222 -20.187  1.00  0.00     0.013 C 
HETATM   49  C4  UNL     1      22.114  -9.836 -20.634  1.00  0.00     0.012 C 
BRANCH  48  50
HETATM   50  C2  UNL     1      22.448 -12.233 -21.011  1.00  0.00     0.002 C 
HETATM   51  C1  UNL     1      23.463 -11.507 -21.913  1.00  0.00     0.005 C 
ENDBRANCH  48  50
ENDBRANCH   1  48
BRANCH  16  52
HETATM   52  O4  UNL     1      21.058  -7.152 -12.767  1.00  0.00    -0.348 OA
ATOM     53  H4  UNL     1      20.370  -6.539 -12.537  1.00  0.00     0.219 HD
ENDBRANCH  16  52
BRANCH  17  54
HETATM   54  C27 UNL     1      18.756  -7.749 -13.779  1.00  0.00     0.037 C 
BRANCH  54  55
HETATM   55  C28 UNL     1      17.404  -7.540 -13.164  1.00  0.00    -0.020 C 
HETATM   56  C29 UNL     1      16.303  -8.117 -14.038  1.00  0.00     0.009 C 
HETATM   57  C30 UNL     1      17.393  -8.273 -11.813  1.00  0.00     0.009 C 
ENDBRANCH  54  55
ENDBRANCH  17  54
BRANCH  20  58
HETATM   58  O5  UNL     1      18.310 -10.990 -15.631  1.00  0.00    -0.348 OA
ATOM     59  H5  UNL     1      17.817 -10.871 -16.435  1.00  0.00     0.219 HD
ENDBRANCH  20  58
TORSDOF 15
ENDMDL
MODEL 3
REMARK VINA RESULT: -6.083997456      3.070      6.893
REMARK  15 active torsions:
REMARK  status: ('A' for Active; 'I' for Inactive)
REMARK    1  A    between atoms: C2_2  and  C3_3 
REMARK    2  A    between atoms: C3_3  and  C5_5 
REMARK    3  A    between atoms: C6_8  and  O1_9 
REMARK    4  A    between atoms: C7_11  and  C8_12 
REMARK    5  A    between atoms: C8_12  and  C9_13 
REMARK    6  A    between atoms: C13_18  and  C14_19 
REMARK    7  A    between atoms: C14_19  and  C15_20 
REMARK    8  A    between atoms: C15_20  and  C16_21 
REMARK    9  A    between atoms: C16_21  and  N2_22 
REMARK       I    between atoms: N2_22  and  C17_24 
REMARK   10  A    between atoms: C18_31  and  O3_32 
REMARK   11  A    between atoms: C20_35  and  C21_36 
REMARK   12  A    between atoms: C25_41  and  O4_42 
REMARK   13  A    between atoms: C26_44  and  C27_45 
REMARK   14  A    between atoms: C27_45  and  C28_46 
REMARK   15  A    between atoms: C31_51  and  O5_52 
ROOT
HETATM    1  C5  UNL     1      22.175 -11.124 -18.794  1.00  0.00     0.179 C 
HETATM    2  N1  UNL     1      23.239 -12.036 -18.534  1.00  0.00    -0.357 N 
ATOM      3  H1  UNL     1      22.969 -12.980 -18.812  1.00  0.00     0.162 HD
HETATM    4  C6  UNL     1      24.509 -12.040 -18.029  1.00  0.00     0.150 C 
HETATM    5  C7  UNL     1      25.160 -11.778 -16.722  1.00  0.00     0.059 C 
HETATM    6  C12 UNL     1      24.298 -12.204 -15.618  1.00  0.00     0.186 C 
HETATM    7  O2  UNL     1      23.333 -12.924 -15.966  1.00  0.00    -0.290 OA
HETATM    8  C13 UNL     1      24.257 -12.008 -14.179  1.00  0.00     0.159 C 
HETATM    9  N5  UNL     1      23.150 -11.077 -13.923  1.00  0.00    -0.357 N 
ATOM     10  H5  UNL     1      22.329 -11.304 -14.484  1.00  0.00     0.162 HD
HETATM   11  C18 UNL     1      22.932  -9.994 -13.134  1.00  0.00     0.164 C 
HETATM   12  C19 UNL     1      22.573  -9.733 -11.725  1.00  0.00     0.083 C 
HETATM   13  C20 UNL     1      22.551 -10.806 -10.760  1.00  0.00     0.011 C 
HETATM   14  N6  UNL     1      21.508  -8.712 -11.613  1.00  0.00    -0.331 N 
HETATM   15  C24 UNL     1      21.533  -8.037 -10.284  1.00  0.00     0.158 C 
HETATM   16  C25 UNL     1      20.556  -8.305 -12.556  1.00  0.00     0.141 C 
HETATM   17  C26 UNL     1      19.433  -8.925 -13.249  1.00  0.00     0.158 C 
HETATM   18  N7  UNL     1      19.618 -10.006 -14.150  1.00  0.00    -0.361 N 
ATOM     19  H7  UNL     1      20.107 -10.792 -13.721  1.00  0.00     0.162 HD
HETATM   20  C31 UNL     1      19.291 -10.246 -15.477  1.00  0.00     0.135 C 
HETATM   21  C32 UNL     1      19.724  -9.635 -16.752  1.00  0.00     0.155 C 
HETATM   22  C33 UNL     1      21.037  -8.895 -16.652  1.00  0.00     0.041 C 
HETATM   23  N8  UNL     1      19.820 -10.648 -17.808  1.00  0.00    -0.348 N 
ATOM     24  H8  UNL     1      18.964 -10.777 -18.346  1.00  0.00     0.163 HD
HETATM   25  C34 UNL     1      20.856 -11.450 -18.197  1.00  0.00     0.241 C 
HETATM   26  O6  UNL     1      20.699 -12.727 -18.035  1.00  0.00    -0.271 OA
ENDROOT
BRANCH   8  27
HETATM   27  C14 UNL     1      25.465 -11.745 -13.427  1.00  0.00     0.035 C 
BRANCH  27  28
HETATM   28  C15 UNL     1      25.646 -12.122 -12.023  1.00  0.00     0.022 C 
BRANCH  28  29
HETATM   29  C16 UNL     1      26.039 -11.099 -11.046  1.00  0.00     0.122 C 
BRANCH  29  30
HETATM   30  N2  UNL     1      26.810  -9.995 -11.496  1.00  0.00    -0.365 N 
HETATM   31  C17 UNL     1      26.233  -8.680 -11.489  1.00  0.00     0.181 C 
HETATM   32  N3  UNL     1      26.163  -8.019 -10.395  1.00  0.00    -0.374 N 
HETATM   33  N4  UNL     1      25.721  -8.065 -12.660  1.00  0.00    -0.064 NA
ATOM     34  H32 UNL     1      26.531  -8.461  -9.553  1.00  0.00     0.158 HD
ATOM     35  H31 UNL     1      25.753  -7.085 -10.390  1.00  0.00     0.158 HD
ATOM     36  H2  UNL     1      27.767 -10.134 -11.822  1.00  0.00     0.162 HD
ENDBRANCH  29  30
ENDBRANCH  28  29
ENDBRANCH  27  28
ENDBRANCH   8  27
BRANCH   5  37
HETATM   37  C8  UNL     1      26.000 -10.608 -16.574  1.00  0.00    -0.003 C 
BRANCH  37  38
HETATM   38  C9  UNL     1      25.597  -9.260 -16.220  1.00  0.00     0.001 C 
HETATM   39  C10 UNL     1      26.835  -8.320 -16.078  1.00  0.00     0.013 C 
HETATM   40  C11 UNL     1      24.780  -8.517 -17.244  1.00  0.00     0.013 C 
ENDBRANCH  37  38
ENDBRANCH   5  37
BRANCH  11  41
HETATM   41  O3  UNL     1      23.053  -8.814 -13.705  1.00  0.00    -0.345 OA
ATOM     42  H3  UNL     1      23.461  -8.131 -13.188  1.00  0.00     0.219 HD
ENDBRANCH  11  41
BRANCH   4  43
HETATM   43  O1  UNL     1      25.414 -12.367 -18.943  1.00  0.00    -0.346 OA
ATOM     44  H1  UNL     1      26.289 -12.432 -18.577  1.00  0.00     0.219 HD
ENDBRANCH   4  43
BRANCH  13  45
HETATM   45  C21 UNL     1      21.702 -11.991 -10.823  1.00  0.00     0.002 C 
HETATM   46  C22 UNL     1      20.312 -11.887 -10.281  1.00  0.00     0.013 C 
HETATM   47  C23 UNL     1      22.406 -13.074  -9.975  1.00  0.00     0.013 C 
ENDBRANCH  13  45
BRANCH   1  48
HETATM   48  C3  UNL     1      21.868 -11.043 -20.304  1.00  0.00     0.013 C 
HETATM   49  C4  UNL     1      22.226  -9.663 -20.787  1.00  0.00     0.012 C 
BRANCH  48  50
HETATM   50  C2  UNL     1      22.597 -12.063 -21.106  1.00  0.00     0.002 C 
HETATM   51  C1  UNL     1      22.644 -11.597 -22.573  1.00  0.00     0.005 C 
ENDBRANCH  48  50
ENDBRANCH   1  48
BRANCH  16  52
HETATM   52  O4  UNL     1      20.711  -7.043 -12.905  1.00  0.00    -0.348 OA
ATOM     53  H4  UNL     1      20.211  -6.823 -13.683  1.00  0.00     0.219 HD
ENDBRANCH  16  52
BRANCH  17  54
HETATM   54  C27 UNL     1      18.496  -7.910 -13.918  1.00  0.00     0.037 C 
BRANCH  54  55
HETATM   55  C28 UNL     1      17.040  -8.227 -13.745  1.00  0.00    -0.020 C 
HETATM   56  C29 UNL     1      16.431  -7.427 -12.606  1.00  0.00     0.009 C 
HETATM   57  C30 UNL     1      16.325  -7.843 -15.051  1.00  0.00     0.009 C 
ENDBRANCH  54  55
ENDBRANCH  17  54
BRANCH  20  58
HETATM   58  O5  UNL     1      18.434 -11.189 -15.754  1.00  0.00    -0.348 OA
ATOM     59  H5  UNL     1      17.834 -11.066 -16.481  1.00  0.00     0.219 HD
ENDBRANCH  20  58
TORSDOF 15
ENDMDL
MODEL 4
REMARK VINA RESULT: -6.067931684      1.183      1.278
REMARK  15 active torsions:
REMARK  status: ('A' for Active; 'I' for Inactive)
REMARK    1  A    between atoms: C2_2  and  C3_3 
REMARK    2  A    between atoms: C3_3  and  C5_5 
REMARK    3  A    between atoms: C6_8  and  O1_9 
REMARK    4  A    between atoms: C7_11  and  C8_12 
REMARK    5  A    between atoms: C8_12  and  C9_13 
REMARK    6  A    between atoms: C13_18  and  C14_19 
REMARK    7  A    between atoms: C14_19  and  C15_20 
REMARK    8  A    between atoms: C15_20  and  C16_21 
REMARK    9  A    between atoms: C16_21  and  N2_22 
REMARK       I    between atoms: N2_22  and  C17_24 
REMARK   10  A    between atoms: C18_31  and  O3_32 
REMARK   11  A    between atoms: C20_35  and  C21_36 
REMARK   12  A    between atoms: C25_41  and  O4_42 
REMARK   13  A    between atoms: C26_44  and  C27_45 
REMARK   14  A    between atoms: C27_45  and  C28_46 
REMARK   15  A    between atoms: C31_51  and  O5_52 
ROOT
HETATM    1  C5  UNL     1      18.683  -9.105 -14.941  1.00  0.00     0.179 C 
HETATM    2  N1  UNL     1      19.054  -7.995 -14.127  1.00  0.00    -0.357 N 
ATOM      3  H1  UNL     1      19.262  -7.185 -14.711  1.00  0.00     0.162 HD
HETATM    4  C6  UNL     1      19.218  -7.678 -12.808  1.00  0.00     0.150 C 
HETATM    5  C7  UNL     1      20.116  -8.078 -11.697  1.00  0.00     0.059 C 
HETATM    6  C12 UNL     1      21.458  -8.379 -12.197  1.00  0.00     0.186 C 
HETATM    7  O2  UNL     1      21.667  -8.000 -13.374  1.00  0.00    -0.290 OA
HETATM    8  C13 UNL     1      22.654  -9.021 -11.681  1.00  0.00     0.159 C 
HETATM    9  N5  UNL     1      22.740 -10.328 -12.348  1.00  0.00    -0.357 N 
ATOM     10  H5  UNL     1      22.522 -10.258 -13.342  1.00  0.00     0.162 HD
HETATM   11  C18 UNL     1      23.033 -11.603 -11.988  1.00  0.00     0.164 C 
HETATM   12  C19 UNL     1      24.247 -12.412 -11.752  1.00  0.00     0.083 C 
HETATM   13  C20 UNL     1      25.550 -11.790 -11.712  1.00  0.00     0.011 C 
HETATM   14  N6  UNL     1      24.158 -13.734 -12.409  1.00  0.00    -0.331 N 
HETATM   15  C24 UNL     1      25.044 -14.736 -11.747  1.00  0.00     0.158 C 
HETATM   16  C25 UNL     1      23.370 -14.145 -13.491  1.00  0.00     0.141 C 
HETATM   17  C26 UNL     1      23.267 -13.804 -14.904  1.00  0.00     0.158 C 
HETATM   18  N7  UNL     1      22.881 -12.506 -15.332  1.00  0.00    -0.361 N 
ATOM     19  H7  UNL     1      23.478 -11.775 -14.945  1.00  0.00     0.162 HD
HETATM   20  C31 UNL     1      21.885 -11.998 -16.152  1.00  0.00     0.135 C 
HETATM   21  C32 UNL     1      20.410 -11.965 -16.050  1.00  0.00     0.155 C 
HETATM   22  C33 UNL     1      19.897 -12.153 -14.642  1.00  0.00     0.041 C 
HETATM   23  N8  UNL     1      19.879 -10.711 -16.594  1.00  0.00    -0.348 N 
ATOM     24  H8  UNL     1      19.649 -10.747 -17.587  1.00  0.00     0.163 HD
HETATM   25  C34 UNL     1      19.639  -9.502 -16.004  1.00  0.00     0.241 C 
HETATM   26  O6  UNL     1      20.348  -8.498 -16.419  1.00  0.00    -0.271 OA
ENDROOT
BRANCH   8  27
HETATM   27  C14 UNL     1      22.939  -9.039 -10.262  1.00  0.00     0.035 C 
BRANCH  27  28
HETATM   28  C15 UNL     1      23.251  -7.839  -9.481  1.00  0.00     0.022 C 
BRANCH  28  29
HETATM   29  C16 UNL     1      23.798  -6.659 -10.161  1.00  0.00     0.122 C 
BRANCH  29  30
HETATM   30  N2  UNL     1      25.209  -6.499 -10.210  1.00  0.00    -0.365 N 
HETATM   31  C17 UNL     1      25.800  -5.280  -9.734  1.00  0.00     0.181 C 
HETATM   32  N3  UNL     1      25.953  -5.093  -8.477  1.00  0.00    -0.374 N 
HETATM   33  N4  UNL     1      26.227  -4.247 -10.607  1.00  0.00    -0.064 NA
ATOM     34  H32 UNL     1      25.645  -5.836  -7.849  1.00  0.00     0.158 HD
ATOM     35  H31 UNL     1      26.373  -4.227  -8.138  1.00  0.00     0.158 HD
ATOM     36  H2  UNL     1      25.797  -7.245 -10.581  1.00  0.00     0.162 HD
ENDBRANCH  29  30
ENDBRANCH  28  29
ENDBRANCH  27  28
ENDBRANCH   8  27
BRANCH   5  37
HETATM   37  C8  UNL     1      19.573  -8.833 -10.587  1.00  0.00    -0.003 C 
BRANCH  37  38
HETATM   38  C9  UNL     1      19.525  -8.453  -9.188  1.00  0.00     0.001 C 
HETATM   39  C10 UNL     1      19.105  -6.959  -9.022  1.00  0.00     0.013 C 
HETATM   40  C11 UNL     1      18.487  -9.145  -8.343  1.00  0.00     0.013 C 
ENDBRANCH  37  38
ENDBRANCH   5  37
BRANCH  11  41
HETATM   41  O3  UNL     1      22.012 -12.405 -11.775  1.00  0.00    -0.345 OA
ATOM     42  H3  UNL     1      21.705 -12.911 -12.518  1.00  0.00     0.219 HD
ENDBRANCH  11  41
BRANCH   4  43
HETATM   43  O1  UNL     1      18.347  -6.766 -12.396  1.00  0.00    -0.346 OA
ATOM     44  H1  UNL     1      18.712  -6.190 -11.735  1.00  0.00     0.219 HD
ENDBRANCH   4  43
BRANCH  13  45
HETATM   45  C21 UNL     1      26.176 -11.054 -12.804  1.00  0.00     0.002 C 
HETATM   46  C22 UNL     1      27.532 -11.493 -13.258  1.00  0.00     0.013 C 
HETATM   47  C23 UNL     1      26.347  -9.601 -12.305  1.00  0.00     0.013 C 
ENDBRANCH  13  45
BRANCH   1  48
HETATM   48  C3  UNL     1      17.386  -8.812 -15.725  1.00  0.00     0.013 C 
HETATM   49  C4  UNL     1      16.565 -10.073 -15.773  1.00  0.00     0.012 C 
BRANCH  48  50
HETATM   50  C2  UNL     1      16.581  -7.709 -15.132  1.00  0.00     0.002 C 
HETATM   51  C1  UNL     1      15.106  -7.907 -15.526  1.00  0.00     0.005 C 
ENDBRANCH  48  50
ENDBRANCH   1  48
BRANCH  16  52
HETATM   52  O4  UNL     1      22.503 -15.077 -13.148  1.00  0.00    -0.348 OA
ATOM     53  H4  UNL     1      22.560 -15.843 -13.707  1.00  0.00     0.219 HD
ENDBRANCH  16  52
BRANCH  17  54
HETATM   54  C27 UNL     1      22.464 -14.827 -15.720  1.00  0.00     0.037 C 
BRANCH  54  55
HETATM   55  C28 UNL     1      23.258 -15.489 -16.807  1.00  0.00    -0.020 C 
HETATM   56  C29 UNL     1      23.294 -16.998 -16.624  1.00  0.00     0.009 C 
HETATM   57  C30 UNL     1      22.566 -15.174 -18.143  1.00  0.00     0.009 C 
ENDBRANCH  54  55
ENDBRANCH  17  54
BRANCH  20  58
HETATM   58  O5  UNL     1      22.224 -11.408 -17.265  1.00  0.00    -0.348 OA
ATOM     59  H5  UNL     1      22.015 -10.488 -17.378  1.00  0.00     0.219 HD
ENDBRANCH  20  58
TORSDOF 15
ENDMDL
MODEL 5
REMARK VINA RESULT: -5.828914082      3.288      7.166
REMARK  15 active torsions:
REMARK  status: ('A' for Active; 'I' for Inactive)
REMARK    1  A    between atoms: C2_2  and  C3_3 
REMARK    2  A    between atoms: C3_3  and  C5_5 
REMARK    3  A    between atoms: C6_8  and  O1_9 
REMARK    4  A    between atoms: C7_11  and  C8_12 
REMARK    5  A    between atoms: C8_12  and  C9_13 
REMARK    6  A    between atoms: C13_18  and  C14_19 
REMARK    7  A    between atoms: C14_19  and  C15_20 
REMARK    8  A    between atoms: C15_20  and  C16_21 
REMARK    9  A    between atoms: C16_21  and  N2_22 
REMARK       I    between atoms: N2_22  and  C17_24 
REMARK   10  A    between atoms: C18_31  and  O3_32 
REMARK   11  A    between atoms: C20_35  and  C21_36 
REMARK   12  A    between atoms: C25_41  and  O4_42 
REMARK   13  A    between atoms: C26_44  and  C27_45 
REMARK   14  A    between atoms: C27_45  and  C28_46 
REMARK   15  A    between atoms: C31_51  and  O5_52 
ROOT
HETATM    1  C5  UNL     1      22.745 -13.401 -10.949  1.00  0.00     0.179 C 
HETATM    2  N1  UNL     1      21.371 -13.024 -10.954  1.00  0.00    -0.357 N 
ATOM      3  H1  UNL     1      20.779 -13.851 -11.029  1.00  0.00     0.162 HD
HETATM    4  C6  UNL     1      20.599 -11.898 -10.887  1.00  0.00     0.150 C 
HETATM    5  C7  UNL     1      20.354 -10.697 -11.722  1.00  0.00     0.059 C 
HETATM    6  C12 UNL     1      20.444 -11.027 -13.145  1.00  0.00     0.186 C 
HETATM    7  O2  UNL     1      20.442 -12.256 -13.391  1.00  0.00    -0.290 OA
HETATM    8  C13 UNL     1      20.541 -10.289 -14.393  1.00  0.00     0.159 C 
HETATM    9  N5  UNL     1      21.925 -10.449 -14.860  1.00  0.00    -0.357 N 
ATOM     10  H5  UNL     1      22.252 -11.408 -14.746  1.00  0.00     0.162 HD
HETATM   11  C18 UNL     1      22.883  -9.655 -15.403  1.00  0.00     0.164 C 
HETATM   12  C19 UNL     1      23.219  -9.120 -16.738  1.00  0.00     0.083 C 
HETATM   13  C20 UNL     1      22.303  -9.272 -17.844  1.00  0.00     0.011 C 
HETATM   14  N6  UNL     1      24.659  -9.269 -17.039  1.00  0.00    -0.331 N 
HETATM   15  C24 UNL     1      25.113  -8.275 -18.055  1.00  0.00     0.158 C 
HETATM   16  C25 UNL     1      25.600 -10.154 -16.498  1.00  0.00     0.141 C 
HETATM   17  C26 UNL     1      25.792 -11.599 -16.478  1.00  0.00     0.158 C 
HETATM   18  N7  UNL     1      24.861 -12.467 -15.848  1.00  0.00    -0.361 N 
ATOM     19  H7  UNL     1      23.914 -12.349 -16.207  1.00  0.00     0.162 HD
HETATM   20  C31 UNL     1      24.937 -13.437 -14.859  1.00  0.00     0.135 C 
HETATM   21  C32 UNL     1      25.257 -13.387 -13.416  1.00  0.00     0.155 C 
HETATM   22  C33 UNL     1      25.087 -12.016 -12.806  1.00  0.00     0.041 C 
HETATM   23  N8  UNL     1      24.442 -14.351 -12.670  1.00  0.00    -0.348 N 
ATOM     24  H8  UNL     1      24.868 -15.273 -12.569  1.00  0.00     0.163 HD
HETATM   25  C34 UNL     1      23.212 -14.233 -12.086  1.00  0.00     0.241 C 
HETATM   26  O6  UNL     1      22.258 -14.958 -12.581  1.00  0.00    -0.271 OA
ENDROOT
BRANCH   8  27
HETATM   27  C14 UNL     1      20.006  -8.949 -14.511  1.00  0.00     0.035 C 
BRANCH  27  28
HETATM   28  C15 UNL     1      18.574  -8.640 -14.486  1.00  0.00     0.022 C 
BRANCH  28  29
HETATM   29  C16 UNL     1      17.984  -8.057 -13.275  1.00  0.00     0.122 C 
BRANCH  29  30
HETATM   30  N2  UNL     1      16.663  -7.539 -13.347  1.00  0.00    -0.365 N 
HETATM   31  C17 UNL     1      15.772  -8.015 -14.368  1.00  0.00     0.181 C 
HETATM   32  N3  UNL     1      15.183  -9.143 -14.228  1.00  0.00    -0.374 N 
HETATM   33  N4  UNL     1      15.510  -7.283 -15.555  1.00  0.00    -0.064 NA
ATOM     34  H32 UNL     1      15.372  -9.670 -13.375  1.00  0.00     0.158 HD
ATOM     35  H31 UNL     1      14.550  -9.481 -14.953  1.00  0.00     0.158 HD
ATOM     36  H2  UNL     1      16.349  -6.836 -12.679  1.00  0.00     0.162 HD
ENDBRANCH  29  30
ENDBRANCH  28  29
ENDBRANCH  27  28
ENDBRANCH   8  27
BRANCH   5  37
HETATM   37  C8  UNL     1      20.806  -9.404 -11.250  1.00  0.00    -0.003 C 
BRANCH  37  38
HETATM   38  C9  UNL     1      22.122  -8.812 -11.396  1.00  0.00     0.001 C 
HETATM   39  C10 UNL     1      22.146  -7.349 -10.852  1.00  0.00     0.013 C 
HETATM   40  C11 UNL     1      23.231  -9.442 -10.594  1.00  0.00     0.013 C 
ENDBRANCH  37  38
ENDBRANCH   5  37
BRANCH  11  41
HETATM   41  O3  UNL     1      23.803  -9.196 -14.582  1.00  0.00    -0.345 OA
ATOM     42  H3  UNL     1      24.469  -9.813 -14.302  1.00  0.00     0.219 HD
ENDBRANCH  11  41
BRANCH   4  43
HETATM   43  O1  UNL     1      19.862 -11.856  -9.785  1.00  0.00    -0.346 OA
ATOM     44  H1  UNL     1      20.148 -12.486  -9.134  1.00  0.00     0.219 HD
ENDBRANCH   4  43
BRANCH  13  45
HETATM   45  C21 UNL     1      21.840 -10.539 -18.398  1.00  0.00     0.002 C 
HETATM   46  C22 UNL     1      22.036 -10.777 -19.862  1.00  0.00     0.013 C 
HETATM   47  C23 UNL     1      20.313 -10.581 -18.165  1.00  0.00     0.013 C 
ENDBRANCH  13  45
BRANCH   1  48
HETATM   48  C3  UNL     1      23.081 -14.268  -9.717  1.00  0.00     0.013 C 
HETATM   49  C4  UNL     1      24.322 -13.713  -9.070  1.00  0.00     0.012 C 
BRANCH  48  50
HETATM   50  C2  UNL     1      21.976 -14.323  -8.721  1.00  0.00     0.002 C 
HETATM   51  C1  UNL     1      22.574 -14.625  -7.335  1.00  0.00     0.005 C 
ENDBRANCH  48  50
ENDBRANCH   1  48
BRANCH  16  52
HETATM   52  O4  UNL     1      26.554  -9.525 -15.842  1.00  0.00    -0.348 OA
ATOM     53  H4  UNL     1      26.535  -9.716 -14.911  1.00  0.00     0.219 HD
ENDBRANCH  16  52
BRANCH  17  54
HETATM   54  C27 UNL     1      27.201 -12.020 -16.037  1.00  0.00     0.037 C 
BRANCH  54  55
HETATM   55  C28 UNL     1      27.892 -12.928 -17.010  1.00  0.00    -0.020 C 
HETATM   56  C29 UNL     1      29.082 -12.239 -17.659  1.00  0.00     0.009 C 
HETATM   57  C30 UNL     1      28.401 -14.147 -16.223  1.00  0.00     0.009 C 
ENDBRANCH  54  55
ENDBRANCH  17  54
BRANCH  20  58
HETATM   58  O5  UNL     1      24.687 -14.678 -15.173  1.00  0.00    -0.348 OA
ATOM     59  H5  UNL     1      25.382 -15.205 -15.551  1.00  0.00     0.219 HD
ENDBRANCH  20  58
TORSDOF 15
ENDMDL
