MODEL 1
REMARK VINA RESULT: -6.332840354      0.000      0.000
REMARK  15 active torsions:
REMARK  status: ('A' for Active; 'I' for Inactive)
REMARK    1  A    between atoms: O1_2  and  C2_3 
REMARK    2  A    between atoms: C2_3  and  C4_5 
REMARK    3  A    between atoms: C2_3  and  C23_37 
REMARK    4  A    between atoms: C4_5  and  C5_6 
REMARK    5  A    between atoms: C5_6  and  C6_7 
REMARK    6  A    between atoms: C10_11  and  C11_12 
REMARK    7  A    between atoms: C15_17  and  O2_18 
REMARK    8  A    between atoms: C16_20  and  O3_21 
REMARK    9  A    between atoms: C17_23  and  O4_24 
REMARK   10  A    between atoms: C20_30  and  O6_31 
REMARK   11  A    between atoms: C21_33  and  C22_34 
REMARK   12  A    between atoms: C22_34  and  O7_35 
REMARK   13  A    between atoms: C23_37  and  C24_38 
REMARK   14  A    between atoms: C24_38  and  C25_39 
REMARK   15  A    between atoms: C25_39  and  C26_40 
ROOT
HETATM    1  C6  UNL     1      24.474   8.840  14.885  1.00  0.00     0.011 C 
HETATM    2  C7  UNL     1      25.326   9.174  15.892  1.00  0.00    -0.008 C 
HETATM    3  C8  UNL     1      26.054  10.448  16.007  1.00  0.00     0.037 C 
HETATM    4  C9  UNL     1      25.856  11.166  14.725  1.00  0.00     0.041 C 
HETATM    5  C10 UNL     1      26.377  12.541  14.624  1.00  0.00     0.023 C 
HETATM    6  C14 UNL     1      26.191  13.011  13.210  1.00  0.00     0.032 C 
HETATM    7  C15 UNL     1      26.831  12.258  12.115  1.00  0.00     0.156 C 
HETATM    8  C16 UNL     1      26.022  11.446  11.168  1.00  0.00     0.202 C 
HETATM    9  C17 UNL     1      25.422  10.188  11.603  1.00  0.00     0.289 C 
HETATM   10  O5  UNL     1      25.097   9.681  12.794  1.00  0.00    -0.345 OA
HETATM   11  C18 UNL     1      24.175   9.769  13.796  1.00  0.00     0.208 C 
HETATM   12  C19 UNL     1      24.380  11.150  14.461  1.00  0.00     0.164 C 
HETATM   13  F1  UNL     1      23.623  10.996  15.630  1.00  0.00    -0.237 F 
HETATM   14  C20 UNL     1      23.809  12.278  13.719  1.00  0.00     0.167 C 
HETATM   15  C21 UNL     1      24.691  13.221  12.997  1.00  0.00     0.048 C 
ENDROOT
BRANCH   1  16
HETATM   16  C5  UNL     1      23.899   7.507  15.060  1.00  0.00    -0.143 C 
BRANCH  16  17
HETATM   17  C4  UNL     1      23.435   6.430  15.201  1.00  0.00     0.123 C 
BRANCH  17  18
HETATM   18  C2  UNL     1      23.772   5.000  15.002  1.00  0.00     0.066 C 
HETATM   19  C3  UNL     1      24.995   4.662  15.818  1.00  0.00     0.047 C 
BRANCH  18  20
HETATM   20  O1  UNL     1      22.714   4.143  15.213  1.00  0.00    -0.385 OA
HETATM   21  C1  UNL     1      21.844   4.465  16.212  1.00  0.00     0.202 C 
ENDBRANCH  18  20
BRANCH  18  22
HETATM   22  C23 UNL     1      24.139   4.784  13.514  1.00  0.00     0.038 C 
BRANCH  22  23
HETATM   23  C24 UNL     1      25.606   4.979  13.327  1.00  0.00     0.005 C 
BRANCH  23  24
HETATM   24  C25 UNL     1      25.958   6.102  12.360  1.00  0.00     0.031 C 
BRANCH  24  25
HETATM   25  C26 UNL     1      27.075   6.949  12.958  1.00  0.00     0.222 C 
HETATM   26  F2  UNL     1      27.091   6.793  14.324  1.00  0.00    -0.255 F 
ENDBRANCH  24  25
ENDBRANCH  23  24
ENDBRANCH  22  23
ENDBRANCH  18  22
ENDBRANCH  17  18
ENDBRANCH  16  17
ENDBRANCH   1  16
BRANCH   9  27
HETATM   27  O4  UNL     1      25.153   9.398  10.587  1.00  0.00    -0.368 OA
ATOM     28  H4  UNL     1      25.904   9.292  10.015  1.00  0.00     0.212 HD
ENDBRANCH   9  27
BRANCH  14  29
HETATM   29  O6  UNL     1      22.744  11.779  12.958  1.00  0.00    -0.392 OA
ATOM     30  H6  UNL     1      22.052  12.430  12.980  1.00  0.00     0.210 HD
ENDBRANCH  14  29
BRANCH   5  31
HETATM   31  C11 UNL     1      27.539  12.949  15.403  1.00  0.00     0.034 C 
HETATM   32  C12 UNL     1      28.755  12.100  15.500  1.00  0.00     0.032 C 
HETATM   33  C13 UNL     1      28.070  14.296  14.818  1.00  0.00     0.032 C 
HETATM   34 CL1  UNL     1      27.111  13.428  17.072  1.00  0.00    -0.120 Cl
ENDBRANCH   5  31
BRANCH   8  35
HETATM   35  O3  UNL     1      27.012  11.075  10.177  1.00  0.00    -0.388 OA
ATOM     36  H3  UNL     1      27.118  11.887   9.697  1.00  0.00     0.210 HD
ENDBRANCH   8  35
BRANCH  15  37
HETATM   37  C22 UNL     1      24.330  14.681  13.235  1.00  0.00     0.172 C 
BRANCH  37  38
HETATM   38  O7  UNL     1      22.973  14.871  13.444  1.00  0.00    -0.400 OA
ATOM     39  H7  UNL     1      22.615  15.573  12.914  1.00  0.00     0.209 HD
ENDBRANCH  37  38
ENDBRANCH  15  37
BRANCH   7  40
HETATM   40  O2  UNL     1      27.953  11.536  12.371  1.00  0.00    -0.392 OA
ATOM     41  H2  UNL     1      28.756  11.990  12.597  1.00  0.00     0.210 HD
ENDBRANCH   7  40
TORSDOF 15
ENDMDL
MODEL 2
REMARK VINA RESULT: -6.320275356      3.439      5.586
REMARK  15 active torsions:
REMARK  status: ('A' for Active; 'I' for Inactive)
REMARK    1  A    between atoms: O1_2  and  C2_3 
REMARK    2  A    between atoms: C2_3  and  C4_5 
REMARK    3  A    between atoms: C2_3  and  C23_37 
REMARK    4  A    between atoms: C4_5  and  C5_6 
REMARK    5  A    between atoms: C5_6  and  C6_7 
REMARK    6  A    between atoms: C10_11  and  C11_12 
REMARK    7  A    between atoms: C15_17  and  O2_18 
REMARK    8  A    between atoms: C16_20  and  O3_21 
REMARK    9  A    between atoms: C17_23  and  O4_24 
REMARK   10  A    between atoms: C20_30  and  O6_31 
REMARK   11  A    between atoms: C21_33  and  C22_34 
REMARK   12  A    between atoms: C22_34  and  O7_35 
REMARK   13  A    between atoms: C23_37  and  C24_38 
REMARK   14  A    between atoms: C24_38  and  C25_39 
REMARK   15  A    between atoms: C25_39  and  C26_40 
ROOT
HETATM    1  C6  UNL     1      27.048   6.316  10.183  1.00  0.00     0.011 C 
HETATM    2  C7  UNL     1      28.081   6.804   9.443  1.00  0.00    -0.008 C 
HETATM    3  C8  UNL     1      28.927   7.951   9.812  1.00  0.00     0.037 C 
HETATM    4  C9  UNL     1      28.291   8.585  10.992  1.00  0.00     0.041 C 
HETATM    5  C10 UNL     1      29.016   9.689  11.647  1.00  0.00     0.023 C 
HETATM    6  C14 UNL     1      28.129  10.263  12.715  1.00  0.00     0.032 C 
HETATM    7  C15 UNL     1      26.814  10.814  12.336  1.00  0.00     0.156 C 
HETATM    8  C16 UNL     1      25.554  10.114  12.704  1.00  0.00     0.202 C 
HETATM    9  C17 UNL     1      25.170   8.883  12.020  1.00  0.00     0.289 C 
HETATM   10  O5  UNL     1      25.841   7.959  11.330  1.00  0.00    -0.345 OA
HETATM   11  C18 UNL     1      26.690   6.900  11.475  1.00  0.00     0.208 C 
HETATM   12  C19 UNL     1      28.035   7.480  11.971  1.00  0.00     0.164 C 
HETATM   13  F1  UNL     1      28.883   6.381  11.782  1.00  0.00    -0.237 F 
HETATM   14  C20 UNL     1      28.069   7.813  13.398  1.00  0.00     0.167 C 
HETATM   15  C21 UNL     1      28.044   9.226  13.836  1.00  0.00     0.048 C 
ENDROOT
BRANCH   1  16
HETATM   16  C5  UNL     1      26.408   5.163   9.553  1.00  0.00    -0.143 C 
BRANCH  16  17
HETATM   17  C4  UNL     1      25.892   4.230   9.045  1.00  0.00     0.123 C 
BRANCH  17  18
HETATM   18  C2  UNL     1      24.739   3.315   9.227  1.00  0.00     0.066 C 
HETATM   19  C3  UNL     1      24.235   2.880   7.873  1.00  0.00     0.047 C 
BRANCH  18  20
HETATM   20  O1  UNL     1      24.987   2.268  10.087  1.00  0.00    -0.385 OA
HETATM   21  C1  UNL     1      24.953   1.011   9.558  1.00  0.00     0.202 C 
ENDBRANCH  18  20
BRANCH  18  22
HETATM   22  C23 UNL     1      23.593   4.099   9.912  1.00  0.00     0.038 C 
BRANCH  22  23
HETATM   23  C24 UNL     1      23.503   3.703  11.347  1.00  0.00     0.005 C 
BRANCH  23  24
HETATM   24  C25 UNL     1      24.178   4.681  12.299  1.00  0.00     0.031 C 
BRANCH  24  25
HETATM   25  C26 UNL     1      23.746   4.373  13.728  1.00  0.00     0.222 C 
HETATM   26  F2  UNL     1      24.852   4.334  14.545  1.00  0.00    -0.255 F 
ENDBRANCH  24  25
ENDBRANCH  23  24
ENDBRANCH  22  23
ENDBRANCH  18  22
ENDBRANCH  17  18
ENDBRANCH  16  17
ENDBRANCH   1  16
BRANCH   9  27
HETATM   27  O4  UNL     1      23.879   8.654  12.116  1.00  0.00    -0.368 OA
ATOM     28  H4  UNL     1      23.511   9.036  12.905  1.00  0.00     0.212 HD
ENDBRANCH   9  27
BRANCH  14  29
HETATM   29  O6  UNL     1      27.137   6.989  14.041  1.00  0.00    -0.392 OA
ATOM     30  H6  UNL     1      26.860   7.437  14.831  1.00  0.00     0.210 HD
ENDBRANCH  14  29
BRANCH   5  31
HETATM   31  C11 UNL     1      29.912  10.543  10.878  1.00  0.00     0.034 C 
HETATM   32  C12 UNL     1      29.555  11.035   9.523  1.00  0.00     0.032 C 
HETATM   33  C13 UNL     1      30.161  11.851  11.696  1.00  0.00     0.032 C 
HETATM   34 CL1  UNL     1      31.565   9.873  10.764  1.00  0.00    -0.120 Cl
ENDBRANCH   5  31
BRANCH   8  35
HETATM   35  O3  UNL     1      24.554  11.091  12.325  1.00  0.00    -0.388 OA
ATOM     36  H3  UNL     1      23.773  10.736  12.732  1.00  0.00     0.210 HD
ENDBRANCH   8  35
BRANCH  15  37
HETATM   37  C22 UNL     1      29.074   9.538  14.914  1.00  0.00     0.172 C 
BRANCH  37  38
HETATM   38  O7  UNL     1      29.845   8.437  15.253  1.00  0.00    -0.400 OA
ATOM     39  H7  UNL     1      30.066   8.414  16.177  1.00  0.00     0.209 HD
ENDBRANCH  37  38
ENDBRANCH  15  37
BRANCH   7  40
HETATM   40  O2  UNL     1      26.630  11.288  11.076  1.00  0.00    -0.392 OA
ATOM     41  H2  UNL     1      25.774  11.214  10.672  1.00  0.00     0.210 HD
ENDBRANCH   7  40
TORSDOF 15
ENDMDL
MODEL 3
REMARK VINA RESULT: -6.148938342      3.077      5.233
REMARK  15 active torsions:
REMARK  status: ('A' for Active; 'I' for Inactive)
REMARK    1  A    between atoms: O1_2  and  C2_3 
REMARK    2  A    between atoms: C2_3  and  C4_5 
REMARK    3  A    between atoms: C2_3  and  C23_37 
REMARK    4  A    between atoms: C4_5  and  C5_6 
REMARK    5  A    between atoms: C5_6  and  C6_7 
REMARK    6  A    between atoms: C10_11  and  C11_12 
REMARK    7  A    between atoms: C15_17  and  O2_18 
REMARK    8  A    between atoms: C16_20  and  O3_21 
REMARK    9  A    between atoms: C17_23  and  O4_24 
REMARK   10  A    between atoms: C20_30  and  O6_31 
REMARK   11  A    between atoms: C21_33  and  C22_34 
REMARK   12  A    between atoms: C22_34  and  O7_35 
REMARK   13  A    between atoms: C23_37  and  C24_38 
REMARK   14  A    between atoms: C24_38  and  C25_39 
REMARK   15  A    between atoms: C25_39  and  C26_40 
ROOT
HETATM    1  C6  UNL     1      26.866   6.842  10.551  1.00  0.00     0.011 C 
HETATM    2  C7  UNL     1      27.464   7.640   9.625  1.00  0.00    -0.008 C 
HETATM    3  C8  UNL     1      27.930   9.017   9.859  1.00  0.00     0.037 C 
HETATM    4  C9  UNL     1      27.414   9.419  11.190  1.00  0.00     0.041 C 
HETATM    5  C10 UNL     1      27.851  10.720  11.728  1.00  0.00     0.023 C 
HETATM    6  C14 UNL     1      27.101  10.975  13.003  1.00  0.00     0.032 C 
HETATM    7  C15 UNL     1      25.628  11.029  12.971  1.00  0.00     0.156 C 
HETATM    8  C16 UNL     1      24.807   9.945  13.575  1.00  0.00     0.202 C 
HETATM    9  C17 UNL     1      24.716   8.642  12.923  1.00  0.00     0.289 C 
HETATM   10  O5  UNL     1      25.479   7.991  12.043  1.00  0.00    -0.345 OA
HETATM   11  C18 UNL     1      26.647   7.295  11.924  1.00  0.00     0.208 C 
HETATM   12  C19 UNL     1      27.790   8.316  12.132  1.00  0.00     0.164 C 
HETATM   13  F1  UNL     1      28.892   7.574  11.686  1.00  0.00    -0.237 F 
HETATM   14  C20 UNL     1      28.044   8.673  13.531  1.00  0.00     0.167 C 
HETATM   15  C21 UNL     1      27.643   9.999  14.049  1.00  0.00     0.048 C 
ENDROOT
BRANCH   1  16
HETATM   16  C5  UNL     1      26.529   5.524  10.016  1.00  0.00    -0.143 C 
BRANCH  16  17
HETATM   17  C4  UNL     1      26.257   4.459   9.584  1.00  0.00     0.123 C 
BRANCH  17  18
HETATM   18  C2  UNL     1      25.104   3.539   9.438  1.00  0.00     0.066 C 
HETATM   19  C3  UNL     1      24.859   3.282   7.971  1.00  0.00     0.047 C 
BRANCH  18  20
HETATM   20  O1  UNL     1      25.207   2.389  10.190  1.00  0.00    -0.385 OA
HETATM   21  C1  UNL     1      24.936   1.210   9.561  1.00  0.00     0.202 C 
ENDBRANCH  18  20
BRANCH  18  22
HETATM   22  C23 UNL     1      23.842   4.240   9.997  1.00  0.00     0.038 C 
BRANCH  22  23
HETATM   23  C24 UNL     1      23.588   3.778  11.392  1.00  0.00     0.005 C 
BRANCH  23  24
HETATM   24  C25 UNL     1      24.205   4.673  12.458  1.00  0.00     0.031 C 
BRANCH  24  25
HETATM   25  C26 UNL     1      23.599   4.332  13.815  1.00  0.00     0.222 C 
HETATM   26  F2  UNL     1      24.605   4.148  14.735  1.00  0.00    -0.255 F 
ENDBRANCH  24  25
ENDBRANCH  23  24
ENDBRANCH  22  23
ENDBRANCH  18  22
ENDBRANCH  17  18
ENDBRANCH  16  17
ENDBRANCH   1  16
BRANCH   9  27
HETATM   27  O4  UNL     1      23.642   7.983  13.300  1.00  0.00    -0.368 OA
ATOM     28  H4  UNL     1      23.350   7.375  12.631  1.00  0.00     0.212 HD
ENDBRANCH   9  27
BRANCH  14  29
HETATM   29  O6  UNL     1      27.630   7.592  14.319  1.00  0.00    -0.392 OA
ATOM     30  H6  UNL     1      27.737   7.847  15.228  1.00  0.00     0.210 HD
ENDBRANCH  14  29
BRANCH   5  31
HETATM   31  C11 UNL     1      28.193  11.813  10.826  1.00  0.00     0.034 C 
HETATM   32  C12 UNL     1      27.358  12.144   9.643  1.00  0.00     0.032 C 
HETATM   33  C13 UNL     1      28.210  13.139  11.653  1.00  0.00     0.032 C 
HETATM   34 CL1  UNL     1      29.885  11.726  10.256  1.00  0.00    -0.120 Cl
ENDBRANCH   5  31
BRANCH   8  35
HETATM   35  O3  UNL     1      23.474  10.506  13.496  1.00  0.00    -0.388 OA
ATOM     36  H3  UNL     1      23.544  11.063  12.730  1.00  0.00     0.210 HD
ENDBRANCH   8  35
BRANCH  15  37
HETATM   37  C22 UNL     1      28.729  10.673  14.878  1.00  0.00     0.172 C 
BRANCH  37  38
HETATM   38  O7  UNL     1      29.381   9.791  15.725  1.00  0.00    -0.400 OA
ATOM     39  H7  UNL     1      29.443   8.914  15.365  1.00  0.00     0.209 HD
ENDBRANCH  37  38
ENDBRANCH  15  37
BRANCH   7  40
HETATM   40  O2  UNL     1      25.000  11.382  11.819  1.00  0.00    -0.392 OA
ATOM     41  H2  UNL     1      24.251  10.877  11.524  1.00  0.00     0.210 HD
ENDBRANCH   7  40
TORSDOF 15
ENDMDL
MODEL 4
REMARK VINA RESULT: -6.142775718      3.503      5.495
REMARK  15 active torsions:
REMARK  status: ('A' for Active; 'I' for Inactive)
REMARK    1  A    between atoms: O1_2  and  C2_3 
REMARK    2  A    between atoms: C2_3  and  C4_5 
REMARK    3  A    between atoms: C2_3  and  C23_37 
REMARK    4  A    between atoms: C4_5  and  C5_6 
REMARK    5  A    between atoms: C5_6  and  C6_7 
REMARK    6  A    between atoms: C10_11  and  C11_12 
REMARK    7  A    between atoms: C15_17  and  O2_18 
REMARK    8  A    between atoms: C16_20  and  O3_21 
REMARK    9  A    between atoms: C17_23  and  O4_24 
REMARK   10  A    between atoms: C20_30  and  O6_31 
REMARK   11  A    between atoms: C21_33  and  C22_34 
REMARK   12  A    between atoms: C22_34  and  O7_35 
REMARK   13  A    between atoms: C23_37  and  C24_38 
REMARK   14  A    between atoms: C24_38  and  C25_39 
REMARK   15  A    between atoms: C25_39  and  C26_40 
ROOT
HETATM    1  C6  UNL     1      26.198   5.829  11.249  1.00  0.00     0.011 C 
HETATM    2  C7  UNL     1      26.753   6.340  10.117  1.00  0.00    -0.008 C 
HETATM    3  C8  UNL     1      27.342   7.683   9.986  1.00  0.00     0.037 C 
HETATM    4  C9  UNL     1      27.001   8.418  11.229  1.00  0.00     0.041 C 
HETATM    5  C10 UNL     1      27.587   9.758  11.413  1.00  0.00     0.023 C 
HETATM    6  C14 UNL     1      26.997  10.361  12.655  1.00  0.00     0.032 C 
HETATM    7  C15 UNL     1      25.536  10.548  12.737  1.00  0.00     0.156 C 
HETATM    8  C16 UNL     1      24.706   9.710  13.642  1.00  0.00     0.202 C 
HETATM    9  C17 UNL     1      24.450   8.309  13.318  1.00  0.00     0.289 C 
HETATM   10  O5  UNL     1      25.065   7.409  12.550  1.00  0.00    -0.345 OA
HETATM   11  C18 UNL     1      26.158   6.595  12.495  1.00  0.00     0.208 C 
HETATM   12  C19 UNL     1      27.390   7.521  12.364  1.00  0.00     0.164 C 
HETATM   13  F1  UNL     1      28.381   6.596  12.008  1.00  0.00    -0.237 F 
HETATM   14  C20 UNL     1      27.816   8.153  13.616  1.00  0.00     0.167 C 
HETATM   15  C21 UNL     1      27.572   9.594  13.846  1.00  0.00     0.048 C 
ENDROOT
BRANCH   1  16
HETATM   16  C5  UNL     1      25.709   4.464  11.063  1.00  0.00    -0.143 C 
BRANCH  16  17
HETATM   17  C4  UNL     1      25.313   3.361  10.913  1.00  0.00     0.123 C 
BRANCH  17  18
HETATM   18  C2  UNL     1      24.279   2.604  10.169  1.00  0.00     0.066 C 
HETATM   19  C3  UNL     1      24.869   1.302   9.687  1.00  0.00     0.047 C 
BRANCH  18  20
HETATM   20  O1  UNL     1      23.094   2.452  10.856  1.00  0.00    -0.385 OA
HETATM   21  C1  UNL     1      22.763   3.432  11.745  1.00  0.00     0.202 C 
ENDBRANCH  18  20
BRANCH  18  22
HETATM   22  C23 UNL     1      23.881   3.418   8.914  1.00  0.00     0.038 C 
BRANCH  22  23
HETATM   23  C24 UNL     1      24.656   2.932   7.735  1.00  0.00     0.005 C 
BRANCH  23  24
HETATM   24  C25 UNL     1      25.658   3.945   7.197  1.00  0.00     0.031 C 
BRANCH  24  25
HETATM   25  C26 UNL     1      27.053   3.587   7.694  1.00  0.00     0.222 C 
HETATM   26  F2  UNL     1      27.863   4.697   7.636  1.00  0.00    -0.255 F 
ENDBRANCH  24  25
ENDBRANCH  23  24
ENDBRANCH  22  23
ENDBRANCH  18  22
ENDBRANCH  17  18
ENDBRANCH  16  17
ENDBRANCH   1  16
BRANCH   9  27
HETATM   27  O4  UNL     1      23.375   7.857  13.927  1.00  0.00    -0.368 OA
ATOM     28  H4  UNL     1      23.032   7.079  13.504  1.00  0.00     0.212 HD
ENDBRANCH   9  27
BRANCH  14  29
HETATM   29  O6  UNL     1      27.408   7.319  14.664  1.00  0.00    -0.392 OA
ATOM     30  H6  UNL     1      27.250   7.872  15.421  1.00  0.00     0.210 HD
ENDBRANCH  14  29
BRANCH   5  31
HETATM   31  C11 UNL     1      27.913  10.585  10.258  1.00  0.00     0.034 C 
HETATM   32  C12 UNL     1      26.978  10.740   9.115  1.00  0.00     0.032 C 
HETATM   33  C13 UNL     1      28.138  12.049  10.756  1.00  0.00     0.032 C 
HETATM   34 CL1  UNL     1      29.514  10.194   9.566  1.00  0.00    -0.120 Cl
ENDBRANCH   5  31
BRANCH   8  35
HETATM   35  O3  UNL     1      23.417  10.366  13.550  1.00  0.00    -0.388 OA
ATOM     36  H3  UNL     1      22.822   9.648  13.732  1.00  0.00     0.210 HD
ENDBRANCH   8  35
BRANCH  15  37
HETATM   37  C22 UNL     1      28.786  10.327  14.402  1.00  0.00     0.172 C 
BRANCH  37  38
HETATM   38  O7  UNL     1      29.374   9.660  15.465  1.00  0.00    -0.400 OA
ATOM     39  H7  UNL     1      29.398  10.182  16.258  1.00  0.00     0.209 HD
ENDBRANCH  37  38
ENDBRANCH  15  37
BRANCH   7  40
HETATM   40  O2  UNL     1      24.819  10.695  11.592  1.00  0.00    -0.392 OA
ATOM     41  H2  UNL     1      24.877  10.027  10.919  1.00  0.00     0.210 HD
ENDBRANCH   7  40
TORSDOF 15
ENDMDL
MODEL 5
REMARK VINA RESULT: -6.028646137      3.559      5.343
REMARK  15 active torsions:
REMARK  status: ('A' for Active; 'I' for Inactive)
REMARK    1  A    between atoms: O1_2  and  C2_3 
REMARK    2  A    between atoms: C2_3  and  C4_5 
REMARK    3  A    between atoms: C2_3  and  C23_37 
REMARK    4  A    between atoms: C4_5  and  C5_6 
REMARK    5  A    between atoms: C5_6  and  C6_7 
REMARK    6  A    between atoms: C10_11  and  C11_12 
REMARK    7  A    between atoms: C15_17  and  O2_18 
REMARK    8  A    between atoms: C16_20  and  O3_21 
REMARK    9  A    between atoms: C17_23  and  O4_24 
REMARK   10  A    between atoms: C20_30  and  O6_31 
REMARK   11  A    between atoms: C21_33  and  C22_34 
REMARK   12  A    between atoms: C22_34  and  O7_35 
REMARK   13  A    between atoms: C23_37  and  C24_38 
REMARK   14  A    between atoms: C24_38  and  C25_39 
REMARK   15  A    between atoms: C25_39  and  C26_40 
ROOT
HETATM    1  C6  UNL     1      27.708   6.393  10.244  1.00  0.00     0.011 C 
HETATM    2  C7  UNL     1      28.975   6.042  10.594  1.00  0.00    -0.008 C 
HETATM    3  C8  UNL     1      29.931   6.902  11.312  1.00  0.00     0.037 C 
HETATM    4  C9  UNL     1      29.329   8.257  11.358  1.00  0.00     0.041 C 
HETATM    5  C10 UNL     1      30.031   9.288  12.144  1.00  0.00     0.023 C 
HETATM    6  C14 UNL     1      29.326  10.598  11.933  1.00  0.00     0.032 C 
HETATM    7  C15 UNL     1      29.216  11.140  10.566  1.00  0.00     0.156 C 
HETATM    8  C16 UNL     1      27.910  11.169   9.855  1.00  0.00     0.202 C 
HETATM    9  C17 UNL     1      27.320   9.934   9.349  1.00  0.00     0.289 C 
HETATM   10  O5  UNL     1      27.473   8.643   9.652  1.00  0.00    -0.345 OA
HETATM   11  C18 UNL     1      27.154   7.702  10.587  1.00  0.00     0.208 C 
HETATM   12  C19 UNL     1      27.933   8.076  11.870  1.00  0.00     0.164 C 
HETATM   13  F1  UNL     1      27.779   6.905  12.623  1.00  0.00    -0.237 F 
HETATM   14  C20 UNL     1      27.344   9.172  12.646  1.00  0.00     0.167 C 
HETATM   15  C21 UNL     1      27.980  10.507  12.653  1.00  0.00     0.048 C 
ENDROOT
BRANCH   1  16
HETATM   16  C5  UNL     1      27.004   5.317   9.549  1.00  0.00    -0.143 C 
BRANCH  16  17
HETATM   17  C4  UNL     1      26.435   4.447   8.988  1.00  0.00     0.123 C 
BRANCH  17  18
HETATM   18  C2  UNL     1      25.239   3.582   9.125  1.00  0.00     0.066 C 
HETATM   19  C3  UNL     1      24.737   3.211   7.751  1.00  0.00     0.047 C 
BRANCH  18  20
HETATM   20  O1  UNL     1      25.425   2.498   9.955  1.00  0.00    -0.385 OA
HETATM   21  C1  UNL     1      24.861   1.317   9.570  1.00  0.00     0.202 C 
ENDBRANCH  18  20
BRANCH  18  22
HETATM   22  C23 UNL     1      24.119   4.396   9.817  1.00  0.00     0.038 C 
BRANCH  22  23
HETATM   23  C24 UNL     1      24.043   4.019  11.258  1.00  0.00     0.005 C 
BRANCH  23  24
HETATM   24  C25 UNL     1      24.675   5.040  12.195  1.00  0.00     0.031 C 
BRANCH  24  25
HETATM   25  C26 UNL     1      24.157   4.813  13.610  1.00  0.00     0.222 C 
HETATM   26  F2  UNL     1      25.200   4.454  14.431  1.00  0.00    -0.255 F 
ENDBRANCH  24  25
ENDBRANCH  23  24
ENDBRANCH  22  23
ENDBRANCH  18  22
ENDBRANCH  17  18
ENDBRANCH  16  17
ENDBRANCH   1  16
BRANCH   9  27
HETATM   27  O4  UNL     1      26.453  10.165   8.388  1.00  0.00    -0.368 OA
ATOM     28  H4  UNL     1      25.572   9.914   8.640  1.00  0.00     0.212 HD
ENDBRANCH   9  27
BRANCH  14  29
HETATM   29  O6  UNL     1      25.970   9.183  12.375  1.00  0.00    -0.392 OA
ATOM     30  H6  UNL     1      25.673  10.081  12.459  1.00  0.00     0.210 HD
ENDBRANCH  14  29
BRANCH   5  31
HETATM   31  C11 UNL     1      31.477   9.233  12.310  1.00  0.00     0.034 C 
HETATM   32  C12 UNL     1      32.390   8.992  11.163  1.00  0.00     0.032 C 
HETATM   33  C13 UNL     1      31.955  10.605  12.884  1.00  0.00     0.032 C 
HETATM   34 CL1  UNL     1      31.975   8.110  13.610  1.00  0.00    -0.120 Cl
ENDBRANCH   5  31
BRANCH   8  35
HETATM   35  O3  UNL     1      28.233  11.950   8.678  1.00  0.00    -0.388 OA
ATOM     36  H3  UNL     1      27.416  12.407   8.519  1.00  0.00     0.210 HD
ENDBRANCH   8  35
BRANCH  15  37
HETATM   37  C22 UNL     1      28.093  11.111  14.047  1.00  0.00     0.172 C 
BRANCH  37  38
HETATM   38  O7  UNL     1      27.080  10.691  14.895  1.00  0.00    -0.400 OA
ATOM     39  H7  UNL     1      26.420  10.173  14.451  1.00  0.00     0.209 HD
ENDBRANCH  37  38
ENDBRANCH  15  37
BRANCH   7  40
HETATM   40  O2  UNL     1      30.145  10.795   9.637  1.00  0.00    -0.392 OA
ATOM     41  H2  UNL     1      30.292   9.877   9.445  1.00  0.00     0.210 HD
ENDBRANCH   7  40
TORSDOF 15
ENDMDL
