MODEL 1
REMARK VINA RESULT: -6.654473939      0.000      0.000
REMARK  9 active torsions:
REMARK  status: ('A' for Active; 'I' for Inactive)
REMARK    1  A    between atoms: C2_2  and  C3_3 
REMARK    2  A    between atoms: C3_3  and  C4_4 
REMARK    3  A    between atoms: C4_4  and  O1_5 
REMARK    4  A    between atoms: C4_4  and  C16_25 
REMARK    5  A    between atoms: O1_5  and  C5_6 
REMARK    6  A    between atoms: C9_11  and  C10_12 
REMARK    7  A    between atoms: C10_12  and  C11_13 
REMARK    8  A    between atoms: C13_19  and  O5_20 
REMARK    9  A    between atoms: C13_19  and  N2_22 
ROOT
HETATM    1  C5  UNL     1      -5.603  20.643  -2.799  1.00  0.00     0.146 C 
HETATM    2  C6  UNL     1      -4.577  19.858  -2.971  1.00  0.00     0.038 C 
HETATM    3  C7  UNL     1      -3.443  19.920  -2.008  1.00  0.00     0.119 C 
HETATM    4  S1  UNL     1      -2.009  20.532  -2.937  1.00  0.00    -0.138 SA
HETATM    5  C8  UNL     1      -2.119  19.679  -4.564  1.00  0.00     0.168 A 
HETATM    6  C9  UNL     1      -1.024  18.725  -4.831  1.00  0.00     0.121 A 
HETATM    7  C12 UNL     1      -1.995  17.678  -4.605  1.00  0.00     0.232 A 
HETATM    8  O4  UNL     1      -1.907  16.402  -4.619  1.00  0.00    -0.273 OA
HETATM    9  N1  UNL     1      -3.035  18.597  -4.374  1.00  0.00    -0.275 N 
HETATM   10  C13 UNL     1      -4.434  18.871  -4.069  1.00  0.00     0.371 C 
ENDROOT
BRANCH   1  11
HETATM   11  O1  UNL     1      -6.711  20.715  -3.575  1.00  0.00    -0.350 OA
BRANCH  11  12
HETATM   12  C4  UNL     1      -7.378  21.839  -4.051  1.00  0.00     0.216 C 
BRANCH  12  13
HETATM   13  C3  UNL     1      -8.195  22.606  -3.077  1.00  0.00     0.040 C 
BRANCH  13  14
HETATM   14  C2  UNL     1      -7.673  23.946  -2.665  1.00  0.00    -0.002 C 
HETATM   15  C1  UNL     1      -7.643  24.792  -3.953  1.00  0.00     0.005 C 
ENDBRANCH  13  14
ENDBRANCH  12  13
BRANCH  12  16
HETATM   16  C16 UNL     1      -8.191  21.531  -5.304  1.00  0.00     0.346 C 
HETATM   17  F1  UNL     1      -9.495  21.895  -5.169  1.00  0.00    -0.185 F 
HETATM   18  F2  UNL     1      -8.146  20.168  -5.525  1.00  0.00    -0.185 F 
HETATM   19 CL1  UNL     1      -7.513  22.342  -6.724  1.00  0.00    -0.045 Cl
ENDBRANCH  12  16
ENDBRANCH  11  12
ENDBRANCH   1  11
BRANCH  10  20
HETATM   20  O5  UNL     1      -4.994  17.684  -3.511  1.00  0.00    -0.343 OA
ATOM     21  H5  UNL     1      -4.563  16.993  -4.000  1.00  0.00     0.214 HD
ENDBRANCH  10  20
BRANCH  10  22
HETATM   22  N2  UNL     1      -5.211  19.116  -5.231  1.00  0.00     0.141 N 
HETATM   23  C14 UNL     1      -5.354  17.810  -5.904  1.00  0.00     0.316 C 
HETATM   24  C15 UNL     1      -4.729  20.011  -6.208  1.00  0.00     0.316 C 
ENDBRANCH  10  22
BRANCH   6  25
HETATM   25  C10 UNL     1       0.159  18.771  -3.884  1.00  0.00     0.130 C 
BRANCH  25  26
HETATM   26  C11 UNL     1       0.983  17.573  -4.153  1.00  0.00     0.173 C 
HETATM   27  O2  UNL     1       1.199  17.150  -5.321  1.00  0.00    -0.648 OA
HETATM   28  O3  UNL     1       1.552  16.871  -3.116  1.00  0.00    -0.648 OA
ENDBRANCH  25  26
ENDBRANCH   6  25
TORSDOF 9
ENDMDL
MODEL 2
REMARK VINA RESULT: -6.599607768      2.839      4.212
REMARK  9 active torsions:
REMARK  status: ('A' for Active; 'I' for Inactive)
REMARK    1  A    between atoms: C2_2  and  C3_3 
REMARK    2  A    between atoms: C3_3  and  C4_4 
REMARK    3  A    between atoms: C4_4  and  O1_5 
REMARK    4  A    between atoms: C4_4  and  C16_25 
REMARK    5  A    between atoms: O1_5  and  C5_6 
REMARK    6  A    between atoms: C9_11  and  C10_12 
REMARK    7  A    between atoms: C10_12  and  C11_13 
REMARK    8  A    between atoms: C13_19  and  O5_20 
REMARK    9  A    between atoms: C13_19  and  N2_22 
ROOT
HETATM    1  C5  UNL     1      -5.785  22.825  -4.910  1.00  0.00     0.146 C 
HETATM    2  C6  UNL     1      -5.143  21.708  -5.108  1.00  0.00     0.038 C 
HETATM    3  C7  UNL     1      -5.478  20.877  -6.297  1.00  0.00     0.119 C 
HETATM    4  S1  UNL     1      -6.183  19.329  -5.664  1.00  0.00    -0.138 SA
HETATM    5  C8  UNL     1      -5.145  18.917  -4.201  1.00  0.00     0.168 A 
HETATM    6  C9  UNL     1      -4.336  17.691  -4.349  1.00  0.00     0.121 A 
HETATM    7  C12 UNL     1      -3.192  18.564  -4.483  1.00  0.00     0.232 A 
HETATM    8  O4  UNL     1      -1.949  18.332  -4.677  1.00  0.00    -0.273 OA
HETATM    9  N1  UNL     1      -3.970  19.724  -4.319  1.00  0.00    -0.275 N 
HETATM   10  C13 UNL     1      -4.071  21.176  -4.233  1.00  0.00     0.371 C 
ENDROOT
BRANCH   1  11
HETATM   11  O1  UNL     1      -5.607  23.695  -3.886  1.00  0.00    -0.350 OA
BRANCH  11  12
HETATM   12  C4  UNL     1      -6.559  24.414  -3.171  1.00  0.00     0.216 C 
BRANCH  12  13
HETATM   13  C3  UNL     1      -7.835  23.724  -2.856  1.00  0.00     0.040 C 
BRANCH  13  14
HETATM   14  C2  UNL     1      -7.790  22.678  -1.788  1.00  0.00    -0.002 C 
HETATM   15  C1  UNL     1      -8.085  21.344  -2.502  1.00  0.00     0.005 C 
ENDBRANCH  13  14
ENDBRANCH  12  13
BRANCH  12  16
HETATM   16  C16 UNL     1      -6.831  25.778  -3.797  1.00  0.00     0.346 C 
HETATM   17  F1  UNL     1      -7.190  26.705  -2.868  1.00  0.00    -0.185 F 
HETATM   18  F2  UNL     1      -7.874  25.642  -4.694  1.00  0.00    -0.185 F 
HETATM   19 CL1  UNL     1      -5.417  26.371  -4.683  1.00  0.00    -0.045 Cl
ENDBRANCH  12  16
ENDBRANCH  11  12
ENDBRANCH   1  11
BRANCH  10  20
HETATM   20  O5  UNL     1      -2.885  21.725  -4.806  1.00  0.00    -0.343 OA
ATOM     21  H5  UNL     1      -2.918  22.635  -4.536  1.00  0.00     0.214 HD
ENDBRANCH  10  20
BRANCH  10  22
HETATM   22  N2  UNL     1      -4.067  21.648  -2.895  1.00  0.00     0.141 N 
HETATM   23  C14 UNL     1      -2.663  21.983  -2.588  1.00  0.00     0.316 C 
HETATM   24  C15 UNL     1      -4.503  20.794  -1.861  1.00  0.00     0.316 C 
ENDBRANCH  10  22
BRANCH   6  25
HETATM   25  C10 UNL     1      -4.660  16.807  -5.538  1.00  0.00     0.130 C 
BRANCH  25  26
HETATM   26  C11 UNL     1      -4.115  15.463  -5.246  1.00  0.00     0.173 C 
HETATM   27  O2  UNL     1      -3.894  15.064  -4.071  1.00  0.00    -0.648 OA
HETATM   28  O3  UNL     1      -3.829  14.590  -6.269  1.00  0.00    -0.648 OA
ENDBRANCH  25  26
ENDBRANCH   6  25
TORSDOF 9
ENDMDL
MODEL 3
REMARK VINA RESULT: -6.562905597      3.887      5.627
REMARK  9 active torsions:
REMARK  status: ('A' for Active; 'I' for Inactive)
REMARK    1  A    between atoms: C2_2  and  C3_3 
REMARK    2  A    between atoms: C3_3  and  C4_4 
REMARK    3  A    between atoms: C4_4  and  O1_5 
REMARK    4  A    between atoms: C4_4  and  C16_25 
REMARK    5  A    between atoms: O1_5  and  C5_6 
REMARK    6  A    between atoms: C9_11  and  C10_12 
REMARK    7  A    between atoms: C10_12  and  C11_13 
REMARK    8  A    between atoms: C13_19  and  O5_20 
REMARK    9  A    between atoms: C13_19  and  N2_22 
ROOT
HETATM    1  C5  UNL     1      -2.884  19.317  -4.140  1.00  0.00     0.146 C 
HETATM    2  C6  UNL     1      -2.145  20.178  -3.499  1.00  0.00     0.038 C 
HETATM    3  C7  UNL     1      -1.047  19.685  -2.622  1.00  0.00     0.119 C 
HETATM    4  S1  UNL     1      -1.498  20.143  -0.924  1.00  0.00    -0.138 SA
HETATM    5  C8  UNL     1      -2.203  21.836  -1.079  1.00  0.00     0.168 A 
HETATM    6  C9  UNL     1      -1.407  22.894  -0.426  1.00  0.00     0.121 A 
HETATM    7  C12 UNL     1      -1.022  23.307  -1.757  1.00  0.00     0.232 A 
HETATM    8  O4  UNL     1      -0.256  24.238  -2.183  1.00  0.00    -0.273 OA
HETATM    9  N1  UNL     1      -1.802  22.308  -2.367  1.00  0.00    -0.275 N 
HETATM   10  C13 UNL     1      -2.297  21.651  -3.571  1.00  0.00     0.371 C 
ENDROOT
BRANCH   1  11
HETATM   11  O1  UNL     1      -3.916  19.593  -4.974  1.00  0.00    -0.350 OA
BRANCH  11  12
HETATM   12  C4  UNL     1      -5.136  18.938  -5.106  1.00  0.00     0.216 C 
BRANCH  12  13
HETATM   13  C3  UNL     1      -5.211  17.837  -6.100  1.00  0.00     0.040 C 
BRANCH  13  14
HETATM   14  C2  UNL     1      -4.832  16.471  -5.624  1.00  0.00    -0.002 C 
HETATM   15  C1  UNL     1      -5.231  15.511  -6.761  1.00  0.00     0.005 C 
ENDBRANCH  13  14
ENDBRANCH  12  13
BRANCH  12  16
HETATM   16  C16 UNL     1      -6.288  19.916  -5.306  1.00  0.00     0.346 C 
HETATM   17  F1  UNL     1      -6.751  20.411  -4.126  1.00  0.00    -0.185 F 
HETATM   18  F2  UNL     1      -7.325  19.243  -5.926  1.00  0.00    -0.185 F 
HETATM   19 CL1  UNL     1      -5.809  21.267  -6.347  1.00  0.00    -0.045 Cl
ENDBRANCH  12  16
ENDBRANCH  11  12
ENDBRANCH   1  11
BRANCH  10  20
HETATM   20  O5  UNL     1      -1.432  22.013  -4.646  1.00  0.00    -0.343 OA
ATOM     21  H5  UNL     1      -0.595  22.140  -4.215  1.00  0.00     0.214 HD
ENDBRANCH  10  20
BRANCH  10  22
HETATM   22  N2  UNL     1      -3.573  22.127  -3.971  1.00  0.00     0.141 N 
HETATM   23  C14 UNL     1      -3.327  23.399  -4.677  1.00  0.00     0.316 C 
HETATM   24  C15 UNL     1      -4.545  22.404  -2.988  1.00  0.00     0.316 C 
ENDBRANCH  10  22
BRANCH   6  25
HETATM   25  C10 UNL     1      -0.292  22.432   0.492  1.00  0.00     0.130 C 
BRANCH  25  26
HETATM   26  C11 UNL     1      -0.720  22.714   1.879  1.00  0.00     0.173 C 
HETATM   27  O2  UNL     1      -1.808  23.293   2.146  1.00  0.00    -0.648 OA
HETATM   28  O3  UNL     1       0.072  22.345   2.941  1.00  0.00    -0.648 OA
ENDBRANCH  25  26
ENDBRANCH   6  25
TORSDOF 9
ENDMDL
MODEL 4
REMARK VINA RESULT: -6.533321401      2.716      4.134
REMARK  9 active torsions:
REMARK  status: ('A' for Active; 'I' for Inactive)
REMARK    1  A    between atoms: C2_2  and  C3_3 
REMARK    2  A    between atoms: C3_3  and  C4_4 
REMARK    3  A    between atoms: C4_4  and  O1_5 
REMARK    4  A    between atoms: C4_4  and  C16_25 
REMARK    5  A    between atoms: O1_5  and  C5_6 
REMARK    6  A    between atoms: C9_11  and  C10_12 
REMARK    7  A    between atoms: C10_12  and  C11_13 
REMARK    8  A    between atoms: C13_19  and  O5_20 
REMARK    9  A    between atoms: C13_19  and  N2_22 
ROOT
HETATM    1  C5  UNL     1      -6.004  22.709  -4.722  1.00  0.00     0.146 C 
HETATM    2  C6  UNL     1      -5.298  21.641  -4.965  1.00  0.00     0.038 C 
HETATM    3  C7  UNL     1      -5.590  20.837  -6.184  1.00  0.00     0.119 C 
HETATM    4  S1  UNL     1      -6.198  19.227  -5.608  1.00  0.00    -0.138 SA
HETATM    5  C8  UNL     1      -5.128  18.822  -4.166  1.00  0.00     0.168 A 
HETATM    6  C9  UNL     1      -4.249  17.653  -4.364  1.00  0.00     0.121 A 
HETATM    7  C12 UNL     1      -3.159  18.597  -4.468  1.00  0.00     0.232 A 
HETATM    8  O4  UNL     1      -1.906  18.448  -4.676  1.00  0.00    -0.273 OA
HETATM    9  N1  UNL     1      -4.004  19.702  -4.258  1.00  0.00    -0.275 N 
HETATM   10  C13 UNL     1      -4.191  21.141  -4.115  1.00  0.00     0.371 C 
ENDROOT
BRANCH   1  11
HETATM   11  O1  UNL     1      -5.872  23.549  -3.667  1.00  0.00    -0.350 OA
BRANCH  11  12
HETATM   12  C4  UNL     1      -6.850  24.276  -2.997  1.00  0.00     0.216 C 
BRANCH  12  13
HETATM   13  C3  UNL     1      -6.401  25.156  -1.888  1.00  0.00     0.040 C 
BRANCH  13  14
HETATM   14  C2  UNL     1      -5.039  24.893  -1.328  1.00  0.00    -0.002 C 
HETATM   15  C1  UNL     1      -5.266  24.003  -0.090  1.00  0.00     0.005 C 
ENDBRANCH  13  14
ENDBRANCH  12  13
BRANCH  12  16
HETATM   16  C16 UNL     1      -8.004  23.390  -2.539  1.00  0.00     0.346 C 
HETATM   17  F1  UNL     1      -7.591  22.132  -2.228  1.00  0.00    -0.185 F 
HETATM   18  F2  UNL     1      -8.916  23.299  -3.574  1.00  0.00    -0.185 F 
HETATM   19 CL1  UNL     1      -8.831  24.088  -1.137  1.00  0.00    -0.045 Cl
ENDBRANCH  12  16
ENDBRANCH  11  12
ENDBRANCH   1  11
BRANCH  10  20
HETATM   20  O5  UNL     1      -3.043  21.781  -4.671  1.00  0.00    -0.343 OA
ATOM     21  H5  UNL     1      -2.629  22.176  -3.913  1.00  0.00     0.214 HD
ENDBRANCH  10  20
BRANCH  10  22
HETATM   22  N2  UNL     1      -4.207  21.561  -2.760  1.00  0.00     0.141 N 
HETATM   23  C14 UNL     1      -2.811  21.906  -2.427  1.00  0.00     0.316 C 
HETATM   24  C15 UNL     1      -4.638  20.662  -1.764  1.00  0.00     0.316 C 
ENDBRANCH  10  22
BRANCH   6  25
HETATM   25  C10 UNL     1      -4.527  16.797  -5.584  1.00  0.00     0.130 C 
BRANCH  25  26
HETATM   26  C11 UNL     1      -4.118  15.415  -5.252  1.00  0.00     0.173 C 
HETATM   27  O2  UNL     1      -3.851  15.053  -4.075  1.00  0.00    -0.648 OA
HETATM   28  O3  UNL     1      -4.016  14.463  -6.239  1.00  0.00    -0.648 OA
ENDBRANCH  25  26
ENDBRANCH   6  25
TORSDOF 9
ENDMDL
MODEL 5
REMARK VINA RESULT: -6.467412612      3.315      4.589
REMARK  9 active torsions:
REMARK  status: ('A' for Active; 'I' for Inactive)
REMARK    1  A    between atoms: C2_2  and  C3_3 
REMARK    2  A    between atoms: C3_3  and  C4_4 
REMARK    3  A    between atoms: C4_4  and  O1_5 
REMARK    4  A    between atoms: C4_4  and  C16_25 
REMARK    5  A    between atoms: O1_5  and  C5_6 
REMARK    6  A    between atoms: C9_11  and  C10_12 
REMARK    7  A    between atoms: C10_12  and  C11_13 
REMARK    8  A    between atoms: C13_19  and  O5_20 
REMARK    9  A    between atoms: C13_19  and  N2_22 
ROOT
HETATM    1  C5  UNL     1      -5.930  22.748  -4.856  1.00  0.00     0.146 C 
HETATM    2  C6  UNL     1      -5.246  21.661  -5.079  1.00  0.00     0.038 C 
HETATM    3  C7  UNL     1      -5.572  20.827  -6.269  1.00  0.00     0.119 C 
HETATM    4  S1  UNL     1      -6.199  19.246  -5.637  1.00  0.00    -0.138 SA
HETATM    5  C8  UNL     1      -5.114  18.864  -4.200  1.00  0.00     0.168 A 
HETATM    6  C9  UNL     1      -4.259  17.674  -4.377  1.00  0.00     0.121 A 
HETATM    7  C12 UNL     1      -3.154  18.594  -4.526  1.00  0.00     0.232 A 
HETATM    8  O4  UNL     1      -1.907  18.416  -4.749  1.00  0.00    -0.273 OA
HETATM    9  N1  UNL     1      -3.976  19.720  -4.335  1.00  0.00    -0.275 N 
HETATM   10  C13 UNL     1      -4.134  21.165  -4.232  1.00  0.00     0.371 C 
ENDROOT
BRANCH   1  11
HETATM   11  O1  UNL     1      -5.766  23.616  -3.828  1.00  0.00    -0.350 OA
BRANCH  11  12
HETATM   12  C4  UNL     1      -5.593  24.995  -3.864  1.00  0.00     0.216 C 
BRANCH  12  13
HETATM   13  C3  UNL     1      -6.133  25.716  -5.045  1.00  0.00     0.040 C 
BRANCH  13  14
HETATM   14  C2  UNL     1      -7.566  26.141  -4.979  1.00  0.00    -0.002 C 
HETATM   15  C1  UNL     1      -7.724  27.230  -6.059  1.00  0.00     0.005 C 
ENDBRANCH  13  14
ENDBRANCH  12  13
BRANCH  12  16
HETATM   16  C16 UNL     1      -4.143  25.395  -3.613  1.00  0.00     0.346 C 
HETATM   17  F1  UNL     1      -3.285  24.763  -4.459  1.00  0.00    -0.185 F 
HETATM   18  F2  UNL     1      -3.813  25.037  -2.320  1.00  0.00    -0.185 F 
HETATM   19 CL1  UNL     1      -3.923  27.145  -3.774  1.00  0.00    -0.045 Cl
ENDBRANCH  12  16
ENDBRANCH  11  12
ENDBRANCH   1  11
BRANCH  10  20
HETATM   20  O5  UNL     1      -2.985  21.768  -4.824  1.00  0.00    -0.343 OA
ATOM     21  H5  UNL     1      -2.802  22.497  -4.242  1.00  0.00     0.214 HD
ENDBRANCH  10  20
BRANCH  10  22
HETATM   22  N2  UNL     1      -4.122  21.625  -2.889  1.00  0.00     0.141 N 
HETATM   23  C14 UNL     1      -2.701  21.832  -2.547  1.00  0.00     0.316 C 
HETATM   24  C15 UNL     1      -4.656  20.805  -1.875  1.00  0.00     0.316 C 
ENDBRANCH  10  22
BRANCH   6  25
HETATM   25  C10 UNL     1      -4.571  16.787  -5.567  1.00  0.00     0.130 C 
BRANCH  25  26
HETATM   26  C11 UNL     1      -4.099  15.426  -5.236  1.00  0.00     0.173 C 
HETATM   27  O2  UNL     1      -3.940  15.036  -4.048  1.00  0.00    -0.648 OA
HETATM   28  O3  UNL     1      -3.814  14.525  -6.236  1.00  0.00    -0.648 OA
ENDBRANCH  25  26
ENDBRANCH   6  25
TORSDOF 9
ENDMDL
