MODEL 1
REMARK VINA RESULT: -8.752819166      0.000      0.000
REMARK  10 active torsions:
REMARK  status: ('A' for Active; 'I' for Inactive)
REMARK    1  A    between atoms: O1_2  and  C2_3 
REMARK    2  A    between atoms: C2_3  and  C3_5 
REMARK    3  A    between atoms: C3_5  and  C4_6 
REMARK    4  A    between atoms: C3_5  and  C11_18 
REMARK       I    between atoms: C4_6  and  N1_8 
REMARK    5  A    between atoms: N1_8  and  C5_10 
REMARK    6  A    between atoms: C14_21  and  O4_22 
REMARK    7  A    between atoms: O4_22  and  C15_23 
REMARK    8  A    between atoms: C15_23  and  C16_24 
REMARK    9  A    between atoms: C20_28  and  C21_29 
REMARK   10  A    between atoms: C22_33  and  S1_34 
ROOT
HETATM    1  C11 UNL     1      -0.084   3.374  17.307  1.00  0.00     0.008 C 
HETATM    2  C12 UNL     1      -1.304   3.111  18.173  1.00  0.00     0.008 C 
HETATM    3  C13 UNL     1      -2.153   2.150  17.418  1.00  0.00     0.032 C 
HETATM    4  C14 UNL     1      -2.280   2.484  15.955  1.00  0.00     0.121 C 
HETATM    5  C25 UNL     1      -1.741   3.813  15.564  1.00  0.00     0.032 C 
HETATM    6  C26 UNL     1      -0.561   4.349  16.269  1.00  0.00     0.008 C 
ENDROOT
BRANCH   1   7
HETATM    7  C3  UNL     1       1.092   3.816  18.109  1.00  0.00     0.181 C 
BRANCH   7   8
HETATM    8  C2  UNL     1       2.338   3.767  17.316  1.00  0.00     0.272 C 
HETATM    9  O2  UNL     1       2.696   2.686  16.726  1.00  0.00    -0.264 OA
BRANCH   8  10
HETATM   10  O1  UNL     1       3.212   4.823  17.131  1.00  0.00    -0.326 OA
HETATM   11  C1  UNL     1       4.399   4.984  17.891  1.00  0.00     0.213 C 
ENDBRANCH   8  10
ENDBRANCH   7   8
BRANCH   7  12
HETATM   12  C4  UNL     1       1.299   2.985  19.318  1.00  0.00     0.232 C 
HETATM   13  O3  UNL     1       1.180   3.485  20.444  1.00  0.00    -0.273 OA
HETATM   14  N1  UNL     1       1.626   1.632  19.176  1.00  0.00    -0.356 N 
ATOM     15  H1  UNL     1       1.714   1.259  18.232  1.00  0.00     0.162 HD
BRANCH  14  16
HETATM   16  C5  UNL     1       1.848   0.725  20.288  1.00  0.00     0.084 C 
HETATM   17  C6  UNL     1       3.202   0.111  20.114  1.00  0.00     0.031 C 
HETATM   18  C7  UNL     1       3.364  -1.213  20.812  1.00  0.00     0.081 C 
HETATM   19  C8  UNL     1       2.444  -2.269  20.240  1.00  0.00     0.243 C 
HETATM   20  F1  UNL     1       3.095  -2.977  19.228  1.00  0.00    -0.206 F 
HETATM   21  F2  UNL     1       2.080  -3.108  21.269  1.00  0.00    -0.206 F 
HETATM   22  C9  UNL     1       1.255  -1.589  19.608  1.00  0.00     0.081 C 
HETATM   23  C10 UNL     1       0.826  -0.359  20.399  1.00  0.00     0.031 C 
ENDBRANCH  14  16
ENDBRANCH   7  12
ENDBRANCH   1   7
BRANCH   4  24
HETATM   24  O4  UNL     1      -3.576   2.378  15.501  1.00  0.00    -0.381 OA
BRANCH  24  25
HETATM   25  C15 UNL     1      -3.831   1.447  14.541  1.00  0.00     0.206 C 
BRANCH  25  26
HETATM   26  C16 UNL     1      -4.614   0.271  14.967  1.00  0.00    -0.034 A 
HETATM   27  C17 UNL     1      -4.087  -0.639  15.847  1.00  0.00     0.009 A 
HETATM   28  C18 UNL     1      -4.863  -1.720  16.209  1.00  0.00     0.002 A 
HETATM   29  C19 UNL     1      -6.134  -1.893  15.710  1.00  0.00     0.015 A 
HETATM   30  C20 UNL     1      -6.693  -0.993  14.822  1.00  0.00     0.010 A 
HETATM   31  C24 UNL     1      -5.887   0.082  14.478  1.00  0.00     0.024 A 
BRANCH  30  32
HETATM   32  C21 UNL     1      -8.025  -1.157  14.275  1.00  0.00     0.138 A 
HETATM   33  N2  UNL     1      -9.173  -0.688  14.725  1.00  0.00    -0.241 N 
HETATM   34  O5  UNL     1     -10.160  -1.068  13.953  1.00  0.00    -0.210 OA
ATOM     35  H2  UNL     1      -9.277  -0.110  15.559  1.00  0.00     0.196 HD
HETATM   36  C22 UNL     1      -9.673  -1.805  12.968  1.00  0.00     0.209 A 
HETATM   37  N3  UNL     1      -8.324  -1.859  13.174  1.00  0.00    -0.314 N 
ATOM     38  H3  UNL     1      -7.653  -2.353  12.584  1.00  0.00     0.170 HD
BRANCH  36  39
HETATM   39  S1  UNL     1     -10.595  -2.561  11.657  1.00  0.00    -0.089 SA
HETATM   40  C23 UNL     1      -9.507  -3.609  10.626  1.00  0.00     0.099 C 
ENDBRANCH  36  39
ENDBRANCH  30  32
ENDBRANCH  25  26
ENDBRANCH  24  25
ENDBRANCH   4  24
TORSDOF 10
ENDMDL
MODEL 2
REMARK VINA RESULT: -8.667910041      0.886      1.229
REMARK  10 active torsions:
REMARK  status: ('A' for Active; 'I' for Inactive)
REMARK    1  A    between atoms: O1_2  and  C2_3 
REMARK    2  A    between atoms: C2_3  and  C3_5 
REMARK    3  A    between atoms: C3_5  and  C4_6 
REMARK    4  A    between atoms: C3_5  and  C11_18 
REMARK       I    between atoms: C4_6  and  N1_8 
REMARK    5  A    between atoms: N1_8  and  C5_10 
REMARK    6  A    between atoms: C14_21  and  O4_22 
REMARK    7  A    between atoms: O4_22  and  C15_23 
REMARK    8  A    between atoms: C15_23  and  C16_24 
REMARK    9  A    between atoms: C20_28  and  C21_29 
REMARK   10  A    between atoms: C22_33  and  S1_34 
ROOT
HETATM    1  C11 UNL     1      -0.094   3.272  17.239  1.00  0.00     0.008 C 
HETATM    2  C12 UNL     1      -1.287   2.993  18.136  1.00  0.00     0.008 C 
HETATM    3  C13 UNL     1      -2.165   2.054  17.383  1.00  0.00     0.032 C 
HETATM    4  C14 UNL     1      -2.335   2.425  15.934  1.00  0.00     0.121 C 
HETATM    5  C25 UNL     1      -1.801   3.761  15.560  1.00  0.00     0.032 C 
HETATM    6  C26 UNL     1      -0.597   4.274  16.241  1.00  0.00     0.008 C 
ENDROOT
BRANCH   1   7
HETATM    7  C3  UNL     1       1.109   3.688  18.015  1.00  0.00     0.181 C 
BRANCH   7   8
HETATM    8  C2  UNL     1       2.343   3.566  17.210  1.00  0.00     0.272 C 
HETATM    9  O2  UNL     1       2.688   2.438  16.710  1.00  0.00    -0.264 OA
BRANCH   8  10
HETATM   10  O1  UNL     1       3.216   4.599  16.922  1.00  0.00    -0.326 OA
HETATM   11  C1  UNL     1       4.298   4.954  17.769  1.00  0.00     0.213 C 
ENDBRANCH   8  10
ENDBRANCH   7   8
BRANCH   7  12
HETATM   12  C4  UNL     1       1.297   2.884  19.245  1.00  0.00     0.232 C 
HETATM   13  O3  UNL     1       1.144   3.405  20.358  1.00  0.00    -0.273 OA
HETATM   14  N1  UNL     1       1.645   1.534  19.139  1.00  0.00    -0.356 N 
ATOM     15  H1  UNL     1       1.762   1.143  18.204  1.00  0.00     0.162 HD
BRANCH  14  16
HETATM   16  C5  UNL     1       1.852   0.651  20.273  1.00  0.00     0.084 C 
HETATM   17  C6  UNL     1       3.214   0.044  20.139  1.00  0.00     0.031 C 
HETATM   18  C7  UNL     1       3.372  -1.263  20.868  1.00  0.00     0.081 C 
HETATM   19  C8  UNL     1       2.472  -2.338  20.300  1.00  0.00     0.243 C 
HETATM   20  F1  UNL     1       3.148  -3.062  19.317  1.00  0.00    -0.206 F 
HETATM   21  F2  UNL     1       2.094  -3.158  21.340  1.00  0.00    -0.206 F 
HETATM   22  C9  UNL     1       1.290  -1.681  19.631  1.00  0.00     0.081 C 
HETATM   23  C10 UNL     1       0.836  -0.438  20.387  1.00  0.00     0.031 C 
ENDBRANCH  14  16
ENDBRANCH   7  12
ENDBRANCH   1   7
BRANCH   4  24
HETATM   24  O4  UNL     1      -3.645   2.336  15.518  1.00  0.00    -0.381 OA
BRANCH  24  25
HETATM   25  C15 UNL     1      -3.931   1.443  14.530  1.00  0.00     0.206 C 
BRANCH  25  26
HETATM   26  C16 UNL     1      -4.727   0.266  14.929  1.00  0.00    -0.034 A 
HETATM   27  C17 UNL     1      -4.233  -0.638  15.834  1.00  0.00     0.009 A 
HETATM   28  C18 UNL     1      -5.019  -1.721  16.168  1.00  0.00     0.002 A 
HETATM   29  C19 UNL     1      -6.268  -1.901  15.619  1.00  0.00     0.015 A 
HETATM   30  C20 UNL     1      -6.794  -1.005  14.705  1.00  0.00     0.010 A 
HETATM   31  C24 UNL     1      -5.977   0.071  14.390  1.00  0.00     0.024 A 
BRANCH  30  32
HETATM   32  C21 UNL     1      -8.102  -1.177  14.105  1.00  0.00     0.138 A 
HETATM   33  N2  UNL     1      -8.526  -0.807  12.912  1.00  0.00    -0.241 N 
HETATM   34  O5  UNL     1      -9.782  -1.134  12.748  1.00  0.00    -0.210 OA
ATOM     35  H2  UNL     1      -7.953  -0.331  12.215  1.00  0.00     0.196 HD
HETATM   36  C22 UNL     1     -10.215  -1.733  13.845  1.00  0.00     0.209 A 
HETATM   37  N3  UNL     1      -9.151  -1.760  14.701  1.00  0.00    -0.314 N 
ATOM     38  H3  UNL     1      -9.155  -2.158  15.640  1.00  0.00     0.170 HD
BRANCH  36  39
HETATM   39  S1  UNL     1     -11.846  -2.366  14.132  1.00  0.00    -0.089 SA
HETATM   40  C23 UNL     1     -12.395  -1.984  15.835  1.00  0.00     0.099 C 
ENDBRANCH  36  39
ENDBRANCH  30  32
ENDBRANCH  25  26
ENDBRANCH  24  25
ENDBRANCH   4  24
TORSDOF 10
ENDMDL
MODEL 3
REMARK VINA RESULT: -8.618548901      3.081      4.105
REMARK  10 active torsions:
REMARK  status: ('A' for Active; 'I' for Inactive)
REMARK    1  A    between atoms: O1_2  and  C2_3 
REMARK    2  A    between atoms: C2_3  and  C3_5 
REMARK    3  A    between atoms: C3_5  and  C4_6 
REMARK    4  A    between atoms: C3_5  and  C11_18 
REMARK       I    between atoms: C4_6  and  N1_8 
REMARK    5  A    between atoms: N1_8  and  C5_10 
REMARK    6  A    between atoms: C14_21  and  O4_22 
REMARK    7  A    between atoms: O4_22  and  C15_23 
REMARK    8  A    between atoms: C15_23  and  C16_24 
REMARK    9  A    between atoms: C20_28  and  C21_29 
REMARK   10  A    between atoms: C22_33  and  S1_34 
ROOT
HETATM    1  C11 UNL     1      -0.076   3.418  17.191  1.00  0.00     0.008 C 
HETATM    2  C12 UNL     1      -1.312   3.091  18.011  1.00  0.00     0.008 C 
HETATM    3  C13 UNL     1      -2.131   2.166  17.181  1.00  0.00     0.032 C 
HETATM    4  C14 UNL     1      -2.228   2.583  15.737  1.00  0.00     0.121 C 
HETATM    5  C25 UNL     1      -1.697   3.938  15.438  1.00  0.00     0.032 C 
HETATM    6  C26 UNL     1      -0.541   4.446  16.201  1.00  0.00     0.008 C 
ENDROOT
BRANCH   1   7
HETATM    7  C3  UNL     1       1.076   3.825  18.046  1.00  0.00     0.181 C 
BRANCH   7   8
HETATM    8  C2  UNL     1       2.353   3.756  17.305  1.00  0.00     0.272 C 
HETATM    9  O2  UNL     1       2.696   2.682  16.693  1.00  0.00    -0.264 OA
BRANCH   8  10
HETATM   10  O1  UNL     1       3.271   4.784  17.193  1.00  0.00    -0.326 OA
HETATM   11  C1  UNL     1       4.389   4.917  18.057  1.00  0.00     0.213 C 
ENDBRANCH   8  10
ENDBRANCH   7   8
BRANCH   7  12
HETATM   12  C4  UNL     1       1.214   2.979  19.253  1.00  0.00     0.232 C 
HETATM   13  O3  UNL     1       0.925   3.434  20.368  1.00  0.00    -0.273 OA
HETATM   14  N1  UNL     1       1.669   1.663  19.124  1.00  0.00    -0.356 N 
ATOM     15  H1  UNL     1       1.896   1.326  18.189  1.00  0.00     0.162 HD
BRANCH  14  16
HETATM   16  C5  UNL     1       1.840   0.744  20.235  1.00  0.00     0.084 C 
HETATM   17  C6  UNL     1       3.187   0.106  20.099  1.00  0.00     0.031 C 
HETATM   18  C7  UNL     1       3.304  -1.225  20.792  1.00  0.00     0.081 C 
HETATM   19  C8  UNL     1       2.384  -2.260  20.184  1.00  0.00     0.243 C 
HETATM   20  F1  UNL     1       3.053  -2.973  19.189  1.00  0.00    -0.206 F 
HETATM   21  F2  UNL     1       1.972  -3.099  21.196  1.00  0.00    -0.206 F 
HETATM   22  C9  UNL     1       1.227  -1.554  19.521  1.00  0.00     0.081 C 
HETATM   23  C10 UNL     1       0.796  -0.322  20.307  1.00  0.00     0.031 C 
ENDBRANCH  14  16
ENDBRANCH   7  12
ENDBRANCH   1   7
BRANCH   4  24
HETATM   24  O4  UNL     1      -3.511   2.489  15.247  1.00  0.00    -0.381 OA
BRANCH  24  25
HETATM   25  C15 UNL     1      -4.325   1.543  15.794  1.00  0.00     0.206 C 
BRANCH  25  26
HETATM   26  C16 UNL     1      -4.599   0.359  14.956  1.00  0.00    -0.034 A 
HETATM   27  C17 UNL     1      -5.796   0.229  14.300  1.00  0.00     0.009 A 
HETATM   28  C18 UNL     1      -5.999  -0.898  13.533  1.00  0.00     0.002 A 
HETATM   29  C19 UNL     1      -5.035  -1.875  13.419  1.00  0.00     0.015 A 
HETATM   30  C20 UNL     1      -3.818  -1.772  14.069  1.00  0.00     0.010 A 
HETATM   31  C24 UNL     1      -3.647  -0.626  14.832  1.00  0.00     0.024 A 
BRANCH  30  32
HETATM   32  C21 UNL     1      -2.792  -2.790  13.973  1.00  0.00     0.138 A 
HETATM   33  N2  UNL     1      -2.621  -3.715  13.049  1.00  0.00    -0.241 N 
HETATM   34  O5  UNL     1      -1.578  -4.456  13.326  1.00  0.00    -0.210 OA
ATOM     35  H2  UNL     1      -3.220  -3.837  12.232  1.00  0.00     0.196 HD
HETATM   36  C22 UNL     1      -1.035  -4.026  14.454  1.00  0.00     0.209 A 
HETATM   37  N3  UNL     1      -1.804  -2.973  14.860  1.00  0.00    -0.314 N 
ATOM     38  H3  UNL     1      -1.651  -2.416  15.701  1.00  0.00     0.170 HD
BRANCH  36  39
HETATM   39  S1  UNL     1       0.395  -4.692  15.260  1.00  0.00    -0.089 SA
HETATM   40  C23 UNL     1       1.254  -3.394  16.222  1.00  0.00     0.099 C 
ENDBRANCH  36  39
ENDBRANCH  30  32
ENDBRANCH  25  26
ENDBRANCH  24  25
ENDBRANCH   4  24
TORSDOF 10
ENDMDL
MODEL 4
REMARK VINA RESULT: -8.532289871      2.980      3.947
REMARK  10 active torsions:
REMARK  status: ('A' for Active; 'I' for Inactive)
REMARK    1  A    between atoms: O1_2  and  C2_3 
REMARK    2  A    between atoms: C2_3  and  C3_5 
REMARK    3  A    between atoms: C3_5  and  C4_6 
REMARK    4  A    between atoms: C3_5  and  C11_18 
REMARK       I    between atoms: C4_6  and  N1_8 
REMARK    5  A    between atoms: N1_8  and  C5_10 
REMARK    6  A    between atoms: C14_21  and  O4_22 
REMARK    7  A    between atoms: O4_22  and  C15_23 
REMARK    8  A    between atoms: C15_23  and  C16_24 
REMARK    9  A    between atoms: C20_28  and  C21_29 
REMARK   10  A    between atoms: C22_33  and  S1_34 
ROOT
HETATM    1  C11 UNL     1      -0.073   3.283  17.250  1.00  0.00     0.008 C 
HETATM    2  C12 UNL     1      -1.276   3.041  18.145  1.00  0.00     0.008 C 
HETATM    3  C13 UNL     1      -2.171   2.113  17.400  1.00  0.00     0.032 C 
HETATM    4  C14 UNL     1      -2.328   2.471  15.946  1.00  0.00     0.121 C 
HETATM    5  C25 UNL     1      -1.764   3.791  15.559  1.00  0.00     0.032 C 
HETATM    6  C26 UNL     1      -0.552   4.285  16.239  1.00  0.00     0.008 C 
ENDROOT
BRANCH   1   7
HETATM    7  C3  UNL     1       1.135   3.682  18.026  1.00  0.00     0.181 C 
BRANCH   7   8
HETATM    8  C2  UNL     1       2.366   3.549  17.219  1.00  0.00     0.272 C 
HETATM    9  O2  UNL     1       2.683   2.426  16.690  1.00  0.00    -0.264 OA
BRANCH   8  10
HETATM   10  O1  UNL     1       3.266   4.567  16.956  1.00  0.00    -0.326 OA
HETATM   11  C1  UNL     1       4.333   4.898  17.831  1.00  0.00     0.213 C 
ENDBRANCH   8  10
ENDBRANCH   7   8
BRANCH   7  12
HETATM   12  C4  UNL     1       1.316   2.871  19.252  1.00  0.00     0.232 C 
HETATM   13  O3  UNL     1       1.152   3.383  20.367  1.00  0.00    -0.273 OA
HETATM   14  N1  UNL     1       1.669   1.522  19.139  1.00  0.00    -0.356 N 
ATOM     15  H1  UNL     1       1.795   1.138  18.203  1.00  0.00     0.162 HD
BRANCH  14  16
HETATM   16  C5  UNL     1       1.869   0.633  20.270  1.00  0.00     0.084 C 
HETATM   17  C6  UNL     1       3.214  -0.007  20.116  1.00  0.00     0.031 C 
HETATM   18  C7  UNL     1       3.350  -1.320  20.841  1.00  0.00     0.081 C 
HETATM   19  C8  UNL     1       2.415  -2.371  20.284  1.00  0.00     0.243 C 
HETATM   20  F1  UNL     1       3.059  -3.110  19.291  1.00  0.00    -0.206 F 
HETATM   21  F2  UNL     1       2.031  -3.183  21.328  1.00  0.00    -0.206 F 
HETATM   22  C9  UNL     1       1.241  -1.684  19.632  1.00  0.00     0.081 C 
HETATM   23  C10 UNL     1       0.829  -0.431  20.396  1.00  0.00     0.031 C 
ENDBRANCH  14  16
ENDBRANCH   7  12
ENDBRANCH   1   7
BRANCH   4  24
HETATM   24  O4  UNL     1      -3.638   2.406  15.526  1.00  0.00    -0.381 OA
BRANCH  24  25
HETATM   25  C15 UNL     1      -3.924   1.572  14.488  1.00  0.00     0.206 C 
BRANCH  25  26
HETATM   26  C16 UNL     1      -4.639   0.328  14.832  1.00  0.00    -0.034 A 
HETATM   27  C17 UNL     1      -5.956   0.160  14.491  1.00  0.00     0.009 A 
HETATM   28  C18 UNL     1      -6.575  -1.021  14.840  1.00  0.00     0.002 A 
HETATM   29  C19 UNL     1      -5.900  -2.016  15.511  1.00  0.00     0.015 A 
HETATM   30  C20 UNL     1      -4.571  -1.877  15.868  1.00  0.00     0.010 A 
HETATM   31  C24 UNL     1      -3.980  -0.677  15.502  1.00  0.00     0.024 A 
BRANCH  30  32
HETATM   32  C21 UNL     1      -3.841  -2.905  16.582  1.00  0.00     0.138 A 
HETATM   33  N2  UNL     1      -4.306  -3.907  17.303  1.00  0.00    -0.241 N 
HETATM   34  O5  UNL     1      -3.322  -4.614  17.798  1.00  0.00    -0.210 OA
ATOM     35  H2  UNL     1      -5.296  -4.105  17.453  1.00  0.00     0.196 HD
HETATM   36  C22 UNL     1      -2.175  -4.082  17.409  1.00  0.00     0.209 A 
HETATM   37  N3  UNL     1      -2.506  -3.002  16.640  1.00  0.00    -0.314 N 
ATOM     38  H3  UNL     1      -1.845  -2.373  16.184  1.00  0.00     0.170 HD
BRANCH  36  39
HETATM   39  S1  UNL     1      -0.549  -4.661  17.811  1.00  0.00    -0.089 SA
HETATM   40  C23 UNL     1       0.690  -3.947  16.669  1.00  0.00     0.099 C 
ENDBRANCH  36  39
ENDBRANCH  30  32
ENDBRANCH  25  26
ENDBRANCH  24  25
ENDBRANCH   4  24
TORSDOF 10
ENDMDL
MODEL 5
REMARK VINA RESULT: -8.391971285      3.147      4.818
REMARK  10 active torsions:
REMARK  status: ('A' for Active; 'I' for Inactive)
REMARK    1  A    between atoms: O1_2  and  C2_3 
REMARK    2  A    between atoms: C2_3  and  C3_5 
REMARK    3  A    between atoms: C3_5  and  C4_6 
REMARK    4  A    between atoms: C3_5  and  C11_18 
REMARK       I    between atoms: C4_6  and  N1_8 
REMARK    5  A    between atoms: N1_8  and  C5_10 
REMARK    6  A    between atoms: C14_21  and  O4_22 
REMARK    7  A    between atoms: O4_22  and  C15_23 
REMARK    8  A    between atoms: C15_23  and  C16_24 
REMARK    9  A    between atoms: C20_28  and  C21_29 
REMARK   10  A    between atoms: C22_33  and  S1_34 
ROOT
HETATM    1  C11 UNL     1       0.723  -1.713  17.441  1.00  0.00     0.008 C 
HETATM    2  C12 UNL     1      -0.377  -1.162  18.332  1.00  0.00     0.008 C 
HETATM    3  C13 UNL     1      -1.412  -2.228  18.424  1.00  0.00     0.032 C 
HETATM    4  C14 UNL     1      -1.718  -2.882  17.102  1.00  0.00     0.121 C 
HETATM    5  C25 UNL     1      -1.122  -2.213  15.917  1.00  0.00     0.032 C 
HETATM    6  C26 UNL     1       0.192  -1.555  16.045  1.00  0.00     0.008 C 
ENDROOT
BRANCH   1   7
HETATM    7  C3  UNL     1       2.039  -1.064  17.704  1.00  0.00     0.181 C 
BRANCH   7   8
HETATM    8  C2  UNL     1       2.594  -1.473  19.011  1.00  0.00     0.272 C 
HETATM    9  O2  UNL     1       3.240  -0.638  19.738  1.00  0.00    -0.264 OA
BRANCH   8  10
HETATM   10  O1  UNL     1       2.486  -2.735  19.568  1.00  0.00    -0.326 OA
HETATM   11  C1  UNL     1       1.838  -2.978  20.806  1.00  0.00     0.213 C 
ENDBRANCH   8  10
ENDBRANCH   7   8
BRANCH   7  12
HETATM   12  C4  UNL     1       1.954   0.415  17.699  1.00  0.00     0.232 C 
HETATM   13  O3  UNL     1       2.471   1.065  16.781  1.00  0.00    -0.273 OA
HETATM   14  N1  UNL     1       1.282   1.070  18.736  1.00  0.00    -0.356 N 
ATOM     15  H1  UNL     1       0.869   0.498  19.473  1.00  0.00     0.162 HD
BRANCH  14  16
HETATM   16  C5  UNL     1       1.133   2.511  18.832  1.00  0.00     0.084 C 
HETATM   17  C6  UNL     1       0.923   2.854  20.274  1.00  0.00     0.031 C 
HETATM   18  C7  UNL     1       0.212   4.164  20.491  1.00  0.00     0.081 C 
HETATM   19  C8  UNL     1      -1.199   4.137  19.946  1.00  0.00     0.243 C 
HETATM   20  F1  UNL     1      -2.092   3.744  20.944  1.00  0.00    -0.206 F 
HETATM   21  F2  UNL     1      -1.495   5.403  19.493  1.00  0.00    -0.206 F 
HETATM   22  C9  UNL     1      -1.278   3.103  18.850  1.00  0.00     0.081 C 
HETATM   23  C10 UNL     1       0.003   3.060  18.025  1.00  0.00     0.031 C 
ENDBRANCH  14  16
ENDBRANCH   7  12
ENDBRANCH   1   7
BRANCH   4  24
HETATM   24  O4  UNL     1      -3.071  -3.036  16.892  1.00  0.00    -0.381 OA
BRANCH  24  25
HETATM   25  C15 UNL     1      -3.898  -2.079  17.396  1.00  0.00     0.206 C 
BRANCH  25  26
HETATM   26  C16 UNL     1      -4.274  -0.992  16.471  1.00  0.00    -0.034 A 
HETATM   27  C17 UNL     1      -3.740   0.263  16.612  1.00  0.00     0.009 A 
HETATM   28  C18 UNL     1      -4.128   1.240  15.721  1.00  0.00     0.002 A 
HETATM   29  C19 UNL     1      -5.026   0.978  14.710  1.00  0.00     0.015 A 
HETATM   30  C20 UNL     1      -5.581  -0.278  14.542  1.00  0.00     0.010 A 
HETATM   31  C24 UNL     1      -5.169  -1.237  15.455  1.00  0.00     0.024 A 
BRANCH  30  32
HETATM   32  C21 UNL     1      -6.534  -0.577  13.493  1.00  0.00     0.138 A 
HETATM   33  N2  UNL     1      -7.267   0.250  12.773  1.00  0.00    -0.241 N 
HETATM   34  O5  UNL     1      -8.017  -0.412  11.929  1.00  0.00    -0.210 OA
ATOM     35  H2  UNL     1      -7.250   1.267  12.861  1.00  0.00     0.196 HD
HETATM   36  C22 UNL     1      -7.790  -1.707  12.081  1.00  0.00     0.209 A 
HETATM   37  N3  UNL     1      -6.852  -1.809  13.070  1.00  0.00    -0.314 N 
ATOM     38  H3  UNL     1      -6.458  -2.679  13.427  1.00  0.00     0.170 HD
BRANCH  36  39
HETATM   39  S1  UNL     1      -8.554  -3.028  11.181  1.00  0.00    -0.089 SA
HETATM   40  C23 UNL     1      -7.996  -3.027   9.439  1.00  0.00     0.099 C 
ENDBRANCH  36  39
ENDBRANCH  30  32
ENDBRANCH  25  26
ENDBRANCH  24  25
ENDBRANCH   4  24
TORSDOF 10
ENDMDL
