MODEL 1
REMARK VINA RESULT: -6.825257705      0.000      0.000
REMARK  9 active torsions:
REMARK  status: ('A' for Active; 'I' for Inactive)
REMARK    1  A    between atoms: C5_5  and  C6_6 
REMARK    2  A    between atoms: C6_6  and  C7_7 
REMARK    3  A    between atoms: C7_7  and  N1_8 
REMARK    4  A    between atoms: N1_8  and  C8_10 
REMARK    5  A    between atoms: C11_15  and  N3_16 
REMARK    6  A    between atoms: N3_16  and  C12_18 
REMARK    7  A    between atoms: C12_18  and  C13_19 
REMARK    8  A    between atoms: C13_19  and  C14_20 
REMARK    9  A    between atoms: C14_20  and  O1_21 
ROOT
HETATM    1  C8  UNL     1      -2.147  87.595 134.376  1.00  0.00     0.118 A 
HETATM    2  C9  UNL     1      -3.122  86.669 134.085  1.00  0.00     0.066 A 
HETATM    3  C10 UNL     1      -2.981  85.802 132.992  1.00  0.00     0.110 A 
HETATM    4  N2  UNL     1      -1.870  85.905 132.242  1.00  0.00    -0.202 N 
ATOM      5  H2  UNL     1      -1.749  85.284 131.444  1.00  0.00     0.183 HD
HETATM    6  C11 UNL     1      -0.899  86.824 132.526  1.00  0.00     0.679 A 
HETATM    7  N4  UNL     1      -1.068  87.632 133.575  1.00  0.00    -0.177 N 
ATOM      8  H4  UNL     1      -0.339  88.315 133.780  1.00  0.00     0.185 HD
ENDROOT
BRANCH   1   9
HETATM    9  N1  UNL     1      -2.313  88.366 135.380  1.00  0.00    -0.376 N 
ATOM     10  H1  UNL     1      -1.936  88.051 136.274  1.00  0.00     0.161 HD
BRANCH   9  11
HETATM   11  C7  UNL     1      -2.980  89.630 135.365  1.00  0.00     0.128 C 
BRANCH  11  12
HETATM   12  C6  UNL     1      -2.121  90.757 135.890  1.00  0.00     0.084 C 
BRANCH  12  13
HETATM   13  C5  UNL     1      -1.790  91.616 134.697  1.00  0.00     0.054 A 
HETATM   14  C4  UNL     1      -0.693  92.412 134.526  1.00  0.00     0.035 A 
HETATM   15  C3  UNL     1      -0.807  93.008 133.289  1.00  0.00     0.035 A 
HETATM   16  C2  UNL     1      -1.974  92.550 132.754  1.00  0.00     0.049 A 
HETATM   17  C1  UNL     1      -2.603  92.860 131.438  1.00  0.00     0.076 C 
HETATM   18  O2  UNL     1      -2.516  91.737 133.617  1.00  0.00    -0.320 OA
ENDBRANCH  12  13
ENDBRANCH  11  12
ENDBRANCH   9  11
ENDBRANCH   1   9
BRANCH   6  19
HETATM   19  N3  UNL     1       0.103  86.809 131.727  1.00  0.00    -0.226 N 
ATOM     20  H3  UNL     1       0.952  86.302 131.976  1.00  0.00     0.177 HD
BRANCH  19  21
HETATM   21  C12 UNL     1       0.019  87.515 130.473  1.00  0.00     0.140 C 
BRANCH  21  22
HETATM   22  C13 UNL     1       0.914  88.733 130.414  1.00  0.00     0.046 C 
BRANCH  22  23
HETATM   23  C14 UNL     1       0.248  89.955 130.962  1.00  0.00     0.165 C 
BRANCH  23  24
HETATM   24  O1  UNL     1       0.474  90.002 132.337  1.00  0.00    -0.401 OA
ATOM     25  H1  UNL     1       0.803  90.865 132.558  1.00  0.00     0.209 HD
ENDBRANCH  23  24
ENDBRANCH  22  23
ENDBRANCH  21  22
ENDBRANCH  19  21
ENDBRANCH   6  19
TORSDOF 9
ENDMDL
MODEL 2
REMARK VINA RESULT: -6.764987524      0.840      1.439
REMARK  9 active torsions:
REMARK  status: ('A' for Active; 'I' for Inactive)
REMARK    1  A    between atoms: C5_5  and  C6_6 
REMARK    2  A    between atoms: C6_6  and  C7_7 
REMARK    3  A    between atoms: C7_7  and  N1_8 
REMARK    4  A    between atoms: N1_8  and  C8_10 
REMARK    5  A    between atoms: C11_15  and  N3_16 
REMARK    6  A    between atoms: N3_16  and  C12_18 
REMARK    7  A    between atoms: C12_18  and  C13_19 
REMARK    8  A    between atoms: C13_19  and  C14_20 
REMARK    9  A    between atoms: C14_20  and  O1_21 
ROOT
HETATM    1  C8  UNL     1      -2.221  87.507 134.322  1.00  0.00     0.118 A 
HETATM    2  C9  UNL     1      -3.114  86.493 134.061  1.00  0.00     0.066 A 
HETATM    3  C10 UNL     1      -2.907  85.617 132.986  1.00  0.00     0.110 A 
HETATM    4  N2  UNL     1      -1.815  85.798 132.225  1.00  0.00    -0.202 N 
ATOM      5  H2  UNL     1      -1.646  85.170 131.439  1.00  0.00     0.183 HD
HETATM    6  C11 UNL     1      -0.924  86.803 132.478  1.00  0.00     0.679 A 
HETATM    7  N4  UNL     1      -1.155  87.618 133.510  1.00  0.00    -0.177 N 
ATOM      8  H4  UNL     1      -0.486  88.366 133.693  1.00  0.00     0.185 HD
ENDROOT
BRANCH   1   9
HETATM    9  N1  UNL     1      -2.446  88.284 135.310  1.00  0.00    -0.376 N 
ATOM     10  H1  UNL     1      -1.804  88.226 136.101  1.00  0.00     0.161 HD
BRANCH   9  11
HETATM   11  C7  UNL     1      -3.515  89.227 135.407  1.00  0.00     0.128 C 
BRANCH  11  12
HETATM   12  C6  UNL     1      -3.988  89.725 134.061  1.00  0.00     0.084 C 
BRANCH  12  13
HETATM   13  C5  UNL     1      -3.264  91.023 133.821  1.00  0.00     0.054 A 
HETATM   14  C4  UNL     1      -3.743  92.138 133.193  1.00  0.00     0.035 A 
HETATM   15  C3  UNL     1      -2.737  93.080 133.204  1.00  0.00     0.035 A 
HETATM   16  C2  UNL     1      -1.681  92.499 133.840  1.00  0.00     0.049 A 
HETATM   17  C1  UNL     1      -0.328  93.052 134.138  1.00  0.00     0.076 C 
HETATM   18  O2  UNL     1      -2.037  91.293 134.183  1.00  0.00    -0.320 OA
ENDBRANCH  12  13
ENDBRANCH  11  12
ENDBRANCH   9  11
ENDBRANCH   1   9
BRANCH   6  19
HETATM   19  N3  UNL     1       0.069  86.856 131.671  1.00  0.00    -0.226 N 
ATOM     20  H3  UNL     1       0.919  86.326 131.865  1.00  0.00     0.177 HD
BRANCH  19  21
HETATM   21  C12 UNL     1      -0.025  87.669 130.485  1.00  0.00     0.140 C 
BRANCH  21  22
HETATM   22  C13 UNL     1       0.853  88.900 130.535  1.00  0.00     0.046 C 
BRANCH  22  23
HETATM   23  C14 UNL     1       0.143  90.081 131.116  1.00  0.00     0.165 C 
BRANCH  23  24
HETATM   24  O1  UNL     1       0.209  89.996 132.506  1.00  0.00    -0.401 OA
ATOM     25  H1  UNL     1      -0.665  90.121 132.857  1.00  0.00     0.209 HD
ENDBRANCH  23  24
ENDBRANCH  22  23
ENDBRANCH  21  22
ENDBRANCH  19  21
ENDBRANCH   6  19
TORSDOF 9
ENDMDL
MODEL 3
REMARK VINA RESULT: -6.605999135      2.808      4.230
REMARK  9 active torsions:
REMARK  status: ('A' for Active; 'I' for Inactive)
REMARK    1  A    between atoms: C5_5  and  C6_6 
REMARK    2  A    between atoms: C6_6  and  C7_7 
REMARK    3  A    between atoms: C7_7  and  N1_8 
REMARK    4  A    between atoms: N1_8  and  C8_10 
REMARK    5  A    between atoms: C11_15  and  N3_16 
REMARK    6  A    between atoms: N3_16  and  C12_18 
REMARK    7  A    between atoms: C12_18  and  C13_19 
REMARK    8  A    between atoms: C13_19  and  C14_20 
REMARK    9  A    between atoms: C14_20  and  O1_21 
ROOT
HETATM    1  C8  UNL     1      -2.122  90.691 135.544  1.00  0.00     0.118 A 
HETATM    2  C9  UNL     1      -2.259  90.042 136.749  1.00  0.00     0.066 A 
HETATM    3  C10 UNL     1      -2.999  88.854 136.841  1.00  0.00     0.110 A 
HETATM    4  N2  UNL     1      -3.565  88.373 135.722  1.00  0.00    -0.202 N 
ATOM      5  H2  UNL     1      -4.106  87.510 135.768  1.00  0.00     0.183 HD
HETATM    6  C11 UNL     1      -3.433  89.014 134.521  1.00  0.00     0.679 A 
HETATM    7  N4  UNL     1      -2.722  90.143 134.473  1.00  0.00    -0.177 N 
ATOM      8  H4  UNL     1      -2.628  90.615 133.574  1.00  0.00     0.185 HD
ENDROOT
BRANCH   1   9
HETATM    9  N1  UNL     1      -1.441  91.770 135.502  1.00  0.00    -0.376 N 
ATOM     10  H1  UNL     1      -1.563  92.426 136.274  1.00  0.00     0.161 HD
BRANCH   9  11
HETATM   11  C7  UNL     1      -0.521  92.141 134.473  1.00  0.00     0.128 C 
BRANCH  11  12
HETATM   12  C6  UNL     1      -0.907  93.423 133.771  1.00  0.00     0.084 C 
BRANCH  12  13
HETATM   13  C5  UNL     1      -2.175  93.119 133.018  1.00  0.00     0.054 A 
HETATM   14  C4  UNL     1      -2.301  92.824 131.689  1.00  0.00     0.035 A 
HETATM   15  C3  UNL     1      -3.640  92.618 131.440  1.00  0.00     0.035 A 
HETATM   16  C2  UNL     1      -4.279  92.795 132.631  1.00  0.00     0.049 A 
HETATM   17  C1  UNL     1      -5.731  92.696 132.956  1.00  0.00     0.076 C 
HETATM   18  O2  UNL     1      -3.378  93.088 133.527  1.00  0.00    -0.320 OA
ENDBRANCH  12  13
ENDBRANCH  11  12
ENDBRANCH   9  11
ENDBRANCH   1   9
BRANCH   6  19
HETATM   19  N3  UNL     1      -4.026  88.442 133.540  1.00  0.00    -0.226 N 
ATOM     20  H3  UNL     1      -3.954  88.829 132.599  1.00  0.00     0.177 HD
BRANCH  19  21
HETATM   21  C12 UNL     1      -4.796  87.248 133.778  1.00  0.00     0.140 C 
BRANCH  21  22
HETATM   22  C13 UNL     1      -4.438  86.112 132.844  1.00  0.00     0.046 C 
BRANCH  22  23
HETATM   23  C14 UNL     1      -3.116  85.497 133.177  1.00  0.00     0.165 C 
BRANCH  23  24
HETATM   24  O1  UNL     1      -2.945  85.538 134.559  1.00  0.00    -0.401 OA
ATOM     25  H1  UNL     1      -3.193  84.694 134.918  1.00  0.00     0.209 HD
ENDBRANCH  23  24
ENDBRANCH  22  23
ENDBRANCH  21  22
ENDBRANCH  19  21
ENDBRANCH   6  19
TORSDOF 9
ENDMDL
MODEL 4
REMARK VINA RESULT: -6.590639338      2.273      4.134
REMARK  9 active torsions:
REMARK  status: ('A' for Active; 'I' for Inactive)
REMARK    1  A    between atoms: C5_5  and  C6_6 
REMARK    2  A    between atoms: C6_6  and  C7_7 
REMARK    3  A    between atoms: C7_7  and  N1_8 
REMARK    4  A    between atoms: N1_8  and  C8_10 
REMARK    5  A    between atoms: C11_15  and  N3_16 
REMARK    6  A    between atoms: N3_16  and  C12_18 
REMARK    7  A    between atoms: C12_18  and  C13_19 
REMARK    8  A    between atoms: C13_19  and  C14_20 
REMARK    9  A    between atoms: C14_20  and  O1_21 
ROOT
HETATM    1  C8  UNL     1      -0.417  90.093 131.889  1.00  0.00     0.118 A 
HETATM    2  C9  UNL     1       0.378  89.927 130.779  1.00  0.00     0.066 A 
HETATM    3  C10 UNL     1       0.742  88.644 130.345  1.00  0.00     0.110 A 
HETATM    4  N2  UNL     1       0.292  87.589 131.045  1.00  0.00    -0.202 N 
ATOM      5  H2  UNL     1       0.545  86.648 130.745  1.00  0.00     0.183 HD
HETATM    6  C11 UNL     1      -0.498  87.748 132.150  1.00  0.00     0.679 A 
HETATM    7  N4  UNL     1      -0.824  88.984 132.532  1.00  0.00    -0.177 N 
ATOM      8  H4  UNL     1      -1.413  89.094 133.357  1.00  0.00     0.185 HD
ENDROOT
BRANCH   1   9
HETATM    9  N1  UNL     1      -0.726  91.278 132.251  1.00  0.00    -0.376 N 
ATOM     10  H1  UNL     1      -1.017  91.925 131.519  1.00  0.00     0.161 HD
BRANCH   9  11
HETATM   11  C7  UNL     1      -0.702  91.778 133.590  1.00  0.00     0.128 C 
BRANCH  11  12
HETATM   12  C6  UNL     1      -1.855  92.707 133.894  1.00  0.00     0.084 C 
BRANCH  12  13
HETATM   13  C5  UNL     1      -3.106  91.939 133.557  1.00  0.00     0.054 A 
HETATM   14  C4  UNL     1      -4.231  92.413 132.942  1.00  0.00     0.035 A 
HETATM   15  C3  UNL     1      -5.116  91.362 132.840  1.00  0.00     0.035 A 
HETATM   16  C2  UNL     1      -4.493  90.286 133.399  1.00  0.00     0.049 A 
HETATM   17  C1  UNL     1      -4.978  88.886 133.564  1.00  0.00     0.076 C 
HETATM   18  O2  UNL     1      -3.317  90.674 133.806  1.00  0.00    -0.320 OA
ENDBRANCH  12  13
ENDBRANCH  11  12
ENDBRANCH   9  11
ENDBRANCH   1   9
BRANCH   6  19
HETATM   19  N3  UNL     1      -0.852  86.655 132.716  1.00  0.00    -0.226 N 
ATOM     20  H3  UNL     1      -0.653  85.757 132.273  1.00  0.00     0.177 HD
BRANCH  19  21
HETATM   21  C12 UNL     1      -1.532  86.703 133.986  1.00  0.00     0.140 C 
BRANCH  21  22
HETATM   22  C13 UNL     1      -2.632  85.673 134.112  1.00  0.00     0.046 C 
BRANCH  22  23
HETATM   23  C14 UNL     1      -3.425  85.530 132.852  1.00  0.00     0.165 C 
BRANCH  23  24
HETATM   24  O1  UNL     1      -2.800  84.584 132.042  1.00  0.00    -0.401 OA
ATOM     25  H1  UNL     1      -2.751  84.930 131.158  1.00  0.00     0.209 HD
ENDBRANCH  23  24
ENDBRANCH  22  23
ENDBRANCH  21  22
ENDBRANCH  19  21
ENDBRANCH   6  19
TORSDOF 9
ENDMDL
MODEL 5
REMARK VINA RESULT: -6.553248696      0.969      1.357
REMARK  9 active torsions:
REMARK  status: ('A' for Active; 'I' for Inactive)
REMARK    1  A    between atoms: C5_5  and  C6_6 
REMARK    2  A    between atoms: C6_6  and  C7_7 
REMARK    3  A    between atoms: C7_7  and  N1_8 
REMARK    4  A    between atoms: N1_8  and  C8_10 
REMARK    5  A    between atoms: C11_15  and  N3_16 
REMARK    6  A    between atoms: N3_16  and  C12_18 
REMARK    7  A    between atoms: C12_18  and  C13_19 
REMARK    8  A    between atoms: C13_19  and  C14_20 
REMARK    9  A    between atoms: C14_20  and  O1_21 
ROOT
HETATM    1  C8  UNL     1      -2.071  87.499 134.464  1.00  0.00     0.118 A 
HETATM    2  C9  UNL     1      -3.070  86.601 134.166  1.00  0.00     0.066 A 
HETATM    3  C10 UNL     1      -2.982  85.784 133.030  1.00  0.00     0.110 A 
HETATM    4  N2  UNL     1      -1.897  85.905 132.247  1.00  0.00    -0.202 N 
ATOM      5  H2  UNL     1      -1.815  85.319 131.417  1.00  0.00     0.183 HD
HETATM    6  C11 UNL     1      -0.901  86.796 132.537  1.00  0.00     0.679 A 
HETATM    7  N4  UNL     1      -1.020  87.557 133.627  1.00  0.00    -0.177 N 
ATOM      8  H4  UNL     1      -0.274  88.219 133.837  1.00  0.00     0.185 HD
ENDROOT
BRANCH   1   9
HETATM    9  N1  UNL     1      -2.189  88.224 135.508  1.00  0.00    -0.376 N 
ATOM     10  H1  UNL     1      -1.665  87.937 136.334  1.00  0.00     0.161 HD
BRANCH   9  11
HETATM   11  C7  UNL     1      -2.989  89.403 135.622  1.00  0.00     0.128 C 
BRANCH  11  12
HETATM   12  C6  UNL     1      -2.256  90.658 135.210  1.00  0.00     0.084 C 
BRANCH  12  13
HETATM   13  C5  UNL     1      -2.815  91.042 133.865  1.00  0.00     0.054 A 
HETATM   14  C4  UNL     1      -4.000  90.643 133.313  1.00  0.00     0.035 A 
HETATM   15  C3  UNL     1      -4.098  91.240 132.075  1.00  0.00     0.035 A 
HETATM   16  C2  UNL     1      -2.965  91.983 131.922  1.00  0.00     0.049 A 
HETATM   17  C1  UNL     1      -2.536  92.838 130.778  1.00  0.00     0.076 C 
HETATM   18  O2  UNL     1      -2.243  91.834 132.997  1.00  0.00    -0.320 OA
ENDBRANCH  12  13
ENDBRANCH  11  12
ENDBRANCH   9  11
ENDBRANCH   1   9
BRANCH   6  19
HETATM   19  N3  UNL     1       0.071  86.802 131.703  1.00  0.00    -0.226 N 
ATOM     20  H3  UNL     1       0.900  86.234 131.874  1.00  0.00     0.177 HD
BRANCH  19  21
HETATM   21  C12 UNL     1      -0.017  87.620 130.519  1.00  0.00     0.140 C 
BRANCH  21  22
HETATM   22  C13 UNL     1       0.871  88.844 130.573  1.00  0.00     0.046 C 
BRANCH  22  23
HETATM   23  C14 UNL     1       0.148  90.049 131.083  1.00  0.00     0.165 C 
BRANCH  23  24
HETATM   24  O1  UNL     1       0.214  90.048 132.475  1.00  0.00    -0.401 OA
ATOM     25  H1  UNL     1      -0.672  90.043 132.818  1.00  0.00     0.209 HD
ENDBRANCH  23  24
ENDBRANCH  22  23
ENDBRANCH  21  22
ENDBRANCH  19  21
ENDBRANCH   6  19
TORSDOF 9
ENDMDL
