MODEL 1
REMARK VINA RESULT: -6.751869023      0.000      0.000
REMARK  8 active torsions:
REMARK  status: ('A' for Active; 'I' for Inactive)
REMARK    1  A    between atoms: C3_3  and  O1_4 
REMARK    2  A    between atoms: O1_4  and  C4_5 
REMARK    3  A    between atoms: C4_5  and  C5_6 
REMARK    4  A    between atoms: C5_6  and  C6_7 
REMARK    5  A    between atoms: C8_11  and  N2_12 
REMARK    6  A    between atoms: N2_12  and  C9_14 
REMARK    7  A    between atoms: C9_14  and  C10_15 
REMARK    8  A    between atoms: C14_19  and  O2_20 
ROOT
HETATM    1  C1  UNL     1      -2.124  91.178 134.687  1.00  0.00     0.014 C 
HETATM    2  C2  UNL     1      -1.733  92.195 134.174  1.00  0.00    -0.091 C 
HETATM    3  C3  UNL     1      -1.257  93.443 133.572  1.00  0.00     0.260 C 
ENDROOT
BRANCH   3   4
HETATM    4  O1  UNL     1      -0.640  93.183 132.354  1.00  0.00    -0.379 OA
BRANCH   4   5
HETATM    5  C4  UNL     1      -1.639  92.939 131.407  1.00  0.00     0.173 C 
BRANCH   5   6
HETATM    6  C5  UNL     1      -1.104  92.002 130.332  1.00  0.00     0.067 C 
BRANCH   6   7
HETATM    7  C6  UNL     1      -1.167  90.633 130.898  1.00  0.00    -0.024 A 
HETATM    8  C7  UNL     1      -0.172  90.079 131.674  1.00  0.00     0.114 A 
HETATM    9  N1  UNL     1      -0.279  88.811 132.174  1.00  0.00    -0.201 N 
HETATM   10  C8  UNL     1      -1.378  88.087 131.905  1.00  0.00     0.677 A 
ATOM     11  H1  UNL     1       0.468  88.419 132.747  1.00  0.00     0.183 HD
HETATM   12  N3  UNL     1      -2.361  88.595 131.156  1.00  0.00    -0.201 N 
HETATM   13  C16 UNL     1      -2.275  89.837 130.657  1.00  0.00     0.114 A 
ATOM     14  H3  UNL     1      -3.188  88.030 130.961  1.00  0.00     0.183 HD
BRANCH  10  15
HETATM   15  N2  UNL     1      -1.452  86.899 132.387  1.00  0.00    -0.222 N 
ATOM     16  H2  UNL     1      -0.610  86.414 132.701  1.00  0.00     0.178 HD
BRANCH  15  17
HETATM   17  C9  UNL     1      -2.740  86.259 132.478  1.00  0.00     0.176 C 
BRANCH  17  18
HETATM   18  C10 UNL     1      -3.637  86.936 133.436  1.00  0.00    -0.037 A 
HETATM   19  C11 UNL     1      -4.982  87.083 133.174  1.00  0.00     0.009 A 
HETATM   20  C12 UNL     1      -5.838  87.718 134.068  1.00  0.00     0.003 A 
HETATM   21  C13 UNL     1      -5.352  88.216 135.240  1.00  0.00     0.036 A 
HETATM   22  C14 UNL     1      -4.011  88.085 135.531  1.00  0.00     0.066 A 
HETATM   23  C15 UNL     1      -3.158  87.445 134.626  1.00  0.00     0.045 A 
BRANCH  22  24
HETATM   24  O2  UNL     1      -3.439  88.563 136.698  1.00  0.00    -0.361 OA
ATOM     25  H2  UNL     1      -2.969  89.387 136.748  1.00  0.00     0.217 HD
ENDBRANCH  22  24
ENDBRANCH  17  18
ENDBRANCH  15  17
ENDBRANCH  10  15
ENDBRANCH   6   7
ENDBRANCH   5   6
ENDBRANCH   4   5
ENDBRANCH   3   4
TORSDOF 8
ENDMDL
MODEL 2
REMARK VINA RESULT: -6.703145126      1.060      1.379
REMARK  8 active torsions:
REMARK  status: ('A' for Active; 'I' for Inactive)
REMARK    1  A    between atoms: C3_3  and  O1_4 
REMARK    2  A    between atoms: O1_4  and  C4_5 
REMARK    3  A    between atoms: C4_5  and  C5_6 
REMARK    4  A    between atoms: C5_6  and  C6_7 
REMARK    5  A    between atoms: C8_11  and  N2_12 
REMARK    6  A    between atoms: N2_12  and  C9_14 
REMARK    7  A    between atoms: C9_14  and  C10_15 
REMARK    8  A    between atoms: C14_19  and  O2_20 
ROOT
HETATM    1  C1  UNL     1      -0.560  92.792 134.311  1.00  0.00     0.014 C 
HETATM    2  C2  UNL     1      -0.964  93.039 133.205  1.00  0.00    -0.091 C 
HETATM    3  C3  UNL     1      -1.475  93.356 131.868  1.00  0.00     0.260 C 
ENDROOT
BRANCH   3   4
HETATM    4  O1  UNL     1      -0.520  93.048 130.906  1.00  0.00    -0.379 OA
BRANCH   4   5
HETATM    5  C4  UNL     1      -0.969  91.932 130.194  1.00  0.00     0.173 C 
BRANCH   5   6
HETATM    6  C5  UNL     1       0.177  90.941 130.025  1.00  0.00     0.067 C 
BRANCH   6   7
HETATM    7  C6  UNL     1      -0.219  89.713 130.756  1.00  0.00    -0.024 A 
HETATM    8  C7  UNL     1      -0.226  88.456 130.192  1.00  0.00     0.114 A 
HETATM    9  N1  UNL     1      -0.599  87.354 130.910  1.00  0.00    -0.201 N 
HETATM   10  C8  UNL     1      -0.967  87.497 132.194  1.00  0.00     0.677 A 
ATOM     11  H1  UNL     1      -0.598  86.432 130.474  1.00  0.00     0.183 HD
HETATM   12  N3  UNL     1      -0.971  88.702 132.771  1.00  0.00    -0.201 N 
HETATM   13  C16 UNL     1      -0.607  89.796 132.083  1.00  0.00     0.114 A 
ATOM     14  H3  UNL     1      -1.253  88.792 133.747  1.00  0.00     0.183 HD
BRANCH  10  15
HETATM   15  N2  UNL     1      -1.313  86.445 132.844  1.00  0.00    -0.222 N 
ATOM     16  H2  UNL     1      -0.649  85.974 133.460  1.00  0.00     0.178 HD
BRANCH  15  17
HETATM   17  C9  UNL     1      -2.653  85.937 132.692  1.00  0.00     0.176 C 
BRANCH  17  18
HETATM   18  C10 UNL     1      -3.632  86.682 133.507  1.00  0.00    -0.037 A 
HETATM   19  C11 UNL     1      -4.916  86.904 133.057  1.00  0.00     0.009 A 
HETATM   20  C12 UNL     1      -5.849  87.604 133.816  1.00  0.00     0.003 A 
HETATM   21  C13 UNL     1      -5.502  88.093 135.040  1.00  0.00     0.036 A 
HETATM   22  C14 UNL     1      -4.226  87.888 135.519  1.00  0.00     0.066 A 
HETATM   23  C15 UNL     1      -3.295  87.183 134.748  1.00  0.00     0.045 A 
BRANCH  22  24
HETATM   24  O2  UNL     1      -3.795  88.351 136.751  1.00  0.00    -0.361 OA
ATOM     25  H2  UNL     1      -3.852  89.262 137.013  1.00  0.00     0.217 HD
ENDBRANCH  22  24
ENDBRANCH  17  18
ENDBRANCH  15  17
ENDBRANCH  10  15
ENDBRANCH   6   7
ENDBRANCH   5   6
ENDBRANCH   4   5
ENDBRANCH   3   4
TORSDOF 8
ENDMDL
MODEL 3
REMARK VINA RESULT: -6.683272348      1.398      2.065
REMARK  8 active torsions:
REMARK  status: ('A' for Active; 'I' for Inactive)
REMARK    1  A    between atoms: C3_3  and  O1_4 
REMARK    2  A    between atoms: O1_4  and  C4_5 
REMARK    3  A    between atoms: C4_5  and  C5_6 
REMARK    4  A    between atoms: C5_6  and  C6_7 
REMARK    5  A    between atoms: C8_11  and  N2_12 
REMARK    6  A    between atoms: N2_12  and  C9_14 
REMARK    7  A    between atoms: C9_14  and  C10_15 
REMARK    8  A    between atoms: C14_19  and  O2_20 
ROOT
HETATM    1  C1  UNL     1      -0.454  92.329 134.548  1.00  0.00     0.014 C 
HETATM    2  C2  UNL     1      -0.903  92.700 133.494  1.00  0.00    -0.091 C 
HETATM    3  C3  UNL     1      -1.470  93.162 132.225  1.00  0.00     0.260 C 
ENDROOT
BRANCH   3   4
HETATM    4  O1  UNL     1      -0.488  93.185 131.242  1.00  0.00    -0.379 OA
BRANCH   4   5
HETATM    5  C4  UNL     1      -1.052  92.704 130.057  1.00  0.00     0.173 C 
BRANCH   5   6
HETATM    6  C5  UNL     1      -0.114  91.682 129.426  1.00  0.00     0.067 C 
BRANCH   6   7
HETATM    7  C6  UNL     1      -0.392  90.387 130.094  1.00  0.00    -0.024 A 
HETATM    8  C7  UNL     1      -1.647  89.825 130.180  1.00  0.00     0.114 A 
HETATM    9  N1  UNL     1      -1.850  88.627 130.807  1.00  0.00    -0.201 N 
HETATM   10  C8  UNL     1      -0.806  87.983 131.354  1.00  0.00     0.677 A 
ATOM     11  H1  UNL     1      -2.787  88.226 130.859  1.00  0.00     0.183 HD
HETATM   12  N3  UNL     1       0.424  88.502 131.288  1.00  0.00    -0.201 N 
HETATM   13  C16 UNL     1       0.644  89.676 130.676  1.00  0.00     0.114 A 
ATOM     14  H3  UNL     1       1.205  88.000 131.709  1.00  0.00     0.183 HD
BRANCH  10  15
HETATM   15  N2  UNL     1      -1.026  86.860 131.937  1.00  0.00    -0.222 N 
ATOM     16  H2  UNL     1      -1.194  86.016 131.390  1.00  0.00     0.178 HD
BRANCH  15  17
HETATM   17  C9  UNL     1      -1.034  86.810 133.378  1.00  0.00     0.176 C 
BRANCH  17  18
HETATM   18  C10 UNL     1      -2.292  87.329 133.951  1.00  0.00    -0.037 A 
HETATM   19  C11 UNL     1      -2.299  88.436 134.772  1.00  0.00     0.009 A 
HETATM   20  C12 UNL     1      -3.478  88.935 135.318  1.00  0.00     0.003 A 
HETATM   21  C13 UNL     1      -4.666  88.326 135.047  1.00  0.00     0.036 A 
HETATM   22  C14 UNL     1      -4.692  87.216 134.230  1.00  0.00     0.066 A 
HETATM   23  C15 UNL     1      -3.502  86.722 133.685  1.00  0.00     0.045 A 
BRANCH  22  24
HETATM   24  O2  UNL     1      -5.856  86.540 133.906  1.00  0.00    -0.361 OA
ATOM     25  H2  UNL     1      -6.483  86.860 133.267  1.00  0.00     0.217 HD
ENDBRANCH  22  24
ENDBRANCH  17  18
ENDBRANCH  15  17
ENDBRANCH  10  15
ENDBRANCH   6   7
ENDBRANCH   5   6
ENDBRANCH   4   5
ENDBRANCH   3   4
TORSDOF 8
ENDMDL
MODEL 4
REMARK VINA RESULT: -6.594020441      1.512      1.885
REMARK  8 active torsions:
REMARK  status: ('A' for Active; 'I' for Inactive)
REMARK    1  A    between atoms: C3_3  and  O1_4 
REMARK    2  A    between atoms: O1_4  and  C4_5 
REMARK    3  A    between atoms: C4_5  and  C5_6 
REMARK    4  A    between atoms: C5_6  and  C6_7 
REMARK    5  A    between atoms: C8_11  and  N2_12 
REMARK    6  A    between atoms: N2_12  and  C9_14 
REMARK    7  A    between atoms: C9_14  and  C10_15 
REMARK    8  A    between atoms: C14_19  and  O2_20 
ROOT
HETATM    1  C1  UNL     1      -4.367  90.760 132.849  1.00  0.00     0.014 C 
HETATM    2  C2  UNL     1      -4.429  91.633 132.021  1.00  0.00    -0.091 C 
HETATM    3  C3  UNL     1      -4.520  92.708 131.030  1.00  0.00     0.260 C 
ENDROOT
BRANCH   3   4
HETATM    4  O1  UNL     1      -3.469  92.617 130.127  1.00  0.00    -0.379 OA
BRANCH   4   5
HETATM    5  C4  UNL     1      -2.310  93.068 130.766  1.00  0.00     0.173 C 
BRANCH   5   6
HETATM    6  C5  UNL     1      -1.098  92.341 130.196  1.00  0.00     0.067 C 
BRANCH   6   7
HETATM    7  C6  UNL     1      -1.076  91.001 130.832  1.00  0.00    -0.024 A 
HETATM    8  C7  UNL     1      -1.418  89.838 130.177  1.00  0.00     0.114 A 
HETATM    9  N1  UNL     1      -1.380  88.626 130.809  1.00  0.00    -0.201 N 
HETATM   10  C8  UNL     1      -1.002  88.565 132.097  1.00  0.00     0.677 A 
ATOM     11  H1  UNL     1      -1.636  87.776 130.307  1.00  0.00     0.183 HD
HETATM   12  N3  UNL     1      -0.664  89.675 132.760  1.00  0.00    -0.201 N 
HETATM   13  C16 UNL     1      -0.694  90.873 132.157  1.00  0.00     0.114 A 
ATOM     14  H3  UNL     1      -0.380  89.610 133.737  1.00  0.00     0.183 HD
BRANCH  10  15
HETATM   15  N2  UNL     1      -0.976  87.413 132.665  1.00  0.00    -0.222 N 
ATOM     16  H2  UNL     1      -0.147  87.106 133.174  1.00  0.00     0.178 HD
BRANCH  15  17
HETATM   17  C9  UNL     1      -2.134  86.561 132.572  1.00  0.00     0.176 C 
BRANCH  17  18
HETATM   18  C10 UNL     1      -3.241  87.021 133.434  1.00  0.00    -0.037 A 
HETATM   19  C11 UNL     1      -4.550  86.969 133.006  1.00  0.00     0.009 A 
HETATM   20  C12 UNL     1      -5.602  87.398 133.809  1.00  0.00     0.003 A 
HETATM   21  C13 UNL     1      -5.351  87.889 135.055  1.00  0.00     0.036 A 
HETATM   22  C14 UNL     1      -4.052  87.955 135.513  1.00  0.00     0.066 A 
HETATM   23  C15 UNL     1      -3.002  87.520 134.698  1.00  0.00     0.045 A 
BRANCH  22  24
HETATM   24  O2  UNL     1      -3.714  88.439 136.765  1.00  0.00    -0.361 OA
ATOM     25  H2  UNL     1      -2.892  88.878 136.949  1.00  0.00     0.217 HD
ENDBRANCH  22  24
ENDBRANCH  17  18
ENDBRANCH  15  17
ENDBRANCH  10  15
ENDBRANCH   6   7
ENDBRANCH   5   6
ENDBRANCH   4   5
ENDBRANCH   3   4
TORSDOF 8
ENDMDL
MODEL 5
REMARK VINA RESULT: -6.401633894      2.467      6.068
REMARK  8 active torsions:
REMARK  status: ('A' for Active; 'I' for Inactive)
REMARK    1  A    between atoms: C3_3  and  O1_4 
REMARK    2  A    between atoms: O1_4  and  C4_5 
REMARK    3  A    between atoms: C4_5  and  C5_6 
REMARK    4  A    between atoms: C5_6  and  C6_7 
REMARK    5  A    between atoms: C8_11  and  N2_12 
REMARK    6  A    between atoms: N2_12  and  C9_14 
REMARK    7  A    between atoms: C9_14  and  C10_15 
REMARK    8  A    between atoms: C14_19  and  O2_20 
ROOT
HETATM    1  C1  UNL     1      -1.210  87.062 132.471  1.00  0.00     0.014 C 
HETATM    2  C2  UNL     1      -2.259  86.580 132.811  1.00  0.00    -0.091 C 
HETATM    3  C3  UNL     1      -3.531  85.972 133.211  1.00  0.00     0.260 C 
ENDROOT
BRANCH   3   4
HETATM    4  O1  UNL     1      -4.012  86.584 134.363  1.00  0.00    -0.379 OA
BRANCH   4   5
HETATM    5  C4  UNL     1      -5.163  87.301 134.022  1.00  0.00     0.173 C 
BRANCH   5   6
HETATM    6  C5  UNL     1      -5.126  88.670 134.689  1.00  0.00     0.067 C 
BRANCH   6   7
HETATM    7  C6  UNL     1      -3.952  89.380 134.125  1.00  0.00    -0.024 A 
HETATM    8  C7  UNL     1      -2.810  89.660 134.844  1.00  0.00     0.114 A 
HETATM    9  N1  UNL     1      -1.754  90.317 134.277  1.00  0.00    -0.201 N 
HETATM   10  C8  UNL     1      -1.828  90.700 132.991  1.00  0.00     0.677 A 
ATOM     11  H1  UNL     1      -0.916  90.514 134.825  1.00  0.00     0.183 HD
HETATM   12  N3  UNL     1      -2.922  90.444 132.268  1.00  0.00    -0.201 N 
HETATM   13  C16 UNL     1      -3.968  89.800 132.806  1.00  0.00     0.114 A 
ATOM     14  H3  UNL     1      -2.962  90.743 131.293  1.00  0.00     0.183 HD
BRANCH  10  15
HETATM   15  N2  UNL     1      -0.821  91.316 132.485  1.00  0.00    -0.222 N 
ATOM     16  H2  UNL     1      -0.053  91.629 133.079  1.00  0.00     0.178 HD
BRANCH  15  17
HETATM   17  C9  UNL     1      -0.792  91.559 131.064  1.00  0.00     0.176 C 
BRANCH  17  18
HETATM   18  C10 UNL     1      -0.292  90.395 130.306  1.00  0.00    -0.037 A 
HETATM   19  C11 UNL     1      -0.883  90.006 129.123  1.00  0.00     0.009 A 
HETATM   20  C12 UNL     1      -0.421  88.911 128.398  1.00  0.00     0.003 A 
HETATM   21  C13 UNL     1       0.642  88.192 128.854  1.00  0.00     0.036 A 
HETATM   22  C14 UNL     1       1.255  88.555 130.034  1.00  0.00     0.066 A 
HETATM   23  C15 UNL     1       0.784  89.657 130.756  1.00  0.00     0.045 A 
BRANCH  22  24
HETATM   24  O2  UNL     1       2.339  87.877 130.565  1.00  0.00    -0.361 OA
ATOM     25  H2  UNL     1       3.241  88.120 130.391  1.00  0.00     0.217 HD
ENDBRANCH  22  24
ENDBRANCH  17  18
ENDBRANCH  15  17
ENDBRANCH  10  15
ENDBRANCH   6   7
ENDBRANCH   5   6
ENDBRANCH   4   5
ENDBRANCH   3   4
TORSDOF 8
ENDMDL
