MODEL 1
REMARK VINA RESULT: -7.829827957      0.000      0.000
REMARK  9 active torsions:
REMARK  status: ('A' for Active; 'I' for Inactive)
REMARK       I    between atoms: C1_2  and  N1_3 
REMARK       I    between atoms: C1_2  and  N2_13 
REMARK    1  A    between atoms: N1_3  and  C2_5 
REMARK    2  A    between atoms: C12_16  and  N3_17 
REMARK    3  A    between atoms: N3_17  and  C13_18 
REMARK    4  A    between atoms: N3_17  and  C21_26 
REMARK    5  A    between atoms: C13_18  and  C14_19 
REMARK    6  A    between atoms: C14_19  and  C15_20 
REMARK    7  A    between atoms: C15_20  and  C16_21 
REMARK    8  A    between atoms: C21_26  and  O2_27 
REMARK    9  A    between atoms: C21_26  and  C22_29 
ROOT
HETATM    1  O1  UNL     1      13.422  28.165  -2.510  1.00  0.00    -0.247 OA
HETATM    2  C1  UNL     1      13.510  26.926  -2.628  1.00  0.00     0.318 C 
HETATM    3  N1  UNL     1      12.337  26.154  -2.577  1.00  0.00    -0.338 N 
ATOM      4  H1  UNL     1      12.431  25.144  -2.674  1.00  0.00     0.164 HD
HETATM    5  N2  UNL     1      14.778  26.329  -2.807  1.00  0.00    -0.334 N 
HETATM    6  C10 UNL     1      15.920  27.170  -2.846  1.00  0.00     0.129 C 
HETATM    7  C11 UNL     1      17.259  26.564  -2.709  1.00  0.00     0.045 C 
HETATM    8  C12 UNL     1      17.226  25.044  -2.721  1.00  0.00     0.089 C 
HETATM    9  C25 UNL     1      16.177  24.576  -3.654  1.00  0.00     0.045 C 
HETATM   10  C26 UNL     1      14.844  24.898  -2.943  1.00  0.00     0.129 C 
ENDROOT
BRANCH   8  11
HETATM   11  N3  UNL     1      18.552  24.444  -2.855  1.00  0.00    -0.360 N 
BRANCH  11  12
HETATM   12  C13 UNL     1      18.909  23.461  -1.879  1.00  0.00     0.125 C 
BRANCH  12  13
HETATM   13  C14 UNL     1      18.072  22.258  -1.679  1.00  0.00     0.020 C 
BRANCH  13  14
HETATM   14  C15 UNL     1      17.098  22.340  -0.547  1.00  0.00     0.006 C 
BRANCH  14  15
HETATM   15  C16 UNL     1      17.439  21.390   0.583  1.00  0.00    -0.014 C 
HETATM   16  C17 UNL     1      18.701  21.757   1.293  1.00  0.00     0.004 C 
HETATM   17  C18 UNL     1      18.322  23.052   1.977  1.00  0.00     0.000 C 
HETATM   18  C19 UNL     1      16.852  22.938   2.261  1.00  0.00     0.000 C 
HETATM   19  C20 UNL     1      16.394  21.616   1.658  1.00  0.00     0.004 C 
ENDBRANCH  14  15
ENDBRANCH  13  14
ENDBRANCH  12  13
ENDBRANCH  11  12
BRANCH  11  20
HETATM   20  C21 UNL     1      19.372  24.957  -3.886  1.00  0.00     0.118 C 
BRANCH  20  21
HETATM   21  O2  UNL     1      19.175  24.441  -5.067  1.00  0.00    -0.349 OA
ATOM     22  H2  UNL     1      19.133  23.493  -5.096  1.00  0.00     0.219 HD
ENDBRANCH  20  21
BRANCH  20  23
HETATM   23  C22 UNL     1      20.413  25.974  -3.885  1.00  0.00     0.060 A 
HETATM   24  C23 UNL     1      20.889  26.853  -2.846  1.00  0.00     0.013 A 
HETATM   25  C24 UNL     1      21.621  25.570  -3.022  1.00  0.00     0.013 A 
ENDBRANCH  20  23
ENDBRANCH  11  20
ENDBRANCH   8  11
BRANCH   3  26
HETATM   26  C2  UNL     1      11.009  26.687  -2.399  1.00  0.00     0.090 C 
HETATM   27  C3  UNL     1      10.295  26.104  -1.202  1.00  0.00     0.030 C 
HETATM   28  C4  UNL     1       8.978  25.541  -1.705  1.00  0.00    -0.013 C 
HETATM   29  C5  UNL     1       8.164  26.671  -2.267  1.00  0.00     0.005 C 
HETATM   30  C9  UNL     1       9.315  24.489  -2.737  1.00  0.00     0.005 C 
HETATM   31  C6  UNL     1       8.905  27.439  -3.344  1.00  0.00     0.007 C 
HETATM   32  C7  UNL     1      10.170  26.645  -3.651  1.00  0.00     0.008 C 
HETATM   33  C8  UNL     1       9.720  25.250  -4.002  1.00  0.00     0.007 C 
ENDBRANCH   3  26
TORSDOF 9
ENDMDL
MODEL 2
REMARK VINA RESULT: -7.642318419      4.184      6.178
REMARK  9 active torsions:
REMARK  status: ('A' for Active; 'I' for Inactive)
REMARK       I    between atoms: C1_2  and  N1_3 
REMARK       I    between atoms: C1_2  and  N2_13 
REMARK    1  A    between atoms: N1_3  and  C2_5 
REMARK    2  A    between atoms: C12_16  and  N3_17 
REMARK    3  A    between atoms: N3_17  and  C13_18 
REMARK    4  A    between atoms: N3_17  and  C21_26 
REMARK    5  A    between atoms: C13_18  and  C14_19 
REMARK    6  A    between atoms: C14_19  and  C15_20 
REMARK    7  A    between atoms: C15_20  and  C16_21 
REMARK    8  A    between atoms: C21_26  and  O2_27 
REMARK    9  A    between atoms: C21_26  and  C22_29 
ROOT
HETATM    1  O1  UNL     1      14.624  30.951  -2.737  1.00  0.00    -0.247 OA
HETATM    2  C1  UNL     1      15.640  30.598  -3.370  1.00  0.00     0.318 C 
HETATM    3  N1  UNL     1      16.257  31.520  -4.232  1.00  0.00    -0.338 N 
ATOM      4  H1  UNL     1      17.085  31.211  -4.740  1.00  0.00     0.164 HD
HETATM    5  N2  UNL     1      16.143  29.287  -3.210  1.00  0.00    -0.334 N 
HETATM    6  C10 UNL     1      15.467  28.409  -2.324  1.00  0.00     0.129 C 
HETATM    7  C11 UNL     1      15.770  26.965  -2.380  1.00  0.00     0.045 C 
HETATM    8  C12 UNL     1      16.938  26.640  -3.297  1.00  0.00     0.089 C 
HETATM    9  C25 UNL     1      17.952  27.714  -3.213  1.00  0.00     0.045 C 
HETATM   10  C26 UNL     1      17.318  28.914  -3.951  1.00  0.00     0.129 C 
ENDROOT
BRANCH   8  11
HETATM   11  N3  UNL     1      17.412  25.264  -3.152  1.00  0.00    -0.360 N 
BRANCH  11  12
HETATM   12  C13 UNL     1      16.873  24.516  -2.059  1.00  0.00     0.125 C 
BRANCH  12  13
HETATM   13  C14 UNL     1      16.550  23.080  -2.213  1.00  0.00     0.020 C 
BRANCH  13  14
HETATM   14  C15 UNL     1      17.349  22.152  -1.354  1.00  0.00     0.006 C 
BRANCH  14  15
HETATM   15  C16 UNL     1      18.060  22.872  -0.226  1.00  0.00    -0.014 C 
HETATM   16  C17 UNL     1      17.296  22.844   1.057  1.00  0.00     0.004 C 
HETATM   17  C18 UNL     1      17.354  21.379   1.434  1.00  0.00     0.000 C 
HETATM   18  C19 UNL     1      18.652  20.874   0.875  1.00  0.00     0.000 C 
HETATM   19  C20 UNL     1      19.278  22.034   0.112  1.00  0.00     0.004 C 
ENDBRANCH  14  15
ENDBRANCH  13  14
ENDBRANCH  12  13
ENDBRANCH  11  12
BRANCH  11  20
HETATM   20  C21 UNL     1      18.413  24.847  -4.059  1.00  0.00     0.118 C 
BRANCH  20  21
HETATM   21  O2  UNL     1      17.978  24.328  -5.172  1.00  0.00    -0.349 OA
ATOM     22  H2  UNL     1      17.423  23.563  -5.078  1.00  0.00     0.219 HD
ENDBRANCH  20  21
BRANCH  20  23
HETATM   23  C22 UNL     1      19.867  24.887  -3.989  1.00  0.00     0.060 A 
HETATM   24  C23 UNL     1      20.761  25.446  -3.005  1.00  0.00     0.013 A 
HETATM   25  C24 UNL     1      20.421  24.005  -2.857  1.00  0.00     0.013 A 
ENDBRANCH  20  23
ENDBRANCH  11  20
ENDBRANCH   8  11
BRANCH   3  26
HETATM   26  C2  UNL     1      15.806  32.871  -4.449  1.00  0.00     0.090 C 
HETATM   27  C3  UNL     1      15.915  33.306  -5.892  1.00  0.00     0.030 C 
HETATM   28  C4  UNL     1      16.736  34.583  -5.908  1.00  0.00    -0.013 C 
HETATM   29  C5  UNL     1      15.996  35.631  -5.129  1.00  0.00     0.005 C 
HETATM   30  C9  UNL     1      18.083  34.247  -5.309  1.00  0.00     0.005 C 
HETATM   31  C6  UNL     1      15.667  35.181  -3.719  1.00  0.00     0.007 C 
HETATM   32  C7  UNL     1      16.413  33.871  -3.497  1.00  0.00     0.008 C 
HETATM   33  C8  UNL     1      17.864  34.151  -3.797  1.00  0.00     0.007 C 
ENDBRANCH   3  26
TORSDOF 9
ENDMDL
MODEL 3
REMARK VINA RESULT: -7.628923819      4.208      9.373
REMARK  9 active torsions:
REMARK  status: ('A' for Active; 'I' for Inactive)
REMARK       I    between atoms: C1_2  and  N1_3 
REMARK       I    between atoms: C1_2  and  N2_13 
REMARK    1  A    between atoms: N1_3  and  C2_5 
REMARK    2  A    between atoms: C12_16  and  N3_17 
REMARK    3  A    between atoms: N3_17  and  C13_18 
REMARK    4  A    between atoms: N3_17  and  C21_26 
REMARK    5  A    between atoms: C13_18  and  C14_19 
REMARK    6  A    between atoms: C14_19  and  C15_20 
REMARK    7  A    between atoms: C15_20  and  C16_21 
REMARK    8  A    between atoms: C21_26  and  O2_27 
REMARK    9  A    between atoms: C21_26  and  C22_29 
ROOT
HETATM    1  O1  UNL     1      21.198  30.565  -4.593  1.00  0.00    -0.247 OA
HETATM    2  C1  UNL     1      21.536  29.415  -4.943  1.00  0.00     0.318 C 
HETATM    3  N1  UNL     1      22.602  29.267  -5.845  1.00  0.00    -0.338 N 
ATOM      4  H1  UNL     1      22.861  28.320  -6.119  1.00  0.00     0.164 HD
HETATM    5  N2  UNL     1      20.842  28.296  -4.430  1.00  0.00    -0.334 N 
HETATM    6  C10 UNL     1      19.773  28.522  -3.524  1.00  0.00     0.129 C 
HETATM    7  C11 UNL     1      18.841  27.415  -3.230  1.00  0.00     0.045 C 
HETATM    8  C12 UNL     1      19.284  26.091  -3.831  1.00  0.00     0.089 C 
HETATM    9  C25 UNL     1      20.759  25.990  -3.781  1.00  0.00     0.045 C 
HETATM   10  C26 UNL     1      21.260  26.986  -4.851  1.00  0.00     0.129 C 
ENDROOT
BRANCH   8  11
HETATM   11  N3  UNL     1      18.521  24.951  -3.326  1.00  0.00    -0.360 N 
BRANCH  11  12
HETATM   12  C13 UNL     1      19.221  24.046  -2.467  1.00  0.00     0.125 C 
BRANCH  12  13
HETATM   13  C14 UNL     1      18.867  22.610  -2.435  1.00  0.00     0.020 C 
BRANCH  13  14
HETATM   14  C15 UNL     1      17.956  22.203  -1.320  1.00  0.00     0.006 C 
BRANCH  14  15
HETATM   15  C16 UNL     1      18.328  22.850  -0.001  1.00  0.00    -0.014 C 
HETATM   16  C17 UNL     1      17.215  22.827   0.994  1.00  0.00     0.004 C 
HETATM   17  C18 UNL     1      17.093  21.352   1.307  1.00  0.00     0.000 C 
HETATM   18  C19 UNL     1      18.475  20.793   1.138  1.00  0.00     0.000 C 
HETATM   19  C20 UNL     1      19.351  21.938   0.646  1.00  0.00     0.004 C 
ENDBRANCH  14  15
ENDBRANCH  13  14
ENDBRANCH  12  13
ENDBRANCH  11  12
BRANCH  11  20
HETATM   20  C21 UNL     1      17.198  24.820  -3.804  1.00  0.00     0.118 C 
BRANCH  20  21
HETATM   21  O2  UNL     1      17.075  24.743  -5.099  1.00  0.00    -0.349 OA
ATOM     22  H2  UNL     1      17.397  25.492  -5.585  1.00  0.00     0.219 HD
ENDBRANCH  20  21
BRANCH  20  23
HETATM   23  C22 UNL     1      15.918  24.749  -3.114  1.00  0.00     0.060 A 
HETATM   24  C23 UNL     1      15.547  25.051  -1.753  1.00  0.00     0.013 A 
HETATM   25  C24 UNL     1      15.373  26.141  -2.751  1.00  0.00     0.013 A 
ENDBRANCH  20  23
ENDBRANCH  11  20
ENDBRANCH   8  11
BRANCH   3  26
HETATM   26  C2  UNL     1      23.358  30.356  -6.411  1.00  0.00     0.090 C 
HETATM   27  C3  UNL     1      22.994  30.644  -7.849  1.00  0.00     0.030 C 
HETATM   28  C4  UNL     1      24.281  30.581  -8.652  1.00  0.00    -0.013 C 
HETATM   29  C5  UNL     1      25.204  31.653  -8.150  1.00  0.00     0.005 C 
HETATM   30  C9  UNL     1      24.843  29.189  -8.472  1.00  0.00     0.005 C 
HETATM   31  C6  UNL     1      25.456  31.550  -6.658  1.00  0.00     0.007 C 
HETATM   32  C7  UNL     1      24.847  30.228  -6.206  1.00  0.00     0.008 C 
HETATM   33  C8  UNL     1      25.462  29.158  -7.072  1.00  0.00     0.007 C 
ENDBRANCH   3  26
TORSDOF 9
ENDMDL
MODEL 4
REMARK VINA RESULT: -7.563898043      2.894      3.634
REMARK  9 active torsions:
REMARK  status: ('A' for Active; 'I' for Inactive)
REMARK       I    between atoms: C1_2  and  N1_3 
REMARK       I    between atoms: C1_2  and  N2_13 
REMARK    1  A    between atoms: N1_3  and  C2_5 
REMARK    2  A    between atoms: C12_16  and  N3_17 
REMARK    3  A    between atoms: N3_17  and  C13_18 
REMARK    4  A    between atoms: N3_17  and  C21_26 
REMARK    5  A    between atoms: C13_18  and  C14_19 
REMARK    6  A    between atoms: C14_19  and  C15_20 
REMARK    7  A    between atoms: C15_20  and  C16_21 
REMARK    8  A    between atoms: C21_26  and  O2_27 
REMARK    9  A    between atoms: C21_26  and  C22_29 
ROOT
HETATM    1  O1  UNL     1      12.099  24.666  -4.417  1.00  0.00    -0.247 OA
HETATM    2  C1  UNL     1      13.052  25.024  -5.138  1.00  0.00     0.318 C 
HETATM    3  N1  UNL     1      12.792  25.409  -6.464  1.00  0.00    -0.338 N 
ATOM      4  H1  UNL     1      13.584  25.697  -7.037  1.00  0.00     0.164 HD
HETATM    5  N2  UNL     1      14.364  25.033  -4.612  1.00  0.00    -0.334 N 
HETATM    6  C10 UNL     1      14.552  24.630  -3.264  1.00  0.00     0.129 C 
HETATM    7  C11 UNL     1      15.918  24.325  -2.795  1.00  0.00     0.045 C 
HETATM    8  C12 UNL     1      16.988  24.670  -3.818  1.00  0.00     0.089 C 
HETATM    9  C25 UNL     1      16.599  25.896  -4.551  1.00  0.00     0.045 C 
HETATM   10  C26 UNL     1      15.438  25.455  -5.470  1.00  0.00     0.129 C 
ENDROOT
BRANCH   8  11
HETATM   11  N3  UNL     1      18.341  24.625  -3.268  1.00  0.00    -0.360 N 
BRANCH  11  12
HETATM   12  C13 UNL     1      18.456  24.263  -1.888  1.00  0.00     0.125 C 
BRANCH  12  13
HETATM   13  C14 UNL     1      19.078  22.980  -1.493  1.00  0.00     0.020 C 
BRANCH  13  14
HETATM   14  C15 UNL     1      18.164  22.013  -0.810  1.00  0.00     0.006 C 
BRANCH  14  15
HETATM   15  C16 UNL     1      18.662  21.615   0.564  1.00  0.00    -0.014 C 
HETATM   16  C17 UNL     1      18.620  22.737   1.548  1.00  0.00     0.004 C 
HETATM   17  C18 UNL     1      17.133  22.956   1.723  1.00  0.00     0.000 C 
HETATM   18  C19 UNL     1      16.504  21.611   1.509  1.00  0.00     0.000 C 
HETATM   19  C20 UNL     1      17.630  20.658   1.129  1.00  0.00     0.004 C 
ENDBRANCH  14  15
ENDBRANCH  13  14
ENDBRANCH  12  13
ENDBRANCH  11  12
BRANCH  11  20
HETATM   20  C21 UNL     1      19.385  25.020  -4.134  1.00  0.00     0.118 C 
BRANCH  20  21
HETATM   21  O2  UNL     1      19.490  24.333  -5.235  1.00  0.00    -0.349 OA
ATOM     22  H2  UNL     1      19.509  24.843  -6.036  1.00  0.00     0.219 HD
ENDBRANCH  20  21
BRANCH  20  23
HETATM   23  C22 UNL     1      20.386  26.074  -4.032  1.00  0.00     0.060 A 
HETATM   24  C23 UNL     1      20.724  26.970  -2.955  1.00  0.00     0.013 A 
HETATM   25  C24 UNL     1      21.514  25.713  -3.051  1.00  0.00     0.013 A 
ENDBRANCH  20  23
ENDBRANCH  11  20
ENDBRANCH   8  11
BRANCH   3  26
HETATM   26  C2  UNL     1      11.485  25.427  -7.074  1.00  0.00     0.090 C 
HETATM   27  C3  UNL     1      11.093  24.096  -7.670  1.00  0.00     0.030 C 
HETATM   28  C4  UNL     1      10.734  24.352  -9.123  1.00  0.00    -0.013 C 
HETATM   29  C5  UNL     1       9.556  25.280  -9.163  1.00  0.00     0.005 C 
HETATM   30  C9  UNL     1      11.964  24.934  -9.783  1.00  0.00     0.005 C 
HETATM   31  C6  UNL     1       9.805  26.568  -8.401  1.00  0.00     0.007 C 
HETATM   32  C7  UNL     1      11.284  26.573  -8.033  1.00  0.00     0.008 C 
HETATM   33  C8  UNL     1      12.044  26.391  -9.323  1.00  0.00     0.007 C 
ENDBRANCH   3  26
TORSDOF 9
ENDMDL
MODEL 5
REMARK VINA RESULT: -7.495183655      4.057      6.053
REMARK  9 active torsions:
REMARK  status: ('A' for Active; 'I' for Inactive)
REMARK       I    between atoms: C1_2  and  N1_3 
REMARK       I    between atoms: C1_2  and  N2_13 
REMARK    1  A    between atoms: N1_3  and  C2_5 
REMARK    2  A    between atoms: C12_16  and  N3_17 
REMARK    3  A    between atoms: N3_17  and  C13_18 
REMARK    4  A    between atoms: N3_17  and  C21_26 
REMARK    5  A    between atoms: C13_18  and  C14_19 
REMARK    6  A    between atoms: C14_19  and  C15_20 
REMARK    7  A    between atoms: C15_20  and  C16_21 
REMARK    8  A    between atoms: C21_26  and  O2_27 
REMARK    9  A    between atoms: C21_26  and  C22_29 
ROOT
HETATM    1  O1  UNL     1      14.719  30.652  -2.780  1.00  0.00    -0.247 OA
HETATM    2  C1  UNL     1      15.844  30.389  -3.252  1.00  0.00     0.318 C 
HETATM    3  N1  UNL     1      16.586  31.420  -3.851  1.00  0.00    -0.338 N 
ATOM      4  H1  UNL     1      17.502  31.183  -4.232  1.00  0.00     0.164 HD
HETATM    5  N2  UNL     1      16.343  29.068  -3.177  1.00  0.00    -0.334 N 
HETATM    6  C10 UNL     1      15.536  28.077  -2.559  1.00  0.00     0.129 C 
HETATM    7  C11 UNL     1      15.882  26.655  -2.750  1.00  0.00     0.045 C 
HETATM    8  C12 UNL     1      17.208  26.458  -3.467  1.00  0.00     0.089 C 
HETATM    9  C25 UNL     1      18.160  27.511  -3.051  1.00  0.00     0.045 C 
HETATM   10  C26 UNL     1      17.644  28.800  -3.728  1.00  0.00     0.129 C 
ENDROOT
BRANCH   8  11
HETATM   11  N3  UNL     1      17.682  25.076  -3.421  1.00  0.00    -0.360 N 
BRANCH  11  12
HETATM   12  C13 UNL     1      17.193  24.269  -2.346  1.00  0.00     0.125 C 
BRANCH  12  13
HETATM   13  C14 UNL     1      17.754  22.924  -2.096  1.00  0.00     0.020 C 
BRANCH  13  14
HETATM   14  C15 UNL     1      18.602  22.806  -0.868  1.00  0.00     0.006 C 
BRANCH  14  15
HETATM   15  C16 UNL     1      18.221  21.615  -0.013  1.00  0.00    -0.014 C 
HETATM   16  C17 UNL     1      18.895  21.615   1.320  1.00  0.00     0.004 C 
HETATM   17  C18 UNL     1      18.255  22.804   2.004  1.00  0.00     0.000 C 
HETATM   18  C19 UNL     1      16.871  22.896   1.432  1.00  0.00     0.000 C 
HETATM   19  C20 UNL     1      16.767  21.812   0.367  1.00  0.00     0.004 C 
ENDBRANCH  14  15
ENDBRANCH  13  14
ENDBRANCH  12  13
ENDBRANCH  11  12
BRANCH  11  20
HETATM   20  C21 UNL     1      18.636  24.707  -4.397  1.00  0.00     0.118 C 
BRANCH  20  21
HETATM   21  O2  UNL     1      18.146  24.251  -5.514  1.00  0.00    -0.349 OA
ATOM     22  H2  UNL     1      18.785  24.040  -6.184  1.00  0.00     0.219 HD
ENDBRANCH  20  21
BRANCH  20  23
HETATM   23  C22 UNL     1      20.092  24.742  -4.395  1.00  0.00     0.060 A 
HETATM   24  C23 UNL     1      21.022  25.827  -4.200  1.00  0.00     0.013 A 
HETATM   25  C24 UNL     1      20.666  25.027  -2.997  1.00  0.00     0.013 A 
ENDBRANCH  20  23
ENDBRANCH  11  20
ENDBRANCH   8  11
BRANCH   3  26
HETATM   26  C2  UNL     1      16.148  32.788  -3.967  1.00  0.00     0.090 C 
HETATM   27  C3  UNL     1      15.525  33.098  -5.308  1.00  0.00     0.030 C 
HETATM   28  C4  UNL     1      16.279  34.284  -5.882  1.00  0.00    -0.013 C 
HETATM   29  C5  UNL     1      16.089  35.456  -4.964  1.00  0.00     0.005 C 
HETATM   30  C9  UNL     1      17.726  33.865  -6.008  1.00  0.00     0.005 C 
HETATM   31  C6  UNL     1      16.506  35.149  -3.539  1.00  0.00     0.007 C 
HETATM   32  C7  UNL     1      17.201  33.793  -3.573  1.00  0.00     0.008 C 
HETATM   33  C8  UNL     1      18.306  33.907  -4.592  1.00  0.00     0.007 C 
ENDBRANCH   3  26
TORSDOF 9
ENDMDL
