MODEL 1
REMARK VINA RESULT: -5.986853835      0.000      0.000
REMARK  16 active torsions:
REMARK  status: ('A' for Active; 'I' for Inactive)
REMARK    1  A    between atoms: N1_2  and  C4_5 
REMARK    2  A    between atoms: C5_6  and  C6_7 
REMARK       I    between atoms: C6_7  and  N2_9 
REMARK    3  A    between atoms: N2_9  and  C7_11 
REMARK    4  A    between atoms: C7_11  and  O2_12 
REMARK    5  A    between atoms: C7_11  and  C8_14 
REMARK    6  A    between atoms: C8_14  and  O3_15 
REMARK    7  A    between atoms: C8_14  and  C9_17 
REMARK    8  A    between atoms: C9_17  and  O4_18 
REMARK    9  A    between atoms: C9_17  and  C10_20 
REMARK   10  A    between atoms: C10_20  and  O5_21 
REMARK   11  A    between atoms: C12_24  and  N3_25 
REMARK   12  A    between atoms: C15_29  and  C16_30 
REMARK   13  A    between atoms: C16_30  and  C17_31 
REMARK   14  A    between atoms: C17_31  and  O7_32 
REMARK   15  A    between atoms: C18_34  and  O8_35 
REMARK   16  A    between atoms: C19_37  and  O9_38 
ROOT
HETATM    1  C4  UNL     1      21.867  23.073  45.052  1.00  0.00     0.233 C 
HETATM    2  C5  UNL     1      21.431  22.362  43.835  1.00  0.00     0.113 C 
HETATM    3  C11 UNL     1      19.898  22.354  43.848  1.00  0.00     0.044 C 
HETATM    4  C12 UNL     1      19.342  21.796  45.115  1.00  0.00     0.119 C 
HETATM    5  C18 UNL     1      20.011  22.227  46.358  1.00  0.00     0.171 C 
HETATM    6  C19 UNL     1      21.518  22.306  46.271  1.00  0.00     0.180 C 
ENDROOT
BRANCH   2   7
HETATM    7  C6  UNL     1      21.968  21.023  43.581  1.00  0.00     0.226 C 
HETATM    8  O1  UNL     1      23.014  20.844  42.940  1.00  0.00    -0.273 OA
HETATM    9  N2  UNL     1      21.310  19.831  44.062  1.00  0.00    -0.332 N 
ATOM     10  H2  UNL     1      20.446  19.926  44.596  1.00  0.00     0.165 HD
BRANCH   9  11
HETATM   11  C7  UNL     1      21.828  18.526  43.817  1.00  0.00     0.251 C 
BRANCH  11  12
HETATM   12  O2  UNL     1      23.170  18.405  44.087  1.00  0.00    -0.374 OA
ATOM     13  H2  UNL     1      23.476  18.989  44.771  1.00  0.00     0.212 HD
ENDBRANCH  11  12
BRANCH  11  14
HETATM   14  C8  UNL     1      21.082  17.401  44.496  1.00  0.00     0.197 C 
BRANCH  14  15
HETATM   15  O3  UNL     1      19.832  17.329  43.820  1.00  0.00    -0.389 OA
ATOM     16  H3  UNL     1      19.824  16.472  43.410  1.00  0.00     0.210 HD
ENDBRANCH  14  15
BRANCH  14  17
HETATM   17  C9  UNL     1      21.704  16.056  44.335  1.00  0.00     0.174 C 
BRANCH  17  18
HETATM   18  O4  UNL     1      22.655  15.853  45.328  1.00  0.00    -0.391 OA
ATOM     19  H4  UNL     1      23.526  15.875  44.950  1.00  0.00     0.210 HD
ENDBRANCH  17  18
BRANCH  17  20
HETATM   20  C10 UNL     1      20.610  15.022  44.568  1.00  0.00     0.198 C 
BRANCH  20  21
HETATM   21  O5  UNL     1      20.269  15.040  45.930  1.00  0.00    -0.398 OA
ATOM     22  H5  UNL     1      19.324  15.093  46.000  1.00  0.00     0.209 HD
ENDBRANCH  20  21
ENDBRANCH  17  20
ENDBRANCH  14  17
ENDBRANCH  11  14
ENDBRANCH   9  11
ENDBRANCH   2   7
BRANCH   1  23
HETATM   23  N1  UNL     1      23.170  23.656  45.008  1.00  0.00    -0.071 N 
HETATM   24  C1  UNL     1      23.453  24.078  43.642  1.00  0.00     0.272 C 
HETATM   25  C2  UNL     1      23.118  24.909  45.784  1.00  0.00     0.272 C 
HETATM   26  C3  UNL     1      24.241  22.898  45.561  1.00  0.00     0.272 C 
ENDBRANCH   1  23
BRANCH   6  27
HETATM   27  O9  UNL     1      21.945  23.008  47.416  1.00  0.00    -0.391 OA
ATOM     28  H9  UNL     1      21.753  22.501  48.195  1.00  0.00     0.210 HD
ENDBRANCH   6  27
BRANCH   4  29
HETATM   29  N3  UNL     1      17.939  22.188  45.189  1.00  0.00    -0.340 N 
HETATM   30  C13 UNL     1      17.229  23.410  45.291  1.00  0.00     0.222 C 
HETATM   31  O6  UNL     1      17.416  24.585  44.919  1.00  0.00    -0.273 OA
HETATM   32  C14 UNL     1      16.170  22.693  46.031  1.00  0.00     0.128 C 
HETATM   33  C15 UNL     1      16.645  21.514  45.193  1.00  0.00     0.098 C 
BRANCH  33  34
HETATM   34  C16 UNL     1      16.625  20.192  45.886  1.00  0.00     0.051 C 
BRANCH  34  35
HETATM   35  C17 UNL     1      16.323  19.126  44.860  1.00  0.00     0.166 C 
BRANCH  35  36
HETATM   36  O7  UNL     1      17.467  18.398  44.593  1.00  0.00    -0.401 OA
ATOM     37  H7  UNL     1      17.845  18.684  43.770  1.00  0.00     0.209 HD
ENDBRANCH  35  36
ENDBRANCH  34  35
ENDBRANCH  33  34
ENDBRANCH   4  29
BRANCH   5  38
HETATM   38  O8  UNL     1      19.567  23.450  46.861  1.00  0.00    -0.391 OA
ATOM     39  H8  UNL     1      19.937  23.688  47.702  1.00  0.00     0.210 HD
ENDBRANCH   5  38
TORSDOF 16
ENDMDL
MODEL 2
REMARK VINA RESULT: -5.898311356      0.973      1.255
REMARK  16 active torsions:
REMARK  status: ('A' for Active; 'I' for Inactive)
REMARK    1  A    between atoms: N1_2  and  C4_5 
REMARK    2  A    between atoms: C5_6  and  C6_7 
REMARK       I    between atoms: C6_7  and  N2_9 
REMARK    3  A    between atoms: N2_9  and  C7_11 
REMARK    4  A    between atoms: C7_11  and  O2_12 
REMARK    5  A    between atoms: C7_11  and  C8_14 
REMARK    6  A    between atoms: C8_14  and  O3_15 
REMARK    7  A    between atoms: C8_14  and  C9_17 
REMARK    8  A    between atoms: C9_17  and  O4_18 
REMARK    9  A    between atoms: C9_17  and  C10_20 
REMARK   10  A    between atoms: C10_20  and  O5_21 
REMARK   11  A    between atoms: C12_24  and  N3_25 
REMARK   12  A    between atoms: C15_29  and  C16_30 
REMARK   13  A    between atoms: C16_30  and  C17_31 
REMARK   14  A    between atoms: C17_31  and  O7_32 
REMARK   15  A    between atoms: C18_34  and  O8_35 
REMARK   16  A    between atoms: C19_37  and  O9_38 
ROOT
HETATM    1  C4  UNL     1      22.136  23.302  44.928  1.00  0.00     0.233 C 
HETATM    2  C5  UNL     1      21.797  22.486  43.745  1.00  0.00     0.113 C 
HETATM    3  C11 UNL     1      20.268  22.386  43.695  1.00  0.00     0.044 C 
HETATM    4  C12 UNL     1      19.687  21.882  44.972  1.00  0.00     0.119 C 
HETATM    5  C18 UNL     1      20.272  22.434  46.210  1.00  0.00     0.171 C 
HETATM    6  C19 UNL     1      21.775  22.598  46.181  1.00  0.00     0.180 C 
ENDROOT
BRANCH   2   7
HETATM    7  C6  UNL     1      22.422  21.168  43.608  1.00  0.00     0.226 C 
HETATM    8  O1  UNL     1      23.297  20.939  42.761  1.00  0.00    -0.273 OA
HETATM    9  N2  UNL     1      22.052  20.055  44.451  1.00  0.00    -0.332 N 
ATOM     10  H2  UNL     1      21.335  20.193  45.164  1.00  0.00     0.165 HD
BRANCH   9  11
HETATM   11  C7  UNL     1      22.654  18.770  44.321  1.00  0.00     0.251 C 
BRANCH  11  12
HETATM   12  O2  UNL     1      23.045  18.220  45.518  1.00  0.00    -0.374 OA
ATOM     13  H2  UNL     1      23.244  17.293  45.466  1.00  0.00     0.212 HD
ENDBRANCH  11  12
BRANCH  11  14
HETATM   14  C8  UNL     1      21.843  17.755  43.551  1.00  0.00     0.197 C 
BRANCH  14  15
HETATM   15  O3  UNL     1      22.738  16.675  43.310  1.00  0.00    -0.389 OA
ATOM     16  H3  UNL     1      22.223  16.029  42.842  1.00  0.00     0.210 HD
ENDBRANCH  14  15
BRANCH  14  17
HETATM   17  C9  UNL     1      20.700  17.168  44.307  1.00  0.00     0.174 C 
BRANCH  17  18
HETATM   18  O4  UNL     1      19.717  18.131  44.500  1.00  0.00    -0.391 OA
ATOM     19  H4  UNL     1      19.011  17.771  45.025  1.00  0.00     0.210 HD
ENDBRANCH  17  18
BRANCH  17  20
HETATM   20  C10 UNL     1      20.082  16.090  43.426  1.00  0.00     0.198 C 
BRANCH  20  21
HETATM   21  O5  UNL     1      18.704  16.340  43.326  1.00  0.00    -0.398 OA
ATOM     22  H5  UNL     1      18.371  16.528  44.195  1.00  0.00     0.209 HD
ENDBRANCH  20  21
ENDBRANCH  17  20
ENDBRANCH  14  17
ENDBRANCH  11  14
ENDBRANCH   9  11
ENDBRANCH   2   7
BRANCH   1  23
HETATM   23  N1  UNL     1      23.403  23.957  44.899  1.00  0.00    -0.071 N 
HETATM   24  C1  UNL     1      23.715  24.324  43.523  1.00  0.00     0.272 C 
HETATM   25  C2  UNL     1      23.250  25.244  45.603  1.00  0.00     0.272 C 
HETATM   26  C3  UNL     1      24.494  23.293  45.530  1.00  0.00     0.272 C 
ENDBRANCH   1  23
BRANCH   6  27
HETATM   27  O9  UNL     1      22.107  23.399  47.291  1.00  0.00    -0.391 OA
ATOM     28  H9  UNL     1      22.659  22.909  47.889  1.00  0.00     0.210 HD
ENDBRANCH   6  27
BRANCH   4  29
HETATM   29  N3  UNL     1      18.262  22.193  44.960  1.00  0.00    -0.340 N 
HETATM   30  C13 UNL     1      17.480  23.374  44.975  1.00  0.00     0.222 C 
HETATM   31  O6  UNL     1      17.618  24.542  44.564  1.00  0.00    -0.273 OA
HETATM   32  C14 UNL     1      16.426  22.625  45.690  1.00  0.00     0.128 C 
HETATM   33  C15 UNL     1      17.011  21.444  44.928  1.00  0.00     0.098 C 
BRANCH  33  34
HETATM   34  C16 UNL     1      17.029  20.151  45.674  1.00  0.00     0.051 C 
BRANCH  34  35
HETATM   35  C17 UNL     1      16.175  19.160  44.922  1.00  0.00     0.166 C 
BRANCH  35  36
HETATM   36  O7  UNL     1      16.977  18.351  44.139  1.00  0.00    -0.401 OA
ATOM     37  H7  UNL     1      17.444  18.882  43.504  1.00  0.00     0.209 HD
ENDBRANCH  35  36
ENDBRANCH  34  35
ENDBRANCH  33  34
ENDBRANCH   4  29
BRANCH   5  38
HETATM   38  O8  UNL     1      19.737  23.659  46.607  1.00  0.00    -0.391 OA
ATOM     39  H8  UNL     1      18.844  23.811  46.321  1.00  0.00     0.210 HD
ENDBRANCH   5  38
TORSDOF 16
ENDMDL
MODEL 3
REMARK VINA RESULT: -5.807568682      2.400      6.458
REMARK  16 active torsions:
REMARK  status: ('A' for Active; 'I' for Inactive)
REMARK    1  A    between atoms: N1_2  and  C4_5 
REMARK    2  A    between atoms: C5_6  and  C6_7 
REMARK       I    between atoms: C6_7  and  N2_9 
REMARK    3  A    between atoms: N2_9  and  C7_11 
REMARK    4  A    between atoms: C7_11  and  O2_12 
REMARK    5  A    between atoms: C7_11  and  C8_14 
REMARK    6  A    between atoms: C8_14  and  O3_15 
REMARK    7  A    between atoms: C8_14  and  C9_17 
REMARK    8  A    between atoms: C9_17  and  O4_18 
REMARK    9  A    between atoms: C9_17  and  C10_20 
REMARK   10  A    between atoms: C10_20  and  O5_21 
REMARK   11  A    between atoms: C12_24  and  N3_25 
REMARK   12  A    between atoms: C15_29  and  C16_30 
REMARK   13  A    between atoms: C16_30  and  C17_31 
REMARK   14  A    between atoms: C17_31  and  O7_32 
REMARK   15  A    between atoms: C18_34  and  O8_35 
REMARK   16  A    between atoms: C19_37  and  O9_38 
ROOT
HETATM    1  C4  UNL     1      21.606  20.371  46.382  1.00  0.00     0.233 C 
HETATM    2  C5  UNL     1      20.418  20.422  45.506  1.00  0.00     0.113 C 
HETATM    3  C11 UNL     1      20.297  19.048  44.838  1.00  0.00     0.044 C 
HETATM    4  C12 UNL     1      21.552  18.639  44.143  1.00  0.00     0.119 C 
HETATM    5  C18 UNL     1      22.809  18.913  44.867  1.00  0.00     0.171 C 
HETATM    6  C19 UNL     1      22.849  20.243  45.585  1.00  0.00     0.180 C 
ENDROOT
BRANCH   2   7
HETATM    7  C6  UNL     1      20.326  21.503  44.522  1.00  0.00     0.226 C 
HETATM    8  O1  UNL     1      21.202  21.690  43.664  1.00  0.00    -0.273 OA
HETATM    9  N2  UNL     1      19.209  22.418  44.493  1.00  0.00    -0.332 N 
ATOM     10  H2  UNL     1      18.462  22.305  45.178  1.00  0.00     0.165 HD
BRANCH   9  11
HETATM   11  C7  UNL     1      19.114  23.473  43.539  1.00  0.00     0.251 C 
BRANCH  11  12
HETATM   12  O2  UNL     1      18.973  23.034  42.244  1.00  0.00    -0.374 OA
ATOM     13  H2  UNL     1      19.464  22.244  42.053  1.00  0.00     0.212 HD
ENDBRANCH  11  12
BRANCH  11  14
HETATM   14  C8  UNL     1      18.055  24.509  43.830  1.00  0.00     0.197 C 
BRANCH  14  15
HETATM   15  O3  UNL     1      18.065  25.372  42.699  1.00  0.00    -0.389 OA
ATOM     16  H3  UNL     1      17.310  25.111  42.185  1.00  0.00     0.210 HD
ENDBRANCH  14  15
BRANCH  14  17
HETATM   17  C9  UNL     1      16.667  23.974  43.915  1.00  0.00     0.174 C 
BRANCH  17  18
HETATM   18  O4  UNL     1      16.623  22.687  43.390  1.00  0.00    -0.391 OA
ATOM     19  H4  UNL     1      15.839  22.242  43.691  1.00  0.00     0.210 HD
ENDBRANCH  17  18
BRANCH  17  20
HETATM   20  C10 UNL     1      16.320  23.849  45.393  1.00  0.00     0.198 C 
BRANCH  20  21
HETATM   21  O5  UNL     1      16.031  22.502  45.665  1.00  0.00    -0.398 OA
ATOM     22  H5  UNL     1      15.153  22.453  46.024  1.00  0.00     0.209 HD
ENDBRANCH  20  21
ENDBRANCH  17  20
ENDBRANCH  14  17
ENDBRANCH  11  14
ENDBRANCH   9  11
ENDBRANCH   2   7
BRANCH   1  23
HETATM   23  N1  UNL     1      21.628  21.298  47.466  1.00  0.00    -0.071 N 
HETATM   24  C1  UNL     1      22.073  22.596  46.972  1.00  0.00     0.272 C 
HETATM   25  C2  UNL     1      20.232  21.517  47.888  1.00  0.00     0.272 C 
HETATM   26  C3  UNL     1      22.335  20.909  48.641  1.00  0.00     0.272 C 
ENDBRANCH   1  23
BRANCH   6  27
HETATM   27  O9  UNL     1      23.964  20.195  46.445  1.00  0.00    -0.391 OA
ATOM     28  H9  UNL     1      23.674  20.208  47.349  1.00  0.00     0.210 HD
ENDBRANCH   6  27
BRANCH   4  29
HETATM   29  N3  UNL     1      21.469  17.204  43.894  1.00  0.00    -0.340 N 
HETATM   30  C13 UNL     1      21.050  16.068  44.630  1.00  0.00     0.222 C 
HETATM   31  O6  UNL     1      20.213  15.842  45.524  1.00  0.00    -0.273 OA
HETATM   32  C14 UNL     1      22.037  15.263  43.879  1.00  0.00     0.128 C 
HETATM   33  C15 UNL     1      21.773  16.297  42.793  1.00  0.00     0.098 C 
BRANCH  33  34
HETATM   34  C16 UNL     1      22.962  16.675  41.974  1.00  0.00     0.051 C 
BRANCH  34  35
HETATM   35  C17 UNL     1      22.703  16.259  40.546  1.00  0.00     0.166 C 
BRANCH  35  36
HETATM   36  O7  UNL     1      21.583  15.452  40.491  1.00  0.00    -0.401 OA
ATOM     37  H7  UNL     1      20.864  15.927  40.092  1.00  0.00     0.209 HD
ENDBRANCH  35  36
ENDBRANCH  34  35
ENDBRANCH  33  34
ENDBRANCH   4  29
BRANCH   5  38
HETATM   38  O8  UNL     1      23.166  17.937  45.796  1.00  0.00    -0.391 OA
ATOM     39  H8  UNL     1      24.090  17.717  45.802  1.00  0.00     0.210 HD
ENDBRANCH   5  38
TORSDOF 16
ENDMDL
MODEL 4
REMARK VINA RESULT: -5.800021274      1.297      2.125
REMARK  16 active torsions:
REMARK  status: ('A' for Active; 'I' for Inactive)
REMARK    1  A    between atoms: N1_2  and  C4_5 
REMARK    2  A    between atoms: C5_6  and  C6_7 
REMARK       I    between atoms: C6_7  and  N2_9 
REMARK    3  A    between atoms: N2_9  and  C7_11 
REMARK    4  A    between atoms: C7_11  and  O2_12 
REMARK    5  A    between atoms: C7_11  and  C8_14 
REMARK    6  A    between atoms: C8_14  and  O3_15 
REMARK    7  A    between atoms: C8_14  and  C9_17 
REMARK    8  A    between atoms: C9_17  and  O4_18 
REMARK    9  A    between atoms: C9_17  and  C10_20 
REMARK   10  A    between atoms: C10_20  and  O5_21 
REMARK   11  A    between atoms: C12_24  and  N3_25 
REMARK   12  A    between atoms: C15_29  and  C16_30 
REMARK   13  A    between atoms: C16_30  and  C17_31 
REMARK   14  A    between atoms: C17_31  and  O7_32 
REMARK   15  A    between atoms: C18_34  and  O8_35 
REMARK   16  A    between atoms: C19_37  and  O9_38 
ROOT
HETATM    1  C4  UNL     1      21.711  22.657  45.342  1.00  0.00     0.233 C 
HETATM    2  C5  UNL     1      21.166  21.802  44.269  1.00  0.00     0.113 C 
HETATM    3  C11 UNL     1      19.655  21.703  44.501  1.00  0.00     0.044 C 
HETATM    4  C12 UNL     1      19.319  21.243  45.880  1.00  0.00     0.119 C 
HETATM    5  C18 UNL     1      20.116  21.836  46.970  1.00  0.00     0.171 C 
HETATM    6  C19 UNL     1      21.588  21.997  46.662  1.00  0.00     0.180 C 
ENDROOT
BRANCH   2   7
HETATM    7  C6  UNL     1      21.762  20.479  44.064  1.00  0.00     0.226 C 
HETATM    8  O1  UNL     1      22.904  20.335  43.605  1.00  0.00    -0.273 OA
HETATM    9  N2  UNL     1      21.051  19.263  44.385  1.00  0.00    -0.332 N 
ATOM     10  H2  UNL     1      20.108  19.329  44.766  1.00  0.00     0.165 HD
BRANCH   9  11
HETATM   11  C7  UNL     1      21.625  17.973  44.186  1.00  0.00     0.251 C 
BRANCH  11  12
HETATM   12  O2  UNL     1      22.785  17.770  44.896  1.00  0.00    -0.374 OA
ATOM     13  H2  UNL     1      23.094  16.873  44.873  1.00  0.00     0.212 HD
ENDBRANCH  11  12
BRANCH  11  14
HETATM   14  C8  UNL     1      20.690  16.811  44.423  1.00  0.00     0.197 C 
BRANCH  14  15
HETATM   15  O3  UNL     1      20.250  16.424  43.126  1.00  0.00    -0.389 OA
ATOM     16  H3  UNL     1      20.984  16.612  42.552  1.00  0.00     0.210 HD
ENDBRANCH  14  15
BRANCH  14  17
HETATM   17  C9  UNL     1      21.336  15.601  45.006  1.00  0.00     0.174 C 
BRANCH  17  18
HETATM   18  O4  UNL     1      20.487  15.012  45.936  1.00  0.00    -0.391 OA
ATOM     19  H4  UNL     1      20.561  15.460  46.770  1.00  0.00     0.210 HD
ENDBRANCH  17  18
BRANCH  17  20
HETATM   20  C10 UNL     1      21.506  14.592  43.877  1.00  0.00     0.198 C 
BRANCH  20  21
HETATM   21  O5  UNL     1      20.520  13.602  44.019  1.00  0.00    -0.398 OA
ATOM     22  H5  UNL     1      19.699  14.028  44.235  1.00  0.00     0.209 HD
ENDBRANCH  20  21
ENDBRANCH  17  20
ENDBRANCH  14  17
ENDBRANCH  11  14
ENDBRANCH   9  11
ENDBRANCH   2   7
BRANCH   1  23
HETATM   23  N1  UNL     1      22.948  23.309  45.059  1.00  0.00    -0.071 N 
HETATM   24  C1  UNL     1      23.018  23.595  43.631  1.00  0.00     0.272 C 
HETATM   25  C2  UNL     1      22.905  24.635  45.704  1.00  0.00     0.272 C 
HETATM   26  C3  UNL     1      24.137  22.684  45.532  1.00  0.00     0.272 C 
ENDBRANCH   1  23
BRANCH   6  27
HETATM   27  O9  UNL     1      22.113  22.835  47.666  1.00  0.00    -0.391 OA
ATOM     28  H9  UNL     1      22.313  22.324  48.441  1.00  0.00     0.210 HD
ENDBRANCH   6  27
BRANCH   4  29
HETATM   29  N3  UNL     1      17.913  21.555  46.117  1.00  0.00    -0.340 N 
HETATM   30  C13 UNL     1      16.906  21.094  47.001  1.00  0.00     0.222 C 
HETATM   31  O6  UNL     1      16.876  20.629  48.156  1.00  0.00    -0.273 OA
HETATM   32  C14 UNL     1      15.902  21.403  45.960  1.00  0.00     0.128 C 
HETATM   33  C15 UNL     1      16.918  22.465  45.562  1.00  0.00     0.098 C 
BRANCH  33  34
HETATM   34  C16 UNL     1      17.037  22.712  44.095  1.00  0.00     0.051 C 
BRANCH  34  35
HETATM   35  C17 UNL     1      16.706  24.162  43.832  1.00  0.00     0.166 C 
BRANCH  35  36
HETATM   36  O7  UNL     1      16.285  24.315  42.525  1.00  0.00    -0.401 OA
ATOM     37  H7  UNL     1      15.710  25.068  42.459  1.00  0.00     0.209 HD
ENDBRANCH  35  36
ENDBRANCH  34  35
ENDBRANCH  33  34
ENDBRANCH   4  29
BRANCH   5  38
HETATM   38  O8  UNL     1      19.657  23.074  47.417  1.00  0.00    -0.391 OA
ATOM     39  H8  UNL     1      20.209  23.810  47.180  1.00  0.00     0.210 HD
ENDBRANCH   5  38
TORSDOF 16
ENDMDL
MODEL 5
REMARK VINA RESULT: -5.782424395      6.943     10.045
REMARK  16 active torsions:
REMARK  status: ('A' for Active; 'I' for Inactive)
REMARK    1  A    between atoms: N1_2  and  C4_5 
REMARK    2  A    between atoms: C5_6  and  C6_7 
REMARK       I    between atoms: C6_7  and  N2_9 
REMARK    3  A    between atoms: N2_9  and  C7_11 
REMARK    4  A    between atoms: C7_11  and  O2_12 
REMARK    5  A    between atoms: C7_11  and  C8_14 
REMARK    6  A    between atoms: C8_14  and  O3_15 
REMARK    7  A    between atoms: C8_14  and  C9_17 
REMARK    8  A    between atoms: C9_17  and  O4_18 
REMARK    9  A    between atoms: C9_17  and  C10_20 
REMARK   10  A    between atoms: C10_20  and  O5_21 
REMARK   11  A    between atoms: C12_24  and  N3_25 
REMARK   12  A    between atoms: C15_29  and  C16_30 
REMARK   13  A    between atoms: C16_30  and  C17_31 
REMARK   14  A    between atoms: C17_31  and  O7_32 
REMARK   15  A    between atoms: C18_34  and  O8_35 
REMARK   16  A    between atoms: C19_37  and  O9_38 
ROOT
HETATM    1  C4  UNL     1      23.193  15.398  41.741  1.00  0.00     0.233 C 
HETATM    2  C5  UNL     1      24.635  15.379  42.055  1.00  0.00     0.113 C 
HETATM    3  C11 UNL     1      25.296  16.453  41.184  1.00  0.00     0.044 C 
HETATM    4  C12 UNL     1      24.983  16.285  39.736  1.00  0.00     0.119 C 
HETATM    5  C18 UNL     1      23.585  15.942  39.413  1.00  0.00     0.171 C 
HETATM    6  C19 UNL     1      22.945  14.945  40.352  1.00  0.00     0.180 C 
ENDROOT
BRANCH   2   7
HETATM    7  C6  UNL     1      25.350  14.104  41.962  1.00  0.00     0.226 C 
HETATM    8  O1  UNL     1      25.508  13.364  42.944  1.00  0.00    -0.273 OA
HETATM    9  N2  UNL     1      25.915  13.633  40.719  1.00  0.00    -0.332 N 
ATOM     10  H2  UNL     1      25.811  14.207  39.882  1.00  0.00     0.165 HD
BRANCH   9  11
HETATM   11  C7  UNL     1      26.614  12.394  40.623  1.00  0.00     0.251 C 
BRANCH  11  12
HETATM   12  O2  UNL     1      27.606  12.246  41.562  1.00  0.00    -0.374 OA
ATOM     13  H2  UNL     1      27.762  11.344  41.814  1.00  0.00     0.212 HD
ENDBRANCH  11  12
BRANCH  11  14
HETATM   14  C8  UNL     1      25.740  11.162  40.627  1.00  0.00     0.197 C 
BRANCH  14  15
HETATM   15  O3  UNL     1      24.556  11.550  39.940  1.00  0.00    -0.389 OA
ATOM     16  H3  UNL     1      24.152  10.733  39.667  1.00  0.00     0.210 HD
ENDBRANCH  14  15
BRANCH  14  17
HETATM   17  C9  UNL     1      26.289  10.007  39.862  1.00  0.00     0.174 C 
BRANCH  17  18
HETATM   18  O4  UNL     1      27.574   9.714  40.305  1.00  0.00    -0.391 OA
ATOM     19  H4  UNL     1      27.554   9.492  41.228  1.00  0.00     0.210 HD
ENDBRANCH  17  18
BRANCH  17  20
HETATM   20  C10 UNL     1      25.430   8.794  40.198  1.00  0.00     0.198 C 
BRANCH  20  21
HETATM   21  O5  UNL     1      24.538   8.579  39.135  1.00  0.00    -0.398 OA
ATOM     22  H5  UNL     1      23.657   8.749  39.446  1.00  0.00     0.209 HD
ENDBRANCH  20  21
ENDBRANCH  17  20
ENDBRANCH  14  17
ENDBRANCH  11  14
ENDBRANCH   9  11
ENDBRANCH   2   7
BRANCH   1  23
HETATM   23  N1  UNL     1      22.322  14.890  42.751  1.00  0.00    -0.071 N 
HETATM   24  C1  UNL     1      22.701  15.464  44.036  1.00  0.00     0.272 C 
HETATM   25  C2  UNL     1      20.975  15.428  42.483  1.00  0.00     0.272 C 
HETATM   26  C3  UNL     1      22.169  13.476  42.827  1.00  0.00     0.272 C 
ENDBRANCH   1  23
BRANCH   6  27
HETATM   27  O9  UNL     1      21.563  14.975  40.080  1.00  0.00    -0.391 OA
ATOM     28  H9  UNL     1      21.117  14.321  40.605  1.00  0.00     0.210 HD
ENDBRANCH   6  27
BRANCH   4  29
HETATM   29  N3  UNL     1      25.316  17.538  39.066  1.00  0.00    -0.340 N 
HETATM   30  C13 UNL     1      24.814  18.863  39.083  1.00  0.00     0.222 C 
HETATM   31  O6  UNL     1      24.256  19.596  39.922  1.00  0.00    -0.273 OA
HETATM   32  C14 UNL     1      25.236  19.003  37.674  1.00  0.00     0.128 C 
HETATM   33  C15 UNL     1      26.297  17.993  38.088  1.00  0.00     0.098 C 
BRANCH  33  34
HETATM   34  C16 UNL     1      26.661  16.989  37.045  1.00  0.00     0.051 C 
BRANCH  34  35
HETATM   35  C17 UNL     1      28.118  17.179  36.695  1.00  0.00     0.166 C 
BRANCH  35  36
HETATM   36  O7  UNL     1      28.785  17.743  37.766  1.00  0.00    -0.401 OA
ATOM     37  H7  UNL     1      29.712  17.543  37.708  1.00  0.00     0.209 HD
ENDBRANCH  35  36
ENDBRANCH  34  35
ENDBRANCH  33  34
ENDBRANCH   4  29
BRANCH   5  38
HETATM   38  O8  UNL     1      22.724  17.036  39.333  1.00  0.00    -0.391 OA
ATOM     39  H8  UNL     1      21.888  16.851  38.920  1.00  0.00     0.210 HD
ENDBRANCH   5  38
TORSDOF 16
ENDMDL
