MODEL 1
REMARK VINA RESULT: -8.131805533      0.000      0.000
REMARK  15 active torsions:
REMARK  status: ('A' for Active; 'I' for Inactive)
REMARK    1  A    between atoms: N2_6  and  C2_7 
REMARK    2  A    between atoms: C2_7  and  C3_8 
REMARK    3  A    between atoms: C3_8  and  O2_9 
REMARK    4  A    between atoms: C3_8  and  C4_11 
REMARK    5  A    between atoms: C4_11  and  O3_12 
REMARK    6  A    between atoms: C6_15  and  C7_16 
REMARK    7  A    between atoms: N5_21  and  C8_22 
REMARK    8  A    between atoms: C9_25  and  C10_26 
REMARK       I    between atoms: C10_26  and  N7_28 
REMARK    9  A    between atoms: N7_28  and  C11_30 
REMARK   10  A    between atoms: C13_34  and  C14_35 
REMARK   11  A    between atoms: C14_35  and  N10_36 
REMARK   12  A    between atoms: C16_38  and  C17_39 
REMARK   13  A    between atoms: C17_39  and  O5_40 
REMARK   14  A    between atoms: C17_39  and  O6_42 
REMARK   15  A    between atoms: C18_48  and  O8_49 
ROOT
HETATM    1  C8  UNL     1      54.901  11.965  31.039  1.00  0.00     0.256 A 
HETATM    2  N6  UNL     1      55.505  10.769  31.210  1.00  0.00    -0.312 N 
ATOM      3  H6  UNL     1      56.419  10.633  31.643  1.00  0.00     0.170 HD
HETATM    4  C9  UNL     1      54.732   9.791  30.730  1.00  0.00     0.163 A 
HETATM    5  C18 UNL     1      53.594  10.423  30.241  1.00  0.00     0.219 A 
HETATM    6  O9  UNL     1      53.746  11.696  30.447  1.00  0.00    -0.252 OA
ENDROOT
BRANCH   4   7
HETATM    7  C10 UNL     1      55.012   8.368  30.716  1.00  0.00     0.275 C 
HETATM    8  O4  UNL     1      54.073   7.571  30.467  1.00  0.00    -0.266 OA
HETATM    9  N7  UNL     1      56.284   7.838  30.966  1.00  0.00    -0.328 N 
ATOM     10  H7  UNL     1      57.050   8.482  31.168  1.00  0.00     0.165 HD
BRANCH   9  11
HETATM   11  C11 UNL     1      56.559   6.416  30.948  1.00  0.00     0.241 C 
HETATM   12  C12 UNL     1      57.441   6.055  29.783  1.00  0.00     0.184 C 
HETATM   13  N8  UNL     1      57.992   4.735  29.870  1.00  0.00    -0.142 NA
HETATM   14  N9  UNL     1      57.526   4.021  30.975  1.00  0.00    -0.114 NA
HETATM   15  C13 UNL     1      57.782   4.832  32.142  1.00  0.00     0.252 C 
HETATM   16  O7  UNL     1      56.963   5.937  32.151  1.00  0.00    -0.341 OA
BRANCH  15  17
HETATM   17  C14 UNL     1      59.248   5.186  32.276  1.00  0.00     0.196 C 
BRANCH  17  18
HETATM   18  N10 UNL     1      59.458   5.676  33.638  1.00  0.00    -0.281 N 
HETATM   19  C15 UNL     1      60.389   6.605  33.991  1.00  0.00     0.139 A 
HETATM   20  C16 UNL     1      60.318   6.843  35.353  1.00  0.00     0.095 A 
HETATM   21  N11 UNL     1      59.325   6.032  35.784  1.00  0.00    -0.282 N 
HETATM   22  N12 UNL     1      58.826   5.345  34.748  1.00  0.00    -0.020 NA
ATOM     23  H11 UNL     1      59.006   5.955  36.750  1.00  0.00     0.184 HD
BRANCH  20  24
HETATM   24  C17 UNL     1      61.164   7.788  36.125  1.00  0.00     0.307 C 
BRANCH  24  25
HETATM   25  O5  UNL     1      60.337   8.447  37.062  1.00  0.00    -0.366 OA
ATOM     26  H5  UNL     1      60.770   8.420  37.906  1.00  0.00     0.213 HD
ENDBRANCH  24  25
BRANCH  24  27
HETATM   27  O6  UNL     1      61.786   8.672  35.282  1.00  0.00    -0.366 OA
ATOM     28  H6  UNL     1      62.617   8.951  35.649  1.00  0.00     0.213 HD
ENDBRANCH  24  27
ENDBRANCH  20  24
ENDBRANCH  17  18
ENDBRANCH  15  17
ENDBRANCH   9  11
ENDBRANCH   4   7
BRANCH   5  29
HETATM   29  O8  UNL     1      52.511   9.771  29.644  1.00  0.00    -0.339 OA
ATOM     30  H8  UNL     1      52.486   9.473  28.743  1.00  0.00     0.220 HD
ENDBRANCH   5  29
BRANCH   1  31
HETATM   31  N5  UNL     1      55.399  13.239  31.413  1.00  0.00    -0.185 N 
HETATM   32  C7  UNL     1      56.591  13.828  31.420  1.00  0.00     0.164 A 
HETATM   33  N3  UNL     1      55.948  14.928  31.938  1.00  0.00    -0.268 N 
HETATM   34  N4  UNL     1      54.785  14.322  31.920  1.00  0.00    -0.230 N 
ATOM     35  H3  UNL     1      56.256  15.857  32.226  1.00  0.00     0.190 HD
ATOM     36  H4  UNL     1      53.829  14.566  32.178  1.00  0.00     0.209 HD
BRANCH  32  37
HETATM   37  C6  UNL     1      57.986  13.579  31.094  1.00  0.00     0.082 A 
HETATM   38  C1  UNL     1      58.849  14.337  30.360  1.00  0.00     0.179 A 
HETATM   39  N1  UNL     1      58.596  15.456  29.789  1.00  0.00    -0.377 N 
HETATM   40  O1  UNL     1      60.025  13.698  30.340  1.00  0.00    -0.217 OA
ATOM     41  H12 UNL     1      59.242  16.024  29.240  1.00  0.00     0.158 HD
ATOM     42  H11 UNL     1      57.700  15.942  29.804  1.00  0.00     0.158 HD
HETATM   43  N2  UNL     1      59.970  12.600  31.001  1.00  0.00    -0.259 N 
HETATM   44  C5  UNL     1      58.724  12.475  31.495  1.00  0.00     0.137 A 
BRANCH  43  45
HETATM   45  C2  UNL     1      60.987  11.596  31.236  1.00  0.00     0.189 C 
BRANCH  45  46
HETATM   46  C3  UNL     1      61.418  11.533  32.665  1.00  0.00     0.162 C 
BRANCH  46  47
HETATM   47  O2  UNL     1      61.432  10.227  33.097  1.00  0.00    -0.392 OA
ATOM     48  H2  UNL     1      60.663  10.051  33.627  1.00  0.00     0.210 HD
ENDBRANCH  46  47
BRANCH  46  49
HETATM   49  C4  UNL     1      62.743  12.235  32.893  1.00  0.00     0.197 C 
BRANCH  49  50
HETATM   50  O3  UNL     1      62.626  13.333  33.709  1.00  0.00    -0.398 OA
ATOM     51  H3  UNL     1      61.842  13.310  34.245  1.00  0.00     0.209 HD
ENDBRANCH  49  50
ENDBRANCH  46  49
ENDBRANCH  45  46
ENDBRANCH  43  45
ENDBRANCH  32  37
ENDBRANCH   1  31
TORSDOF 15
ENDMDL
MODEL 2
REMARK VINA RESULT: -8.124172420      3.564      9.667
REMARK  15 active torsions:
REMARK  status: ('A' for Active; 'I' for Inactive)
REMARK    1  A    between atoms: N2_6  and  C2_7 
REMARK    2  A    between atoms: C2_7  and  C3_8 
REMARK    3  A    between atoms: C3_8  and  O2_9 
REMARK    4  A    between atoms: C3_8  and  C4_11 
REMARK    5  A    between atoms: C4_11  and  O3_12 
REMARK    6  A    between atoms: C6_15  and  C7_16 
REMARK    7  A    between atoms: N5_21  and  C8_22 
REMARK    8  A    between atoms: C9_25  and  C10_26 
REMARK       I    between atoms: C10_26  and  N7_28 
REMARK    9  A    between atoms: N7_28  and  C11_30 
REMARK   10  A    between atoms: C13_34  and  C14_35 
REMARK   11  A    between atoms: C14_35  and  N10_36 
REMARK   12  A    between atoms: C16_38  and  C17_39 
REMARK   13  A    between atoms: C17_39  and  O5_40 
REMARK   14  A    between atoms: C17_39  and  O6_42 
REMARK   15  A    between atoms: C18_48  and  O8_49 
ROOT
HETATM    1  C8  UNL     1      58.411  13.212  31.891  1.00  0.00     0.256 A 
HETATM    2  N6  UNL     1      59.441  13.940  31.410  1.00  0.00    -0.312 N 
ATOM      3  H6  UNL     1      59.366  14.892  31.051  1.00  0.00     0.170 HD
HETATM    4  C9  UNL     1      60.572  13.232  31.473  1.00  0.00     0.163 A 
HETATM    5  C18 UNL     1      60.214  12.006  32.023  1.00  0.00     0.219 A 
HETATM    6  O9  UNL     1      58.937  12.048  32.248  1.00  0.00    -0.252 OA
ENDROOT
BRANCH   4   7
HETATM    7  C10 UNL     1      61.900  13.645  31.057  1.00  0.00     0.275 C 
HETATM    8  O4  UNL     1      62.896  13.048  31.535  1.00  0.00    -0.266 OA
HETATM    9  N7  UNL     1      62.123  14.681  30.141  1.00  0.00    -0.328 N 
ATOM     10  H7  UNL     1      61.318  15.169  29.749  1.00  0.00     0.165 HD
BRANCH   9  11
HETATM   11  C11 UNL     1      63.450  15.088  29.726  1.00  0.00     0.241 C 
HETATM   12  C12 UNL     1      63.989  14.162  28.668  1.00  0.00     0.184 C 
HETATM   13  N8  UNL     1      65.154  14.668  28.005  1.00  0.00    -0.142 NA
HETATM   14  N9  UNL     1      65.604  15.878  28.539  1.00  0.00    -0.114 NA
HETATM   15  C13 UNL     1      64.486  16.791  28.519  1.00  0.00     0.252 C 
HETATM   16  O7  UNL     1      63.536  16.410  29.438  1.00  0.00    -0.341 OA
BRANCH  15  17
HETATM   17  C14 UNL     1      63.920  16.965  27.125  1.00  0.00     0.196 C 
BRANCH  17  18
HETATM   18  N10 UNL     1      62.488  17.226  27.264  1.00  0.00    -0.281 N 
HETATM   19  C15 UNL     1      61.507  16.321  26.995  1.00  0.00     0.139 A 
HETATM   20  C16 UNL     1      60.267  16.891  27.233  1.00  0.00     0.095 A 
HETATM   21  N11 UNL     1      60.550  18.148  27.646  1.00  0.00    -0.282 N 
HETATM   22  N12 UNL     1      61.877  18.329  27.657  1.00  0.00    -0.020 NA
ATOM     23  H11 UNL     1      59.859  18.851  27.908  1.00  0.00     0.184 HD
BRANCH  20  24
HETATM   24  C17 UNL     1      58.949  16.231  27.060  1.00  0.00     0.307 C 
BRANCH  24  25
HETATM   25  O5  UNL     1      58.523  16.449  25.731  1.00  0.00    -0.366 OA
ATOM     26  H5  UNL     1      57.611  16.713  25.754  1.00  0.00     0.213 HD
ENDBRANCH  24  25
BRANCH  24  27
HETATM   27  O6  UNL     1      58.047  16.716  27.971  1.00  0.00    -0.366 OA
ATOM     28  H6  UNL     1      58.222  17.631  28.155  1.00  0.00     0.213 HD
ENDBRANCH  24  27
ENDBRANCH  20  24
ENDBRANCH  17  18
ENDBRANCH  15  17
ENDBRANCH   9  11
ENDBRANCH   4   7
BRANCH   5  29
HETATM   29  O8  UNL     1      61.097  10.952  32.270  1.00  0.00    -0.339 OA
ATOM     30  H8  UNL     1      61.247  10.219  31.684  1.00  0.00     0.220 HD
ENDBRANCH   5  29
BRANCH   1  31
HETATM   31  N5  UNL     1      57.053  13.608  31.991  1.00  0.00    -0.185 N 
HETATM   32  C7  UNL     1      55.893  12.987  32.180  1.00  0.00     0.164 A 
HETATM   33  N3  UNL     1      55.312  14.231  32.096  1.00  0.00    -0.268 N 
HETATM   34  N4  UNL     1      56.470  14.817  31.910  1.00  0.00    -0.230 N 
ATOM     35  H3  UNL     1      54.351  14.568  32.154  1.00  0.00     0.190 HD
ATOM     36  H4  UNL     1      56.791  15.775  31.767  1.00  0.00     0.209 HD
BRANCH  32  37
HETATM   37  C6  UNL     1      55.331  11.661  32.380  1.00  0.00     0.082 A 
HETATM   38  C1  UNL     1      54.442  11.233  33.321  1.00  0.00     0.179 A 
HETATM   39  N1  UNL     1      53.908  11.936  34.250  1.00  0.00    -0.377 N 
HETATM   40  O1  UNL     1      54.222   9.931  33.101  1.00  0.00    -0.217 OA
ATOM     41  H12 UNL     1      53.242  11.616  34.954  1.00  0.00     0.158 HD
ATOM     42  H11 UNL     1      54.075  12.927  34.417  1.00  0.00     0.158 HD
HETATM   43  N2  UNL     1      54.902   9.507  32.099  1.00  0.00    -0.259 N 
HETATM   44  C5  UNL     1      55.610  10.542  31.610  1.00  0.00     0.137 A 
BRANCH  43  45
HETATM   45  C2  UNL     1      54.983   8.184  31.515  1.00  0.00     0.189 C 
BRANCH  45  46
HETATM   46  C3  UNL     1      54.989   7.098  32.542  1.00  0.00     0.162 C 
BRANCH  46  47
HETATM   47  O2  UNL     1      53.858   6.326  32.419  1.00  0.00    -0.392 OA
ATOM     48  H2  UNL     1      54.081   5.477  32.055  1.00  0.00     0.210 HD
ENDBRANCH  46  47
BRANCH  46  49
HETATM   49  C4  UNL     1      56.263   6.277  32.495  1.00  0.00     0.197 C 
BRANCH  49  50
HETATM   50  O3  UNL     1      56.980   6.346  33.663  1.00  0.00    -0.398 OA
ATOM     51  H3  UNL     1      57.916   6.424  33.515  1.00  0.00     0.209 HD
ENDBRANCH  49  50
ENDBRANCH  46  49
ENDBRANCH  45  46
ENDBRANCH  43  45
ENDBRANCH  32  37
ENDBRANCH   1  31
TORSDOF 15
ENDMDL
MODEL 3
REMARK VINA RESULT: -7.988838452      3.602      5.335
REMARK  15 active torsions:
REMARK  status: ('A' for Active; 'I' for Inactive)
REMARK    1  A    between atoms: N2_6  and  C2_7 
REMARK    2  A    between atoms: C2_7  and  C3_8 
REMARK    3  A    between atoms: C3_8  and  O2_9 
REMARK    4  A    between atoms: C3_8  and  C4_11 
REMARK    5  A    between atoms: C4_11  and  O3_12 
REMARK    6  A    between atoms: C6_15  and  C7_16 
REMARK    7  A    between atoms: N5_21  and  C8_22 
REMARK    8  A    between atoms: C9_25  and  C10_26 
REMARK       I    between atoms: C10_26  and  N7_28 
REMARK    9  A    between atoms: N7_28  and  C11_30 
REMARK   10  A    between atoms: C13_34  and  C14_35 
REMARK   11  A    between atoms: C14_35  and  N10_36 
REMARK   12  A    between atoms: C16_38  and  C17_39 
REMARK   13  A    between atoms: C17_39  and  O5_40 
REMARK   14  A    between atoms: C17_39  and  O6_42 
REMARK   15  A    between atoms: C18_48  and  O8_49 
ROOT
HETATM    1  C8  UNL     1      58.207  13.919  30.547  1.00  0.00     0.256 A 
HETATM    2  N6  UNL     1      57.799  12.638  30.676  1.00  0.00    -0.312 N 
ATOM      3  H6  UNL     1      58.313  11.824  30.338  1.00  0.00     0.170 HD
HETATM    4  C9  UNL     1      56.623  12.592  31.309  1.00  0.00     0.163 A 
HETATM    5  C18 UNL     1      56.296  13.916  31.582  1.00  0.00     0.219 A 
HETATM    6  O9  UNL     1      57.258  14.651  31.114  1.00  0.00    -0.252 OA
ENDROOT
BRANCH   4   7
HETATM    7  C10 UNL     1      55.843  11.416  31.644  1.00  0.00     0.275 C 
HETATM    8  O4  UNL     1      55.106  11.449  32.660  1.00  0.00    -0.266 OA
HETATM    9  N7  UNL     1      55.871  10.241  30.882  1.00  0.00    -0.328 N 
ATOM     10  H7  UNL     1      56.468  10.208  30.055  1.00  0.00     0.165 HD
BRANCH   9  11
HETATM   11  C11 UNL     1      55.089   9.069  31.219  1.00  0.00     0.241 C 
HETATM   12  C12 UNL     1      54.865   8.207  30.005  1.00  0.00     0.184 C 
HETATM   13  N8  UNL     1      54.363   6.901  30.316  1.00  0.00    -0.142 NA
HETATM   14  N9  UNL     1      54.099   6.727  31.676  1.00  0.00    -0.114 NA
HETATM   15  C13 UNL     1      55.309   7.065  32.388  1.00  0.00     0.252 C 
HETATM   16  O7  UNL     1      55.549   8.417  32.315  1.00  0.00    -0.341 OA
BRANCH  15  17
HETATM   17  C14 UNL     1      56.489   6.233  31.930  1.00  0.00     0.196 C 
BRANCH  17  18
HETATM   18  N10 UNL     1      57.140   5.701  33.126  1.00  0.00    -0.281 N 
HETATM   19  C15 UNL     1      57.680   4.454  33.223  1.00  0.00     0.139 A 
HETATM   20  C16 UNL     1      58.217   4.275  34.487  1.00  0.00     0.095 A 
HETATM   21  N11 UNL     1      57.977   5.445  35.122  1.00  0.00    -0.282 N 
HETATM   22  N12 UNL     1      57.334   6.281  34.296  1.00  0.00    -0.020 NA
ATOM     23  H11 UNL     1      58.243   5.658  36.084  1.00  0.00     0.184 HD
BRANCH  20  24
HETATM   24  C17 UNL     1      58.897   3.054  34.988  1.00  0.00     0.307 C 
BRANCH  24  25
HETATM   25  O5  UNL     1      58.431   1.955  34.231  1.00  0.00    -0.366 OA
ATOM     26  H5  UNL     1      58.808   2.018  33.362  1.00  0.00     0.213 HD
ENDBRANCH  24  25
BRANCH  24  27
HETATM   27  O6  UNL     1      58.659   2.889  36.328  1.00  0.00    -0.366 OA
ATOM     28  H6  UNL     1      59.287   2.284  36.704  1.00  0.00     0.213 HD
ENDBRANCH  24  27
ENDBRANCH  20  24
ENDBRANCH  17  18
ENDBRANCH  15  17
ENDBRANCH   9  11
ENDBRANCH   4   7
BRANCH   5  29
HETATM   29  O8  UNL     1      55.137  14.334  32.241  1.00  0.00    -0.339 OA
ATOM     30  H8  UNL     1      54.344  14.631  31.811  1.00  0.00     0.220 HD
ENDBRANCH   5  29
BRANCH   1  31
HETATM   31  N5  UNL     1      59.398  14.381  29.933  1.00  0.00    -0.185 N 
HETATM   32  C7  UNL     1      59.744  14.785  28.714  1.00  0.00     0.164 A 
HETATM   33  N3  UNL     1      61.008  14.964  29.226  1.00  0.00    -0.268 N 
HETATM   34  N4  UNL     1      60.639  14.561  30.418  1.00  0.00    -0.230 N 
ATOM     35  H3  UNL     1      61.892  15.285  28.831  1.00  0.00     0.190 HD
ATOM     36  H4  UNL     1      61.096  14.437  31.322  1.00  0.00     0.209 HD
BRANCH  32  37
HETATM   37  C6  UNL     1      59.194  14.987  27.383  1.00  0.00     0.082 A 
HETATM   38  C1  UNL     1      58.762  16.138  26.793  1.00  0.00     0.179 A 
HETATM   39  N1  UNL     1      58.749  17.310  27.311  1.00  0.00    -0.377 N 
HETATM   40  O1  UNL     1      58.346  15.823  25.560  1.00  0.00    -0.217 OA
ATOM     41  H12 UNL     1      58.426  18.171  26.870  1.00  0.00     0.158 HD
ATOM     42  H11 UNL     1      59.066  17.549  28.250  1.00  0.00     0.158 HD
HETATM   43  N2  UNL     1      58.482  14.569  25.329  1.00  0.00    -0.259 N 
HETATM   44  C5  UNL     1      59.008  13.998  26.429  1.00  0.00     0.137 A 
BRANCH  43  45
HETATM   45  C2  UNL     1      58.158  13.793  24.149  1.00  0.00     0.189 C 
BRANCH  45  46
HETATM   46  C3  UNL     1      59.016  12.579  24.002  1.00  0.00     0.162 C 
BRANCH  46  47
HETATM   47  O2  UNL     1      58.229  11.456  23.897  1.00  0.00    -0.392 OA
ATOM     48  H2  UNL     1      58.662  10.715  24.305  1.00  0.00     0.210 HD
ENDBRANCH  46  47
BRANCH  46  49
HETATM   49  C4  UNL     1      59.999  12.710  22.854  1.00  0.00     0.197 C 
BRANCH  49  50
HETATM   50  O3  UNL     1      61.073  13.505  23.167  1.00  0.00    -0.398 OA
ATOM     51  H3  UNL     1      61.697  13.070  23.736  1.00  0.00     0.209 HD
ENDBRANCH  49  50
ENDBRANCH  46  49
ENDBRANCH  45  46
ENDBRANCH  43  45
ENDBRANCH  32  37
ENDBRANCH   1  31
TORSDOF 15
ENDMDL
MODEL 4
REMARK VINA RESULT: -7.863932389      1.480      1.666
REMARK  15 active torsions:
REMARK  status: ('A' for Active; 'I' for Inactive)
REMARK    1  A    between atoms: N2_6  and  C2_7 
REMARK    2  A    between atoms: C2_7  and  C3_8 
REMARK    3  A    between atoms: C3_8  and  O2_9 
REMARK    4  A    between atoms: C3_8  and  C4_11 
REMARK    5  A    between atoms: C4_11  and  O3_12 
REMARK    6  A    between atoms: C6_15  and  C7_16 
REMARK    7  A    between atoms: N5_21  and  C8_22 
REMARK    8  A    between atoms: C9_25  and  C10_26 
REMARK       I    between atoms: C10_26  and  N7_28 
REMARK    9  A    between atoms: N7_28  and  C11_30 
REMARK   10  A    between atoms: C13_34  and  C14_35 
REMARK   11  A    between atoms: C14_35  and  N10_36 
REMARK   12  A    between atoms: C16_38  and  C17_39 
REMARK   13  A    between atoms: C17_39  and  O5_40 
REMARK   14  A    between atoms: C17_39  and  O6_42 
REMARK   15  A    between atoms: C18_48  and  O8_49 
ROOT
HETATM    1  C8  UNL     1      54.886  12.071  30.970  1.00  0.00     0.256 A 
HETATM    2  N6  UNL     1      55.485  10.860  30.991  1.00  0.00    -0.312 N 
ATOM      3  H6  UNL     1      56.433  10.683  31.323  1.00  0.00     0.170 HD
HETATM    4  C9  UNL     1      54.654   9.929  30.514  1.00  0.00     0.163 A 
HETATM    5  C18 UNL     1      53.485  10.607  30.185  1.00  0.00     0.219 A 
HETATM    6  O9  UNL     1      53.677  11.859  30.472  1.00  0.00    -0.252 OA
ENDROOT
BRANCH   4   7
HETATM    7  C10 UNL     1      54.907   8.509  30.365  1.00  0.00     0.275 C 
HETATM    8  O4  UNL     1      53.929   7.728  30.261  1.00  0.00    -0.266 OA
HETATM    9  N7  UNL     1      56.197   7.964  30.329  1.00  0.00    -0.328 N 
ATOM     10  H7  UNL     1      56.996   8.594  30.412  1.00  0.00     0.165 HD
BRANCH   9  11
HETATM   11  C11 UNL     1      56.446   6.545  30.177  1.00  0.00     0.241 C 
HETATM   12  C12 UNL     1      57.455   6.291  29.088  1.00  0.00     0.184 C 
HETATM   13  N8  UNL     1      57.966   4.953  29.084  1.00  0.00    -0.142 NA
HETATM   14  N9  UNL     1      57.358   4.132  30.036  1.00  0.00    -0.114 NA
HETATM   15  C13 UNL     1      57.488   4.796  31.312  1.00  0.00     0.252 C 
HETATM   16  O7  UNL     1      56.694   5.919  31.354  1.00  0.00    -0.341 OA
BRANCH  15  17
HETATM   17  C14 UNL     1      58.934   5.085  31.657  1.00  0.00     0.196 C 
BRANCH  17  18
HETATM   18  N10 UNL     1      59.051   5.055  33.114  1.00  0.00    -0.281 N 
HETATM   19  C15 UNL     1      59.429   3.966  33.838  1.00  0.00     0.139 A 
HETATM   20  C16 UNL     1      59.438   4.281  35.186  1.00  0.00     0.095 A 
HETATM   21  N11 UNL     1      59.057   5.578  35.230  1.00  0.00    -0.282 N 
HETATM   22  N12 UNL     1      58.830   6.022  33.987  1.00  0.00    -0.020 NA
ATOM     23  H11 UNL     1      58.957   6.134  36.080  1.00  0.00     0.184 HD
BRANCH  20  24
HETATM   24  C17 UNL     1      59.795   3.366  36.300  1.00  0.00     0.307 C 
BRANCH  24  25
HETATM   25  O5  UNL     1      58.614   2.718  36.726  1.00  0.00    -0.366 OA
ATOM     26  H5  UNL     1      58.602   2.725  37.676  1.00  0.00     0.213 HD
ENDBRANCH  24  25
BRANCH  24  27
HETATM   27  O6  UNL     1      60.392   4.062  37.318  1.00  0.00    -0.366 OA
ATOM     28  H6  UNL     1      59.776   4.208  38.027  1.00  0.00     0.213 HD
ENDBRANCH  24  27
ENDBRANCH  20  24
ENDBRANCH  17  18
ENDBRANCH  15  17
ENDBRANCH   9  11
ENDBRANCH   4   7
BRANCH   5  29
HETATM   29  O8  UNL     1      52.340  10.013  29.646  1.00  0.00    -0.339 OA
ATOM     30  H8  UNL     1      51.907  10.292  28.848  1.00  0.00     0.220 HD
ENDBRANCH   5  29
BRANCH   1  31
HETATM   31  N5  UNL     1      55.439  13.307  31.390  1.00  0.00    -0.185 N 
HETATM   32  C7  UNL     1      56.656  13.842  31.423  1.00  0.00     0.164 A 
HETATM   33  N3  UNL     1      56.058  14.951  31.977  1.00  0.00    -0.268 N 
HETATM   34  N4  UNL     1      54.870  14.398  31.932  1.00  0.00    -0.230 N 
ATOM     35  H3  UNL     1      56.406  15.854  32.299  1.00  0.00     0.190 HD
ATOM     36  H4  UNL     1      53.924  14.676  32.195  1.00  0.00     0.209 HD
BRANCH  32  37
HETATM   37  C6  UNL     1      58.040  13.543  31.095  1.00  0.00     0.082 A 
HETATM   38  C1  UNL     1      58.915  14.249  30.324  1.00  0.00     0.179 A 
HETATM   39  N1  UNL     1      58.686  15.350  29.711  1.00  0.00    -0.377 N 
HETATM   40  O1  UNL     1      60.074  13.578  30.318  1.00  0.00    -0.217 OA
ATOM     41  H12 UNL     1      59.341  15.879  29.134  1.00  0.00     0.158 HD
ATOM     42  H11 UNL     1      57.804  15.861  29.716  1.00  0.00     0.158 HD
HETATM   43  N2  UNL     1      59.996  12.508  31.022  1.00  0.00    -0.259 N 
HETATM   44  C5  UNL     1      58.752  12.436  31.532  1.00  0.00     0.137 A 
BRANCH  43  45
HETATM   45  C2  UNL     1      60.988  11.486  31.287  1.00  0.00     0.189 C 
BRANCH  45  46
HETATM   46  C3  UNL     1      61.422  11.459  32.716  1.00  0.00     0.162 C 
BRANCH  46  47
HETATM   47  O2  UNL     1      61.454  10.162  33.175  1.00  0.00    -0.392 OA
ATOM     48  H2  UNL     1      62.067  10.086  33.896  1.00  0.00     0.210 HD
ENDBRANCH  46  47
BRANCH  46  49
HETATM   49  C4  UNL     1      62.737  12.183  32.928  1.00  0.00     0.197 C 
BRANCH  49  50
HETATM   50  O3  UNL     1      62.592  13.344  33.645  1.00  0.00    -0.398 OA
ATOM     51  H3  UNL     1      63.314  13.498  34.244  1.00  0.00     0.209 HD
ENDBRANCH  49  50
ENDBRANCH  46  49
ENDBRANCH  45  46
ENDBRANCH  43  45
ENDBRANCH  32  37
ENDBRANCH   1  31
TORSDOF 15
ENDMDL
MODEL 5
REMARK VINA RESULT: -7.858464114      4.341      8.135
REMARK  15 active torsions:
REMARK  status: ('A' for Active; 'I' for Inactive)
REMARK    1  A    between atoms: N2_6  and  C2_7 
REMARK    2  A    between atoms: C2_7  and  C3_8 
REMARK    3  A    between atoms: C3_8  and  O2_9 
REMARK    4  A    between atoms: C3_8  and  C4_11 
REMARK    5  A    between atoms: C4_11  and  O3_12 
REMARK    6  A    between atoms: C6_15  and  C7_16 
REMARK    7  A    between atoms: N5_21  and  C8_22 
REMARK    8  A    between atoms: C9_25  and  C10_26 
REMARK       I    between atoms: C10_26  and  N7_28 
REMARK    9  A    between atoms: N7_28  and  C11_30 
REMARK   10  A    between atoms: C13_34  and  C14_35 
REMARK   11  A    between atoms: C14_35  and  N10_36 
REMARK   12  A    between atoms: C16_38  and  C17_39 
REMARK   13  A    between atoms: C17_39  and  O5_40 
REMARK   14  A    between atoms: C17_39  and  O6_42 
REMARK   15  A    between atoms: C18_48  and  O8_49 
ROOT
HETATM    1  C8  UNL     1      61.372  12.851  30.787  1.00  0.00     0.256 A 
HETATM    2  N6  UNL     1      60.076  13.125  31.051  1.00  0.00    -0.312 N 
ATOM      3  H6  UNL     1      59.716  14.039  31.327  1.00  0.00     0.170 HD
HETATM    4  C9  UNL     1      59.335  12.024  30.897  1.00  0.00     0.163 A 
HETATM    5  C18 UNL     1      60.225  11.025  30.520  1.00  0.00     0.219 A 
HETATM    6  O9  UNL     1      61.405  11.564  30.471  1.00  0.00    -0.252 OA
ENDROOT
BRANCH   4   7
HETATM    7  C10 UNL     1      57.902  11.889  31.085  1.00  0.00     0.275 C 
HETATM    8  O4  UNL     1      57.390  12.314  32.150  1.00  0.00    -0.266 OA
HETATM    9  N7  UNL     1      57.061  11.304  30.131  1.00  0.00    -0.328 N 
ATOM     10  H7  UNL     1      57.472  10.956  29.264  1.00  0.00     0.165 HD
BRANCH   9  11
HETATM   11  C11 UNL     1      55.631  11.172  30.321  1.00  0.00     0.241 C 
HETATM   12  C12 UNL     1      55.318  10.041  31.265  1.00  0.00     0.184 C 
HETATM   13  N8  UNL     1      53.962  10.042  31.729  1.00  0.00    -0.142 NA
HETATM   14  N9  UNL     1      53.184  11.041  31.139  1.00  0.00    -0.114 NA
HETATM   15  C13 UNL     1      53.869  12.294  31.355  1.00  0.00     0.252 C 
HETATM   16  O7  UNL     1      55.020  12.349  30.605  1.00  0.00    -0.341 OA
BRANCH  15  17
HETATM   17  C14 UNL     1      54.112  12.562  32.825  1.00  0.00     0.196 C 
BRANCH  17  18
HETATM   18  N10 UNL     1      53.488  13.845  33.146  1.00  0.00    -0.281 N 
HETATM   19  C15 UNL     1      52.710  14.075  34.239  1.00  0.00     0.139 A 
HETATM   20  C16 UNL     1      52.283  15.393  34.240  1.00  0.00     0.095 A 
HETATM   21  N11 UNL     1      52.831  15.923  33.122  1.00  0.00    -0.282 N 
HETATM   22  N12 UNL     1      53.543  14.986  32.484  1.00  0.00    -0.020 NA
ATOM     23  H11 UNL     1      52.717  16.888  32.812  1.00  0.00     0.184 HD
BRANCH  20  24
HETATM   24  C17 UNL     1      51.420  16.036  35.262  1.00  0.00     0.307 C 
BRANCH  24  25
HETATM   25  O5  UNL     1      50.073  15.831  34.886  1.00  0.00    -0.366 OA
ATOM     26  H5  UNL     1      49.541  16.471  35.343  1.00  0.00     0.213 HD
ENDBRANCH  24  25
BRANCH  24  27
HETATM   27  O6  UNL     1      51.722  17.368  35.374  1.00  0.00    -0.366 OA
ATOM     28  H6  UNL     1      50.960  17.859  35.658  1.00  0.00     0.213 HD
ENDBRANCH  24  27
ENDBRANCH  20  24
ENDBRANCH  17  18
ENDBRANCH  15  17
ENDBRANCH   9  11
ENDBRANCH   4   7
BRANCH   5  29
HETATM   29  O8  UNL     1      59.873   9.699  30.252  1.00  0.00    -0.339 OA
ATOM     30  H8  UNL     1      60.223   9.177  29.540  1.00  0.00     0.220 HD
ENDBRANCH   5  29
BRANCH   1  31
HETATM   31  N5  UNL     1      62.467  13.751  30.841  1.00  0.00    -0.185 N 
HETATM   32  C7  UNL     1      62.818  14.860  30.196  1.00  0.00     0.164 A 
HETATM   33  N3  UNL     1      63.944  14.859  30.986  1.00  0.00    -0.268 N 
HETATM   34  N4  UNL     1      63.573  13.764  31.605  1.00  0.00    -0.230 N 
ATOM     35  H3  UNL     1      64.756  15.472  31.061  1.00  0.00     0.190 HD
ATOM     36  H4  UNL     1      63.957  13.177  32.346  1.00  0.00     0.209 HD
BRANCH  32  37
HETATM   37  C6  UNL     1      62.366  15.757  29.145  1.00  0.00     0.082 A 
HETATM   38  C1  UNL     1      63.086  16.636  28.393  1.00  0.00     0.179 A 
HETATM   39  N1  UNL     1      64.346  16.859  28.465  1.00  0.00    -0.377 N 
HETATM   40  O1  UNL     1      62.234  17.236  27.553  1.00  0.00    -0.217 OA
ATOM     41  H12 UNL     1      64.885  17.517  27.902  1.00  0.00     0.158 HD
ATOM     42  H11 UNL     1      64.995  16.402  29.104  1.00  0.00     0.158 HD
HETATM   43  N2  UNL     1      61.036  16.805  27.717  1.00  0.00    -0.259 N 
HETATM   44  C5  UNL     1      61.060  15.880  28.695  1.00  0.00     0.137 A 
BRANCH  43  45
HETATM   45  C2  UNL     1      59.807  17.173  27.045  1.00  0.00     0.189 C 
BRANCH  45  46
HETATM   46  C3  UNL     1      58.727  16.155  27.216  1.00  0.00     0.162 C 
BRANCH  46  47
HETATM   47  O2  UNL     1      57.713  16.668  27.989  1.00  0.00    -0.392 OA
ATOM     48  H2  UNL     1      57.085  15.987  28.198  1.00  0.00     0.210 HD
ENDBRANCH  46  47
BRANCH  46  49
HETATM   49  C4  UNL     1      58.233  15.619  25.887  1.00  0.00     0.197 C 
BRANCH  49  50
HETATM   50  O3  UNL     1      57.810  14.316  25.966  1.00  0.00    -0.398 OA
ATOM     51  H3  UNL     1      57.328  14.039  25.195  1.00  0.00     0.209 HD
ENDBRANCH  49  50
ENDBRANCH  46  49
ENDBRANCH  45  46
ENDBRANCH  43  45
ENDBRANCH  32  37
ENDBRANCH   1  31
TORSDOF 15
ENDMDL
