MODEL 1
REMARK VINA RESULT: -6.758838883      0.000      0.000
REMARK  13 active torsions:
REMARK  status: ('A' for Active; 'I' for Inactive)
REMARK    1  A    between atoms: O1_2  and  C2_3 
REMARK    2  A    between atoms: C2_3  and  C3_4 
REMARK    3  A    between atoms: C2_3  and  C35_43 
REMARK    4  A    between atoms: C4_5  and  C5_6 
REMARK    5  A    between atoms: C5_6  and  O3_8 
REMARK    6  A    between atoms: O3_8  and  C6_9 
REMARK    7  A    between atoms: C6_9  and  C7_10 
REMARK    8  A    between atoms: C6_9  and  C11_15 
REMARK    9  A    between atoms: C7_10  and  C9_12 
REMARK   10  A    between atoms: C26_31  and  C27_32 
REMARK   11  A    between atoms: C29_35  and  O6_36 
REMARK   12  A    between atoms: C35_43  and  O7_44 
REMARK   13  A    between atoms: O7_44  and  S1_45 
ROOT
HETATM    1  C11 UNL     1     -16.711   7.726   2.206  1.00  0.00     0.025 C 
HETATM    2  C12 UNL     1     -16.734   7.910   3.730  1.00  0.00     0.009 C 
HETATM    3  C13 UNL     1     -16.449   9.344   4.032  1.00  0.00     0.010 C 
HETATM    4  C14 UNL     1     -16.392  10.012   2.728  1.00  0.00     0.023 C 
HETATM    5  C15 UNL     1     -15.536  11.227   2.702  1.00  0.00    -0.072 C 
HETATM    6  C16 UNL     1     -15.023  11.825   1.661  1.00  0.00    -0.065 C 
HETATM    7  C17 UNL     1     -15.069  11.584   0.205  1.00  0.00     0.072 C 
HETATM    8  C18 UNL     1     -15.457  10.301  -0.335  1.00  0.00     0.174 C 
HETATM    9  F1  UNL     1     -14.387   9.509  -0.738  1.00  0.00    -0.249 F 
HETATM   10  C19 UNL     1     -16.372   9.424   0.447  1.00  0.00     0.047 C 
HETATM   11  C20 UNL     1     -15.923   8.965   1.752  1.00  0.00    -0.028 C 
HETATM   12  C21 UNL     1     -14.480   8.620   1.939  1.00  0.00     0.016 C 
HETATM   13  C22 UNL     1     -14.152  13.017   1.870  1.00  0.00    -0.012 C 
HETATM   14  C23 UNL     1     -12.775  12.822   1.242  1.00  0.00     0.021 C 
HETATM   15  C24 UNL     1     -14.807  14.221   1.207  1.00  0.00     0.015 C 
HETATM   16  C25 UNL     1     -13.888  15.322   1.720  1.00  0.00     0.011 C 
HETATM   17  C26 UNL     1     -13.597  14.922   3.148  1.00  0.00     0.030 C 
HETATM   18  C31 UNL     1     -13.973  13.462   3.267  1.00  0.00    -0.025 C 
HETATM   19  C32 UNL     1     -12.853  12.768   4.020  1.00  0.00     0.017 C 
HETATM   20  C33 UNL     1     -15.236  13.230   4.062  1.00  0.00     0.015 C 
HETATM   21  C34 UNL     1     -15.361  11.690   4.106  1.00  0.00     0.036 C 
ENDROOT
BRANCH   1  22
HETATM   22  C6  UNL     1     -16.004   6.461   1.854  1.00  0.00     0.147 C 
BRANCH  22  23
HETATM   23  O3  UNL     1     -16.004   5.600   3.034  1.00  0.00    -0.311 OA
BRANCH  23  24
HETATM   24  C5  UNL     1     -15.364   4.375   2.967  1.00  0.00     0.283 C 
HETATM   25  O2  UNL     1     -14.151   4.413   2.522  1.00  0.00    -0.260 OA
BRANCH  24  26
HETATM   26  C4  UNL     1     -15.921   3.116   3.341  1.00  0.00     0.081 C 
HETATM   27  C3  UNL     1     -16.158   2.113   2.589  1.00  0.00     0.013 C 
BRANCH  27  28
HETATM   28  C2  UNL     1     -15.978   1.848   1.169  1.00  0.00     0.169 C 
BRANCH  28  29
HETATM   29  O1  UNL     1     -14.624   1.594   0.881  1.00  0.00    -0.385 OA
HETATM   30  C1  UNL     1     -14.155   2.216  -0.243  1.00  0.00     0.202 C 
ENDBRANCH  28  29
BRANCH  28  31
HETATM   31  C35 UNL     1     -16.765   0.540   0.859  1.00  0.00     0.229 C 
BRANCH  31  32
HETATM   32  O7  UNL     1     -16.751  -0.284   1.964  1.00  0.00    -0.254 OA
BRANCH  32  33
HETATM   33  S1  UNL     1     -17.615  -1.678   1.618  1.00  0.00     0.251 S 
HETATM   34  O8  UNL     1     -18.682  -1.938   2.627  1.00  0.00    -0.572 OA
HETATM   35  O9  UNL     1     -16.701  -2.878   1.599  1.00  0.00    -0.572 OA
HETATM   36  O10 UNL     1     -18.257  -1.474   0.072  1.00  0.00    -0.572 OA
ENDBRANCH  32  33
ENDBRANCH  31  32
ENDBRANCH  28  31
ENDBRANCH  27  28
ENDBRANCH  24  26
ENDBRANCH  23  24
ENDBRANCH  22  23
BRANCH  22  37
HETATM   37  C7  UNL     1     -16.624   5.600   0.794  1.00  0.00     0.081 C 
HETATM   38  C8  UNL     1     -18.119   6.030   0.733  1.00  0.00     0.020 C 
BRANCH  37  39
HETATM   39  C9  UNL     1     -16.115   5.802  -0.569  1.00  0.00     0.129 C 
HETATM   40  C10 UNL     1     -14.667   6.035  -0.774  1.00  0.00     0.091 C 
HETATM   41  O4  UNL     1     -16.856   5.782  -1.515  1.00  0.00    -0.298 OA
ENDBRANCH  37  39
ENDBRANCH  22  37
ENDBRANCH   1  22
BRANCH  17  42
HETATM   42  C27 UNL     1     -14.273  15.812   4.088  1.00  0.00    -0.026 A 
HETATM   43  C28 UNL     1     -15.272  16.719   3.781  1.00  0.00     0.152 A 
HETATM   44  O5  UNL     1     -15.626  17.308   4.891  1.00  0.00    -0.300 OA
HETATM   45  C29 UNL     1     -14.952  16.877   5.924  1.00  0.00     0.183 A 
HETATM   46  C30 UNL     1     -14.069  15.909   5.442  1.00  0.00     0.073 A 
BRANCH  45  47
HETATM   47  O6  UNL     1     -15.052  17.265   7.260  1.00  0.00    -0.341 OA
ATOM     48  H6  UNL     1     -15.078  16.723   8.039  1.00  0.00     0.220 HD
ENDBRANCH  45  47
ENDBRANCH  17  42
TORSDOF 13
ENDMDL
MODEL 2
REMARK VINA RESULT: -6.715671778      2.407      3.891
REMARK  13 active torsions:
REMARK  status: ('A' for Active; 'I' for Inactive)
REMARK    1  A    between atoms: O1_2  and  C2_3 
REMARK    2  A    between atoms: C2_3  and  C3_4 
REMARK    3  A    between atoms: C2_3  and  C35_43 
REMARK    4  A    between atoms: C4_5  and  C5_6 
REMARK    5  A    between atoms: C5_6  and  O3_8 
REMARK    6  A    between atoms: O3_8  and  C6_9 
REMARK    7  A    between atoms: C6_9  and  C7_10 
REMARK    8  A    between atoms: C6_9  and  C11_15 
REMARK    9  A    between atoms: C7_10  and  C9_12 
REMARK   10  A    between atoms: C26_31  and  C27_32 
REMARK   11  A    between atoms: C29_35  and  O6_36 
REMARK   12  A    between atoms: C35_43  and  O7_44 
REMARK   13  A    between atoms: O7_44  and  S1_45 
ROOT
HETATM    1  C11 UNL     1     -16.027   9.680   2.449  1.00  0.00     0.025 C 
HETATM    2  C12 UNL     1     -16.205   9.221   3.903  1.00  0.00     0.009 C 
HETATM    3  C13 UNL     1     -16.578  10.410   4.726  1.00  0.00     0.010 C 
HETATM    4  C14 UNL     1     -16.747  11.508   3.769  1.00  0.00     0.023 C 
HETATM    5  C15 UNL     1     -16.494  12.858   4.338  1.00  0.00    -0.072 C 
HETATM    6  C16 UNL     1     -16.234  13.965   3.695  1.00  0.00    -0.065 C 
HETATM    7  C17 UNL     1     -16.098  14.322   2.270  1.00  0.00     0.072 C 
HETATM    8  C18 UNL     1     -15.870  13.315   1.258  1.00  0.00     0.174 C 
HETATM    9  F1  UNL     1     -14.544  13.214   0.848  1.00  0.00    -0.249 F 
HETATM   10  C19 UNL     1     -16.359  11.928   1.483  1.00  0.00     0.047 C 
HETATM   11  C20 UNL     1     -15.824  11.194   2.620  1.00  0.00    -0.028 C 
HETATM   12  C21 UNL     1     -14.385  11.373   2.982  1.00  0.00     0.016 C 
HETATM   13  C22 UNL     1     -15.971  15.207   4.475  1.00  0.00    -0.012 C 
HETATM   14  C23 UNL     1     -14.612  15.810   4.126  1.00  0.00     0.021 C 
HETATM   15  C24 UNL     1     -17.044  16.233   4.135  1.00  0.00     0.015 C 
HETATM   16  C25 UNL     1     -16.713  17.296   5.174  1.00  0.00     0.011 C 
HETATM   17  C26 UNL     1     -16.352  16.505   6.409  1.00  0.00     0.030 C 
HETATM   18  C31 UNL     1     -16.072  15.094   5.945  1.00  0.00    -0.025 C 
HETATM   19  C32 UNL     1     -14.802  14.634   6.639  1.00  0.00     0.017 C 
HETATM   20  C33 UNL     1     -17.152  14.109   6.326  1.00  0.00     0.015 C 
HETATM   21  C34 UNL     1     -16.607  12.755   5.819  1.00  0.00     0.036 C 
ENDROOT
BRANCH   1  22
HETATM   22  C6  UNL     1     -14.829   9.025   1.849  1.00  0.00     0.147 C 
BRANCH  22  23
HETATM   23  O3  UNL     1     -14.506   7.851   2.654  1.00  0.00    -0.311 OA
BRANCH  23  24
HETATM   24  C5  UNL     1     -13.410   7.081   2.304  1.00  0.00     0.283 C 
HETATM   25  O2  UNL     1     -12.262   7.593   2.606  1.00  0.00    -0.260 OA
BRANCH  24  26
HETATM   26  C4  UNL     1     -13.448   5.810   1.658  1.00  0.00     0.081 C 
HETATM   27  C3  UNL     1     -14.174   4.805   1.957  1.00  0.00     0.013 C 
BRANCH  27  28
HETATM   28  C2  UNL     1     -15.176   4.549   2.981  1.00  0.00     0.169 C 
BRANCH  28  29
HETATM   29  O1  UNL     1     -16.401   5.153   2.639  1.00  0.00    -0.385 OA
HETATM   30  C1  UNL     1     -17.147   5.571   3.705  1.00  0.00     0.202 C 
ENDBRANCH  28  29
BRANCH  28  31
HETATM   31  C35 UNL     1     -15.413   3.010   2.995  1.00  0.00     0.229 C 
BRANCH  31  32
HETATM   32  O7  UNL     1     -14.644   2.412   2.019  1.00  0.00    -0.254 OA
BRANCH  32  33
HETATM   33  S1  UNL     1     -15.652   1.639   0.925  1.00  0.00     0.251 S 
HETATM   34  O8  UNL     1     -14.904   1.135  -0.262  1.00  0.00    -0.572 OA
HETATM   35  O9  UNL     1     -16.718   2.583   0.427  1.00  0.00    -0.572 OA
HETATM   36  O10 UNL     1     -16.402   0.384   1.766  1.00  0.00    -0.572 OA
ENDBRANCH  32  33
ENDBRANCH  31  32
ENDBRANCH  28  31
ENDBRANCH  27  28
ENDBRANCH  24  26
ENDBRANCH  23  24
ENDBRANCH  22  23
BRANCH  22  37
HETATM   37  C7  UNL     1     -14.972   8.470   0.463  1.00  0.00     0.081 C 
HETATM   38  C8  UNL     1     -16.485   8.144   0.302  1.00  0.00     0.020 C 
BRANCH  37  39
HETATM   39  C9  UNL     1     -14.665   9.401  -0.631  1.00  0.00     0.129 C 
HETATM   40  C10 UNL     1     -13.486  10.290  -0.516  1.00  0.00     0.091 C 
HETATM   41  O4  UNL     1     -15.358   9.452  -1.612  1.00  0.00    -0.298 OA
ENDBRANCH  37  39
ENDBRANCH  22  37
ENDBRANCH   1  22
BRANCH  17  42
HETATM   42  C27 UNL     1     -17.392  16.623   7.428  1.00  0.00    -0.026 A 
HETATM   43  C28 UNL     1     -17.201  16.595   8.798  1.00  0.00     0.152 A 
HETATM   44  O5  UNL     1     -18.368  16.747   9.362  1.00  0.00    -0.300 OA
HETATM   45  C29 UNL     1     -19.333  16.877   8.492  1.00  0.00     0.183 A 
HETATM   46  C30 UNL     1     -18.739  16.801   7.231  1.00  0.00     0.073 A 
BRANCH  45  47
HETATM   47  O6  UNL     1     -20.698  17.058   8.716  1.00  0.00    -0.341 OA
ATOM     48  H6  UNL     1     -21.315  17.600   8.240  1.00  0.00     0.220 HD
ENDBRANCH  45  47
ENDBRANCH  17  42
TORSDOF 13
ENDMDL
MODEL 3
REMARK VINA RESULT: -6.647614428      1.468      1.935
REMARK  13 active torsions:
REMARK  status: ('A' for Active; 'I' for Inactive)
REMARK    1  A    between atoms: O1_2  and  C2_3 
REMARK    2  A    between atoms: C2_3  and  C3_4 
REMARK    3  A    between atoms: C2_3  and  C35_43 
REMARK    4  A    between atoms: C4_5  and  C5_6 
REMARK    5  A    between atoms: C5_6  and  O3_8 
REMARK    6  A    between atoms: O3_8  and  C6_9 
REMARK    7  A    between atoms: C6_9  and  C7_10 
REMARK    8  A    between atoms: C6_9  and  C11_15 
REMARK    9  A    between atoms: C7_10  and  C9_12 
REMARK   10  A    between atoms: C26_31  and  C27_32 
REMARK   11  A    between atoms: C29_35  and  O6_36 
REMARK   12  A    between atoms: C35_43  and  O7_44 
REMARK   13  A    between atoms: O7_44  and  S1_45 
ROOT
HETATM    1  C11 UNL     1     -17.186   6.868   2.061  1.00  0.00     0.025 C 
HETATM    2  C12 UNL     1     -17.036   7.103   3.571  1.00  0.00     0.009 C 
HETATM    3  C13 UNL     1     -16.616   8.520   3.784  1.00  0.00     0.010 C 
HETATM    4  C14 UNL     1     -16.648   9.139   2.454  1.00  0.00     0.023 C 
HETATM    5  C15 UNL     1     -15.712  10.282   2.291  1.00  0.00    -0.072 C 
HETATM    6  C16 UNL     1     -15.268  10.805   1.179  1.00  0.00    -0.065 C 
HETATM    7  C17 UNL     1     -15.484  10.519  -0.252  1.00  0.00     0.072 C 
HETATM    8  C18 UNL     1     -16.020   9.253  -0.697  1.00  0.00     0.174 C 
HETATM    9  F1  UNL     1     -15.058   8.368  -1.175  1.00  0.00    -0.249 F 
HETATM   10  C19 UNL     1     -16.909   8.476   0.208  1.00  0.00     0.047 C 
HETATM   11  C20 UNL     1     -16.361   8.027   1.479  1.00  0.00    -0.028 C 
HETATM   12  C21 UNL     1     -14.936   7.578   1.532  1.00  0.00     0.016 C 
HETATM   13  C22 UNL     1     -14.296  11.932   1.250  1.00  0.00    -0.012 C 
HETATM   14  C23 UNL     1     -13.010  11.610   0.493  1.00  0.00     0.021 C 
HETATM   15  C24 UNL     1     -14.926  13.160   0.609  1.00  0.00     0.015 C 
HETATM   16  C25 UNL     1     -13.880  14.203   0.980  1.00  0.00     0.011 C 
HETATM   17  C26 UNL     1     -13.471  13.829   2.385  1.00  0.00     0.030 C 
HETATM   18  C31 UNL     1     -13.939  12.408   2.603  1.00  0.00    -0.025 C 
HETATM   19  C32 UNL     1     -12.800  11.655   3.265  1.00  0.00     0.017 C 
HETATM   20  C33 UNL     1     -15.125  12.300   3.531  1.00  0.00     0.015 C 
HETATM   21  C34 UNL     1     -15.358  10.777   3.650  1.00  0.00     0.036 C 
ENDROOT
BRANCH   1  22
HETATM   22  C6  UNL     1     -16.614   5.541   1.691  1.00  0.00     0.147 C 
BRANCH  22  23
HETATM   23  O3  UNL     1     -16.961   4.591   2.744  1.00  0.00    -0.311 OA
BRANCH  23  24
HETATM   24  C5  UNL     1     -16.220   3.428   2.865  1.00  0.00     0.283 C 
HETATM   25  O2  UNL     1     -15.234   3.491   3.700  1.00  0.00    -0.260 OA
BRANCH  24  26
HETATM   26  C4  UNL     1     -16.453   2.207   2.166  1.00  0.00     0.081 C 
HETATM   27  C3  UNL     1     -16.953   1.127   2.626  1.00  0.00     0.013 C 
BRANCH  27  28
HETATM   28  C2  UNL     1     -17.452   0.719   3.931  1.00  0.00     0.169 C 
BRANCH  28  29
HETATM   29  O1  UNL     1     -18.606   1.450   4.271  1.00  0.00    -0.385 OA
HETATM   30  C1  UNL     1     -19.399   0.855   5.212  1.00  0.00     0.202 C 
ENDBRANCH  28  29
BRANCH  28  31
HETATM   31  C35 UNL     1     -17.879  -0.773   3.795  1.00  0.00     0.229 C 
BRANCH  31  32
HETATM   32  O7  UNL     1     -16.831  -1.512   3.288  1.00  0.00    -0.254 OA
BRANCH  32  33
HETATM   33  S1  UNL     1     -17.443  -2.740   2.326  1.00  0.00     0.251 S 
HETATM   34  O8  UNL     1     -18.068  -3.825   3.136  1.00  0.00    -0.572 OA
HETATM   35  O9  UNL     1     -16.347  -3.362   1.497  1.00  0.00    -0.572 OA
HETATM   36  O10 UNL     1     -18.559  -2.024   1.283  1.00  0.00    -0.572 OA
ENDBRANCH  32  33
ENDBRANCH  31  32
ENDBRANCH  28  31
ENDBRANCH  27  28
ENDBRANCH  24  26
ENDBRANCH  23  24
ENDBRANCH  22  23
BRANCH  22  37
HETATM   37  C7  UNL     1     -17.141   4.890   0.446  1.00  0.00     0.081 C 
HETATM   38  C8  UNL     1     -18.484   5.612   0.138  1.00  0.00     0.020 C 
BRANCH  37  39
HETATM   39  C9  UNL     1     -16.325   5.073  -0.762  1.00  0.00     0.129 C 
HETATM   40  C10 UNL     1     -14.889   4.710  -0.729  1.00  0.00     0.091 C 
HETATM   41  O4  UNL     1     -16.806   5.515  -1.772  1.00  0.00    -0.298 OA
ENDBRANCH  37  39
ENDBRANCH  22  37
ENDBRANCH   1  22
BRANCH  17  42
HETATM   42  C27 UNL     1     -13.978  14.799   3.353  1.00  0.00    -0.026 A 
HETATM   43  C28 UNL     1     -14.742  15.917   3.066  1.00  0.00     0.152 A 
HETATM   44  O5  UNL     1     -15.007  16.515   4.196  1.00  0.00    -0.300 OA
HETATM   45  C29 UNL     1     -14.489  15.897   5.224  1.00  0.00     0.183 A 
HETATM   46  C30 UNL     1     -13.816  14.784   4.716  1.00  0.00     0.073 A 
BRANCH  45  47
HETATM   47  O6  UNL     1     -14.559  16.233   6.576  1.00  0.00    -0.341 OA
ATOM     48  H6  UNL     1     -15.320  16.462   7.096  1.00  0.00     0.220 HD
ENDBRANCH  45  47
ENDBRANCH  17  42
TORSDOF 13
ENDMDL
MODEL 4
REMARK VINA RESULT: -6.635379971      2.653      3.442
REMARK  13 active torsions:
REMARK  status: ('A' for Active; 'I' for Inactive)
REMARK    1  A    between atoms: O1_2  and  C2_3 
REMARK    2  A    between atoms: C2_3  and  C3_4 
REMARK    3  A    between atoms: C2_3  and  C35_43 
REMARK    4  A    between atoms: C4_5  and  C5_6 
REMARK    5  A    between atoms: C5_6  and  O3_8 
REMARK    6  A    between atoms: O3_8  and  C6_9 
REMARK    7  A    between atoms: C6_9  and  C7_10 
REMARK    8  A    between atoms: C6_9  and  C11_15 
REMARK    9  A    between atoms: C7_10  and  C9_12 
REMARK   10  A    between atoms: C26_31  and  C27_32 
REMARK   11  A    between atoms: C29_35  and  O6_36 
REMARK   12  A    between atoms: C35_43  and  O7_44 
REMARK   13  A    between atoms: O7_44  and  S1_45 
ROOT
HETATM    1  C11 UNL     1     -17.096   6.121   2.399  1.00  0.00     0.025 C 
HETATM    2  C12 UNL     1     -17.057   6.513   3.882  1.00  0.00     0.009 C 
HETATM    3  C13 UNL     1     -16.892   7.995   3.970  1.00  0.00     0.010 C 
HETATM    4  C14 UNL     1     -16.965   8.477   2.586  1.00  0.00     0.023 C 
HETATM    5  C15 UNL     1     -16.228   9.744   2.343  1.00  0.00    -0.072 C 
HETATM    6  C16 UNL     1     -15.828  10.233   1.199  1.00  0.00    -0.065 C 
HETATM    7  C17 UNL     1     -15.926   9.787  -0.204  1.00  0.00     0.072 C 
HETATM    8  C18 UNL     1     -16.220   8.413  -0.541  1.00  0.00     0.174 C 
HETATM    9  F1  UNL     1     -15.103   7.667  -0.902  1.00  0.00    -0.249 F 
HETATM   10  C19 UNL     1     -17.008   7.579   0.408  1.00  0.00     0.047 C 
HETATM   11  C20 UNL     1     -16.451   7.347   1.733  1.00  0.00    -0.028 C 
HETATM   12  C21 UNL     1     -14.975   7.156   1.871  1.00  0.00     0.016 C 
HETATM   13  C22 UNL     1     -15.063  11.512   1.190  1.00  0.00    -0.012 C 
HETATM   14  C23 UNL     1     -13.707  11.349   0.507  1.00  0.00     0.021 C 
HETATM   15  C24 UNL     1     -15.860  12.551   0.415  1.00  0.00     0.015 C 
HETATM   16  C25 UNL     1     -15.022  13.787   0.715  1.00  0.00     0.011 C 
HETATM   17  C26 UNL     1     -14.622  13.617   2.162  1.00  0.00     0.030 C 
HETATM   18  C31 UNL     1     -14.854  12.162   2.501  1.00  0.00    -0.025 C 
HETATM   19  C32 UNL     1     -13.636  11.678   3.267  1.00  0.00     0.017 C 
HETATM   20  C33 UNL     1     -16.047  11.936   3.399  1.00  0.00     0.015 C 
HETATM   21  C34 UNL     1     -16.025  10.412   3.657  1.00  0.00     0.036 C 
ENDROOT
BRANCH   1  22
HETATM   22  C6  UNL     1     -16.293   4.884   2.175  1.00  0.00     0.147 C 
BRANCH  22  23
HETATM   23  O3  UNL     1     -17.121   3.737   2.537  1.00  0.00    -0.311 OA
BRANCH  23  24
HETATM   24  C5  UNL     1     -16.891   3.099   3.743  1.00  0.00     0.283 C 
HETATM   25  O2  UNL     1     -15.695   2.633   3.897  1.00  0.00    -0.260 OA
BRANCH  24  26
HETATM   26  C4  UNL     1     -17.838   2.924   4.794  1.00  0.00     0.081 C 
HETATM   27  C3  UNL     1     -18.556   1.897   5.036  1.00  0.00     0.013 C 
BRANCH  27  28
HETATM   28  C2  UNL     1     -18.700   0.593   4.406  1.00  0.00     0.169 C 
BRANCH  28  29
HETATM   29  O1  UNL     1     -17.494  -0.129   4.480  1.00  0.00    -0.385 OA
HETATM   30  C1  UNL     1     -17.351  -1.097   3.525  1.00  0.00     0.202 C 
ENDBRANCH  28  29
BRANCH  28  31
HETATM   31  C35 UNL     1     -19.754  -0.190   5.244  1.00  0.00     0.229 C 
BRANCH  31  32
HETATM   32  O7  UNL     1     -20.540   0.698   5.948  1.00  0.00    -0.254 OA
BRANCH  32  33
HETATM   33  S1  UNL     1     -21.621  -0.163   6.896  1.00  0.00     0.251 S 
HETATM   34  O8  UNL     1     -23.022   0.317   6.721  1.00  0.00    -0.572 OA
HETATM   35  O9  UNL     1     -21.271  -0.027   8.357  1.00  0.00    -0.572 OA
HETATM   36  O10 UNL     1     -21.460  -1.784   6.459  1.00  0.00    -0.572 OA
ENDBRANCH  32  33
ENDBRANCH  31  32
ENDBRANCH  28  31
ENDBRANCH  27  28
ENDBRANCH  24  26
ENDBRANCH  23  24
ENDBRANCH  22  23
BRANCH  22  37
HETATM   37  C7  UNL     1     -15.874   4.582   0.766  1.00  0.00     0.081 C 
HETATM   38  C8  UNL     1     -14.574   3.736   0.893  1.00  0.00     0.020 C 
BRANCH  37  39
HETATM   39  C9  UNL     1     -16.800   3.744  -0.007  1.00  0.00     0.129 C 
HETATM   40  C10 UNL     1     -17.847   4.390  -0.831  1.00  0.00     0.091 C 
HETATM   41  O4  UNL     1     -16.720   2.544   0.023  1.00  0.00    -0.298 OA
ENDBRANCH  37  39
ENDBRANCH  22  37
ENDBRANCH   1  22
BRANCH  17  42
HETATM   42  C27 UNL     1     -15.329  14.568   3.015  1.00  0.00    -0.026 A 
HETATM   43  C28 UNL     1     -14.826  15.181   4.149  1.00  0.00     0.152 A 
HETATM   44  O5  UNL     1     -15.754  15.969   4.617  1.00  0.00    -0.300 OA
HETATM   45  C29 UNL     1     -16.844  15.944   3.898  1.00  0.00     0.183 A 
HETATM   46  C30 UNL     1     -16.605  15.048   2.854  1.00  0.00     0.073 A 
BRANCH  45  47
HETATM   47  O6  UNL     1     -18.034  16.646   4.084  1.00  0.00    -0.341 OA
ATOM     48  H6  UNL     1     -18.597  17.052   3.435  1.00  0.00     0.220 HD
ENDBRANCH  45  47
ENDBRANCH  17  42
TORSDOF 13
ENDMDL
MODEL 5
REMARK VINA RESULT: -6.570210920      7.516     13.662
REMARK  13 active torsions:
REMARK  status: ('A' for Active; 'I' for Inactive)
REMARK    1  A    between atoms: O1_2  and  C2_3 
REMARK    2  A    between atoms: C2_3  and  C3_4 
REMARK    3  A    between atoms: C2_3  and  C35_43 
REMARK    4  A    between atoms: C4_5  and  C5_6 
REMARK    5  A    between atoms: C5_6  and  O3_8 
REMARK    6  A    between atoms: O3_8  and  C6_9 
REMARK    7  A    between atoms: C6_9  and  C7_10 
REMARK    8  A    between atoms: C6_9  and  C11_15 
REMARK    9  A    between atoms: C7_10  and  C9_12 
REMARK   10  A    between atoms: C26_31  and  C27_32 
REMARK   11  A    between atoms: C29_35  and  O6_36 
REMARK   12  A    between atoms: C35_43  and  O7_44 
REMARK   13  A    between atoms: O7_44  and  S1_45 
ROOT
HETATM    1  C11 UNL     1     -17.333  16.547   8.363  1.00  0.00     0.025 C 
HETATM    2  C12 UNL     1     -17.527  15.033   8.529  1.00  0.00     0.009 C 
HETATM    3  C13 UNL     1     -16.594  14.337   7.594  1.00  0.00     0.010 C 
HETATM    4  C14 UNL     1     -15.781  15.399   6.993  1.00  0.00     0.023 C 
HETATM    5  C15 UNL     1     -15.258  15.075   5.640  1.00  0.00    -0.072 C 
HETATM    6  C16 UNL     1     -14.810  15.902   4.734  1.00  0.00    -0.065 C 
HETATM    7  C17 UNL     1     -14.641  17.366   4.667  1.00  0.00     0.072 C 
HETATM    8  C18 UNL     1     -15.340  18.249   5.572  1.00  0.00     0.174 C 
HETATM    9  F1  UNL     1     -16.466  18.852   5.018  1.00  0.00    -0.249 F 
HETATM   10  C19 UNL     1     -15.735  17.754   6.919  1.00  0.00     0.047 C 
HETATM   11  C20 UNL     1     -16.653  16.627   6.986  1.00  0.00    -0.028 C 
HETATM   12  C21 UNL     1     -17.757  16.535   5.982  1.00  0.00     0.016 C 
HETATM   13  C22 UNL     1     -14.368  15.359   3.418  1.00  0.00    -0.012 C 
HETATM   14  C23 UNL     1     -15.125  16.006   2.262  1.00  0.00     0.021 C 
HETATM   15  C24 UNL     1     -12.886  15.660   3.239  1.00  0.00     0.015 C 
HETATM   16  C25 UNL     1     -12.615  14.850   1.978  1.00  0.00     0.011 C 
HETATM   17  C26 UNL     1     -13.428  13.592   2.167  1.00  0.00     0.030 C 
HETATM   18  C31 UNL     1     -14.431  13.891   3.258  1.00  0.00    -0.025 C 
HETATM   19  C32 UNL     1     -15.774  13.356   2.796  1.00  0.00     0.017 C 
HETATM   20  C33 UNL     1     -14.120  13.203   4.567  1.00  0.00     0.015 C 
HETATM   21  C34 UNL     1     -15.306  13.597   5.477  1.00  0.00     0.036 C 
ENDROOT
BRANCH   1  22
HETATM   22  C6  UNL     1     -18.656  17.236   8.368  1.00  0.00     0.147 C 
BRANCH  22  23
HETATM   23  O3  UNL     1     -19.618  16.362   9.032  1.00  0.00    -0.311 OA
BRANCH  23  24
HETATM   24  C5  UNL     1     -20.968  16.548   8.791  1.00  0.00     0.283 C 
HETATM   25  O2  UNL     1     -21.266  16.897   7.583  1.00  0.00    -0.260 OA
BRANCH  24  26
HETATM   26  C4  UNL     1     -22.020  16.388   9.741  1.00  0.00     0.081 C 
HETATM   27  C3  UNL     1     -22.143  16.960  10.874  1.00  0.00     0.013 C 
BRANCH  27  28
HETATM   28  C2  UNL     1     -21.342  17.928  11.610  1.00  0.00     0.169 C 
BRANCH  28  29
HETATM   29  O1  UNL     1     -21.548  19.226  11.108  1.00  0.00    -0.385 OA
HETATM   30  C1  UNL     1     -20.842  20.204  11.752  1.00  0.00     0.202 C 
ENDBRANCH  28  29
BRANCH  28  31
HETATM   31  C35 UNL     1     -21.869  17.915  13.076  1.00  0.00     0.229 C 
BRANCH  31  32
HETATM   32  O7  UNL     1     -20.958  17.278  13.892  1.00  0.00    -0.254 OA
BRANCH  32  33
HETATM   33  S1  UNL     1     -20.998  17.985  15.412  1.00  0.00     0.251 S 
HETATM   34  O8  UNL     1     -22.392  18.282  15.853  1.00  0.00    -0.572 OA
HETATM   35  O9  UNL     1     -20.232  19.285  15.413  1.00  0.00    -0.572 OA
HETATM   36  O10 UNL     1     -20.229  16.913  16.462  1.00  0.00    -0.572 OA
ENDBRANCH  32  33
ENDBRANCH  31  32
ENDBRANCH  28  31
ENDBRANCH  27  28
ENDBRANCH  24  26
ENDBRANCH  23  24
ENDBRANCH  22  23
BRANCH  22  37
HETATM   37  C7  UNL     1     -18.758  18.519   9.140  1.00  0.00     0.081 C 
HETATM   38  C8  UNL     1     -17.535  18.521  10.102  1.00  0.00     0.020 C 
BRANCH  37  39
HETATM   39  C9  UNL     1     -18.624  19.750   8.350  1.00  0.00     0.129 C 
HETATM   40  C10 UNL     1     -19.168  19.790   6.973  1.00  0.00     0.091 C 
HETATM   41  O4  UNL     1     -18.077  20.719   8.805  1.00  0.00    -0.298 OA
ENDBRANCH  37  39
ENDBRANCH  22  37
ENDBRANCH   1  22
BRANCH  17  42
HETATM   42  C27 UNL     1     -12.563  12.443   2.424  1.00  0.00    -0.026 A 
HETATM   43  C28 UNL     1     -12.879  11.115   2.204  1.00  0.00     0.152 A 
HETATM   44  O5  UNL     1     -11.841  10.400   2.542  1.00  0.00    -0.300 OA
HETATM   45  C29 UNL     1     -10.848  11.130   2.972  1.00  0.00     0.183 A 
HETATM   46  C30 UNL     1     -11.279  12.457   2.910  1.00  0.00     0.073 A 
BRANCH  45  47
HETATM   47  O6  UNL     1      -9.589  10.725   3.416  1.00  0.00    -0.341 OA
ATOM     48  H6  UNL     1      -8.780  11.221   3.452  1.00  0.00     0.220 HD
ENDBRANCH  45  47
ENDBRANCH  17  42
TORSDOF 13
ENDMDL
