MODEL 1
REMARK VINA RESULT: -8.396637147      0.000      0.000
REMARK  2 active torsions:
REMARK  status: ('A' for Active; 'I' for Inactive)
REMARK    1  A    between atoms: C2_2  and  C3_3 
REMARK    2  A    between atoms: C8_9  and  O2_10 
ROOT
HETATM    1  C3  UNL     1     -21.652  51.649  -0.921  1.00  0.00     0.016 C 
HETATM    2  C4  UNL     1     -20.496  52.061  -0.094  1.00  0.00     0.010 C 
HETATM    3  C5  UNL     1     -20.576  53.324   0.657  1.00  0.00     0.041 C 
HETATM    4  C6  UNL     1     -20.195  54.557  -0.165  1.00  0.00     0.093 C 
HETATM    5  O1  UNL     1     -20.790  54.530  -1.416  1.00  0.00    -0.375 OA
HETATM    6  C7  UNL     1     -22.100  54.098  -1.402  1.00  0.00     0.201 C 
HETATM    7  C8  UNL     1     -22.119  52.670  -1.895  1.00  0.00     0.148 C 
HETATM    8  C10 UNL     1     -20.608  55.791   0.606  1.00  0.00     0.025 C 
HETATM    9  C11 UNL     1     -19.811  55.905   1.880  1.00  0.00     0.012 C 
HETATM   10  C12 UNL     1     -18.338  55.957   1.558  1.00  0.00    -0.010 C 
HETATM   11  C13 UNL     1     -18.124  57.193   0.691  1.00  0.00     0.037 C 
HETATM   12  C14 UNL     1     -18.878  57.010  -0.597  1.00  0.00     0.187 C 
HETATM   13  C15 UNL     1     -20.371  57.006  -0.262  1.00  0.00     0.040 C 
HETATM   14  N1  UNL     1     -18.507  55.802  -1.275  1.00  0.00    -0.064 N 
ATOM     15  H11 UNL     1     -17.546  55.851  -1.612  1.00  0.00     0.278 HD
ATOM     16  H12 UNL     1     -18.991  55.721  -2.170  1.00  0.00     0.278 HD
HETATM   17  C16 UNL     1     -18.717  54.616  -0.455  1.00  0.00     0.221 C 
HETATM   18  C17 UNL     1     -17.870  54.769   0.772  1.00  0.00     0.041 C 
ENDROOT
BRANCH   1  19
HETATM   19  C2  UNL     1     -22.732  50.923  -0.183  1.00  0.00     0.002 C 
HETATM   20  C1  UNL     1     -22.929  49.488  -0.471  1.00  0.00     0.005 C 
ENDBRANCH   1  19
BRANCH   7  21
HETATM   21  O2  UNL     1     -23.331  52.344  -2.470  1.00  0.00    -0.388 OA
HETATM   22  C9  UNL     1     -23.199  51.895  -3.795  1.00  0.00     0.202 C 
ENDBRANCH   7  21
TORSDOF 2
ENDMDL
MODEL 2
REMARK VINA RESULT: -8.259639360      1.040      1.232
REMARK  2 active torsions:
REMARK  status: ('A' for Active; 'I' for Inactive)
REMARK    1  A    between atoms: C2_2  and  C3_3 
REMARK    2  A    between atoms: C8_9  and  O2_10 
ROOT
HETATM    1  C3  UNL     1     -21.368  51.659  -0.174  1.00  0.00     0.016 C 
HETATM    2  C4  UNL     1     -20.646  52.389   0.891  1.00  0.00     0.010 C 
HETATM    3  C5  UNL     1     -20.785  53.852   0.968  1.00  0.00     0.041 C 
HETATM    4  C6  UNL     1     -19.828  54.613   0.049  1.00  0.00     0.093 C 
HETATM    5  O1  UNL     1     -19.792  54.050  -1.217  1.00  0.00    -0.375 OA
HETATM    6  C7  UNL     1     -21.028  53.662  -1.691  1.00  0.00     0.201 C 
HETATM    7  C8  UNL     1     -21.125  52.162  -1.551  1.00  0.00     0.148 C 
HETATM    8  C10 UNL     1     -20.272  56.057  -0.012  1.00  0.00     0.025 C 
HETATM    9  C11 UNL     1     -20.124  56.709   1.339  1.00  0.00     0.012 C 
HETATM   10  C12 UNL     1     -18.689  56.621   1.794  1.00  0.00    -0.010 C 
HETATM   11  C13 UNL     1     -17.856  57.366   0.756  1.00  0.00     0.037 C 
HETATM   12  C14 UNL     1     -17.974  56.646  -0.558  1.00  0.00     0.187 C 
HETATM   13  C15 UNL     1     -19.422  56.783  -1.031  1.00  0.00     0.040 C 
HETATM   14  N1  UNL     1     -17.603  55.265  -0.455  1.00  0.00    -0.064 N 
ATOM     15  H11 UNL     1     -16.606  55.166  -0.263  1.00  0.00     0.278 HD
ATOM     16  H12 UNL     1     -17.640  54.806  -1.365  1.00  0.00     0.278 HD
HETATM   17  C16 UNL     1     -18.401  54.545   0.529  1.00  0.00     0.221 C 
HETATM   18  C17 UNL     1     -18.180  55.212   1.853  1.00  0.00     0.041 C 
ENDROOT
BRANCH   1  19
HETATM   19  C2  UNL     1     -22.790  51.317   0.144  1.00  0.00     0.002 C 
HETATM   20  C1  UNL     1     -23.579  52.284   0.933  1.00  0.00     0.005 C 
ENDBRANCH   1  19
BRANCH   7  21
HETATM   21  O2  UNL     1     -21.990  51.617  -2.479  1.00  0.00    -0.388 OA
HETATM   22  C9  UNL     1     -21.809  52.149  -3.768  1.00  0.00     0.202 C 
ENDBRANCH   7  21
TORSDOF 2
ENDMDL
MODEL 3
REMARK VINA RESULT: -8.172169829      2.534      4.944
REMARK  2 active torsions:
REMARK  status: ('A' for Active; 'I' for Inactive)
REMARK    1  A    between atoms: C2_2  and  C3_3 
REMARK    2  A    between atoms: C8_9  and  O2_10 
ROOT
HETATM    1  C3  UNL     1     -21.682  57.303   0.439  1.00  0.00     0.016 C 
HETATM    2  C4  UNL     1     -20.682  56.736  -0.493  1.00  0.00     0.010 C 
HETATM    3  C5  UNL     1     -20.774  55.312  -0.852  1.00  0.00     0.041 C 
HETATM    4  C6  UNL     1     -20.099  54.377   0.153  1.00  0.00     0.093 C 
HETATM    5  O1  UNL     1     -20.424  54.719   1.456  1.00  0.00    -0.375 OA
HETATM    6  C7  UNL     1     -21.748  55.064   1.628  1.00  0.00     0.201 C 
HETATM    7  C8  UNL     1     -21.823  56.570   1.724  1.00  0.00     0.148 C 
HETATM    8  C10 UNL     1     -20.522  52.959  -0.157  1.00  0.00     0.025 C 
HETATM    9  C11 UNL     1     -19.995  52.536  -1.505  1.00  0.00     0.012 C 
HETATM   10  C12 UNL     1     -18.491  52.650  -1.524  1.00  0.00    -0.010 C 
HETATM   11  C13 UNL     1     -17.969  51.715  -0.438  1.00  0.00     0.037 C 
HETATM   12  C14 UNL     1     -18.458  52.210   0.895  1.00  0.00     0.187 C 
HETATM   13  C15 UNL     1     -19.979  52.045   0.918  1.00  0.00     0.040 C 
HETATM   14  N1  UNL     1     -18.092  53.575   1.134  1.00  0.00    -0.064 N 
ATOM     15  H11 UNL     1     -17.083  53.671   1.244  1.00  0.00     0.278 HD
ATOM     16  H12 UNL     1     -18.388  53.877   2.062  1.00  0.00     0.278 HD
HETATM   17  C16 UNL     1     -18.596  54.476   0.104  1.00  0.00     0.221 C 
HETATM   18  C17 UNL     1     -18.006  54.031  -1.201  1.00  0.00     0.041 C 
ENDROOT
BRANCH   1  19
HETATM   19  C2  UNL     1     -22.964  57.740  -0.197  1.00  0.00     0.002 C 
HETATM   20  C1  UNL     1     -23.701  56.764  -1.023  1.00  0.00     0.005 C 
ENDBRANCH   1  19
BRANCH   7  21
HETATM   21  O2  UNL     1     -22.920  56.981   2.455  1.00  0.00    -0.388 OA
HETATM   22  C9  UNL     1     -22.742  56.816   3.840  1.00  0.00     0.202 C 
ENDBRANCH   7  21
TORSDOF 2
ENDMDL
MODEL 4
REMARK VINA RESULT: -7.917617294      2.545      4.072
REMARK  2 active torsions:
REMARK  status: ('A' for Active; 'I' for Inactive)
REMARK    1  A    between atoms: C2_2  and  C3_3 
REMARK    2  A    between atoms: C8_9  and  O2_10 
ROOT
HETATM    1  C3  UNL     1     -19.845  52.491  -1.925  1.00  0.00     0.016 C 
HETATM    2  C4  UNL     1     -20.798  53.606  -2.118  1.00  0.00     0.010 C 
HETATM    3  C5  UNL     1     -20.488  54.915  -1.522  1.00  0.00     0.041 C 
HETATM    4  C6  UNL     1     -20.913  55.044  -0.058  1.00  0.00     0.093 C 
HETATM    5  O1  UNL     1     -20.555  53.921   0.671  1.00  0.00    -0.375 OA
HETATM    6  C7  UNL     1     -19.302  53.433   0.365  1.00  0.00     0.201 C 
HETATM    7  C8  UNL     1     -19.482  52.216  -0.510  1.00  0.00     0.148 C 
HETATM    8  C10 UNL     1     -20.274  56.290   0.515  1.00  0.00     0.025 C 
HETATM    9  C11 UNL     1     -20.819  57.520  -0.164  1.00  0.00     0.012 C 
HETATM   10  C12 UNL     1     -22.317  57.574   0.004  1.00  0.00    -0.010 C 
HETATM   11  C13 UNL     1     -22.587  57.639   1.504  1.00  0.00     0.037 C 
HETATM   12  C14 UNL     1     -22.092  56.366   2.133  1.00  0.00     0.187 C 
HETATM   13  C15 UNL     1     -20.569  56.346   1.998  1.00  0.00     0.040 C 
HETATM   14  N1  UNL     1     -22.671  55.202   1.529  1.00  0.00    -0.064 N 
ATOM     15  H11 UNL     1     -23.670  55.145   1.723  1.00  0.00     0.278 HD
ATOM     16  H12 UNL     1     -22.363  54.352   2.001  1.00  0.00     0.278 HD
HETATM   17  C16 UNL     1     -22.410  55.130   0.096  1.00  0.00     0.221 C 
HETATM   18  C17 UNL     1     -23.009  56.355  -0.526  1.00  0.00     0.041 C 
ENDROOT
BRANCH   1  19
HETATM   19  C2  UNL     1     -18.710  52.453  -2.900  1.00  0.00     0.002 C 
HETATM   20  C1  UNL     1     -18.997  52.043  -4.289  1.00  0.00     0.005 C 
ENDBRANCH   1  19
BRANCH   7  21
HETATM   21  O2  UNL     1     -18.422  51.340  -0.392  1.00  0.00    -0.388 OA
HETATM   22  C9  UNL     1     -17.308  51.919   0.240  1.00  0.00     0.202 C 
ENDBRANCH   7  21
TORSDOF 2
ENDMDL
MODEL 5
REMARK VINA RESULT: -7.873721334      1.844      5.626
REMARK  2 active torsions:
REMARK  status: ('A' for Active; 'I' for Inactive)
REMARK    1  A    between atoms: C2_2  and  C3_3 
REMARK    2  A    between atoms: C8_9  and  O2_10 
ROOT
HETATM    1  C3  UNL     1     -19.634  56.498   1.815  1.00  0.00     0.016 C 
HETATM    2  C4  UNL     1     -20.626  55.420   2.023  1.00  0.00     0.010 C 
HETATM    3  C5  UNL     1     -20.352  54.088   1.461  1.00  0.00     0.041 C 
HETATM    4  C6  UNL     1     -20.765  53.938  -0.004  1.00  0.00     0.093 C 
HETATM    5  O1  UNL     1     -20.363  55.031  -0.755  1.00  0.00    -0.375 OA
HETATM    6  C7  UNL     1     -19.097  55.485  -0.446  1.00  0.00     0.201 C 
HETATM    7  C8  UNL     1     -19.247  56.728   0.399  1.00  0.00     0.148 C 
HETATM    8  C10 UNL     1     -20.162  52.659  -0.541  1.00  0.00     0.025 C 
HETATM    9  C11 UNL     1     -20.755  51.464   0.160  1.00  0.00     0.012 C 
HETATM   10  C12 UNL     1     -22.252  51.455  -0.024  1.00  0.00    -0.010 C 
HETATM   11  C13 UNL     1     -22.507  51.364  -1.525  1.00  0.00     0.037 C 
HETATM   12  C14 UNL     1     -21.963  52.604  -2.178  1.00  0.00     0.187 C 
HETATM   13  C15 UNL     1     -20.442  52.578  -2.026  1.00  0.00     0.040 C 
HETATM   14  N1  UNL     1     -22.510  53.801  -1.607  1.00  0.00    -0.064 N 
ATOM     15  H11 UNL     1     -23.505  53.886  -1.815  1.00  0.00     0.278 HD
ATOM     16  H12 UNL     1     -22.169  54.629  -2.096  1.00  0.00     0.278 HD
HETATM   17  C16 UNL     1     -22.262  53.898  -0.174  1.00  0.00     0.221 C 
HETATM   18  C17 UNL     1     -22.909  52.708   0.469  1.00  0.00     0.041 C 
ENDROOT
BRANCH   1  19
HETATM   19  C2  UNL     1     -18.509  56.522   2.802  1.00  0.00     0.002 C 
HETATM   20  C1  UNL     1     -18.809  56.920   4.192  1.00  0.00     0.005 C 
ENDBRANCH   1  19
BRANCH   7  21
HETATM   21  O2  UNL     1     -18.157  57.566   0.272  1.00  0.00    -0.388 OA
HETATM   22  C9  UNL     1     -17.038  56.920  -0.281  1.00  0.00     0.202 C 
ENDBRANCH   7  21
TORSDOF 2
ENDMDL
