MODEL 1
REMARK VINA RESULT: -6.828349450      0.000      0.000
REMARK  7 active torsions:
REMARK  status: ('A' for Active; 'I' for Inactive)
REMARK    1  A    between atoms: O1_2  and  C2_3 
REMARK    2  A    between atoms: C2_3  and  C3_5 
REMARK    3  A    between atoms: C3_5  and  C4_6 
REMARK    4  A    between atoms: C4_6  and  C5_7 
REMARK    5  A    between atoms: C5_7  and  C7_9 
REMARK    6  A    between atoms: C19_21  and  C21_23 
REMARK    7  A    between atoms: C27_31  and  C28_32 
ROOT
HETATM    1  C28 UNL     1      14.790  37.811   9.758  1.00  0.00     0.101 C 
HETATM    2  C29 UNL     1      13.450  38.074   9.370  1.00  0.00     0.088 C 
HETATM    3  N1  UNL     1      12.377  38.277   9.039  1.00  0.00    -0.192 NA
ENDROOT
BRANCH   1   4
HETATM    4  C27 UNL     1      15.662  36.928   8.989  1.00  0.00    -0.036 C 
HETATM    5  C11 UNL     1      15.163  35.553   8.586  1.00  0.00    -0.063 C 
HETATM    6  C10 UNL     1      14.603  34.751   9.680  1.00  0.00     0.024 C 
HETATM    7  C12 UNL     1      14.501  35.419   7.272  1.00  0.00     0.016 C 
HETATM    8  C9  UNL     1      15.476  33.559  10.111  1.00  0.00     0.010 C 
HETATM    9  C15 UNL     1      13.286  34.059   9.506  1.00  0.00    -0.033 C 
HETATM   10  C8  UNL     1      15.004  32.404   9.256  1.00  0.00     0.006 C 
HETATM   11  C7  UNL     1      13.503  32.665   9.115  1.00  0.00    -0.002 C 
HETATM   12  C14 UNL     1      12.388  34.699   8.475  1.00  0.00     0.011 C 
HETATM   13  C16 UNL     1      12.563  34.245  10.845  1.00  0.00     0.016 C 
HETATM   14  C13 UNL     1      13.033  35.211   7.256  1.00  0.00     0.010 C 
HETATM   15  C17 UNL     1      14.860  36.558   6.306  1.00  0.00     0.016 C 
HETATM   16  C18 UNL     1      16.276  36.918   6.586  1.00  0.00     0.017 C 
HETATM   17  C19 UNL     1      17.023  37.472   5.431  1.00  0.00     0.049 C 
HETATM   18  C25 UNL     1      16.485  37.588   7.909  1.00  0.00    -0.011 C 
HETATM   19  C20 UNL     1      17.055  36.322   4.384  1.00  0.00     0.027 C 
HETATM   20  C22 UNL     1      18.463  37.776   5.716  1.00  0.00     0.020 C 
HETATM   21  C23 UNL     1      18.846  37.973   7.133  1.00  0.00     0.002 C 
HETATM   22  C24 UNL     1      17.991  37.372   8.164  1.00  0.00     0.014 C 
HETATM   23  C26 UNL     1      16.355  39.082   7.900  1.00  0.00     0.021 C 
BRANCH  11  24
HETATM   24  C5  UNL     1      12.788  31.534   9.749  1.00  0.00    -0.013 C 
HETATM   25  C6  UNL     1      11.360  31.328   9.480  1.00  0.00     0.010 C 
BRANCH  24  26
HETATM   26  C4  UNL     1      13.672  30.323   9.679  1.00  0.00     0.014 C 
BRANCH  26  27
HETATM   27  C3  UNL     1      13.096  28.984   9.882  1.00  0.00     0.111 C 
BRANCH  27  28
HETATM   28  C2  UNL     1      13.503  28.246  11.098  1.00  0.00     0.258 C 
HETATM   29  O2  UNL     1      14.710  28.198  11.418  1.00  0.00    -0.265 OA
BRANCH  28  30
HETATM   30  O1  UNL     1      12.561  27.597  11.906  1.00  0.00    -0.326 OA
HETATM   31  C1  UNL     1      13.068  26.864  13.021  1.00  0.00     0.213 C 
ENDBRANCH  28  30
ENDBRANCH  27  28
ENDBRANCH  26  27
ENDBRANCH  24  26
ENDBRANCH  11  24
BRANCH  17  32
HETATM   32  C21 UNL     1      16.355  38.550   4.668  1.00  0.00     0.181 C 
HETATM   33  O3  UNL     1      16.973  39.478   4.108  1.00  0.00    -0.647 OA
HETATM   34  O4  UNL     1      14.960  38.574   4.544  1.00  0.00    -0.647 OA
ENDBRANCH  17  32
ENDBRANCH   1   4
TORSDOF 7
ENDMDL
MODEL 2
REMARK VINA RESULT: -6.742622117      1.943      2.460
REMARK  7 active torsions:
REMARK  status: ('A' for Active; 'I' for Inactive)
REMARK    1  A    between atoms: O1_2  and  C2_3 
REMARK    2  A    between atoms: C2_3  and  C3_5 
REMARK    3  A    between atoms: C3_5  and  C4_6 
REMARK    4  A    between atoms: C4_6  and  C5_7 
REMARK    5  A    between atoms: C5_7  and  C7_9 
REMARK    6  A    between atoms: C19_21  and  C21_23 
REMARK    7  A    between atoms: C27_31  and  C28_32 
ROOT
HETATM    1  C28 UNL     1      14.840  37.557   9.321  1.00  0.00     0.101 C 
HETATM    2  C29 UNL     1      13.462  37.225   9.387  1.00  0.00     0.088 C 
HETATM    3  N1  UNL     1      12.354  36.951   9.420  1.00  0.00    -0.192 NA
ENDROOT
BRANCH   1   4
HETATM    4  C27 UNL     1      15.720  37.023   8.286  1.00  0.00    -0.036 C 
HETATM    5  C11 UNL     1      15.755  35.527   8.035  1.00  0.00    -0.063 C 
HETATM    6  C10 UNL     1      15.957  34.702   9.233  1.00  0.00     0.024 C 
HETATM    7  C12 UNL     1      14.842  34.979   7.011  1.00  0.00     0.016 C 
HETATM    8  C9  UNL     1      17.339  34.031   9.320  1.00  0.00     0.010 C 
HETATM    9  C15 UNL     1      15.076  33.517   9.485  1.00  0.00    -0.033 C 
HETATM   10  C8  UNL     1      17.164  32.691   8.640  1.00  0.00     0.006 C 
HETATM   11  C7  UNL     1      15.732  32.297   9.010  1.00  0.00    -0.002 C 
HETATM   12  C14 UNL     1      13.722  33.607   8.826  1.00  0.00     0.011 C 
HETATM   13  C16 UNL     1      14.796  33.548  10.992  1.00  0.00     0.016 C 
HETATM   14  C13 UNL     1      13.676  34.190   7.475  1.00  0.00     0.010 C 
HETATM   15  C17 UNL     1      14.365  36.042   6.010  1.00  0.00     0.016 C 
HETATM   16  C18 UNL     1      15.503  36.980   5.815  1.00  0.00     0.017 C 
HETATM   17  C19 UNL     1      15.546  37.648   4.492  1.00  0.00     0.049 C 
HETATM   18  C25 UNL     1      15.805  37.828   7.011  1.00  0.00    -0.011 C 
HETATM   19  C20 UNL     1      15.738  36.497   3.465  1.00  0.00     0.027 C 
HETATM   20  C22 UNL     1      16.731  38.546   4.294  1.00  0.00     0.020 C 
HETATM   21  C23 UNL     1      17.411  39.049   5.509  1.00  0.00     0.002 C 
HETATM   22  C24 UNL     1      17.258  38.278   6.749  1.00  0.00     0.014 C 
HETATM   23  C26 UNL     1      15.058  39.126   7.084  1.00  0.00     0.021 C 
BRANCH  11  24
HETATM   24  C5  UNL     1      15.800  31.058   9.815  1.00  0.00    -0.013 C 
HETATM   25  C6  UNL     1      14.657  30.137   9.840  1.00  0.00     0.010 C 
BRANCH  24  26
HETATM   26  C4  UNL     1      17.157  30.446   9.620  1.00  0.00     0.014 C 
BRANCH  26  27
HETATM   27  C3  UNL     1      17.276  29.012   9.308  1.00  0.00     0.111 C 
BRANCH  27  28
HETATM   28  C2  UNL     1      17.713  28.113  10.399  1.00  0.00     0.258 C 
HETATM   29  O2  UNL     1      18.079  26.949  10.132  1.00  0.00    -0.265 OA
BRANCH  28  30
HETATM   30  O1  UNL     1      17.725  28.540  11.733  1.00  0.00    -0.326 OA
HETATM   31  C1  UNL     1      16.585  28.204  12.525  1.00  0.00     0.213 C 
ENDBRANCH  28  30
ENDBRANCH  27  28
ENDBRANCH  26  27
ENDBRANCH  24  26
ENDBRANCH  11  24
BRANCH  17  32
HETATM   32  C21 UNL     1      14.284  38.261   4.021  1.00  0.00     0.181 C 
HETATM   33  O3  UNL     1      14.030  39.478   4.129  1.00  0.00    -0.647 OA
HETATM   34  O4  UNL     1      13.293  37.474   3.419  1.00  0.00    -0.647 OA
ENDBRANCH  17  32
ENDBRANCH   1   4
TORSDOF 7
ENDMDL
MODEL 3
REMARK VINA RESULT: -6.686661089      2.552      3.364
REMARK  7 active torsions:
REMARK  status: ('A' for Active; 'I' for Inactive)
REMARK    1  A    between atoms: O1_2  and  C2_3 
REMARK    2  A    between atoms: C2_3  and  C3_5 
REMARK    3  A    between atoms: C3_5  and  C4_6 
REMARK    4  A    between atoms: C4_6  and  C5_7 
REMARK    5  A    between atoms: C5_7  and  C7_9 
REMARK    6  A    between atoms: C19_21  and  C21_23 
REMARK    7  A    between atoms: C27_31  and  C28_32 
ROOT
HETATM    1  C28 UNL     1      14.867  37.577   9.260  1.00  0.00     0.101 C 
HETATM    2  C29 UNL     1      13.486  37.253   9.320  1.00  0.00     0.088 C 
HETATM    3  N1  UNL     1      12.377  36.985   9.348  1.00  0.00    -0.192 NA
ENDROOT
BRANCH   1   4
HETATM    4  C27 UNL     1      15.741  37.067   8.207  1.00  0.00    -0.036 C 
HETATM    5  C11 UNL     1      15.811  35.573   7.956  1.00  0.00    -0.063 C 
HETATM    6  C10 UNL     1      16.059  34.754   9.149  1.00  0.00     0.024 C 
HETATM    7  C12 UNL     1      14.894  35.000   6.950  1.00  0.00     0.016 C 
HETATM    8  C9  UNL     1      17.460  34.121   9.210  1.00  0.00     0.010 C 
HETATM    9  C15 UNL     1      15.216  33.546   9.419  1.00  0.00    -0.033 C 
HETATM   10  C8  UNL     1      17.309  32.777   8.533  1.00  0.00     0.006 C 
HETATM   11  C7  UNL     1      15.896  32.344   8.930  1.00  0.00    -0.002 C 
HETATM   12  C14 UNL     1      13.847  33.598   8.786  1.00  0.00     0.011 C 
HETATM   13  C16 UNL     1      14.965  33.570  10.931  1.00  0.00     0.016 C 
HETATM   14  C13 UNL     1      13.759  34.179   7.436  1.00  0.00     0.010 C 
HETATM   15  C17 UNL     1      14.368  36.049   5.958  1.00  0.00     0.016 C 
HETATM   16  C18 UNL     1      15.477  37.017   5.741  1.00  0.00     0.017 C 
HETATM   17  C19 UNL     1      15.476  37.686   4.418  1.00  0.00     0.049 C 
HETATM   18  C25 UNL     1      15.779  37.874   6.932  1.00  0.00    -0.011 C 
HETATM   19  C20 UNL     1      15.679  36.541   3.387  1.00  0.00     0.027 C 
HETATM   20  C22 UNL     1      16.631  38.616   4.197  1.00  0.00     0.020 C 
HETATM   21  C23 UNL     1      17.321  39.138   5.399  1.00  0.00     0.002 C 
HETATM   22  C24 UNL     1      17.213  38.363   6.641  1.00  0.00     0.014 C 
HETATM   23  C26 UNL     1      14.998  39.151   7.019  1.00  0.00     0.021 C 
BRANCH  11  24
HETATM   24  C5  UNL     1      16.013  31.107   9.734  1.00  0.00    -0.013 C 
HETATM   25  C6  UNL     1      14.876  30.185   9.829  1.00  0.00     0.010 C 
BRANCH  24  26
HETATM   26  C4  UNL     1      17.358  30.498   9.462  1.00  0.00     0.014 C 
BRANCH  26  27
HETATM   27  C3  UNL     1      18.119  29.882  10.561  1.00  0.00     0.111 C 
BRANCH  27  28
HETATM   28  C2  UNL     1      19.520  29.494  10.284  1.00  0.00     0.258 C 
HETATM   29  O2  UNL     1      19.780  28.787   9.288  1.00  0.00    -0.265 OA
BRANCH  28  30
HETATM   30  O1  UNL     1      20.568  29.905  11.118  1.00  0.00    -0.326 OA
HETATM   31  C1  UNL     1      21.413  30.944  10.622  1.00  0.00     0.213 C 
ENDBRANCH  28  30
ENDBRANCH  27  28
ENDBRANCH  26  27
ENDBRANCH  24  26
ENDBRANCH  11  24
BRANCH  17  32
HETATM   32  C21 UNL     1      14.188  38.264   3.972  1.00  0.00     0.181 C 
HETATM   33  O3  UNL     1      13.913  39.478   4.063  1.00  0.00    -0.647 OA
HETATM   34  O4  UNL     1      13.197  37.446   3.414  1.00  0.00    -0.647 OA
ENDBRANCH  17  32
ENDBRANCH   1   4
TORSDOF 7
ENDMDL
MODEL 4
REMARK VINA RESULT: -6.488096006      3.001      4.026
REMARK  7 active torsions:
REMARK  status: ('A' for Active; 'I' for Inactive)
REMARK    1  A    between atoms: O1_2  and  C2_3 
REMARK    2  A    between atoms: C2_3  and  C3_5 
REMARK    3  A    between atoms: C3_5  and  C4_6 
REMARK    4  A    between atoms: C4_6  and  C5_7 
REMARK    5  A    between atoms: C5_7  and  C7_9 
REMARK    6  A    between atoms: C19_21  and  C21_23 
REMARK    7  A    between atoms: C27_31  and  C28_32 
ROOT
HETATM    1  C28 UNL     1      14.420  36.850   9.824  1.00  0.00     0.101 C 
HETATM    2  C29 UNL     1      13.246  36.074  10.011  1.00  0.00     0.088 C 
HETATM    3  N1  UNL     1      12.302  35.445  10.141  1.00  0.00    -0.192 NA
ENDROOT
BRANCH   1   4
HETATM    4  C27 UNL     1      15.255  36.722   8.633  1.00  0.00    -0.036 C 
HETATM    5  C11 UNL     1      15.683  35.343   8.168  1.00  0.00    -0.063 C 
HETATM    6  C10 UNL     1      16.289  34.499   9.205  1.00  0.00     0.024 C 
HETATM    7  C12 UNL     1      14.829  34.653   7.180  1.00  0.00     0.016 C 
HETATM    8  C9  UNL     1      17.803  34.277   9.045  1.00  0.00     0.010 C 
HETATM    9  C15 UNL     1      15.836  33.082   9.379  1.00  0.00    -0.033 C 
HETATM   10  C8  UNL     1      17.926  33.027   8.203  1.00  0.00     0.006 C 
HETATM   11  C7  UNL     1      16.739  32.178   8.665  1.00  0.00    -0.002 C 
HETATM   12  C14 UNL     1      14.431  32.822   8.890  1.00  0.00     0.011 C 
HETATM   13  C16 UNL     1      15.782  32.868  10.896  1.00  0.00     0.016 C 
HETATM   14  C13 UNL     1      14.022  33.501   7.650  1.00  0.00     0.010 C 
HETATM   15  C17 UNL     1      13.923  35.617   6.400  1.00  0.00     0.016 C 
HETATM   16  C18 UNL     1      14.700  36.873   6.220  1.00  0.00     0.017 C 
HETATM   17  C19 UNL     1      14.354  37.657   5.010  1.00  0.00     0.049 C 
HETATM   18  C25 UNL     1      14.916  37.643   7.486  1.00  0.00    -0.011 C 
HETATM   19  C20 UNL     1      14.718  36.734   3.814  1.00  0.00     0.027 C 
HETATM   20  C22 UNL     1      15.186  38.890   4.815  1.00  0.00     0.020 C 
HETATM   21  C23 UNL     1      15.862  39.447   6.009  1.00  0.00     0.002 C 
HETATM   22  C24 UNL     1      16.121  38.540   7.135  1.00  0.00     0.014 C 
HETATM   23  C26 UNL     1      13.844  38.636   7.825  1.00  0.00     0.021 C 
BRANCH  11  24
HETATM   24  C5  UNL     1      17.280  30.941   9.272  1.00  0.00    -0.013 C 
HETATM   25  C6  UNL     1      16.364  29.914   9.781  1.00  0.00     0.010 C 
BRANCH  24  26
HETATM   26  C4  UNL     1      18.426  30.467   8.426  1.00  0.00     0.014 C 
BRANCH  26  27
HETATM   27  C3  UNL     1      19.475  29.622   9.021  1.00  0.00     0.111 C 
BRANCH  27  28
HETATM   28  C2  UNL     1      19.998  30.020  10.346  1.00  0.00     0.258 C 
HETATM   29  O2  UNL     1      19.655  29.382  11.364  1.00  0.00    -0.265 OA
BRANCH  28  30
HETATM   30  O1  UNL     1      20.875  31.103  10.487  1.00  0.00    -0.326 OA
HETATM   31  C1  UNL     1      21.995  30.913  11.354  1.00  0.00     0.213 C 
ENDBRANCH  28  30
ENDBRANCH  27  28
ENDBRANCH  26  27
ENDBRANCH  24  26
ENDBRANCH  11  24
BRANCH  17  32
HETATM   32  C21 UNL     1      12.914  37.901   4.772  1.00  0.00     0.181 C 
HETATM   33  O3  UNL     1      12.328  38.946   5.120  1.00  0.00    -0.647 OA
HETATM   34  O4  UNL     1      12.127  36.937   4.127  1.00  0.00    -0.647 OA
ENDBRANCH  17  32
ENDBRANCH   1   4
TORSDOF 7
ENDMDL
MODEL 5
REMARK VINA RESULT: -6.440001333      1.404      1.924
REMARK  7 active torsions:
REMARK  status: ('A' for Active; 'I' for Inactive)
REMARK    1  A    between atoms: O1_2  and  C2_3 
REMARK    2  A    between atoms: C2_3  and  C3_5 
REMARK    3  A    between atoms: C3_5  and  C4_6 
REMARK    4  A    between atoms: C4_6  and  C5_7 
REMARK    5  A    between atoms: C5_7  and  C7_9 
REMARK    6  A    between atoms: C19_21  and  C21_23 
REMARK    7  A    between atoms: C27_31  and  C28_32 
ROOT
HETATM    1  C28 UNL     1      14.875  37.510   9.356  1.00  0.00     0.101 C 
HETATM    2  C29 UNL     1      13.482  37.242   9.398  1.00  0.00     0.088 C 
HETATM    3  N1  UNL     1      12.363  37.020   9.412  1.00  0.00    -0.192 NA
ENDROOT
BRANCH   1   4
HETATM    4  C27 UNL     1      15.739  36.972   8.308  1.00  0.00    -0.036 C 
HETATM    5  C11 UNL     1      15.749  35.478   8.045  1.00  0.00    -0.063 C 
HETATM    6  C10 UNL     1      15.949  34.640   9.234  1.00  0.00     0.024 C 
HETATM    7  C12 UNL     1      14.820  34.952   7.024  1.00  0.00     0.016 C 
HETATM    8  C9  UNL     1      17.321  33.948   9.305  1.00  0.00     0.010 C 
HETATM    9  C15 UNL     1      15.053  33.466   9.484  1.00  0.00    -0.033 C 
HETATM   10  C8  UNL     1      17.122  32.616   8.615  1.00  0.00     0.006 C 
HETATM   11  C7  UNL     1      15.687  32.241   8.993  1.00  0.00    -0.002 C 
HETATM   12  C14 UNL     1      13.695  33.581   8.836  1.00  0.00     0.011 C 
HETATM   13  C16 UNL     1      14.786  33.489  10.993  1.00  0.00     0.016 C 
HETATM   14  C13 UNL     1      13.647  34.176   7.491  1.00  0.00     0.010 C 
HETATM   15  C17 UNL     1      14.351  36.030   6.036  1.00  0.00     0.016 C 
HETATM   16  C18 UNL     1      15.502  36.952   5.839  1.00  0.00     0.017 C 
HETATM   17  C19 UNL     1      15.544  37.631   4.522  1.00  0.00     0.049 C 
HETATM   18  C25 UNL     1      15.826  37.786   7.040  1.00  0.00    -0.011 C 
HETATM   19  C20 UNL     1      15.710  36.486   3.483  1.00  0.00     0.027 C 
HETATM   20  C22 UNL     1      16.740  38.513   4.321  1.00  0.00     0.020 C 
HETATM   21  C23 UNL     1      17.437  38.996   5.535  1.00  0.00     0.002 C 
HETATM   22  C24 UNL     1      17.282  38.217   6.769  1.00  0.00     0.014 C 
HETATM   23  C26 UNL     1      15.098  39.094   7.129  1.00  0.00     0.021 C 
BRANCH  11  24
HETATM   24  C5  UNL     1      15.743  30.993   9.788  1.00  0.00    -0.013 C 
HETATM   25  C6  UNL     1      16.419  30.986  11.091  1.00  0.00     0.010 C 
BRANCH  24  26
HETATM   26  C4  UNL     1      14.397  30.333   9.720  1.00  0.00     0.014 C 
BRANCH  26  27
HETATM   27  C3  UNL     1      14.295  28.867   9.802  1.00  0.00     0.111 C 
BRANCH  27  28
HETATM   28  C2  UNL     1      13.505  28.302  10.918  1.00  0.00     0.258 C 
HETATM   29  O2  UNL     1      12.258  28.277  10.843  1.00  0.00    -0.265 OA
BRANCH  28  30
HETATM   30  O1  UNL     1      14.127  27.790  12.064  1.00  0.00    -0.326 OA
HETATM   31  C1  UNL     1      13.287  27.117  13.003  1.00  0.00     0.213 C 
ENDBRANCH  28  30
ENDBRANCH  27  28
ENDBRANCH  26  27
ENDBRANCH  24  26
ENDBRANCH  11  24
BRANCH  17  32
HETATM   32  C21 UNL     1      14.287  38.266   4.066  1.00  0.00     0.181 C 
HETATM   33  O3  UNL     1      14.033  39.477   4.227  1.00  0.00    -0.647 OA
HETATM   34  O4  UNL     1      13.302  37.509   3.418  1.00  0.00    -0.647 OA
ENDBRANCH  17  32
ENDBRANCH   1   4
TORSDOF 7
ENDMDL
