MODEL 1
REMARK VINA RESULT: -6.026471359      0.000      0.000
REMARK  6 active torsions:
REMARK  status: ('A' for Active; 'I' for Inactive)
REMARK    1  A    between atoms: O1_2  and  C2_3 
REMARK    2  A    between atoms: C2_3  and  C3_4 
REMARK    3  A    between atoms: C3_4  and  C4_5 
REMARK    4  A    between atoms: C4_5  and  O2_6 
REMARK    5  A    between atoms: O2_6  and  C5_7 
REMARK    6  A    between atoms: C26_29  and  C27_30 
ROOT
HETATM    1  C5  UNL     1      13.791  35.452   8.844  1.00  0.00     0.131 C 
HETATM    2  C6  UNL     1      14.939  34.962   8.000  1.00  0.00     0.039 C 
HETATM    3  C7  UNL     1      16.275  35.613   8.220  1.00  0.00     0.008 C 
HETATM    4  C8  UNL     1      17.367  34.612   8.199  1.00  0.00    -0.043 C 
HETATM    5  C9  UNL     1      17.619  34.078   9.605  1.00  0.00     0.015 C 
HETATM    6  C10 UNL     1      17.025  33.363   7.368  1.00  0.00     0.015 C 
HETATM    7  C11 UNL     1      18.677  35.089   7.669  1.00  0.00     0.009 C 
HETATM    8  C12 UNL     1      18.443  35.634   6.298  1.00  0.00     0.002 C 
HETATM    9  C13 UNL     1      17.297  36.580   6.166  1.00  0.00     0.014 C 
HETATM   10  C14 UNL     1      16.570  36.898   7.416  1.00  0.00    -0.015 C 
HETATM   11  C15 UNL     1      17.555  37.723   8.264  1.00  0.00     0.020 C 
HETATM   12  C16 UNL     1      15.293  37.591   7.304  1.00  0.00    -0.050 C 
HETATM   13  C17 UNL     1      14.923  38.183   8.580  1.00  0.00     0.001 C 
HETATM   14  C18 UNL     1      13.627  38.373   9.157  1.00  0.00    -0.020 C 
HETATM   15  C19 UNL     1      12.542  37.404   9.285  1.00  0.00     0.027 C 
HETATM   16  C20 UNL     1      11.153  37.977   8.966  1.00  0.00    -0.039 C 
HETATM   17  C21 UNL     1      11.092  39.478   9.304  1.00  0.00     0.015 C 
HETATM   18  C22 UNL     1      10.076  37.360   9.780  1.00  0.00     0.015 C 
HETATM   19  C23 UNL     1      11.115  37.728   7.496  1.00  0.00     0.022 C 
HETATM   20  C24 UNL     1      12.385  36.968   7.119  1.00  0.00     0.069 C 
HETATM   21  C25 UNL     1      13.199  38.000   6.465  1.00  0.00     0.150 C 
HETATM   22  O3  UNL     1      12.534  38.763   5.803  1.00  0.00    -0.296 OA
HETATM   23  C26 UNL     1      14.661  38.463   6.321  1.00  0.00     0.186 C 
HETATM   24  C28 UNL     1      12.684  36.219   8.298  1.00  0.00     0.000 C 
HETATM   25  C29 UNL     1      11.479  35.259   8.415  1.00  0.00     0.019 C 
ENDROOT
BRANCH   1  26
HETATM   26  O2  UNL     1      13.304  34.306   9.526  1.00  0.00    -0.385 OA
BRANCH  26  27
HETATM   27  C4  UNL     1      14.189  33.345   9.825  1.00  0.00     0.170 C 
BRANCH  27  28
HETATM   28  C3  UNL     1      13.600  31.990   9.490  1.00  0.00     0.052 C 
BRANCH  28  29
HETATM   29  C2  UNL     1      14.627  30.968   9.927  1.00  0.00     0.169 C 
BRANCH  29  30
HETATM   30  O1  UNL     1      14.267  29.663   9.719  1.00  0.00    -0.396 OA
HETATM   31  C1  UNL     1      12.908  29.407   9.721  1.00  0.00     0.201 C 
ENDBRANCH  29  30
ENDBRANCH  28  29
ENDBRANCH  27  28
ENDBRANCH  26  27
ENDBRANCH   1  26
BRANCH  23  32
HETATM   32  C27 UNL     1      14.919  38.343   4.900  1.00  0.00     0.188 C 
HETATM   33  O4  UNL     1      15.431  39.255   4.162  1.00  0.00    -0.647 OA
HETATM   34  O5  UNL     1      14.608  37.174   4.233  1.00  0.00    -0.647 OA
ENDBRANCH  23  32
TORSDOF 6
ENDMDL
MODEL 2
REMARK VINA RESULT: -5.681053058      2.058      5.358
REMARK  6 active torsions:
REMARK  status: ('A' for Active; 'I' for Inactive)
REMARK    1  A    between atoms: O1_2  and  C2_3 
REMARK    2  A    between atoms: C2_3  and  C3_4 
REMARK    3  A    between atoms: C3_4  and  C4_5 
REMARK    4  A    between atoms: C4_5  and  O2_6 
REMARK    5  A    between atoms: O2_6  and  C5_7 
REMARK    6  A    between atoms: C26_29  and  C27_30 
ROOT
HETATM    1  C5  UNL     1      14.252  36.859   8.800  1.00  0.00     0.131 C 
HETATM    2  C6  UNL     1      15.615  37.445   8.537  1.00  0.00     0.039 C 
HETATM    3  C7  UNL     1      16.161  37.309   7.144  1.00  0.00     0.008 C 
HETATM    4  C8  UNL     1      16.834  38.555   6.710  1.00  0.00    -0.043 C 
HETATM    5  C9  UNL     1      15.838  39.478   6.015  1.00  0.00     0.015 C 
HETATM    6  C10 UNL     1      17.378  39.388   7.884  1.00  0.00     0.015 C 
HETATM    7  C11 UNL     1      17.991  38.381   5.784  1.00  0.00     0.009 C 
HETATM    8  C12 UNL     1      18.968  37.462   6.443  1.00  0.00     0.002 C 
HETATM    9  C13 UNL     1      18.392  36.212   7.018  1.00  0.00     0.014 C 
HETATM   10  C14 UNL     1      16.939  36.015   6.819  1.00  0.00    -0.015 C 
HETATM   11  C15 UNL     1      16.761  35.771   5.309  1.00  0.00     0.020 C 
HETATM   12  C16 UNL     1      16.283  34.962   7.584  1.00  0.00    -0.050 C 
HETATM   13  C17 UNL     1      14.998  34.629   6.990  1.00  0.00     0.001 C 
HETATM   14  C18 UNL     1      13.784  34.206   7.618  1.00  0.00    -0.020 C 
HETATM   15  C19 UNL     1      13.105  34.798   8.768  1.00  0.00     0.027 C 
HETATM   16  C20 UNL     1      12.562  33.769   9.770  1.00  0.00    -0.039 C 
HETATM   17  C21 UNL     1      12.188  32.457   9.055  1.00  0.00     0.015 C 
HETATM   18  C22 UNL     1      11.308  34.214  10.428  1.00  0.00     0.015 C 
HETATM   19  C23 UNL     1      13.763  33.614  10.641  1.00  0.00     0.022 C 
HETATM   20  C24 UNL     1      14.821  34.603  10.155  1.00  0.00     0.069 C 
HETATM   21  C25 UNL     1      15.778  33.738   9.455  1.00  0.00     0.150 C 
HETATM   22  O3  UNL     1      15.918  32.667   9.999  1.00  0.00    -0.296 OA
HETATM   23  C26 UNL     1      16.702  33.720   8.223  1.00  0.00     0.186 C 
HETATM   24  C28 UNL     1      14.047  35.680   9.624  1.00  0.00     0.000 C 
HETATM   25  C29 UNL     1      13.310  36.225  10.868  1.00  0.00     0.019 C 
ENDROOT
BRANCH   1  26
HETATM   26  O2  UNL     1      13.461  37.937   9.279  1.00  0.00    -0.385 OA
BRANCH  26  27
HETATM   27  C4  UNL     1      12.898  38.741   8.368  1.00  0.00     0.170 C 
BRANCH  27  28
HETATM   28  C3  UNL     1      11.746  38.021   7.698  1.00  0.00     0.052 C 
BRANCH  28  29
HETATM   29  C2  UNL     1      11.888  38.291   6.216  1.00  0.00     0.169 C 
BRANCH  29  30
HETATM   30  O1  UNL     1      11.977  37.173   5.432  1.00  0.00    -0.396 OA
HETATM   31  C1  UNL     1      13.171  37.009   4.753  1.00  0.00     0.201 C 
ENDBRANCH  29  30
ENDBRANCH  28  29
ENDBRANCH  27  28
ENDBRANCH  26  27
ENDBRANCH   1  26
BRANCH  23  32
HETATM   32  C27 UNL     1      18.024  33.550   8.791  1.00  0.00     0.188 C 
HETATM   33  O4  UNL     1      18.522  34.260   9.733  1.00  0.00    -0.647 OA
HETATM   34  O5  UNL     1      18.862  32.559   8.319  1.00  0.00    -0.647 OA
ENDBRANCH  23  32
TORSDOF 6
ENDMDL
MODEL 3
REMARK VINA RESULT: -5.426292204      3.908      8.158
REMARK  6 active torsions:
REMARK  status: ('A' for Active; 'I' for Inactive)
REMARK    1  A    between atoms: O1_2  and  C2_3 
REMARK    2  A    between atoms: C2_3  and  C3_4 
REMARK    3  A    between atoms: C3_4  and  C4_5 
REMARK    4  A    between atoms: C4_5  and  O2_6 
REMARK    5  A    between atoms: O2_6  and  C5_7 
REMARK    6  A    between atoms: C26_29  and  C27_30 
ROOT
HETATM    1  C5  UNL     1      17.788  31.004   9.528  1.00  0.00     0.131 C 
HETATM    2  C6  UNL     1      17.083  31.860   8.508  1.00  0.00     0.039 C 
HETATM    3  C7  UNL     1      16.432  33.120   9.006  1.00  0.00     0.008 C 
HETATM    4  C8  UNL     1      16.656  34.243   8.066  1.00  0.00    -0.043 C 
HETATM    5  C9  UNL     1      17.931  34.994   8.436  1.00  0.00     0.015 C 
HETATM    6  C10 UNL     1      16.886  33.782   6.617  1.00  0.00     0.015 C 
HETATM    7  C11 UNL     1      15.560  35.252   7.986  1.00  0.00     0.009 C 
HETATM    8  C12 UNL     1      14.298  34.529   7.644  1.00  0.00     0.002 C 
HETATM    9  C13 UNL     1      14.011  33.311   8.455  1.00  0.00     0.014 C 
HETATM   10  C14 UNL     1      14.983  33.001   9.528  1.00  0.00    -0.015 C 
HETATM   11  C15 UNL     1      14.808  34.117  10.574  1.00  0.00     0.020 C 
HETATM   12  C16 UNL     1      14.903  31.692  10.163  1.00  0.00    -0.050 C 
HETATM   13  C17 UNL     1      15.618  31.699  11.430  1.00  0.00     0.001 C 
HETATM   14  C18 UNL     1      16.350  30.648  12.070  1.00  0.00    -0.020 C 
HETATM   15  C19 UNL     1      17.365  29.771  11.494  1.00  0.00     0.027 C 
HETATM   16  C20 UNL     1      17.238  28.303  11.925  1.00  0.00    -0.039 C 
HETATM   17  C21 UNL     1      16.623  28.199  13.333  1.00  0.00     0.015 C 
HETATM   18  C22 UNL     1      18.552  27.619  12.033  1.00  0.00     0.015 C 
HETATM   19  C23 UNL     1      16.308  27.814  10.866  1.00  0.00     0.022 C 
HETATM   20  C24 UNL     1      16.069  28.964   9.890  1.00  0.00     0.069 C 
HETATM   21  C25 UNL     1      14.714  29.409  10.238  1.00  0.00     0.150 C 
HETATM   22  O3  UNL     1      13.988  28.490  10.537  1.00  0.00    -0.296 OA
HETATM   23  C26 UNL     1      13.864  30.688  10.357  1.00  0.00     0.186 C 
HETATM   24  C28 UNL     1      17.288  29.707   9.949  1.00  0.00     0.000 C 
HETATM   25  C29 UNL     1      18.329  28.712   9.387  1.00  0.00     0.019 C 
ENDROOT
BRANCH   1  26
HETATM   26  O2  UNL     1      19.126  30.889   9.067  1.00  0.00    -0.385 OA
BRANCH  26  27
HETATM   27  C4  UNL     1      20.072  31.554   9.744  1.00  0.00     0.170 C 
BRANCH  27  28
HETATM   28  C3  UNL     1      20.847  30.589  10.617  1.00  0.00     0.052 C 
BRANCH  28  29
HETATM   29  C2  UNL     1      22.229  31.184  10.774  1.00  0.00     0.169 C 
BRANCH  29  30
HETATM   30  O1  UNL     1      22.315  32.217  11.669  1.00  0.00    -0.396 OA
HETATM   31  C1  UNL     1      23.595  32.617  12.003  1.00  0.00     0.201 C 
ENDBRANCH  29  30
ENDBRANCH  28  29
ENDBRANCH  27  28
ENDBRANCH  26  27
ENDBRANCH   1  26
BRANCH  23  32
HETATM   32  C27 UNL     1      12.800  30.480   9.396  1.00  0.00     0.188 C 
HETATM   33  O4  UNL     1      12.738  29.514   8.557  1.00  0.00    -0.647 OA
HETATM   34  O5  UNL     1      11.739  31.363   9.330  1.00  0.00    -0.647 OA
ENDBRANCH  23  32
TORSDOF 6
ENDMDL
MODEL 4
REMARK VINA RESULT: -5.414974545      2.048      5.366
REMARK  6 active torsions:
REMARK  status: ('A' for Active; 'I' for Inactive)
REMARK    1  A    between atoms: O1_2  and  C2_3 
REMARK    2  A    between atoms: C2_3  and  C3_4 
REMARK    3  A    between atoms: C3_4  and  C4_5 
REMARK    4  A    between atoms: C4_5  and  O2_6 
REMARK    5  A    between atoms: O2_6  and  C5_7 
REMARK    6  A    between atoms: C26_29  and  C27_30 
ROOT
HETATM    1  C5  UNL     1      12.740  34.761   9.130  1.00  0.00     0.131 C 
HETATM    2  C6  UNL     1      12.041  36.095   9.155  1.00  0.00     0.039 C 
HETATM    3  C7  UNL     1      11.537  36.628   7.843  1.00  0.00     0.008 C 
HETATM    4  C8  UNL     1      10.198  37.242   7.995  1.00  0.00    -0.043 C 
HETATM    5  C9  UNL     1       9.109  36.200   7.763  1.00  0.00     0.015 C 
HETATM    6  C10 UNL     1       9.932  37.767   9.417  1.00  0.00     0.015 C 
HETATM    7  C11 UNL     1       9.904  38.393   7.093  1.00  0.00     0.009 C 
HETATM    8  C12 UNL     1      10.975  39.416   7.295  1.00  0.00     0.002 C 
HETATM    9  C13 UNL     1      12.374  38.900   7.268  1.00  0.00     0.014 C 
HETATM   10  C14 UNL     1      12.528  37.454   6.995  1.00  0.00    -0.015 C 
HETATM   11  C15 UNL     1      12.102  37.266   5.527  1.00  0.00     0.020 C 
HETATM   12  C16 UNL     1      13.836  36.852   7.225  1.00  0.00    -0.050 C 
HETATM   13  C17 UNL     1      13.934  35.575   6.537  1.00  0.00     0.001 C 
HETATM   14  C18 UNL     1      14.639  34.387   6.914  1.00  0.00    -0.020 C 
HETATM   15  C19 UNL     1      14.632  33.700   8.202  1.00  0.00     0.027 C 
HETATM   16  C20 UNL     1      16.016  33.213   8.657  1.00  0.00    -0.039 C 
HETATM   17  C21 UNL     1      16.904  32.885   7.443  1.00  0.00     0.015 C 
HETATM   18  C22 UNL     1      15.954  31.950   9.435  1.00  0.00     0.015 C 
HETATM   19  C23 UNL     1      16.480  34.431   9.382  1.00  0.00     0.022 C 
HETATM   20  C24 UNL     1      15.334  35.440   9.379  1.00  0.00     0.069 C 
HETATM   21  C25 UNL     1      15.769  36.423   8.379  1.00  0.00     0.150 C 
HETATM   22  O3  UNL     1      16.963  36.615   8.407  1.00  0.00    -0.296 OA
HETATM   23  C26 UNL     1      15.212  37.331   7.266  1.00  0.00     0.186 C 
HETATM   24  C28 UNL     1      14.167  34.615   9.361  1.00  0.00     0.000 C 
HETATM   25  C29 UNL     1      14.246  33.873  10.714  1.00  0.00     0.019 C 
ENDROOT
BRANCH   1  26
HETATM   26  O2  UNL     1      12.011  33.933  10.024  1.00  0.00    -0.385 OA
BRANCH  26  27
HETATM   27  C4  UNL     1      10.718  34.224  10.219  1.00  0.00     0.170 C 
BRANCH  27  28
HETATM   28  C3  UNL     1       9.868  33.019   9.875  1.00  0.00     0.052 C 
BRANCH  28  29
HETATM   29  C2  UNL     1      10.820  31.848   9.779  1.00  0.00     0.169 C 
BRANCH  29  30
HETATM   30  O1  UNL     1      10.372  30.800   9.021  1.00  0.00    -0.396 OA
HETATM   31  C1  UNL     1      10.828  29.549   9.396  1.00  0.00     0.201 C 
ENDBRANCH  29  30
ENDBRANCH  28  29
ENDBRANCH  27  28
ENDBRANCH  26  27
ENDBRANCH   1  26
BRANCH  23  32
HETATM   32  C27 UNL     1      15.554  38.666   7.712  1.00  0.00     0.188 C 
HETATM   33  O4  UNL     1      15.170  39.200   8.812  1.00  0.00    -0.647 OA
HETATM   34  O5  UNL     1      16.355  39.477   6.933  1.00  0.00    -0.647 OA
ENDBRANCH  23  32
TORSDOF 6
ENDMDL
MODEL 5
REMARK VINA RESULT: -5.372857381      2.342      5.403
REMARK  6 active torsions:
REMARK  status: ('A' for Active; 'I' for Inactive)
REMARK    1  A    between atoms: O1_2  and  C2_3 
REMARK    2  A    between atoms: C2_3  and  C3_4 
REMARK    3  A    between atoms: C3_4  and  C4_5 
REMARK    4  A    between atoms: C4_5  and  O2_6 
REMARK    5  A    between atoms: O2_6  and  C5_7 
REMARK    6  A    between atoms: C26_29  and  C27_30 
ROOT
HETATM    1  C5  UNL     1      14.153  35.349   7.503  1.00  0.00     0.131 C 
HETATM    2  C6  UNL     1      14.051  36.749   6.956  1.00  0.00     0.039 C 
HETATM    3  C7  UNL     1      14.408  36.946   5.510  1.00  0.00     0.008 C 
HETATM    4  C8  UNL     1      13.464  37.877   4.849  1.00  0.00    -0.043 C 
HETATM    5  C9  UNL     1      12.294  37.104   4.248  1.00  0.00     0.015 C 
HETATM    6  C10 UNL     1      12.809  38.869   5.826  1.00  0.00     0.015 C 
HETATM    7  C11 UNL     1      14.038  38.721   3.761  1.00  0.00     0.009 C 
HETATM    8  C12 UNL     1      15.198  39.471   4.329  1.00  0.00     0.002 C 
HETATM    9  C13 UNL     1      16.172  38.657   5.112  1.00  0.00     0.014 C 
HETATM   10  C14 UNL     1      15.895  37.205   5.184  1.00  0.00    -0.015 C 
HETATM   11  C15 UNL     1      16.124  36.673   3.758  1.00  0.00     0.020 C 
HETATM   12  C16 UNL     1      16.649  36.414   6.148  1.00  0.00    -0.050 C 
HETATM   13  C17 UNL     1      16.570  35.000   5.817  1.00  0.00     0.001 C 
HETATM   14  C18 UNL     1      16.553  33.860   6.681  1.00  0.00    -0.020 C 
HETATM   15  C19 UNL     1      15.730  33.634   7.867  1.00  0.00     0.027 C 
HETATM   16  C20 UNL     1      16.490  33.001   9.042  1.00  0.00    -0.039 C 
HETATM   17  C21 UNL     1      17.635  32.107   8.532  1.00  0.00     0.015 C 
HETATM   18  C22 UNL     1      15.638  32.099   9.858  1.00  0.00     0.015 C 
HETATM   19  C23 UNL     1      16.993  34.238   9.706  1.00  0.00     0.022 C 
HETATM   20  C24 UNL     1      16.419  35.437   8.954  1.00  0.00     0.069 C 
HETATM   21  C25 UNL     1      17.573  35.923   8.188  1.00  0.00     0.150 C 
HETATM   22  O3  UNL     1      18.611  35.825   8.802  1.00  0.00    -0.296 OA
HETATM   23  C26 UNL     1      17.936  36.540   6.824  1.00  0.00     0.186 C 
HETATM   24  C28 UNL     1      15.170  34.949   8.460  1.00  0.00     0.000 C 
HETATM   25  C29 UNL     1      14.369  34.674   9.753  1.00  0.00     0.019 C 
ENDROOT
BRANCH   1  26
HETATM   26  O2  UNL     1      12.860  35.041   8.003  1.00  0.00    -0.385 OA
BRANCH  26  27
HETATM   27  C4  UNL     1      11.920  35.992   7.909  1.00  0.00     0.170 C 
BRANCH  27  28
HETATM   28  C3  UNL     1      11.150  36.075   9.211  1.00  0.00     0.052 C 
BRANCH  28  29
HETATM   29  C2  UNL     1       9.839  35.361   8.968  1.00  0.00     0.169 C 
BRANCH  29  30
HETATM   30  O1  UNL     1       9.768  34.093   9.480  1.00  0.00    -0.396 OA
HETATM   31  C1  UNL     1      10.601  33.831  10.552  1.00  0.00     0.201 C 
ENDBRANCH  29  30
ENDBRANCH  28  29
ENDBRANCH  27  28
ENDBRANCH  26  27
ENDBRANCH   1  26
BRANCH  23  32
HETATM   32  C27 UNL     1      18.503  37.827   7.171  1.00  0.00     0.188 C 
HETATM   33  O4  UNL     1      19.615  38.288   6.732  1.00  0.00    -0.647 OA
HETATM   34  O5  UNL     1      17.840  38.669   8.042  1.00  0.00    -0.647 OA
ENDBRANCH  23  32
TORSDOF 6
ENDMDL
