MODEL 1
REMARK VINA RESULT: -6.899464395      0.000      0.000
REMARK  4 active torsions:
REMARK  status: ('A' for Active; 'I' for Inactive)
REMARK    1  A    between atoms: O1_2  and  N1_3 
REMARK       I    between atoms: N1_3  and  C3_5 
REMARK    2  A    between atoms: C3_5  and  C4_7 
REMARK    3  A    between atoms: C5_10  and  N3_11 
REMARK    4  A    between atoms: N6_21  and  N7_23 
ROOT
HETATM    1  C4  UNL     1     -19.377  58.411 -35.053  1.00  0.00     0.164 C 
HETATM    2  N2  UNL     1     -18.836  57.244 -35.452  1.00  0.00    -0.182 N 
ATOM      3  H2  UNL     1     -18.550  57.189 -36.429  1.00  0.00     0.184 HD
HETATM    4  C5  UNL     1     -18.628  56.129 -34.697  1.00  0.00     0.680 C 
HETATM    5  N4  UNL     1     -19.345  55.738 -33.617  1.00  0.00    -0.141 N 
ATOM      6  H4  UNL     1     -19.200  54.772 -33.326  1.00  0.00     0.189 HD
HETATM    7  C6  UNL     1     -20.219  56.433 -32.874  1.00  0.00     0.340 C 
HETATM    8  O3  UNL     1     -20.468  55.983 -31.697  1.00  0.00    -0.246 OA
HETATM    9  N5  UNL     1     -20.856  57.551 -33.248  1.00  0.00    -0.291 N 
ATOM     10  H5  UNL     1     -21.722  57.759 -32.749  1.00  0.00     0.172 HD
HETATM   11  C7  UNL     1     -20.495  58.442 -34.208  1.00  0.00     0.157 C 
HETATM   12  N6  UNL     1     -21.243  59.464 -34.419  1.00  0.00    -0.290 N 
ATOM     13  H6  UNL     1     -21.011  60.152 -35.136  1.00  0.00     0.188 HD
ENDROOT
BRANCH   1  14
HETATM   14  C3  UNL     1     -18.861  59.683 -35.470  1.00  0.00     0.297 C 
HETATM   15  N1  UNL     1     -17.647  60.309 -35.109  1.00  0.00    -0.226 N 
HETATM   16  C2  UNL     1     -16.706  59.520 -34.261  1.00  0.00     0.189 C 
HETATM   17  O2  UNL     1     -19.601  60.350 -36.279  1.00  0.00    -0.264 OA
BRANCH  15  18
HETATM   18  O1  UNL     1     -17.204  61.501 -35.461  1.00  0.00    -0.280 OA
HETATM   19  C1  UNL     1     -16.420  61.777 -36.491  1.00  0.00     0.238 C 
ENDBRANCH  15  18
ENDBRANCH   1  14
BRANCH   4  20
HETATM   20  N3  UNL     1     -17.666  55.353 -35.026  1.00  0.00    -0.234 N 
ATOM     21  H32 UNL     1     -16.860  55.811 -35.450  1.00  0.00     0.174 HD
ATOM     22  H31 UNL     1     -17.770  54.355 -34.839  1.00  0.00     0.174 HD
ENDBRANCH   4  20
BRANCH  12  23
HETATM   23  N7  UNL     1     -22.397  59.595 -33.622  1.00  0.00    -0.344 N 
ATOM     24  H72 UNL     1     -22.511  59.029 -32.781  1.00  0.00     0.176 HD
ATOM     25  H71 UNL     1     -23.099  60.271 -33.923  1.00  0.00     0.176 HD
ENDBRANCH  12  23
TORSDOF 4
ENDMDL
MODEL 2
REMARK VINA RESULT: -6.550294987      1.973      3.580
REMARK  4 active torsions:
REMARK  status: ('A' for Active; 'I' for Inactive)
REMARK    1  A    between atoms: O1_2  and  N1_3 
REMARK       I    between atoms: N1_3  and  C3_5 
REMARK    2  A    between atoms: C3_5  and  C4_7 
REMARK    3  A    between atoms: C5_10  and  N3_11 
REMARK    4  A    between atoms: N6_21  and  N7_23 
ROOT
HETATM    1  C4  UNL     1     -18.711  58.971 -34.534  1.00  0.00     0.164 C 
HETATM    2  N2  UNL     1     -19.864  59.287 -33.916  1.00  0.00    -0.182 N 
ATOM      3  H2  UNL     1     -19.784  59.847 -33.067  1.00  0.00     0.184 HD
HETATM    4  C5  UNL     1     -21.126  58.942 -34.295  1.00  0.00     0.680 C 
HETATM    5  N4  UNL     1     -21.488  57.840 -34.994  1.00  0.00    -0.141 N 
ATOM      6  H4  UNL     1     -22.485  57.626 -34.982  1.00  0.00     0.189 HD
HETATM    7  C6  UNL     1     -20.729  56.987 -35.699  1.00  0.00     0.340 C 
HETATM    8  O3  UNL     1     -21.329  56.265 -36.576  1.00  0.00    -0.246 OA
HETATM    9  N5  UNL     1     -19.406  56.820 -35.570  1.00  0.00    -0.291 N 
ATOM     10  H5  UNL     1     -19.036  55.926 -35.896  1.00  0.00     0.172 HD
HETATM   11  C7  UNL     1     -18.495  57.691 -35.061  1.00  0.00     0.157 C 
HETATM   12  N6  UNL     1     -17.260  57.345 -35.025  1.00  0.00    -0.290 N 
ATOM     13  H6  UNL     1     -16.546  57.966 -34.644  1.00  0.00     0.188 HD
ENDROOT
BRANCH   1  14
HETATM   14  C3  UNL     1     -17.634  59.908 -34.682  1.00  0.00     0.297 C 
HETATM   15  N1  UNL     1     -17.472  60.927 -35.647  1.00  0.00    -0.226 N 
HETATM   16  C2  UNL     1     -18.607  61.153 -36.590  1.00  0.00     0.189 C 
HETATM   17  O2  UNL     1     -16.682  59.808 -33.827  1.00  0.00    -0.264 OA
BRANCH  15  18
HETATM   18  O1  UNL     1     -16.454  61.752 -35.803  1.00  0.00    -0.280 OA
HETATM   19  C1  UNL     1     -15.448  61.612 -36.651  1.00  0.00     0.238 C 
ENDBRANCH  15  18
ENDBRANCH   1  14
BRANCH   4  20
HETATM   20  N3  UNL     1     -22.086  59.720 -33.965  1.00  0.00    -0.234 N 
ATOM     21  H32 UNL     1     -21.857  60.423 -33.263  1.00  0.00     0.174 HD
ATOM     22  H31 UNL     1     -22.989  59.588 -34.421  1.00  0.00     0.174 HD
ENDBRANCH   4  20
BRANCH  12  23
HETATM   23  N7  UNL     1     -16.930  56.072 -35.532  1.00  0.00    -0.344 N 
ATOM     24  H72 UNL     1     -17.259  55.782 -36.453  1.00  0.00     0.176 HD
ATOM     25  H71 UNL     1     -16.357  55.467 -34.942  1.00  0.00     0.176 HD
ENDBRANCH  12  23
TORSDOF 4
ENDMDL
MODEL 3
REMARK VINA RESULT: -6.242489923      2.074      3.025
REMARK  4 active torsions:
REMARK  status: ('A' for Active; 'I' for Inactive)
REMARK    1  A    between atoms: O1_2  and  N1_3 
REMARK       I    between atoms: N1_3  and  C3_5 
REMARK    2  A    between atoms: C3_5  and  C4_7 
REMARK    3  A    between atoms: C5_10  and  N3_11 
REMARK    4  A    between atoms: N6_21  and  N7_23 
ROOT
HETATM    1  C4  UNL     1     -17.862  59.309 -34.932  1.00  0.00     0.164 C 
HETATM    2  N2  UNL     1     -17.986  57.969 -34.965  1.00  0.00    -0.182 N 
ATOM      3  H2  UNL     1     -17.158  57.445 -35.248  1.00  0.00     0.184 HD
HETATM    4  C5  UNL     1     -19.092  57.234 -34.664  1.00  0.00     0.680 C 
HETATM    5  N4  UNL     1     -20.383  57.627 -34.787  1.00  0.00    -0.141 N 
ATOM      6  H4  UNL     1     -21.072  56.877 -34.742  1.00  0.00     0.189 HD
HETATM    7  C6  UNL     1     -20.889  58.857 -34.959  1.00  0.00     0.340 C 
HETATM    8  O3  UNL     1     -22.127  59.024 -34.660  1.00  0.00    -0.246 OA
HETATM    9  N5  UNL     1     -20.222  59.926 -35.416  1.00  0.00    -0.291 N 
ATOM     10  H5  UNL     1     -20.793  60.668 -35.822  1.00  0.00     0.172 HD
HETATM   11  C7  UNL     1     -18.880  60.146 -35.408  1.00  0.00     0.157 C 
HETATM   12  N6  UNL     1     -18.429  61.244 -35.894  1.00  0.00    -0.290 N 
ATOM     13  H6  UNL     1     -17.429  61.444 -35.914  1.00  0.00     0.188 HD
ENDROOT
BRANCH   1  14
HETATM   14  C3  UNL     1     -16.689  59.963 -34.426  1.00  0.00     0.297 C 
HETATM   15  N1  UNL     1     -15.412  60.079 -35.020  1.00  0.00    -0.226 N 
HETATM   16  C2  UNL     1     -15.261  59.550 -36.407  1.00  0.00     0.189 C 
HETATM   17  O2  UNL     1     -16.809  60.516 -33.274  1.00  0.00    -0.264 OA
BRANCH  15  18
HETATM   18  O1  UNL     1     -14.327  60.643 -34.523  1.00  0.00    -0.280 OA
HETATM   19  C1  UNL     1     -13.468  61.409 -35.176  1.00  0.00     0.238 C 
ENDBRANCH  15  18
ENDBRANCH   1  14
BRANCH   4  20
HETATM   20  N3  UNL     1     -18.923  56.045 -34.223  1.00  0.00    -0.234 N 
ATOM     21  H32 UNL     1     -17.988  55.660 -34.357  1.00  0.00     0.174 HD
ATOM     22  H31 UNL     1     -19.713  55.582 -33.775  1.00  0.00     0.174 HD
ENDBRANCH   4  20
BRANCH  12  23
HETATM   23  N7  UNL     1     -19.371  62.161 -36.402  1.00  0.00    -0.344 N 
ATOM     24  H72 UNL     1     -19.200  63.165 -36.340  1.00  0.00     0.176 HD
ATOM     25  H71 UNL     1     -20.217  61.777 -36.825  1.00  0.00     0.176 HD
ENDBRANCH  12  23
TORSDOF 4
ENDMDL
MODEL 4
REMARK VINA RESULT: -6.202390812      1.791      2.139
REMARK  4 active torsions:
REMARK  status: ('A' for Active; 'I' for Inactive)
REMARK    1  A    between atoms: O1_2  and  N1_3 
REMARK       I    between atoms: N1_3  and  C3_5 
REMARK    2  A    between atoms: C3_5  and  C4_7 
REMARK    3  A    between atoms: C5_10  and  N3_11 
REMARK    4  A    between atoms: N6_21  and  N7_23 
ROOT
HETATM    1  C4  UNL     1     -17.567  58.326 -34.949  1.00  0.00     0.164 C 
HETATM    2  N2  UNL     1     -17.022  57.170 -35.370  1.00  0.00    -0.182 N 
ATOM      3  H2  UNL     1     -16.228  57.249 -36.006  1.00  0.00     0.184 HD
HETATM    4  C5  UNL     1     -17.410  55.906 -35.042  1.00  0.00     0.680 C 
HETATM    5  N4  UNL     1     -18.658  55.506 -34.700  1.00  0.00    -0.141 N 
ATOM      6  H4  UNL     1     -18.812  54.498 -34.719  1.00  0.00     0.189 HD
HETATM    7  C6  UNL     1     -19.722  56.240 -34.340  1.00  0.00     0.340 C 
HETATM    8  O3  UNL     1     -20.655  55.634 -33.697  1.00  0.00    -0.246 OA
HETATM    9  N5  UNL     1     -19.901  57.544 -34.592  1.00  0.00    -0.291 N 
ATOM     10  H5  UNL     1     -20.867  57.872 -34.582  1.00  0.00     0.172 HD
HETATM   11  C7  UNL     1     -18.956  58.485 -34.858  1.00  0.00     0.157 C 
HETATM   12  N6  UNL     1     -19.329  59.694 -35.072  1.00  0.00    -0.290 N 
ATOM     13  H6  UNL     1     -18.653  60.428 -35.283  1.00  0.00     0.188 HD
ENDROOT
BRANCH   1  14
HETATM   14  C3  UNL     1     -16.774  59.464 -34.580  1.00  0.00     0.297 C 
HETATM   15  N1  UNL     1     -15.826  60.172 -35.353  1.00  0.00    -0.226 N 
HETATM   16  C2  UNL     1     -15.683  59.770 -36.783  1.00  0.00     0.189 C 
HETATM   17  O2  UNL     1     -16.941  59.901 -33.385  1.00  0.00    -0.264 OA
BRANCH  15  18
HETATM   18  O1  UNL     1     -15.067  61.188 -34.988  1.00  0.00    -0.280 OA
HETATM   19  C1  UNL     1     -13.785  61.355 -35.268  1.00  0.00     0.238 C 
ENDBRANCH  15  18
ENDBRANCH   1  14
BRANCH   4  20
HETATM   20  N3  UNL     1     -16.525  54.982 -35.058  1.00  0.00    -0.234 N 
ATOM     21  H32 UNL     1     -16.628  54.268 -34.338  1.00  0.00     0.174 HD
ATOM     22  H31 UNL     1     -15.802  55.023 -35.776  1.00  0.00     0.174 HD
ENDBRANCH   4  20
BRANCH  12  23
HETATM   23  N7  UNL     1     -20.710  59.965 -35.005  1.00  0.00    -0.344 N 
ATOM     24  H72 UNL     1     -21.305  59.461 -34.347  1.00  0.00     0.176 HD
ATOM     25  H71 UNL     1     -21.078  60.678 -35.636  1.00  0.00     0.176 HD
ENDBRANCH  12  23
TORSDOF 4
ENDMDL
MODEL 5
REMARK VINA RESULT: -6.061935679      7.758     11.519
REMARK  4 active torsions:
REMARK  status: ('A' for Active; 'I' for Inactive)
REMARK    1  A    between atoms: O1_2  and  N1_3 
REMARK       I    between atoms: N1_3  and  C3_5 
REMARK    2  A    between atoms: C3_5  and  C4_7 
REMARK    3  A    between atoms: C5_10  and  N3_11 
REMARK    4  A    between atoms: N6_21  and  N7_23 
ROOT
HETATM    1  C4  UNL     1     -10.274  62.469 -37.912  1.00  0.00     0.164 C 
HETATM    2  N2  UNL     1     -10.498  62.240 -39.220  1.00  0.00    -0.182 N 
ATOM      3  H2  UNL     1     -10.587  61.263 -39.499  1.00  0.00     0.184 HD
HETATM    4  C5  UNL     1     -10.621  63.165 -40.212  1.00  0.00     0.680 C 
HETATM    5  N4  UNL     1     -10.049  64.393 -40.248  1.00  0.00    -0.141 N 
ATOM      6  H4  UNL     1     -10.055  64.849 -41.160  1.00  0.00     0.189 HD
HETATM    7  C6  UNL     1      -9.476  65.098 -39.261  1.00  0.00     0.340 C 
HETATM    8  O3  UNL     1      -9.362  66.365 -39.442  1.00  0.00    -0.246 OA
HETATM    9  N5  UNL     1      -9.009  64.602 -38.107  1.00  0.00    -0.291 N 
ATOM     10  H5  UNL     1      -8.306  65.166 -37.631  1.00  0.00     0.172 HD
HETATM   11  C7  UNL     1      -9.356  63.440 -37.491  1.00  0.00     0.157 C 
HETATM   12  N6  UNL     1      -8.794  63.137 -36.379  1.00  0.00    -0.290 N 
ATOM     13  H6  UNL     1      -9.020  62.271 -35.888  1.00  0.00     0.188 HD
ENDROOT
BRANCH   1  14
HETATM   14  C3  UNL     1     -10.943  61.736 -36.875  1.00  0.00     0.297 C 
HETATM   15  N1  UNL     1     -12.169  62.023 -36.236  1.00  0.00    -0.226 N 
HETATM   16  C2  UNL     1     -12.950  63.182 -36.761  1.00  0.00     0.189 C 
HETATM   17  O2  UNL     1     -10.347  60.676 -36.465  1.00  0.00    -0.264 OA
BRANCH  15  18
HETATM   18  O1  UNL     1     -12.752  61.367 -35.250  1.00  0.00    -0.280 OA
HETATM   19  C1  UNL     1     -14.027  61.023 -35.178  1.00  0.00     0.238 C 
ENDBRANCH  15  18
ENDBRANCH   1  14
BRANCH   4  20
HETATM   20  N3  UNL     1     -11.338  62.866 -41.227  1.00  0.00    -0.234 N 
ATOM     21  H32 UNL     1     -12.270  62.512 -41.014  1.00  0.00     0.174 HD
ATOM     22  H31 UNL     1     -10.939  63.006 -42.155  1.00  0.00     0.174 HD
ENDBRANCH   4  20
BRANCH  12  23
HETATM   23  N7  UNL     1      -7.851  64.047 -35.862  1.00  0.00    -0.344 N 
ATOM     24  H72 UNL     1      -7.103  64.409 -36.454  1.00  0.00     0.176 HD
ATOM     25  H71 UNL     1      -7.952  64.321 -34.884  1.00  0.00     0.176 HD
ENDBRANCH  12  23
TORSDOF 4
ENDMDL
