MODEL 1
REMARK VINA RESULT: -7.271873403      0.000      0.000
REMARK  10 active torsions:
REMARK  status: ('A' for Active; 'I' for Inactive)
REMARK    1  A    between atoms: C5_5  and  N1_6 
REMARK    2  A    between atoms: N1_6  and  O1_7 
REMARK    3  A    between atoms: O1_7  and  C6_8 
REMARK    4  A    between atoms: C6_8  and  C7_9 
REMARK    5  A    between atoms: C7_9  and  N2_10 
REMARK    6  A    between atoms: C10_13  and  O2_14 
REMARK    7  A    between atoms: C10_13  and  C11_16 
REMARK    8  A    between atoms: C23_28  and  C24_29 
REMARK    9  A    between atoms: C30_38  and  N3_39 
REMARK   10  A    between atoms: N3_39  and  C31_41 
ROOT
HETATM    1  C1  UNL     1       4.085  11.991  25.293  1.00  0.00     0.016 C 
HETATM    2  C2  UNL     1       5.480  11.565  24.831  1.00  0.00    -0.036 C 
HETATM    3  C3  UNL     1       5.808  10.156  25.142  1.00  0.00     0.017 C 
HETATM    4  C4  UNL     1       4.594   9.303  24.790  1.00  0.00     0.072 C 
HETATM    5  C5  UNL     1       4.054   9.601  23.436  1.00  0.00     0.095 C 
HETATM    6  C19 UNL     1       4.334  10.895  22.745  1.00  0.00     0.076 C 
HETATM    7  C20 UNL     1       5.492  11.606  23.287  1.00  0.00     0.000 C 
HETATM    8  C21 UNL     1       5.537  13.085  23.042  1.00  0.00     0.006 C 
HETATM    9  C22 UNL     1       6.779  13.412  23.893  1.00  0.00     0.006 C 
HETATM   10  C23 UNL     1       6.445  12.627  25.171  1.00  0.00    -0.001 C 
ENDROOT
BRANCH   5  11
HETATM   11  N1  UNL     1       3.372   8.765  22.878  1.00  0.00    -0.290 NA
BRANCH  11  12
HETATM   12  O1  UNL     1       2.688   7.913  22.293  1.00  0.00    -0.208 OA
BRANCH  12  13
HETATM   13  C6  UNL     1       1.826   6.915  22.810  1.00  0.00     0.248 C 
BRANCH  13  14
HETATM   14  C7  UNL     1       2.217   5.577  22.323  1.00  0.00     0.302 C 
BRANCH  14  15
HETATM   15  N2  UNL     1       1.623   5.165  21.046  1.00  0.00     0.090 N 
HETATM   16  C8  UNL     1       0.185   5.281  21.296  1.00  0.00     0.276 C 
HETATM   17  C9  UNL     1      -0.366   3.968  21.773  1.00  0.00     0.073 C 
HETATM   18  C10 UNL     1      -0.399   3.076  20.527  1.00  0.00     0.088 C 
HETATM   19  C17 UNL     1       1.028   2.926  20.100  1.00  0.00     0.073 C 
HETATM   20  C18 UNL     1       2.011   3.788  20.825  1.00  0.00     0.276 C 
BRANCH  18  21
HETATM   21  O2  UNL     1      -0.998   1.880  20.916  1.00  0.00    -0.385 OA
ATOM     22  H2  UNL     1      -1.780   1.787  20.384  1.00  0.00     0.211 HD
ENDBRANCH  18  21
BRANCH  18  23
HETATM   23  C11 UNL     1      -1.294   3.713  19.549  1.00  0.00    -0.024 A 
HETATM   24  C12 UNL     1      -2.605   4.044  19.741  1.00  0.00     0.010 A 
HETATM   25  C13 UNL     1      -3.315   4.638  18.714  1.00  0.00     0.001 A 
HETATM   26  C14 UNL     1      -2.737   4.909  17.493  1.00  0.00     0.000 A 
HETATM   27  C15 UNL     1      -1.419   4.586  17.277  1.00  0.00     0.001 A 
HETATM   28  C16 UNL     1      -0.716   3.995  18.303  1.00  0.00     0.010 A 
ENDBRANCH  18  23
ENDBRANCH  14  15
ENDBRANCH  13  14
ENDBRANCH  12  13
ENDBRANCH  11  12
ENDBRANCH   5  11
BRANCH  10  29
HETATM   29  C24 UNL     1       7.634  12.316  25.979  1.00  0.00     0.004 C 
HETATM   30  C25 UNL     1       7.983  13.382  26.984  1.00  0.00     0.085 C 
HETATM   31  S1  UNL     1       8.992  12.492  28.239  1.00  0.00    -0.126 SA
HETATM   32  C26 UNL     1      10.256  11.698  27.243  1.00  0.00     0.048 A 
HETATM   33  C27 UNL     1      11.422  11.237  27.836  1.00  0.00     0.136 A 
HETATM   34  C32 UNL     1      10.033  11.590  25.900  1.00  0.00    -0.008 A 
HETATM   35  F1  UNL     1      11.529  11.392  29.155  1.00  0.00    -0.205 F 
HETATM   36  C28 UNL     1      12.381  10.655  27.039  1.00  0.00     0.088 A 
HETATM   37  C29 UNL     1      12.200  10.526  25.671  1.00  0.00     0.146 A 
HETATM   38  F2  UNL     1      13.176   9.948  24.912  1.00  0.00    -0.204 F 
HETATM   39  C30 UNL     1      11.034  10.989  25.108  1.00  0.00     0.079 A 
HETATM   40  C33 UNL     1       8.848  12.004  25.132  1.00  0.00     0.048 C 
BRANCH  39  41
HETATM   41  N3  UNL     1      10.899  10.849  23.703  1.00  0.00    -0.354 N 
ATOM     42  H3  UNL     1      10.315  10.092  23.350  1.00  0.00     0.166 HD
BRANCH  41  43
HETATM   43  C31 UNL     1      11.467  11.618  22.855  1.00  0.00     0.170 C 
HETATM   44  S2  UNL     1      12.554  12.766  22.448  1.00  0.00    -0.074 SA
ENDBRANCH  41  43
ENDBRANCH  39  41
ENDBRANCH  10  29
TORSDOF 10
ENDMDL
MODEL 2
REMARK VINA RESULT: -7.264721342      1.321      1.660
REMARK  10 active torsions:
REMARK  status: ('A' for Active; 'I' for Inactive)
REMARK    1  A    between atoms: C5_5  and  N1_6 
REMARK    2  A    between atoms: N1_6  and  O1_7 
REMARK    3  A    between atoms: O1_7  and  C6_8 
REMARK    4  A    between atoms: C6_8  and  C7_9 
REMARK    5  A    between atoms: C7_9  and  N2_10 
REMARK    6  A    between atoms: C10_13  and  O2_14 
REMARK    7  A    between atoms: C10_13  and  C11_16 
REMARK    8  A    between atoms: C23_28  and  C24_29 
REMARK    9  A    between atoms: C30_38  and  N3_39 
REMARK   10  A    between atoms: N3_39  and  C31_41 
ROOT
HETATM    1  C1  UNL     1       3.485  10.277  24.012  1.00  0.00     0.016 C 
HETATM    2  C2  UNL     1       4.976   9.936  23.970  1.00  0.00    -0.036 C 
HETATM    3  C3  UNL     1       5.349   8.784  24.821  1.00  0.00     0.017 C 
HETATM    4  C4  UNL     1       4.309   7.688  24.609  1.00  0.00     0.072 C 
HETATM    5  C5  UNL     1       4.037   7.422  23.171  1.00  0.00     0.095 C 
HETATM    6  C19 UNL     1       4.345   8.431  22.113  1.00  0.00     0.076 C 
HETATM    7  C20 UNL     1       5.303   9.450  22.541  1.00  0.00     0.000 C 
HETATM    8  C21 UNL     1       5.273  10.746  21.786  1.00  0.00     0.006 C 
HETATM    9  C22 UNL     1       6.282  11.527  22.651  1.00  0.00     0.006 C 
HETATM   10  C23 UNL     1       5.758  11.183  24.053  1.00  0.00    -0.001 C 
ENDROOT
BRANCH   5  11
HETATM   11  N1  UNL     1       3.556   6.353  22.851  1.00  0.00    -0.290 NA
BRANCH  11  12
HETATM   12  O1  UNL     1       3.056   5.263  22.543  1.00  0.00    -0.208 OA
BRANCH  12  13
HETATM   13  C6  UNL     1       1.831   4.670  22.940  1.00  0.00     0.248 C 
BRANCH  13  14
HETATM   14  C7  UNL     1       0.682   5.424  22.402  1.00  0.00     0.302 C 
BRANCH  14  15
HETATM   15  N2  UNL     1       0.348   5.161  20.998  1.00  0.00     0.090 N 
HETATM   16  C8  UNL     1      -1.067   5.528  20.919  1.00  0.00     0.276 C 
HETATM   17  C9  UNL     1      -1.930   4.324  21.165  1.00  0.00     0.073 C 
HETATM   18  C10 UNL     1      -1.816   3.486  19.887  1.00  0.00     0.088 C 
HETATM   19  C17 UNL     1      -0.375   3.092  19.789  1.00  0.00     0.073 C 
HETATM   20  C18 UNL     1       0.539   3.743  20.779  1.00  0.00     0.276 C 
BRANCH  18  21
HETATM   21  O2  UNL     1      -2.684   2.408  20.045  1.00  0.00    -0.385 OA
ATOM     22  H2  UNL     1      -2.896   2.369  20.970  1.00  0.00     0.211 HD
ENDBRANCH  18  21
BRANCH  18  23
HETATM   23  C11 UNL     1      -2.331   4.301  18.775  1.00  0.00    -0.024 A 
HETATM   24  C12 UNL     1      -3.482   5.036  18.771  1.00  0.00     0.010 A 
HETATM   25  C13 UNL     1      -3.831   5.748  17.639  1.00  0.00     0.001 A 
HETATM   26  C14 UNL     1      -3.047   5.739  16.505  1.00  0.00     0.000 A 
HETATM   27  C15 UNL     1      -1.884   5.007  16.486  1.00  0.00     0.001 A 
HETATM   28  C16 UNL     1      -1.541   4.299  17.616  1.00  0.00     0.010 A 
ENDBRANCH  18  23
ENDBRANCH  14  15
ENDBRANCH  13  14
ENDBRANCH  12  13
ENDBRANCH  11  12
ENDBRANCH   5  11
BRANCH  10  29
HETATM   29  C24 UNL     1       6.777  11.350  25.101  1.00  0.00     0.004 C 
HETATM   30  C25 UNL     1       6.585  12.582  25.946  1.00  0.00     0.085 C 
HETATM   31  S1  UNL     1       7.496  12.199  27.498  1.00  0.00    -0.126 SA
HETATM   32  C26 UNL     1       9.119  11.719  26.899  1.00  0.00     0.048 A 
HETATM   33  C27 UNL     1      10.205  11.711  27.762  1.00  0.00     0.136 A 
HETATM   34  C32 UNL     1       9.238  11.390  25.580  1.00  0.00    -0.008 A 
HETATM   35  F1  UNL     1       9.970  12.046  29.030  1.00  0.00    -0.205 F 
HETATM   36  C28 UNL     1      11.439  11.362  27.264  1.00  0.00     0.088 A 
HETATM   37  C29 UNL     1      11.608  11.022  25.931  1.00  0.00     0.146 A 
HETATM   38  F2  UNL     1      12.850  10.686  25.472  1.00  0.00    -0.204 F 
HETATM   39  C30 UNL     1      10.516  11.036  25.097  1.00  0.00     0.079 A 
HETATM   40  C33 UNL     1       8.185  11.327  24.552  1.00  0.00     0.048 C 
BRANCH  39  41
HETATM   41  N3  UNL     1      10.739  10.696  23.738  1.00  0.00    -0.354 N 
ATOM     42  H3  UNL     1      10.415   9.787  23.411  1.00  0.00     0.166 HD
BRANCH  41  43
HETATM   43  C31 UNL     1      11.324  11.464  22.901  1.00  0.00     0.170 C 
HETATM   44  S2  UNL     1      12.262  12.748  22.530  1.00  0.00    -0.074 SA
ENDBRANCH  41  43
ENDBRANCH  39  41
ENDBRANCH  10  29
TORSDOF 10
ENDMDL
MODEL 3
REMARK VINA RESULT: -7.131218541      3.525      4.906
REMARK  10 active torsions:
REMARK  status: ('A' for Active; 'I' for Inactive)
REMARK    1  A    between atoms: C5_5  and  N1_6 
REMARK    2  A    between atoms: N1_6  and  O1_7 
REMARK    3  A    between atoms: O1_7  and  C6_8 
REMARK    4  A    between atoms: C6_8  and  C7_9 
REMARK    5  A    between atoms: C7_9  and  N2_10 
REMARK    6  A    between atoms: C10_13  and  O2_14 
REMARK    7  A    between atoms: C10_13  and  C11_16 
REMARK    8  A    between atoms: C23_28  and  C24_29 
REMARK    9  A    between atoms: C30_38  and  N3_39 
REMARK   10  A    between atoms: N3_39  and  C31_41 
ROOT
HETATM    1  C1  UNL     1       4.943  11.630  22.309  1.00  0.00     0.016 C 
HETATM    2  C2  UNL     1       5.016  11.909  23.811  1.00  0.00    -0.036 C 
HETATM    3  C3  UNL     1       3.717  11.769  24.508  1.00  0.00     0.017 C 
HETATM    4  C4  UNL     1       3.046  10.498  23.999  1.00  0.00     0.072 C 
HETATM    5  C5  UNL     1       3.959   9.323  24.003  1.00  0.00     0.095 C 
HETATM    6  C19 UNL     1       5.444   9.481  24.007  1.00  0.00     0.076 C 
HETATM    7  C20 UNL     1       5.887  10.804  24.448  1.00  0.00     0.000 C 
HETATM    8  C21 UNL     1       7.255  11.227  24.001  1.00  0.00     0.006 C 
HETATM    9  C22 UNL     1       7.223  12.673  24.534  1.00  0.00     0.006 C 
HETATM   10  C23 UNL     1       5.836  13.112  24.039  1.00  0.00    -0.001 C 
ENDROOT
BRANCH   5  11
HETATM   11  N1  UNL     1       3.480   8.206  24.007  1.00  0.00    -0.290 NA
BRANCH  11  12
HETATM   12  O1  UNL     1       2.986   7.070  23.992  1.00  0.00    -0.208 OA
BRANCH  12  13
HETATM   13  C6  UNL     1       3.331   5.929  23.226  1.00  0.00     0.248 C 
BRANCH  13  14
HETATM   14  C7  UNL     1       2.183   5.008  23.107  1.00  0.00     0.302 C 
BRANCH  14  15
HETATM   15  N2  UNL     1       1.760   4.693  21.738  1.00  0.00     0.090 N 
HETATM   16  C8  UNL     1       0.313   4.911  21.780  1.00  0.00     0.276 C 
HETATM   17  C9  UNL     1      -0.396   3.628  22.105  1.00  0.00     0.073 C 
HETATM   18  C10 UNL     1      -0.307   2.790  20.826  1.00  0.00     0.088 C 
HETATM   19  C17 UNL     1       1.154   2.544  20.606  1.00  0.00     0.073 C 
HETATM   20  C18 UNL     1       2.077   3.299  21.509  1.00  0.00     0.276 C 
BRANCH  18  21
HETATM   21  O2  UNL     1      -1.042   1.631  21.063  1.00  0.00    -0.385 OA
ATOM     22  H2  UNL     1      -0.481   1.058  21.573  1.00  0.00     0.211 HD
ENDBRANCH  18  21
BRANCH  18  23
HETATM   23  C11 UNL     1      -0.996   3.532  19.760  1.00  0.00    -0.024 A 
HETATM   24  C12 UNL     1      -0.445   3.983  18.594  1.00  0.00     0.010 A 
HETATM   25  C13 UNL     1      -1.232   4.672  17.691  1.00  0.00     0.001 A 
HETATM   26  C14 UNL     1      -2.565   4.921  17.930  1.00  0.00     0.000 A 
HETATM   27  C15 UNL     1      -3.142   4.477  19.096  1.00  0.00     0.001 A 
HETATM   28  C16 UNL     1      -2.355   3.790  19.993  1.00  0.00     0.010 A 
ENDBRANCH  18  23
ENDBRANCH  14  15
ENDBRANCH  13  14
ENDBRANCH  12  13
ENDBRANCH  11  12
ENDBRANCH   5  11
BRANCH  10  29
HETATM   29  C24 UNL     1       5.291  14.247  24.799  1.00  0.00     0.004 C 
HETATM   30  C25 UNL     1       4.320  15.093  24.017  1.00  0.00     0.085 C 
HETATM   31  S1  UNL     1       3.331  15.943  25.316  1.00  0.00    -0.126 SA
HETATM   32  C26 UNL     1       4.591  16.685  26.355  1.00  0.00     0.048 A 
HETATM   33  C27 UNL     1       4.260  17.713  27.226  1.00  0.00     0.136 A 
HETATM   34  C32 UNL     1       5.869  16.219  26.237  1.00  0.00    -0.008 A 
HETATM   35  F1  UNL     1       2.980  18.084  27.260  1.00  0.00    -0.205 F 
HETATM   36  C28 UNL     1       5.255  18.276  27.990  1.00  0.00     0.088 A 
HETATM   37  C29 UNL     1       6.567  17.837  27.902  1.00  0.00     0.146 A 
HETATM   38  F2  UNL     1       7.529  18.423  28.673  1.00  0.00    -0.204 F 
HETATM   39  C30 UNL     1       6.869  16.815  27.033  1.00  0.00     0.079 A 
HETATM   40  C33 UNL     1       6.371  15.128  25.385  1.00  0.00     0.048 C 
BRANCH  39  41
HETATM   41  N3  UNL     1       8.227  16.409  26.966  1.00  0.00    -0.354 N 
ATOM     42  H3  UNL     1       8.497  15.556  27.455  1.00  0.00     0.166 HD
BRANCH  41  43
HETATM   43  C31 UNL     1       9.130  17.050  26.329  1.00  0.00     0.170 C 
HETATM   44  S2  UNL     1       9.707  18.394  25.604  1.00  0.00    -0.074 SA
ENDBRANCH  41  43
ENDBRANCH  39  41
ENDBRANCH  10  29
TORSDOF 10
ENDMDL
MODEL 4
REMARK VINA RESULT: -7.054148656      1.613      1.817
REMARK  10 active torsions:
REMARK  status: ('A' for Active; 'I' for Inactive)
REMARK    1  A    between atoms: C5_5  and  N1_6 
REMARK    2  A    between atoms: N1_6  and  O1_7 
REMARK    3  A    between atoms: O1_7  and  C6_8 
REMARK    4  A    between atoms: C6_8  and  C7_9 
REMARK    5  A    between atoms: C7_9  and  N2_10 
REMARK    6  A    between atoms: C10_13  and  O2_14 
REMARK    7  A    between atoms: C10_13  and  C11_16 
REMARK    8  A    between atoms: C23_28  and  C24_29 
REMARK    9  A    between atoms: C30_38  and  N3_39 
REMARK   10  A    between atoms: N3_39  and  C31_41 
ROOT
HETATM    1  C1  UNL     1       3.478  11.602  24.489  1.00  0.00     0.016 C 
HETATM    2  C2  UNL     1       4.996  11.620  24.305  1.00  0.00    -0.036 C 
HETATM    3  C3  UNL     1       5.705  10.592  25.100  1.00  0.00     0.017 C 
HETATM    4  C4  UNL     1       4.935   9.282  24.967  1.00  0.00     0.072 C 
HETATM    5  C5  UNL     1       4.601   8.951  23.556  1.00  0.00     0.095 C 
HETATM    6  C19 UNL     1       4.564   9.996  22.490  1.00  0.00     0.076 C 
HETATM    7  C20 UNL     1       5.294  11.214  22.844  1.00  0.00     0.000 C 
HETATM    8  C21 UNL     1       4.892  12.462  22.115  1.00  0.00     0.006 C 
HETATM    9  C22 UNL     1       5.766  13.463  22.896  1.00  0.00     0.006 C 
HETATM   10  C23 UNL     1       5.469  13.015  24.335  1.00  0.00    -0.001 C 
ENDROOT
BRANCH   5  11
HETATM   11  N1  UNL     1       4.355   7.797  23.266  1.00  0.00    -0.290 NA
BRANCH  11  12
HETATM   12  O1  UNL     1       4.085   6.624  22.973  1.00  0.00    -0.208 OA
BRANCH  12  13
HETATM   13  C6  UNL     1       2.882   5.892  23.129  1.00  0.00     0.248 C 
BRANCH  13  14
HETATM   14  C7  UNL     1       3.003   4.545  22.537  1.00  0.00     0.302 C 
BRANCH  14  15
HETATM   15  N2  UNL     1       2.266   4.331  21.287  1.00  0.00     0.090 N 
HETATM   16  C8  UNL     1       0.902   4.737  21.631  1.00  0.00     0.276 C 
HETATM   17  C9  UNL     1       0.109   3.550  22.095  1.00  0.00     0.073 C 
HETATM   18  C10 UNL     1      -0.183   2.747  20.824  1.00  0.00     0.088 C 
HETATM   19  C17 UNL     1       1.153   2.317  20.302  1.00  0.00     0.073 C 
HETATM   20  C18 UNL     1       2.336   2.915  20.994  1.00  0.00     0.276 C 
BRANCH  18  21
HETATM   21  O2  UNL     1      -1.004   1.688  21.208  1.00  0.00    -0.385 OA
ATOM     22  H2  UNL     1      -0.507   1.179  21.838  1.00  0.00     0.211 HD
ENDBRANCH  18  21
BRANCH  18  23
HETATM   23  C11 UNL     1      -0.972   3.605  19.927  1.00  0.00    -0.024 A 
HETATM   24  C12 UNL     1      -2.128   4.263  20.238  1.00  0.00     0.010 A 
HETATM   25  C13 UNL     1      -2.754   5.032  19.276  1.00  0.00     0.001 A 
HETATM   26  C14 UNL     1      -2.245   5.158  18.002  1.00  0.00     0.000 A 
HETATM   27  C15 UNL     1      -1.083   4.506  17.665  1.00  0.00     0.001 A 
HETATM   28  C16 UNL     1      -0.462   3.741  18.627  1.00  0.00     0.010 A 
ENDBRANCH  18  23
ENDBRANCH  14  15
ENDBRANCH  13  14
ENDBRANCH  12  13
ENDBRANCH  11  12
ENDBRANCH   5  11
BRANCH  10  29
HETATM   29  C24 UNL     1       6.514  13.422  25.287  1.00  0.00     0.004 C 
HETATM   30  C25 UNL     1       6.357  14.830  25.798  1.00  0.00     0.085 C 
HETATM   31  S1  UNL     1       7.298  14.834  27.379  1.00  0.00    -0.126 SA
HETATM   32  C26 UNL     1       8.901  14.192  26.889  1.00  0.00     0.048 A 
HETATM   33  C27 UNL     1      10.007  14.383  27.705  1.00  0.00     0.136 A 
HETATM   34  C32 UNL     1       8.986  13.540  25.692  1.00  0.00    -0.008 A 
HETATM   35  F1  UNL     1       9.804  15.030  28.852  1.00  0.00    -0.205 F 
HETATM   36  C28 UNL     1      11.224  13.898  27.287  1.00  0.00     0.088 A 
HETATM   37  C29 UNL     1      11.360  13.233  26.079  1.00  0.00     0.146 A 
HETATM   38  F2  UNL     1      12.586  12.771  25.695  1.00  0.00    -0.204 F 
HETATM   39  C30 UNL     1      10.248  13.055  25.290  1.00  0.00     0.079 A 
HETATM   40  C33 UNL     1       7.910  13.239  24.734  1.00  0.00     0.048 C 
BRANCH  39  41
HETATM   41  N3  UNL     1      10.437  12.381  24.056  1.00  0.00    -0.354 N 
ATOM     42  H3  UNL     1      10.355  12.922  23.196  1.00  0.00     0.166 HD
BRANCH  41  43
HETATM   43  C31 UNL     1      10.704  11.135  23.961  1.00  0.00     0.170 C 
HETATM   44  S2  UNL     1      11.743   9.876  23.973  1.00  0.00    -0.074 SA
ENDBRANCH  41  43
ENDBRANCH  39  41
ENDBRANCH  10  29
TORSDOF 10
ENDMDL
MODEL 5
REMARK VINA RESULT: -6.993866279      3.867      5.601
REMARK  10 active torsions:
REMARK  status: ('A' for Active; 'I' for Inactive)
REMARK    1  A    between atoms: C5_5  and  N1_6 
REMARK    2  A    between atoms: N1_6  and  O1_7 
REMARK    3  A    between atoms: O1_7  and  C6_8 
REMARK    4  A    between atoms: C6_8  and  C7_9 
REMARK    5  A    between atoms: C7_9  and  N2_10 
REMARK    6  A    between atoms: C10_13  and  O2_14 
REMARK    7  A    between atoms: C10_13  and  C11_16 
REMARK    8  A    between atoms: C23_28  and  C24_29 
REMARK    9  A    between atoms: C30_38  and  N3_39 
REMARK   10  A    between atoms: N3_39  and  C31_41 
ROOT
HETATM    1  C1  UNL     1       4.960  11.151  22.020  1.00  0.00     0.016 C 
HETATM    2  C2  UNL     1       4.770  11.517  23.494  1.00  0.00    -0.036 C 
HETATM    3  C3  UNL     1       3.467  11.090  24.051  1.00  0.00     0.017 C 
HETATM    4  C4  UNL     1       3.198   9.665  23.578  1.00  0.00     0.072 C 
HETATM    5  C5  UNL     1       4.361   8.761  23.780  1.00  0.00     0.095 C 
HETATM    6  C19 UNL     1       5.750   9.289  23.935  1.00  0.00     0.076 C 
HETATM    7  C20 UNL     1       5.797  10.702  24.312  1.00  0.00     0.000 C 
HETATM    8  C21 UNL     1       7.065  11.434  23.986  1.00  0.00     0.006 C 
HETATM    9  C22 UNL     1       6.612  12.851  24.391  1.00  0.00     0.006 C 
HETATM   10  C23 UNL     1       5.235  12.898  23.711  1.00  0.00    -0.001 C 
ENDROOT
BRANCH   5  11
HETATM   11  N1  UNL     1       4.174   7.562  23.823  1.00  0.00    -0.290 NA
BRANCH  11  12
HETATM   12  O1  UNL     1       3.986   6.338  23.847  1.00  0.00    -0.208 OA
BRANCH  12  13
HETATM   13  C6  UNL     1       3.432   5.474  22.870  1.00  0.00     0.248 C 
BRANCH  13  14
HETATM   14  C7  UNL     1       2.046   5.868  22.544  1.00  0.00     0.302 C 
BRANCH  14  15
HETATM   15  N2  UNL     1       1.547   5.415  21.241  1.00  0.00     0.090 N 
HETATM   16  C8  UNL     1       0.096   5.381  21.435  1.00  0.00     0.276 C 
HETATM   17  C9  UNL     1      -0.337   4.013  21.877  1.00  0.00     0.073 C 
HETATM   18  C10 UNL     1      -0.232   3.140  20.623  1.00  0.00     0.088 C 
HETATM   19  C17 UNL     1       1.219   3.140  20.251  1.00  0.00     0.073 C 
HETATM   20  C18 UNL     1       2.081   4.088  21.022  1.00  0.00     0.276 C 
BRANCH  18  21
HETATM   21  O2  UNL     1      -0.721   1.884  20.977  1.00  0.00    -0.385 OA
ATOM     22  H2  UNL     1      -0.786   1.385  20.171  1.00  0.00     0.211 HD
ENDBRANCH  18  21
BRANCH  18  23
HETATM   23  C11 UNL     1      -1.149   3.696  19.616  1.00  0.00    -0.024 A 
HETATM   24  C12 UNL     1      -2.457   4.035  19.807  1.00  0.00     0.010 A 
HETATM   25  C13 UNL     1      -3.190   4.545  18.752  1.00  0.00     0.001 A 
HETATM   26  C14 UNL     1      -2.636   4.723  17.503  1.00  0.00     0.000 A 
HETATM   27  C15 UNL     1      -1.321   4.389  17.286  1.00  0.00     0.001 A 
HETATM   28  C16 UNL     1      -0.595   3.882  18.341  1.00  0.00     0.010 A 
ENDBRANCH  18  23
ENDBRANCH  14  15
ENDBRANCH  13  14
ENDBRANCH  12  13
ENDBRANCH  11  12
ENDBRANCH   5  11
BRANCH  10  29
HETATM   29  C24 UNL     1       4.336  13.897  24.310  1.00  0.00     0.004 C 
HETATM   30  C25 UNL     1       3.233  14.352  23.391  1.00  0.00     0.085 C 
HETATM   31  S1  UNL     1       1.946  15.002  24.534  1.00  0.00    -0.126 SA
HETATM   32  C26 UNL     1       2.864  16.169  25.543  1.00  0.00     0.048 A 
HETATM   33  C27 UNL     1       2.191  17.137  26.274  1.00  0.00     0.136 A 
HETATM   34  C32 UNL     1       4.226  16.079  25.541  1.00  0.00    -0.008 A 
HETATM   35  F1  UNL     1       0.860  17.129  26.203  1.00  0.00    -0.205 F 
HETATM   36  C28 UNL     1       2.926  18.031  27.017  1.00  0.00     0.088 A 
HETATM   37  C29 UNL     1       4.310  17.979  27.043  1.00  0.00     0.146 A 
HETATM   38  F2  UNL     1       5.007  18.887  27.788  1.00  0.00    -0.204 F 
HETATM   39  C30 UNL     1       4.954  17.010  26.312  1.00  0.00     0.079 A 
HETATM   40  C33 UNL     1       5.078  15.102  24.843  1.00  0.00     0.048 C 
BRANCH  39  41
HETATM   41  N3  UNL     1       6.371  17.004  26.358  1.00  0.00    -0.354 N 
ATOM     42  H3  UNL     1       6.879  17.388  25.561  1.00  0.00     0.166 HD
BRANCH  41  43
HETATM   43  C31 UNL     1       7.048  16.545  27.339  1.00  0.00     0.170 C 
HETATM   44  S2  UNL     1       7.686  16.669  28.837  1.00  0.00    -0.074 SA
ENDBRANCH  41  43
ENDBRANCH  39  41
ENDBRANCH  10  29
TORSDOF 10
ENDMDL
