MODEL 1
REMARK VINA RESULT: -6.254551334      0.000      0.000
REMARK  9 active torsions:
REMARK  status: ('A' for Active; 'I' for Inactive)
REMARK    1  A    between atoms: O1_2  and  C2_3 
REMARK    2  A    between atoms: C3_4  and  O2_5 
REMARK    3  A    between atoms: O2_5  and  C4_6 
REMARK    4  A    between atoms: C4_6  and  C5_7 
REMARK    5  A    between atoms: C5_7  and  N1_8 
REMARK    6  A    between atoms: C10_13  and  C11_14 
REMARK    7  A    between atoms: C11_14  and  N2_15 
REMARK    8  A    between atoms: N2_15  and  C12_17 
REMARK    9  A    between atoms: C24_35  and  C25_36 
ROOT
HETATM    1  C2  UNL     1       0.874  11.368  -4.131  1.00  0.00     0.115 A 
HETATM    2  C3  UNL     1       1.657  10.508  -3.366  1.00  0.00     0.111 A 
HETATM    3  C10 UNL     1       1.351  10.397  -2.052  1.00  0.00    -0.004 A 
HETATM    4  C18 UNL     1       0.334  11.014  -1.378  1.00  0.00     0.025 A 
HETATM    5  C19 UNL     1      -0.463  11.869  -2.135  1.00  0.00    -0.007 A 
HETATM    6  C20 UNL     1      -0.173  12.027  -3.475  1.00  0.00     0.040 A 
HETATM    7  C21 UNL     1      -1.088  13.019  -4.054  1.00  0.00     0.067 A 
HETATM    8  N3  UNL     1      -1.126  13.583  -5.195  1.00  0.00    -0.396 N 
ATOM      9  H31 UNL     1      -1.761  14.273  -5.597  1.00  0.00     0.156 HD
ATOM     10  H32 UNL     1      -0.494  13.272  -5.933  1.00  0.00     0.156 HD
HETATM   11  C22 UNL     1      -2.000  13.468  -2.990  1.00  0.00     0.064 A 
HETATM   12  N4  UNL     1      -2.932  14.321  -3.097  1.00  0.00    -0.397 N 
ATOM     13  H41 UNL     1      -3.564  14.632  -2.359  1.00  0.00     0.156 HD
ATOM     14  H42 UNL     1      -3.214  14.830  -3.935  1.00  0.00     0.156 HD
HETATM   15  C23 UNL     1      -1.590  12.727  -1.771  1.00  0.00     0.005 A 
HETATM   16  C24 UNL     1      -2.246  12.729  -0.666  1.00  0.00     0.029 C 
ENDROOT
BRANCH   3  17
HETATM   17  C11 UNL     1       2.296   9.567  -1.180  1.00  0.00     0.156 C 
BRANCH  17  18
HETATM   18  N2  UNL     1       3.069  10.491  -0.409  1.00  0.00    -0.413 N 
ATOM     19  H2  UNL     1       3.576  11.266  -0.838  1.00  0.00     0.153 HD
BRANCH  18  20
HETATM   20  C12 UNL     1       3.084  10.267   0.952  1.00  0.00     0.076 C 
HETATM   21  C13 UNL     1       2.693  11.508   1.761  1.00  0.00     0.024 C 
HETATM   22  C14 UNL     1       1.876  10.910   2.928  1.00  0.00     0.002 C 
HETATM   23  C15 UNL     1       2.625   9.710   3.467  1.00  0.00     0.000 C 
HETATM   24  C16 UNL     1       4.100   9.729   3.124  1.00  0.00     0.002 C 
HETATM   25  C17 UNL     1       4.288   9.659   1.603  1.00  0.00     0.024 C 
ENDBRANCH  18  20
ENDBRANCH  17  18
ENDBRANCH   3  17
BRANCH   2  26
HETATM   26  O2  UNL     1       2.661   9.813  -3.876  1.00  0.00    -0.346 OA
BRANCH  26  27
HETATM   27  C4  UNL     1       3.909  10.007  -4.406  1.00  0.00     0.206 C 
BRANCH  27  28
HETATM   28  C5  UNL     1       3.966   9.442  -5.834  1.00  0.00     0.299 C 
BRANCH  28  29
HETATM   29  N1  UNL     1       5.334   9.400  -6.340  1.00  0.00     0.090 N 
HETATM   30  C6  UNL     1       5.682   7.980  -6.488  1.00  0.00     0.272 C 
HETATM   31  C7  UNL     1       7.138   7.855  -6.169  1.00  0.00     0.032 C 
HETATM   32  C8  UNL     1       7.479   9.101  -5.362  1.00  0.00     0.032 C 
HETATM   33  C9  UNL     1       6.197   9.857  -5.253  1.00  0.00     0.272 C 
ENDBRANCH  28  29
ENDBRANCH  27  28
ENDBRANCH  26  27
ENDBRANCH   2  26
BRANCH   1  34
HETATM   34  O1  UNL     1       1.117  11.569  -5.442  1.00  0.00    -0.352 OA
HETATM   35  C1  UNL     1       2.000  12.546  -5.975  1.00  0.00     0.210 C 
ENDBRANCH   1  34
BRANCH  16  36
HETATM   36  C25 UNL     1      -2.193  11.988   0.536  1.00  0.00     0.004 A 
HETATM   37  C26 UNL     1      -1.493  12.380   1.633  1.00  0.00     0.045 A 
HETATM   38 CL1  UNL     1      -0.352  13.739   1.534  1.00  0.00    -0.083 Cl
HETATM   39  C27 UNL     1      -1.630  11.693   2.842  1.00  0.00     0.025 A 
HETATM   40  C28 UNL     1      -2.474  10.610   2.939  1.00  0.00     0.003 A 
HETATM   41  C29 UNL     1      -3.169  10.220   1.849  1.00  0.00     0.020 A 
HETATM   42  C30 UNL     1      -3.085  10.852   0.598  1.00  0.00     0.022 A 
HETATM   43 BR1  UNL     1      -4.109  10.278  -0.858  1.00  0.00    -0.050 Br
ENDBRANCH  16  36
TORSDOF 9
ENDMDL
MODEL 2
REMARK VINA RESULT: -6.219697582      4.952      7.195
REMARK  9 active torsions:
REMARK  status: ('A' for Active; 'I' for Inactive)
REMARK    1  A    between atoms: O1_2  and  C2_3 
REMARK    2  A    between atoms: C3_4  and  O2_5 
REMARK    3  A    between atoms: O2_5  and  C4_6 
REMARK    4  A    between atoms: C4_6  and  C5_7 
REMARK    5  A    between atoms: C5_7  and  N1_8 
REMARK    6  A    between atoms: C10_13  and  C11_14 
REMARK    7  A    between atoms: C11_14  and  N2_15 
REMARK    8  A    between atoms: N2_15  and  C12_17 
REMARK    9  A    between atoms: C24_35  and  C25_36 
ROOT
HETATM    1  C2  UNL     1      -1.538  14.103   1.603  1.00  0.00     0.115 A 
HETATM    2  C3  UNL     1      -0.446  13.324   1.974  1.00  0.00     0.111 A 
HETATM    3  C10 UNL     1      -0.706  12.096   2.481  1.00  0.00    -0.004 A 
HETATM    4  C18 UNL     1      -1.928  11.506   2.651  1.00  0.00     0.025 A 
HETATM    5  C19 UNL     1      -3.028  12.272   2.273  1.00  0.00    -0.007 A 
HETATM    6  C20 UNL     1      -2.809  13.538   1.770  1.00  0.00     0.040 A 
HETATM    7  C21 UNL     1      -4.101  14.184   1.507  1.00  0.00     0.067 A 
HETATM    8  N3  UNL     1      -4.409  15.373   1.171  1.00  0.00    -0.396 N 
ATOM      9  H31 UNL     1      -5.307  15.822   0.989  1.00  0.00     0.156 HD
ATOM     10  H32 UNL     1      -3.672  16.036   0.927  1.00  0.00     0.156 HD
HETATM   11  C22 UNL     1      -5.163  13.230   1.859  1.00  0.00     0.064 A 
HETATM   12  N4  UNL     1      -6.414  13.418   1.772  1.00  0.00    -0.397 N 
ATOM     13  H41 UNL     1      -7.151  12.755   2.017  1.00  0.00     0.156 HD
ATOM     14  H42 UNL     1      -6.894  14.253   1.437  1.00  0.00     0.156 HD
HETATM   15  C23 UNL     1      -4.465  12.013   2.347  1.00  0.00     0.005 A 
HETATM   16  C24 UNL     1      -5.047  10.897   2.602  1.00  0.00     0.029 C 
ENDROOT
BRANCH   3  17
HETATM   17  C11 UNL     1       0.480  11.296   3.024  1.00  0.00     0.156 C 
BRANCH  17  18
HETATM   18  N2  UNL     1       1.318  10.987   1.908  1.00  0.00    -0.413 N 
ATOM     19  H2  UNL     1       0.975  11.010   0.948  1.00  0.00     0.153 HD
BRANCH  18  20
HETATM   20  C12 UNL     1       2.621  10.654   2.214  1.00  0.00     0.076 C 
HETATM   21  C13 UNL     1       3.377  10.059   1.022  1.00  0.00     0.024 C 
HETATM   22  C14 UNL     1       4.797  10.642   1.194  1.00  0.00     0.002 C 
HETATM   23  C15 UNL     1       5.197  10.499   2.646  1.00  0.00     0.000 C 
HETATM   24  C16 UNL     1       4.409   9.431   3.376  1.00  0.00     0.002 C 
HETATM   25  C17 UNL     1       2.922   9.807   3.413  1.00  0.00     0.024 C 
ENDBRANCH  18  20
ENDBRANCH  17  18
ENDBRANCH   3  17
BRANCH   2  26
HETATM   26  O2  UNL     1       0.804  13.739   1.844  1.00  0.00    -0.346 OA
BRANCH  26  27
HETATM   27  C4  UNL     1       1.750  14.452   2.533  1.00  0.00     0.206 C 
BRANCH  27  28
HETATM   28  C5  UNL     1       1.925  15.840   1.897  1.00  0.00     0.299 C 
BRANCH  28  29
HETATM   29  N1  UNL     1       1.919  16.896   2.904  1.00  0.00     0.090 N 
HETATM   30  C6  UNL     1       2.742  16.413   4.021  1.00  0.00     0.272 C 
HETATM   31  C7  UNL     1       2.130  16.952   5.274  1.00  0.00     0.032 C 
HETATM   32  C8  UNL     1       0.697  17.307   4.899  1.00  0.00     0.032 C 
HETATM   33  C9  UNL     1       0.568  16.936   3.460  1.00  0.00     0.272 C 
ENDBRANCH  28  29
ENDBRANCH  27  28
ENDBRANCH  26  27
ENDBRANCH   2  26
BRANCH   1  34
HETATM   34  O1  UNL     1      -1.385  15.351   1.115  1.00  0.00    -0.352 OA
HETATM   35  C1  UNL     1      -1.131  15.678  -0.244  1.00  0.00     0.210 C 
ENDBRANCH   1  34
BRANCH  16  36
HETATM   36  C25 UNL     1      -4.617   9.579   2.876  1.00  0.00     0.004 A 
HETATM   37  C26 UNL     1      -4.211   8.704   1.918  1.00  0.00     0.045 A 
HETATM   38 CL1  UNL     1      -4.460   9.074   0.198  1.00  0.00    -0.083 Cl
HETATM   39  C27 UNL     1      -3.631   7.484   2.275  1.00  0.00     0.025 A 
HETATM   40  C28 UNL     1      -3.463   7.150   3.599  1.00  0.00     0.003 A 
HETATM   41  C29 UNL     1      -3.867   8.019   4.551  1.00  0.00     0.020 A 
HETATM   42  C30 UNL     1      -4.461   9.260   4.277  1.00  0.00     0.022 A 
HETATM   43 BR1  UNL     1      -4.960  10.428   5.650  1.00  0.00    -0.050 Br
ENDBRANCH  16  36
TORSDOF 9
ENDMDL
MODEL 3
REMARK VINA RESULT: -6.142654971      1.343      1.549
REMARK  9 active torsions:
REMARK  status: ('A' for Active; 'I' for Inactive)
REMARK    1  A    between atoms: O1_2  and  C2_3 
REMARK    2  A    between atoms: C3_4  and  O2_5 
REMARK    3  A    between atoms: O2_5  and  C4_6 
REMARK    4  A    between atoms: C4_6  and  C5_7 
REMARK    5  A    between atoms: C5_7  and  N1_8 
REMARK    6  A    between atoms: C10_13  and  C11_14 
REMARK    7  A    between atoms: C11_14  and  N2_15 
REMARK    8  A    between atoms: N2_15  and  C12_17 
REMARK    9  A    between atoms: C24_35  and  C25_36 
ROOT
HETATM    1  C2  UNL     1       0.925  11.363  -4.292  1.00  0.00     0.115 A 
HETATM    2  C3  UNL     1       1.664  10.551  -3.438  1.00  0.00     0.111 A 
HETATM    3  C10 UNL     1       1.318  10.553  -2.129  1.00  0.00    -0.004 A 
HETATM    4  C18 UNL     1       0.297  11.244  -1.538  1.00  0.00     0.025 A 
HETATM    5  C19 UNL     1      -0.457  12.053  -2.385  1.00  0.00    -0.007 A 
HETATM    6  C20 UNL     1      -0.125  12.096  -3.724  1.00  0.00     0.040 A 
HETATM    7  C21 UNL     1      -0.998  13.058  -4.408  1.00  0.00     0.067 A 
HETATM    8  N3  UNL     1      -0.989  13.530  -5.590  1.00  0.00    -0.396 N 
ATOM      9  H31 UNL     1      -1.596  14.198  -6.065  1.00  0.00     0.156 HD
ATOM     10  H32 UNL     1      -0.345  13.146  -6.282  1.00  0.00     0.156 HD
HETATM   11  C22 UNL     1      -1.929  13.612  -3.411  1.00  0.00     0.064 A 
HETATM   12  N4  UNL     1      -2.836  14.473  -3.614  1.00  0.00    -0.397 N 
ATOM     13  H41 UNL     1      -3.481  14.857  -2.923  1.00  0.00     0.156 HD
ATOM     14  H42 UNL     1      -3.082  14.919  -4.498  1.00  0.00     0.156 HD
HETATM   15  C23 UNL     1      -1.572  12.962  -2.124  1.00  0.00     0.005 A 
HETATM   16  C24 UNL     1      -2.259  13.068  -1.044  1.00  0.00     0.029 C 
ENDROOT
BRANCH   3  17
HETATM   17  C11 UNL     1       2.217   9.775  -1.165  1.00  0.00     0.156 C 
BRANCH  17  18
HETATM   18  N2  UNL     1       2.884  10.741  -0.348  1.00  0.00    -0.413 N 
ATOM     19  H2  UNL     1       3.257  11.610  -0.730  1.00  0.00     0.153 HD
BRANCH  18  20
HETATM   20  C12 UNL     1       2.989  10.421   0.989  1.00  0.00     0.076 C 
HETATM   21  C13 UNL     1       2.548  11.564   1.908  1.00  0.00     0.024 C 
HETATM   22  C14 UNL     1       1.843  10.819   3.064  1.00  0.00     0.002 C 
HETATM   23  C15 UNL     1       2.710   9.648   3.473  1.00  0.00     0.000 C 
HETATM   24  C16 UNL     1       4.158   9.810   3.063  1.00  0.00     0.002 C 
HETATM   25  C17 UNL     1       4.270   9.866   1.534  1.00  0.00     0.024 C 
ENDBRANCH  18  20
ENDBRANCH  17  18
ENDBRANCH   3  17
BRANCH   2  26
HETATM   26  O2  UNL     1       2.665   9.795  -3.860  1.00  0.00    -0.346 OA
BRANCH  26  27
HETATM   27  C4  UNL     1       3.924   9.919  -4.386  1.00  0.00     0.206 C 
BRANCH  27  28
HETATM   28  C5  UNL     1       3.978   9.264  -5.775  1.00  0.00     0.299 C 
BRANCH  28  29
HETATM   29  N1  UNL     1       5.327   9.296  -6.330  1.00  0.00     0.090 N 
HETATM   30  C6  UNL     1       5.767   7.899  -6.440  1.00  0.00     0.272 C 
HETATM   31  C7  UNL     1       7.239   7.886  -6.172  1.00  0.00     0.032 C 
HETATM   32  C8  UNL     1       7.520   9.183  -5.424  1.00  0.00     0.032 C 
HETATM   33  C9  UNL     1       6.194   9.853  -5.295  1.00  0.00     0.272 C 
ENDBRANCH  28  29
ENDBRANCH  27  28
ENDBRANCH  26  27
ENDBRANCH   2  26
BRANCH   1  34
HETATM   34  O1  UNL     1       1.209  11.453  -5.608  1.00  0.00    -0.352 OA
HETATM   35  C1  UNL     1       2.124  12.370  -6.191  1.00  0.00     0.210 C 
ENDBRANCH   1  34
BRANCH  16  36
HETATM   36  C25 UNL     1      -2.259  12.424   0.214  1.00  0.00     0.004 A 
HETATM   37  C26 UNL     1      -2.775  11.185   0.427  1.00  0.00     0.045 A 
HETATM   38 CL1  UNL     1      -3.751  10.389  -0.827  1.00  0.00    -0.083 Cl
HETATM   39  C27 UNL     1      -2.581  10.538   1.650  1.00  0.00     0.025 A 
HETATM   40  C28 UNL     1      -1.866  11.147   2.656  1.00  0.00     0.003 A 
HETATM   41  C29 UNL     1      -1.354  12.378   2.446  1.00  0.00     0.020 A 
HETATM   42  C30 UNL     1      -1.507  13.096   1.249  1.00  0.00     0.022 A 
HETATM   43 BR1  UNL     1      -0.735  14.784   1.017  1.00  0.00    -0.050 Br
ENDBRANCH  16  36
TORSDOF 9
ENDMDL
MODEL 4
REMARK VINA RESULT: -6.033698302      0.597      1.052
REMARK  9 active torsions:
REMARK  status: ('A' for Active; 'I' for Inactive)
REMARK    1  A    between atoms: O1_2  and  C2_3 
REMARK    2  A    between atoms: C3_4  and  O2_5 
REMARK    3  A    between atoms: O2_5  and  C4_6 
REMARK    4  A    between atoms: C4_6  and  C5_7 
REMARK    5  A    between atoms: C5_7  and  N1_8 
REMARK    6  A    between atoms: C10_13  and  C11_14 
REMARK    7  A    between atoms: C11_14  and  N2_15 
REMARK    8  A    between atoms: N2_15  and  C12_17 
REMARK    9  A    between atoms: C24_35  and  C25_36 
ROOT
HETATM    1  C2  UNL     1       1.333  11.224  -4.283  1.00  0.00     0.115 A 
HETATM    2  C3  UNL     1       2.188  10.501  -3.456  1.00  0.00     0.111 A 
HETATM    3  C10 UNL     1       1.895  10.476  -2.134  1.00  0.00    -0.004 A 
HETATM    4  C18 UNL     1       0.831  11.059  -1.505  1.00  0.00     0.025 A 
HETATM    5  C19 UNL     1      -0.038  11.776  -2.324  1.00  0.00    -0.007 A 
HETATM    6  C20 UNL     1       0.235  11.844  -3.675  1.00  0.00     0.040 A 
HETATM    7  C21 UNL     1      -0.763  12.702  -4.327  1.00  0.00     0.067 A 
HETATM    8  N3  UNL     1      -0.851  13.163  -5.511  1.00  0.00    -0.396 N 
ATOM      9  H31 UNL     1      -1.545  13.759  -5.964  1.00  0.00     0.156 HD
ATOM     10  H32 UNL     1      -0.197  12.845  -6.226  1.00  0.00     0.156 HD
HETATM   11  C22 UNL     1      -1.708  13.160  -3.296  1.00  0.00     0.064 A 
HETATM   12  N4  UNL     1      -2.710  13.919  -3.465  1.00  0.00    -0.397 N 
ATOM     13  H41 UNL     1      -3.364  14.236  -2.750  1.00  0.00     0.156 HD
ATOM     14  H42 UNL     1      -3.036  14.329  -4.341  1.00  0.00     0.156 HD
HETATM   15  C23 UNL     1      -1.233  12.562  -2.022  1.00  0.00     0.005 A 
HETATM   16  C24 UNL     1      -1.884  12.602  -0.916  1.00  0.00     0.029 C 
ENDROOT
BRANCH   3  17
HETATM   17  C11 UNL     1       2.910   9.806  -1.204  1.00  0.00     0.156 C 
BRANCH  17  18
HETATM   18  N2  UNL     1       3.373  10.813  -0.300  1.00  0.00    -0.413 N 
ATOM     19  H2  UNL     1       3.539  11.775  -0.597  1.00  0.00     0.153 HD
BRANCH  18  20
HETATM   20  C12 UNL     1       3.578  10.399   0.999  1.00  0.00     0.076 C 
HETATM   21  C13 UNL     1       4.122   8.970   1.086  1.00  0.00     0.024 C 
HETATM   22  C14 UNL     1       5.109   9.053   2.273  1.00  0.00     0.002 C 
HETATM   23  C15 UNL     1       4.435   9.807   3.399  1.00  0.00     0.000 C 
HETATM   24  C16 UNL     1       2.925   9.807   3.293  1.00  0.00     0.002 C 
HETATM   25  C17 UNL     1       2.486  10.535   2.016  1.00  0.00     0.024 C 
ENDBRANCH  18  20
ENDBRANCH  17  18
ENDBRANCH   3  17
BRANCH   2  26
HETATM   26  O2  UNL     1       3.247   9.853  -3.915  1.00  0.00    -0.346 OA
BRANCH  26  27
HETATM   27  C4  UNL     1       4.472  10.108  -4.473  1.00  0.00     0.206 C 
BRANCH  27  28
HETATM   28  C5  UNL     1       4.561   9.457  -5.863  1.00  0.00     0.299 C 
BRANCH  28  29
HETATM   29  N1  UNL     1       5.945   9.316  -6.301  1.00  0.00     0.090 N 
HETATM   30  C6  UNL     1       6.223   7.875  -6.351  1.00  0.00     0.272 C 
HETATM   31  C7  UNL     1       7.656   7.696  -5.958  1.00  0.00     0.032 C 
HETATM   32  C8  UNL     1       8.027   8.970  -5.210  1.00  0.00     0.032 C 
HETATM   33  C9  UNL     1       6.783   9.794  -5.205  1.00  0.00     0.272 C 
ENDBRANCH  28  29
ENDBRANCH  27  28
ENDBRANCH  26  27
ENDBRANCH   2  26
BRANCH   1  34
HETATM   34  O1  UNL     1       1.555  11.333  -5.609  1.00  0.00    -0.352 OA
HETATM   35  C1  UNL     1       2.338  12.341  -6.232  1.00  0.00     0.210 C 
ENDBRANCH   1  34
BRANCH  16  36
HETATM   36  C25 UNL     1      -1.766  11.972   0.343  1.00  0.00     0.004 A 
HETATM   37  C26 UNL     1      -0.957  12.423   1.339  1.00  0.00     0.045 A 
HETATM   38 CL1  UNL     1       0.235  13.701   1.020  1.00  0.00    -0.083 Cl
HETATM   39  C27 UNL     1      -1.024  11.859   2.615  1.00  0.00     0.025 A 
HETATM   40  C28 UNL     1      -1.908  10.838   2.882  1.00  0.00     0.003 A 
HETATM   41  C29 UNL     1      -2.711  10.389   1.893  1.00  0.00     0.020 A 
HETATM   42  C30 UNL     1      -2.703  10.899   0.586  1.00  0.00     0.022 A 
HETATM   43 BR1  UNL     1      -3.873  10.252  -0.722  1.00  0.00    -0.050 Br
ENDBRANCH  16  36
TORSDOF 9
ENDMDL
MODEL 5
REMARK VINA RESULT: -6.021369979      1.081      1.375
REMARK  9 active torsions:
REMARK  status: ('A' for Active; 'I' for Inactive)
REMARK    1  A    between atoms: O1_2  and  C2_3 
REMARK    2  A    between atoms: C3_4  and  O2_5 
REMARK    3  A    between atoms: O2_5  and  C4_6 
REMARK    4  A    between atoms: C4_6  and  C5_7 
REMARK    5  A    between atoms: C5_7  and  N1_8 
REMARK    6  A    between atoms: C10_13  and  C11_14 
REMARK    7  A    between atoms: C11_14  and  N2_15 
REMARK    8  A    between atoms: N2_15  and  C12_17 
REMARK    9  A    between atoms: C24_35  and  C25_36 
ROOT
HETATM    1  C2  UNL     1       0.401  12.359  -3.220  1.00  0.00     0.115 A 
HETATM    2  C3  UNL     1       1.223  11.385  -2.663  1.00  0.00     0.111 A 
HETATM    3  C10 UNL     1       0.795  10.792  -1.523  1.00  0.00    -0.004 A 
HETATM    4  C18 UNL     1      -0.377  11.017  -0.857  1.00  0.00     0.025 A 
HETATM    5  C19 UNL     1      -1.214  11.983  -1.411  1.00  0.00    -0.007 A 
HETATM    6  C20 UNL     1      -0.806  12.626  -2.562  1.00  0.00     0.040 A 
HETATM    7  C21 UNL     1      -1.800  13.644  -2.925  1.00  0.00     0.067 A 
HETATM    8  N3  UNL     1      -1.802  14.559  -3.810  1.00  0.00    -0.396 N 
ATOM      9  H31 UNL     1      -2.493  15.267  -4.062  1.00  0.00     0.156 HD
ATOM     10  H32 UNL     1      -1.050  14.598  -4.498  1.00  0.00     0.156 HD
HETATM   11  C22 UNL     1      -2.885  13.589  -1.933  1.00  0.00     0.064 A 
HETATM   12  N4  UNL     1      -3.926  14.313  -1.904  1.00  0.00    -0.397 N 
ATOM     13  H41 UNL     1      -4.678  14.274  -1.216  1.00  0.00     0.156 HD
ATOM     14  H42 UNL     1      -4.192  15.044  -2.564  1.00  0.00     0.156 HD
HETATM   15  C23 UNL     1      -2.498  12.525  -0.972  1.00  0.00     0.005 A 
HETATM   16  C24 UNL     1      -3.265  12.070  -0.048  1.00  0.00     0.029 C 
ENDROOT
BRANCH   3  17
HETATM   17  C11 UNL     1       1.760   9.827  -0.830  1.00  0.00     0.156 C 
BRANCH  17  18
HETATM   18  N2  UNL     1       2.724  10.628  -0.141  1.00  0.00    -0.413 N 
ATOM     19  H2  UNL     1       3.251  11.365  -0.608  1.00  0.00     0.153 HD
BRANCH  18  20
HETATM   20  C12 UNL     1       2.895  10.337   1.196  1.00  0.00     0.076 C 
HETATM   21  C13 UNL     1       2.407  11.461   2.115  1.00  0.00     0.024 C 
HETATM   22  C14 UNL     1       1.793  10.688   3.303  1.00  0.00     0.002 C 
HETATM   23  C15 UNL     1       2.751   9.585   3.699  1.00  0.00     0.000 C 
HETATM   24  C16 UNL     1       4.171   9.840   3.237  1.00  0.00     0.002 C 
HETATM   25  C17 UNL     1       4.228   9.879   1.705  1.00  0.00     0.024 C 
ENDBRANCH  18  20
ENDBRANCH  17  18
ENDBRANCH   3  17
BRANCH   2  26
HETATM   26  O2  UNL     1       2.378  11.030  -3.204  1.00  0.00    -0.346 OA
BRANCH  26  27
HETATM   27  C4  UNL     1       2.862  10.309  -4.264  1.00  0.00     0.206 C 
BRANCH  27  28
HETATM   28  C5  UNL     1       3.976  11.098  -4.969  1.00  0.00     0.299 C 
BRANCH  28  29
HETATM   29  N1  UNL     1       4.585  10.322  -6.044  1.00  0.00     0.090 N 
HETATM   30  C6  UNL     1       3.947   8.999  -6.017  1.00  0.00     0.272 C 
HETATM   31  C7  UNL     1       4.992   8.006  -6.416  1.00  0.00     0.032 C 
HETATM   32  C8  UNL     1       6.323   8.707  -6.175  1.00  0.00     0.032 C 
HETATM   33  C9  UNL     1       5.962  10.052  -5.638  1.00  0.00     0.272 C 
ENDBRANCH  28  29
ENDBRANCH  27  28
ENDBRANCH  26  27
ENDBRANCH   2  26
BRANCH   1  34
HETATM   34  O1  UNL     1       0.752  13.028  -4.338  1.00  0.00    -0.352 OA
HETATM   35  C1  UNL     1       0.467  12.616  -5.667  1.00  0.00     0.210 C 
ENDBRANCH   1  34
BRANCH  16  36
HETATM   36  C25 UNL     1      -3.226  10.970   0.839  1.00  0.00     0.004 A 
HETATM   37  C26 UNL     1      -2.521  10.964   2.002  1.00  0.00     0.045 A 
HETATM   38 CL1  UNL     1      -1.358  12.260   2.356  1.00  0.00    -0.083 Cl
HETATM   39  C27 UNL     1      -2.671   9.916   2.914  1.00  0.00     0.025 A 
HETATM   40  C28 UNL     1      -3.533   8.877   2.649  1.00  0.00     0.003 A 
HETATM   41  C29 UNL     1      -4.233   8.883   1.494  1.00  0.00     0.020 A 
HETATM   42  C30 UNL     1      -4.137   9.893   0.525  1.00  0.00     0.022 A 
HETATM   43 BR1  UNL     1      -5.168   9.852  -1.035  1.00  0.00    -0.050 Br
ENDBRANCH  16  36
TORSDOF 9
ENDMDL
