MODEL 1
REMARK VINA RESULT: -8.010337039      0.000      0.000
REMARK  8 active torsions:
REMARK  status: ('A' for Active; 'I' for Inactive)
REMARK    1  A    between atoms: N5_14  and  C6_15 
REMARK    2  A    between atoms: C6_15  and  C7_16 
REMARK    3  A    between atoms: C7_16  and  N6_17 
REMARK    4  A    between atoms: C7_16  and  C10_29 
REMARK    5  A    between atoms: N6_17  and  N7_18 
REMARK       I    between atoms: N7_18  and  C8_20 
REMARK    6  A    between atoms: C8_20  and  C9_22 
REMARK       I    between atoms: C9_22  and  N8_24 
REMARK    7  A    between atoms: N8_24  and  N9_26 
REMARK    8  A    between atoms: C10_29  and  C11_31 
REMARK       I    between atoms: C11_31  and  N10_33 
ROOT
HETATM    1  C7  UNL     1       1.717   4.462  80.537  1.00  0.00     0.199 C 
ENDROOT
BRANCH   1   2
HETATM    2  C6  UNL     1       1.799   5.334  81.765  1.00  0.00     0.181 C 
BRANCH   2   3
HETATM    3  N5  UNL     1       0.787   5.011  82.748  1.00  0.00    -0.284 N 
HETATM    4  N4  UNL     1       0.920   3.809  83.453  1.00  0.00    -0.280 N 
HETATM    5  C5  UNL     1      -0.025   3.470  84.453  1.00  0.00     0.164 A 
ATOM      6  H4  UNL     1       1.696   3.178  83.247  1.00  0.00     0.189 HD
HETATM    7  C4  UNL     1      -1.036   4.380  84.659  1.00  0.00     0.095 A 
HETATM    8  N3  UNL     1       0.030   2.343  85.178  1.00  0.00    -0.173 N 
HETATM    9  C3  UNL     1      -1.983   4.076  85.646  1.00  0.00     0.139 A 
HETATM   10  N11 UNL     1      -1.130   5.586  83.918  1.00  0.00    -0.347 N 
HETATM   11  N2  UNL     1      -1.887   2.953  86.336  1.00  0.00    -0.200 N 
HETATM   12  C2  UNL     1      -0.903   2.065  86.136  1.00  0.00     0.679 A 
ATOM     13  H2  UNL     1      -2.589   2.754  87.048  1.00  0.00     0.183 HD
HETATM   14  N1  UNL     1      -0.888   1.000  86.849  1.00  0.00    -0.230 N 
HETATM   15  C1  UNL     1      -1.873   0.717  87.847  1.00  0.00     0.165 C 
ATOM     16  H1  UNL     1      -0.139   0.323  86.698  1.00  0.00     0.177 HD
HETATM   17  C14 UNL     1      -0.272   5.919  82.992  1.00  0.00     0.201 A 
ATOM     18  H11 UNL     1      -1.904   6.221  84.118  1.00  0.00     0.167 HD
ATOM     19  H3  UNL     1       0.785   1.679  85.010  1.00  0.00     0.186 HD
ENDBRANCH   2   3
ENDBRANCH   1   2
BRANCH   1  20
HETATM   20  N6  UNL     1       0.543   3.603  80.565  1.00  0.00    -0.123 NA
BRANCH  20  21
HETATM   21  N7  UNL     1       0.897   2.269  80.506  1.00  0.00    -0.265 N 
HETATM   22  C8  UNL     1       0.415   1.182  81.266  1.00  0.00     0.326 C 
HETATM   23  O1  UNL     1      -0.453   1.237  82.165  1.00  0.00    -0.261 OA
ATOM     24  H7  UNL     1       1.609   2.037  79.814  1.00  0.00     0.185 HD
BRANCH  22  25
HETATM   25  C9  UNL     1       0.978  -0.163  80.994  1.00  0.00     0.328 C 
HETATM   26  O2  UNL     1       1.528  -0.427  79.887  1.00  0.00    -0.261 OA
HETATM   27  N8  UNL     1       0.898  -1.166  81.976  1.00  0.00    -0.268 N 
ATOM     28  H8  UNL     1       0.460  -0.975  82.877  1.00  0.00     0.190 HD
BRANCH  27  29
HETATM   29  N9  UNL     1       1.431  -2.431  81.697  1.00  0.00    -0.342 N 
ATOM     30  H92 UNL     1       1.019  -2.998  80.956  1.00  0.00     0.176 HD
ATOM     31  H91 UNL     1       2.225  -2.763  82.243  1.00  0.00     0.176 HD
ENDBRANCH  27  29
ENDBRANCH  22  25
ENDBRANCH  20  21
ENDBRANCH   1  20
BRANCH   1  32
HETATM   32  C10 UNL     1       2.914   3.583  80.541  1.00  0.00     0.239 C 
HETATM   33  O3  UNL     1       3.330   3.136  81.631  1.00  0.00    -0.285 OA
BRANCH  32  34
HETATM   34  C11 UNL     1       3.609   3.226  79.342  1.00  0.00     0.290 C 
HETATM   35  O4  UNL     1       3.328   2.151  78.709  1.00  0.00    -0.264 OA
HETATM   36  N10 UNL     1       4.651   4.020  78.764  1.00  0.00    -0.354 N 
HETATM   37  C12 UNL     1       5.094   5.238  79.370  1.00  0.00     0.152 C 
HETATM   38  C13 UNL     1       5.304   3.599  77.515  1.00  0.00     0.152 C 
ENDBRANCH  32  34
ENDBRANCH   1  32
TORSDOF 8
ENDMDL
MODEL 2
REMARK VINA RESULT: -7.815218382      2.969      7.293
REMARK  8 active torsions:
REMARK  status: ('A' for Active; 'I' for Inactive)
REMARK    1  A    between atoms: N5_14  and  C6_15 
REMARK    2  A    between atoms: C6_15  and  C7_16 
REMARK    3  A    between atoms: C7_16  and  N6_17 
REMARK    4  A    between atoms: C7_16  and  C10_29 
REMARK    5  A    between atoms: N6_17  and  N7_18 
REMARK       I    between atoms: N7_18  and  C8_20 
REMARK    6  A    between atoms: C8_20  and  C9_22 
REMARK       I    between atoms: C9_22  and  N8_24 
REMARK    7  A    between atoms: N8_24  and  N9_26 
REMARK    8  A    between atoms: C10_29  and  C11_31 
REMARK       I    between atoms: C11_31  and  N10_33 
ROOT
HETATM    1  C7  UNL     1       0.380   4.207  83.794  1.00  0.00     0.199 C 
ENDROOT
BRANCH   1   2
HETATM    2  C6  UNL     1       0.522   3.071  82.811  1.00  0.00     0.181 C 
BRANCH   2   3
HETATM    3  N5  UNL     1       1.669   3.226  81.942  1.00  0.00    -0.284 N 
HETATM    4  N4  UNL     1       2.763   3.953  82.426  1.00  0.00    -0.280 N 
HETATM    5  C5  UNL     1       3.923   4.096  81.625  1.00  0.00     0.164 A 
ATOM      6  H4  UNL     1       2.725   4.378  83.352  1.00  0.00     0.189 HD
HETATM    7  C4  UNL     1       3.882   3.490  80.391  1.00  0.00     0.095 A 
HETATM    8  N3  UNL     1       5.016   4.770  82.012  1.00  0.00    -0.173 N 
HETATM    9  C3  UNL     1       5.017   3.608  79.578  1.00  0.00     0.139 A 
HETATM   10  N11 UNL     1       2.749   2.764  79.943  1.00  0.00    -0.347 N 
HETATM   11  N2  UNL     1       6.071   4.282  80.003  1.00  0.00    -0.200 N 
HETATM   12  C2  UNL     1       6.113   4.874  81.205  1.00  0.00     0.679 A 
ATOM     13  H2  UNL     1       6.885   4.355  79.393  1.00  0.00     0.183 HD
HETATM   14  N1  UNL     1       7.177   5.510  81.536  1.00  0.00    -0.230 N 
HETATM   15  C1  UNL     1       8.318   5.615  80.680  1.00  0.00     0.165 C 
ATOM     16  H1  UNL     1       7.210   5.960  82.451  1.00  0.00     0.177 HD
HETATM   17  C14 UNL     1       1.668   2.619  80.663  1.00  0.00     0.201 A 
ATOM     18  H11 UNL     1       2.779   2.337  79.017  1.00  0.00     0.167 HD
ATOM     19  H3  UNL     1       5.029   5.214  82.930  1.00  0.00     0.186 HD
ENDBRANCH   2   3
ENDBRANCH   1   2
BRANCH   1  20
HETATM   20  N6  UNL     1       0.730   3.797  85.145  1.00  0.00    -0.123 NA
BRANCH  20  21
HETATM   21  N7  UNL     1      -0.300   3.091  85.736  1.00  0.00    -0.265 N 
HETATM   22  C8  UNL     1      -0.275   1.821  86.350  1.00  0.00     0.326 C 
HETATM   23  O1  UNL     1       0.724   1.079  86.473  1.00  0.00    -0.261 OA
ATOM     24  H7  UNL     1      -1.208   3.555  85.727  1.00  0.00     0.185 HD
BRANCH  22  25
HETATM   25  C9  UNL     1      -1.543   1.292  86.911  1.00  0.00     0.328 C 
HETATM   26  O2  UNL     1      -1.606   0.126  87.393  1.00  0.00    -0.261 OA
HETATM   27  N8  UNL     1      -2.697   2.096  86.907  1.00  0.00    -0.268 N 
ATOM     28  H8  UNL     1      -2.670   3.041  86.525  1.00  0.00     0.190 HD
BRANCH  27  29
HETATM   29  N9  UNL     1      -3.885   1.577  87.437  1.00  0.00    -0.342 N 
ATOM     30  H92 UNL     1      -3.994   0.567  87.535  1.00  0.00     0.176 HD
ATOM     31  H91 UNL     1      -4.624   2.222  87.716  1.00  0.00     0.176 HD
ENDBRANCH  27  29
ENDBRANCH  22  25
ENDBRANCH  20  21
ENDBRANCH   1  20
BRANCH   1  32
HETATM   32  C10 UNL     1      -1.051   4.604  83.804  1.00  0.00     0.239 C 
HETATM   33  O3  UNL     1      -1.898   3.816  83.332  1.00  0.00    -0.285 OA
BRANCH  32  34
HETATM   34  C11 UNL     1      -1.498   5.856  84.335  1.00  0.00     0.290 C 
HETATM   35  O4  UNL     1      -1.829   5.972  85.565  1.00  0.00    -0.264 OA
HETATM   36  N10 UNL     1      -1.610   7.051  83.556  1.00  0.00    -0.354 N 
HETATM   37  C12 UNL     1      -1.300   7.074  82.160  1.00  0.00     0.152 C 
HETATM   38  C13 UNL     1      -2.056   8.308  84.180  1.00  0.00     0.152 C 
ENDBRANCH  32  34
ENDBRANCH   1  32
TORSDOF 8
ENDMDL
MODEL 3
REMARK VINA RESULT: -7.770285482      2.840      7.204
REMARK  8 active torsions:
REMARK  status: ('A' for Active; 'I' for Inactive)
REMARK    1  A    between atoms: N5_14  and  C6_15 
REMARK    2  A    between atoms: C6_15  and  C7_16 
REMARK    3  A    between atoms: C7_16  and  N6_17 
REMARK    4  A    between atoms: C7_16  and  C10_29 
REMARK    5  A    between atoms: N6_17  and  N7_18 
REMARK       I    between atoms: N7_18  and  C8_20 
REMARK    6  A    between atoms: C8_20  and  C9_22 
REMARK       I    between atoms: C9_22  and  N8_24 
REMARK    7  A    between atoms: N8_24  and  N9_26 
REMARK    8  A    between atoms: C10_29  and  C11_31 
REMARK       I    between atoms: C11_31  and  N10_33 
ROOT
HETATM    1  C7  UNL     1       0.250   3.613  83.255  1.00  0.00     0.199 C 
ENDROOT
BRANCH   1   2
HETATM    2  C6  UNL     1       0.300   3.500  81.751  1.00  0.00     0.181 C 
BRANCH   2   3
HETATM    3  N5  UNL     1       1.638   3.663  81.224  1.00  0.00    -0.284 N 
HETATM    4  N4  UNL     1       2.596   4.269  82.045  1.00  0.00    -0.280 N 
HETATM    5  C5  UNL     1       3.928   4.413  81.586  1.00  0.00     0.164 A 
ATOM      6  H4  UNL     1       2.334   4.607  82.972  1.00  0.00     0.189 HD
HETATM    7  C4  UNL     1       4.186   3.930  80.324  1.00  0.00     0.095 A 
HETATM    8  N3  UNL     1       4.908   4.976  82.308  1.00  0.00    -0.173 N 
HETATM    9  C3  UNL     1       5.497   4.052  79.843  1.00  0.00     0.139 A 
HETATM   10  N11 UNL     1       3.181   3.324  79.527  1.00  0.00    -0.347 N 
HETATM   11  N2  UNL     1       6.429   4.614  80.593  1.00  0.00    -0.200 N 
HETATM   12  C2  UNL     1       6.180   5.085  81.822  1.00  0.00     0.679 A 
ATOM     13  H2  UNL     1       7.375   4.692  80.221  1.00  0.00     0.183 HD
HETATM   14  N1  UNL     1       7.144   5.618  82.479  1.00  0.00    -0.230 N 
HETATM   15  C1  UNL     1       8.472   5.730  81.958  1.00  0.00     0.165 C 
ATOM     16  H1  UNL     1       6.956   5.976  83.416  1.00  0.00     0.177 HD
HETATM   17  C14 UNL     1       1.947   3.181  79.929  1.00  0.00     0.201 A 
ATOM     18  H11 UNL     1       3.434   2.985  78.598  1.00  0.00     0.167 HD
ATOM     19  H3  UNL     1       4.699   5.330  83.241  1.00  0.00     0.186 HD
ENDBRANCH   2   3
ENDBRANCH   1   2
BRANCH   1  20
HETATM   20  N6  UNL     1       0.593   2.355  83.900  1.00  0.00    -0.123 NA
BRANCH  20  21
HETATM   21  N7  UNL     1      -0.100   2.196  85.084  1.00  0.00    -0.265 N 
HETATM   22  C8  UNL     1      -0.550   1.010  85.704  1.00  0.00     0.326 C 
HETATM   23  O1  UNL     1      -0.393  -0.154  85.273  1.00  0.00    -0.261 OA
ATOM     24  H7  UNL     1      -0.319   3.059  85.582  1.00  0.00     0.185 HD
BRANCH  22  25
HETATM   25  C9  UNL     1      -1.280   1.128  86.989  1.00  0.00     0.328 C 
HETATM   26  O2  UNL     1      -1.791   0.115  87.544  1.00  0.00    -0.261 OA
HETATM   27  N8  UNL     1      -1.413   2.386  87.605  1.00  0.00    -0.268 N 
ATOM     28  H8  UNL     1      -1.008   3.218  87.176  1.00  0.00     0.190 HD
BRANCH  27  29
HETATM   29  N9  UNL     1      -2.111   2.478  88.815  1.00  0.00    -0.342 N 
ATOM     30  H92 UNL     1      -2.843   1.799  89.027  1.00  0.00     0.176 HD
ATOM     31  H91 UNL     1      -1.872   3.225  89.467  1.00  0.00     0.176 HD
ENDBRANCH  27  29
ENDBRANCH  22  25
ENDBRANCH  20  21
ENDBRANCH   1  20
BRANCH   1  32
HETATM   32  C10 UNL     1      -1.150   3.939  83.625  1.00  0.00     0.239 C 
HETATM   33  O3  UNL     1      -2.073   3.219  83.187  1.00  0.00    -0.285 OA
BRANCH  32  34
HETATM   34  C11 UNL     1      -1.484   5.047  84.468  1.00  0.00     0.290 C 
HETATM   35  O4  UNL     1      -1.728   4.882  85.713  1.00  0.00    -0.264 OA
HETATM   36  N10 UNL     1      -1.572   6.397  84.003  1.00  0.00    -0.354 N 
HETATM   37  C12 UNL     1      -1.351   6.738  82.631  1.00  0.00     0.152 C 
HETATM   38  C13 UNL     1      -1.899   7.488  84.935  1.00  0.00     0.152 C 
ENDBRANCH  32  34
ENDBRANCH   1  32
TORSDOF 8
ENDMDL
MODEL 4
REMARK VINA RESULT: -7.535731115      2.049      6.623
REMARK  8 active torsions:
REMARK  status: ('A' for Active; 'I' for Inactive)
REMARK    1  A    between atoms: N5_14  and  C6_15 
REMARK    2  A    between atoms: C6_15  and  C7_16 
REMARK    3  A    between atoms: C7_16  and  N6_17 
REMARK    4  A    between atoms: C7_16  and  C10_29 
REMARK    5  A    between atoms: N6_17  and  N7_18 
REMARK       I    between atoms: N7_18  and  C8_20 
REMARK    6  A    between atoms: C8_20  and  C9_22 
REMARK       I    between atoms: C9_22  and  N8_24 
REMARK    7  A    between atoms: N8_24  and  N9_26 
REMARK    8  A    between atoms: C10_29  and  C11_31 
REMARK       I    between atoms: C11_31  and  N10_33 
ROOT
HETATM    1  C7  UNL     1       0.300   2.604  84.542  1.00  0.00     0.199 C 
ENDROOT
BRANCH   1   2
HETATM    2  C6  UNL     1       0.126   4.102  84.507  1.00  0.00     0.181 C 
BRANCH   2   3
HETATM    3  N5  UNL     1       1.249   4.779  83.893  1.00  0.00    -0.284 N 
HETATM    4  N4  UNL     1       2.061   4.043  83.022  1.00  0.00    -0.280 N 
HETATM    5  C5  UNL     1       3.146   4.675  82.367  1.00  0.00     0.164 A 
ATOM      6  H4  UNL     1       1.871   3.053  82.860  1.00  0.00     0.189 HD
HETATM    7  C4  UNL     1       3.326   6.009  82.649  1.00  0.00     0.095 A 
HETATM    8  N3  UNL     1       3.970   4.046  81.515  1.00  0.00    -0.173 N 
HETATM    9  C3  UNL     1       4.388   6.664  82.011  1.00  0.00     0.139 A 
HETATM   10  N11 UNL     1       2.477   6.714  83.540  1.00  0.00    -0.347 N 
HETATM   11  N2  UNL     1       5.172   6.003  81.179  1.00  0.00    -0.200 N 
HETATM   12  C2  UNL     1       5.000   4.702  80.903  1.00  0.00     0.679 A 
ATOM     13  H2  UNL     1       5.939   6.501  80.728  1.00  0.00     0.183 HD
HETATM   14  N1  UNL     1       5.810   4.139  80.084  1.00  0.00    -0.230 N 
HETATM   15  C1  UNL     1       6.888   4.835  79.453  1.00  0.00     0.165 C 
ATOM     16  H1  UNL     1       5.679   3.149  79.874  1.00  0.00     0.177 HD
HETATM   17  C14 UNL     1       1.470   6.153  84.155  1.00  0.00     0.201 A 
ATOM     18  H11 UNL     1       2.661   7.703  83.708  1.00  0.00     0.167 HD
ATOM     19  H3  UNL     1       3.823   3.056  81.319  1.00  0.00     0.186 HD
ENDBRANCH   2   3
ENDBRANCH   1   2
BRANCH   1  20
HETATM   20  N6  UNL     1      -0.709   1.927  83.743  1.00  0.00    -0.123 NA
BRANCH  20  21
HETATM   21  N7  UNL     1      -0.156   0.894  83.011  1.00  0.00    -0.265 N 
HETATM   22  C8  UNL     1       0.524   0.939  81.775  1.00  0.00     0.326 C 
HETATM   23  O1  UNL     1       0.756   1.964  81.096  1.00  0.00    -0.261 OA
ATOM     24  H7  UNL     1      -0.254  -0.034  83.422  1.00  0.00     0.185 HD
BRANCH  22  25
HETATM   25  C9  UNL     1       1.019  -0.337  81.205  1.00  0.00     0.328 C 
HETATM   26  O2  UNL     1       1.375  -0.416  79.995  1.00  0.00    -0.261 OA
HETATM   27  N8  UNL     1       1.095  -1.483  82.017  1.00  0.00    -0.268 N 
ATOM     28  H8  UNL     1       0.815  -1.443  82.997  1.00  0.00     0.190 HD
BRANCH  27  29
HETATM   29  N9  UNL     1       1.561  -2.680  81.458  1.00  0.00    -0.342 N 
ATOM     30  H92 UNL     1       1.116  -3.051  80.619  1.00  0.00     0.176 HD
ATOM     31  H91 UNL     1       2.342  -3.161  81.904  1.00  0.00     0.176 HD
ENDBRANCH  27  29
ENDBRANCH  22  25
ENDBRANCH  20  21
ENDBRANCH   1  20
BRANCH   1  32
HETATM   32  C10 UNL     1       0.118   2.173  85.951  1.00  0.00     0.239 C 
HETATM   33  O3  UNL     1       1.035   2.392  86.771  1.00  0.00    -0.285 OA
BRANCH  32  34
HETATM   34  C11 UNL     1      -1.071   1.518  86.407  1.00  0.00     0.290 C 
HETATM   35  O4  UNL     1      -1.150   0.242  86.446  1.00  0.00    -0.264 OA
HETATM   36  N10 UNL     1      -2.240   2.216  86.848  1.00  0.00    -0.354 N 
HETATM   37  C12 UNL     1      -2.314   3.645  86.840  1.00  0.00     0.152 C 
HETATM   38  C13 UNL     1      -3.416   1.472  87.326  1.00  0.00     0.152 C 
ENDBRANCH  32  34
ENDBRANCH   1  32
TORSDOF 8
ENDMDL
MODEL 5
REMARK VINA RESULT: -7.517300655      2.911      5.892
REMARK  8 active torsions:
REMARK  status: ('A' for Active; 'I' for Inactive)
REMARK    1  A    between atoms: N5_14  and  C6_15 
REMARK    2  A    between atoms: C6_15  and  C7_16 
REMARK    3  A    between atoms: C7_16  and  N6_17 
REMARK    4  A    between atoms: C7_16  and  C10_29 
REMARK    5  A    between atoms: N6_17  and  N7_18 
REMARK       I    between atoms: N7_18  and  C8_20 
REMARK    6  A    between atoms: C8_20  and  C9_22 
REMARK       I    between atoms: C9_22  and  N8_24 
REMARK    7  A    between atoms: N8_24  and  N9_26 
REMARK    8  A    between atoms: C10_29  and  C11_31 
REMARK       I    between atoms: C11_31  and  N10_33 
ROOT
HETATM    1  C7  UNL     1      -0.483   2.783  82.758  1.00  0.00     0.199 C 
ENDROOT
BRANCH   1   2
HETATM    2  C6  UNL     1       0.163   3.943  82.041  1.00  0.00     0.181 C 
BRANCH   2   3
HETATM    3  N5  UNL     1       0.266   5.124  82.872  1.00  0.00    -0.284 N 
HETATM    4  N4  UNL     1       1.493   5.797  82.904  1.00  0.00    -0.280 N 
HETATM    5  C5  UNL     1       1.627   6.980  83.671  1.00  0.00     0.164 A 
ATOM      6  H4  UNL     1       2.288   5.436  82.376  1.00  0.00     0.189 HD
HETATM    7  C4  UNL     1       0.503   7.389  84.350  1.00  0.00     0.095 A 
HETATM    8  N3  UNL     1       2.763   7.689  83.753  1.00  0.00    -0.173 N 
HETATM    9  C3  UNL     1       0.603   8.560  85.113  1.00  0.00     0.139 A 
HETATM   10  N11 UNL     1      -0.720   6.673  84.288  1.00  0.00    -0.347 N 
HETATM   11  N2  UNL     1       1.743   9.225  85.163  1.00  0.00    -0.200 N 
HETATM   12  C2  UNL     1       2.840   8.829  84.503  1.00  0.00     0.679 A 
ATOM     13  H2  UNL     1       1.791  10.074  85.726  1.00  0.00     0.183 HD
HETATM   14  N1  UNL     1       3.906   9.534  84.609  1.00  0.00    -0.230 N 
HETATM   15  C1  UNL     1       3.976  10.723  85.401  1.00  0.00     0.165 C 
ATOM     16  H1  UNL     1       4.741   9.232  84.106  1.00  0.00     0.177 HD
HETATM   17  C14 UNL     1      -0.868   5.580  83.588  1.00  0.00     0.201 A 
ATOM     18  H11 UNL     1      -1.519   7.027  84.815  1.00  0.00     0.167 HD
ATOM     19  H3  UNL     1       3.587   7.370  83.244  1.00  0.00     0.186 HD
ENDBRANCH   2   3
ENDBRANCH   1   2
BRANCH   1  20
HETATM   20  N6  UNL     1       0.395   2.219  83.771  1.00  0.00    -0.123 NA
BRANCH  20  21
HETATM   21  N7  UNL     1      -0.252   2.104  84.986  1.00  0.00    -0.265 N 
HETATM   22  C8  UNL     1      -0.575   0.942  85.719  1.00  0.00     0.326 C 
HETATM   23  O1  UNL     1      -0.323  -0.236  85.385  1.00  0.00    -0.261 OA
ATOM     24  H7  UNL     1      -0.537   2.985  85.414  1.00  0.00     0.185 HD
BRANCH  22  25
HETATM   25  C9  UNL     1      -1.283   1.109  87.012  1.00  0.00     0.328 C 
HETATM   26  O2  UNL     1      -1.779   0.116  87.616  1.00  0.00    -0.261 OA
HETATM   27  N8  UNL     1      -1.410   2.389  87.580  1.00  0.00    -0.268 N 
ATOM     28  H8  UNL     1      -1.017   3.205  87.112  1.00  0.00     0.190 HD
BRANCH  27  29
HETATM   29  N9  UNL     1      -2.086   2.525  88.799  1.00  0.00    -0.342 N 
ATOM     30  H92 UNL     1      -2.487   1.701  89.247  1.00  0.00     0.176 HD
ATOM     31  H91 UNL     1      -2.165   3.451  89.218  1.00  0.00     0.176 HD
ENDBRANCH  27  29
ENDBRANCH  22  25
ENDBRANCH  20  21
ENDBRANCH   1  20
BRANCH   1  32
HETATM   32  C10 UNL     1      -0.735   1.727  81.746  1.00  0.00     0.239 C 
HETATM   33  O3  UNL     1      -1.558   1.951  80.833  1.00  0.00    -0.285 OA
BRANCH  32  34
HETATM   34  C11 UNL     1      -0.071   0.459  81.775  1.00  0.00     0.290 C 
HETATM   35  O4  UNL     1      -0.587  -0.546  82.376  1.00  0.00    -0.264 OA
HETATM   36  N10 UNL     1       1.195   0.214  81.153  1.00  0.00    -0.354 N 
HETATM   37  C12 UNL     1       1.909   1.246  80.465  1.00  0.00     0.152 C 
HETATM   38  C13 UNL     1       1.805  -1.123  81.206  1.00  0.00     0.152 C 
ENDBRANCH  32  34
ENDBRANCH   1  32
TORSDOF 8
ENDMDL
