MODEL 1
REMARK VINA RESULT: -6.857500956      0.000      0.000
REMARK  10 active torsions:
REMARK  status: ('A' for Active; 'I' for Inactive)
REMARK    1  A    between atoms: N1_2  and  C2_4 
REMARK    2  A    between atoms: C3_7  and  N3_8 
REMARK    3  A    between atoms: C9_18  and  N6_19 
REMARK    4  A    between atoms: N6_19  and  C10_20 
REMARK    5  A    between atoms: C10_20  and  C11_21 
REMARK    6  A    between atoms: C11_21  and  N7_22 
REMARK    7  A    between atoms: N7_22  and  C12_24 
REMARK    8  A    between atoms: C15_31  and  C16_32 
REMARK    9  A    between atoms: C16_32  and  N10_33 
REMARK   10  A    between atoms: C16_32  and  N11_37 
ROOT
HETATM    1  N6  UNL     1       1.811   1.917  80.755  1.00  0.00    -0.413 NA
ENDROOT
BRANCH   1   2
HETATM    2  C9  UNL     1       1.015   1.235  81.318  1.00  0.00     0.282 A 
HETATM    3  N5  UNL     1       0.414   1.706  82.461  1.00  0.00    -0.148 N 
HETATM    4  C3  UNL     1      -0.482   1.038  83.165  1.00  0.00     0.698 A 
ATOM      5  H5  UNL     1       0.678   2.636  82.787  1.00  0.00     0.188 HD
HETATM    6  N2  UNL     1      -0.821  -0.185  82.727  1.00  0.00    -0.022 N 
HETATM    7  C2  UNL     1      -0.291  -0.736  81.620  1.00  0.00     0.695 A 
ATOM      8  H2  UNL     1      -1.511  -0.719  83.255  1.00  0.00     0.203 HD
HETATM    9  N12 UNL     1       0.605  -0.020  80.951  1.00  0.00    -0.148 N 
ATOM     10  H12 UNL     1       1.013  -0.430  80.111  1.00  0.00     0.188 HD
BRANCH   4  11
HETATM   11  N3  UNL     1      -1.049   1.606  84.339  1.00  0.00    -0.207 N 
HETATM   12  C4  UNL     1      -1.457   0.698  85.420  1.00  0.00     0.161 C 
HETATM   13  C5  UNL     1      -1.674   1.440  86.700  1.00  0.00     0.145 C 
HETATM   14  N4  UNL     1      -2.757   2.397  86.433  1.00  0.00    -0.354 N 
HETATM   15  C6  UNL     1      -3.932   2.516  87.237  1.00  0.00     0.152 C 
HETATM   16  C7  UNL     1      -2.550   3.217  85.289  1.00  0.00     0.237 C 
HETATM   17  O1  UNL     1      -3.402   4.066  84.927  1.00  0.00    -0.272 OA
HETATM   18  C8  UNL     1      -1.255   3.003  84.548  1.00  0.00     0.244 C 
ENDBRANCH   4  11
BRANCH   7  19
HETATM   19  N1  UNL     1      -0.675  -1.914  81.274  1.00  0.00    -0.230 N 
HETATM   20  C1  UNL     1       0.250  -3.022  81.343  1.00  0.00     0.165 C 
ATOM     21  H1  UNL     1      -1.630  -2.065  80.950  1.00  0.00     0.177 HD
ENDBRANCH   7  19
ENDBRANCH   1   2
BRANCH   1  22
HETATM   22  C10 UNL     1       2.701   2.681  80.125  1.00  0.00     0.241 C 
BRANCH  22  23
HETATM   23  C11 UNL     1       2.158   4.071  79.766  1.00  0.00     0.154 C 
BRANCH  23  24
HETATM   24  N7  UNL     1       1.909   4.790  80.998  1.00  0.00    -0.373 N 
ATOM     25  H7  UNL     1       2.695   4.969  81.624  1.00  0.00     0.161 HD
BRANCH  24  26
HETATM   26  C12 UNL     1       0.743   5.215  81.342  1.00  0.00     0.113 A 
HETATM   27  N8  UNL     1      -0.326   5.167  80.510  1.00  0.00    -0.338 N 
HETATM   28  C13 UNL     1      -1.510   5.633  80.949  1.00  0.00     0.181 A 
ATOM     29  H8  UNL     1      -0.236   4.784  79.569  1.00  0.00     0.168 HD
HETATM   30  N9  UNL     1      -1.664   6.143  82.186  1.00  0.00    -0.361 N 
HETATM   31  C14 UNL     1      -0.611   6.195  83.021  1.00  0.00     0.103 A 
ATOM     32  H9  UNL     1      -2.575   6.489  82.488  1.00  0.00     0.166 HD
HETATM   33  C15 UNL     1       0.624   5.731  82.619  1.00  0.00     0.058 A 
BRANCH  33  34
HETATM   34  C16 UNL     1       1.788   5.789  83.540  1.00  0.00     0.416 C 
BRANCH  34  35
HETATM   35  N10 UNL     1       1.878   4.509  84.208  1.00  0.00    -0.046 N 
ATOM     36 3H10 UNL     1       1.711   4.571  85.212  1.00  0.00     0.277 HD
ATOM     37 2H10 UNL     1       1.101   3.887  83.983  1.00  0.00     0.277 HD
ATOM     38 1H10 UNL     1       2.787   4.108  83.981  1.00  0.00     0.277 HD
ENDBRANCH  34  35
BRANCH  34  39
HETATM   39  N11 UNL     1       1.594   6.885  84.480  1.00  0.00    -0.046 N 
ATOM     40 3H11 UNL     1       1.118   7.681  84.056  1.00  0.00     0.277 HD
ATOM     41 2H11 UNL     1       0.898   6.667  85.193  1.00  0.00     0.277 HD
ATOM     42 1H11 UNL     1       2.496   7.141  84.882  1.00  0.00     0.277 HD
ENDBRANCH  34  39
ENDBRANCH  33  34
ENDBRANCH  24  26
ENDBRANCH  23  24
ENDBRANCH  22  23
ENDBRANCH   1  22
TORSDOF 10
ENDMDL
MODEL 2
REMARK VINA RESULT: -6.837879695      0.807      2.034
REMARK  10 active torsions:
REMARK  status: ('A' for Active; 'I' for Inactive)
REMARK    1  A    between atoms: N1_2  and  C2_4 
REMARK    2  A    between atoms: C3_7  and  N3_8 
REMARK    3  A    between atoms: C9_18  and  N6_19 
REMARK    4  A    between atoms: N6_19  and  C10_20 
REMARK    5  A    between atoms: C10_20  and  C11_21 
REMARK    6  A    between atoms: C11_21  and  N7_22 
REMARK    7  A    between atoms: N7_22  and  C12_24 
REMARK    8  A    between atoms: C15_31  and  C16_32 
REMARK    9  A    between atoms: C16_32  and  N10_33 
REMARK   10  A    between atoms: C16_32  and  N11_37 
ROOT
HETATM    1  N6  UNL     1       1.790   1.958  80.813  1.00  0.00    -0.413 NA
ENDROOT
BRANCH   1   2
HETATM    2  C9  UNL     1       1.003   1.251  81.357  1.00  0.00     0.282 A 
HETATM    3  N5  UNL     1       0.415   1.674  82.525  1.00  0.00    -0.148 N 
HETATM    4  C3  UNL     1      -0.471   0.975  83.213  1.00  0.00     0.698 A 
ATOM      5  H5  UNL     1       0.681   2.590  82.887  1.00  0.00     0.188 HD
HETATM    6  N2  UNL     1      -0.814  -0.230  82.728  1.00  0.00    -0.022 N 
HETATM    7  C2  UNL     1      -0.296  -0.733  81.594  1.00  0.00     0.695 A 
ATOM      8  H2  UNL     1      -1.497  -0.786  83.242  1.00  0.00     0.203 HD
HETATM    9  N12 UNL     1       0.590   0.012  80.943  1.00  0.00    -0.148 N 
ATOM     10  H12 UNL     1       0.988  -0.362  80.082  1.00  0.00     0.188 HD
BRANCH   4  11
HETATM   11  N3  UNL     1      -1.026   1.494  84.415  1.00  0.00    -0.207 N 
HETATM   12  C4  UNL     1      -1.475   0.538  85.438  1.00  0.00     0.161 C 
HETATM   13  C5  UNL     1      -1.673   1.210  86.759  1.00  0.00     0.145 C 
HETATM   14  N4  UNL     1      -2.718   2.221  86.544  1.00  0.00    -0.354 N 
HETATM   15  C6  UNL     1      -3.893   2.337  87.348  1.00  0.00     0.152 C 
HETATM   16  C7  UNL     1      -2.472   3.101  85.453  1.00  0.00     0.237 C 
HETATM   17  O1  UNL     1      -3.289   4.001  85.138  1.00  0.00    -0.272 OA
HETATM   18  C8  UNL     1      -1.181   2.882  84.706  1.00  0.00     0.244 C 
ENDBRANCH   4  11
BRANCH   7  19
HETATM   19  N1  UNL     1      -0.682  -1.896  81.203  1.00  0.00    -0.230 N 
HETATM   20  C1  UNL     1       0.208  -3.029  81.324  1.00  0.00     0.165 C 
ATOM     21  H1  UNL     1      -1.615  -2.020  80.809  1.00  0.00     0.177 HD
ENDBRANCH   7  19
ENDBRANCH   1   2
BRANCH   1  22
HETATM   22  C10 UNL     1       2.671   2.749  80.203  1.00  0.00     0.241 C 
BRANCH  22  23
HETATM   23  C11 UNL     1       3.227   3.851  81.115  1.00  0.00     0.154 C 
BRANCH  23  24
HETATM   24  N7  UNL     1       2.340   4.993  81.035  1.00  0.00    -0.373 N 
ATOM     25  H7  UNL     1       2.298   5.514  80.159  1.00  0.00     0.161 HD
BRANCH  24  26
HETATM   26  C12 UNL     1       1.602   5.382  82.016  1.00  0.00     0.113 A 
HETATM   27  N8  UNL     1       2.098   5.607  83.258  1.00  0.00    -0.338 N 
HETATM   28  C13 UNL     1       1.256   6.012  84.227  1.00  0.00     0.181 A 
ATOM     29  H8  UNL     1       3.090   5.472  83.454  1.00  0.00     0.168 HD
HETATM   30  N9  UNL     1      -0.058   6.201  84.001  1.00  0.00    -0.361 N 
HETATM   31  C14 UNL     1      -0.561   5.982  82.773  1.00  0.00     0.103 A 
ATOM     32  H9  UNL     1      -0.669   6.508  84.758  1.00  0.00     0.166 HD
HETATM   33  C15 UNL     1       0.259   5.566  81.746  1.00  0.00     0.058 A 
BRANCH  33  34
HETATM   34  C16 UNL     1      -0.296   5.323  80.389  1.00  0.00     0.416 C 
BRANCH  34  35
HETATM   35  N10 UNL     1      -1.237   6.385  80.107  1.00  0.00    -0.046 N 
ATOM     36 3H10 UNL     1      -2.136   6.041  79.773  1.00  0.00     0.277 HD
ATOM     37 2H10 UNL     1      -1.576   6.849  80.950  1.00  0.00     0.277 HD
ATOM     38 1H10 UNL     1      -0.788   7.026  79.453  1.00  0.00     0.277 HD
ENDBRANCH  34  35
BRANCH  34  39
HETATM   39  N11 UNL     1      -0.928   4.010  80.364  1.00  0.00    -0.046 N 
ATOM     40 3H11 UNL     1      -1.348   3.798  79.460  1.00  0.00     0.277 HD
ATOM     41 2H11 UNL     1      -0.248   3.251  80.386  1.00  0.00     0.277 HD
ATOM     42 1H11 UNL     1      -1.600   3.952  81.129  1.00  0.00     0.277 HD
ENDBRANCH  34  39
ENDBRANCH  33  34
ENDBRANCH  24  26
ENDBRANCH  23  24
ENDBRANCH  22  23
ENDBRANCH   1  22
TORSDOF 10
ENDMDL
MODEL 3
REMARK VINA RESULT: -6.769471453      2.872      6.941
REMARK  10 active torsions:
REMARK  status: ('A' for Active; 'I' for Inactive)
REMARK    1  A    between atoms: N1_2  and  C2_4 
REMARK    2  A    between atoms: C3_7  and  N3_8 
REMARK    3  A    between atoms: C9_18  and  N6_19 
REMARK    4  A    between atoms: N6_19  and  C10_20 
REMARK    5  A    between atoms: C10_20  and  C11_21 
REMARK    6  A    between atoms: C11_21  and  N7_22 
REMARK    7  A    between atoms: N7_22  and  C12_24 
REMARK    8  A    between atoms: C15_31  and  C16_32 
REMARK    9  A    between atoms: C16_32  and  N10_33 
REMARK   10  A    between atoms: C16_32  and  N11_37 
ROOT
HETATM    1  N6  UNL     1      -0.087   4.141  83.599  1.00  0.00    -0.413 NA
ENDROOT
BRANCH   1   2
HETATM    2  C9  UNL     1       0.528   3.473  82.830  1.00  0.00     0.282 A 
HETATM    3  N5  UNL     1       1.650   3.995  82.234  1.00  0.00    -0.148 N 
HETATM    4  C3  UNL     1       2.408   3.346  81.367  1.00  0.00     0.698 A 
ATOM      5  H5  UNL     1       1.917   4.949  82.476  1.00  0.00     0.188 HD
HETATM    6  N2  UNL     1       2.049   2.090  81.055  1.00  0.00    -0.022 N 
HETATM    7  C2  UNL     1       0.968   1.489  81.584  1.00  0.00     0.695 A 
ATOM      8  H2  UNL     1       2.619   1.570  80.389  1.00  0.00     0.203 HD
HETATM    9  N12 UNL     1       0.242   2.188  82.449  1.00  0.00    -0.148 N 
ATOM     10  H12 UNL     1      -0.580   1.741  82.854  1.00  0.00     0.188 HD
BRANCH   4  11
HETATM   11  N3  UNL     1       3.553   3.970  80.798  1.00  0.00    -0.207 N 
HETATM   12  C4  UNL     1       3.950   3.578  79.439  1.00  0.00     0.161 C 
HETATM   13  C5  UNL     1       4.909   4.561  78.847  1.00  0.00     0.145 C 
HETATM   14  N4  UNL     1       6.089   4.549  79.723  1.00  0.00    -0.354 N 
HETATM   15  C6  UNL     1       7.426   4.361  79.256  1.00  0.00     0.152 C 
HETATM   16  C7  UNL     1       5.802   4.743  81.103  1.00  0.00     0.237 C 
HETATM   17  O1  UNL     1       6.711   4.735  81.970  1.00  0.00    -0.272 OA
HETATM   18  C8  UNL     1       4.351   4.955  81.452  1.00  0.00     0.244 C 
ENDBRANCH   4  11
BRANCH   7  19
HETATM   19  N1  UNL     1       0.698   0.283  81.227  1.00  0.00    -0.230 N 
HETATM   20  C1  UNL     1      -0.527  -0.342  81.672  1.00  0.00     0.165 C 
ATOM     21  H1  UNL     1       1.347  -0.231  80.632  1.00  0.00     0.177 HD
ENDBRANCH   7  19
ENDBRANCH   1   2
BRANCH   1  22
HETATM   22  C10 UNL     1      -0.774   4.888  84.461  1.00  0.00     0.241 C 
BRANCH  22  23
HETATM   23  C11 UNL     1      -2.286   4.633  84.409  1.00  0.00     0.154 C 
BRANCH  23  24
HETATM   24  N7  UNL     1      -2.517   3.229  84.679  1.00  0.00    -0.373 N 
ATOM     25  H7  UNL     1      -2.436   2.566  83.907  1.00  0.00     0.161 HD
BRANCH  24  26
HETATM   26  C12 UNL     1      -2.819   2.777  85.846  1.00  0.00     0.113 A 
HETATM   27  N8  UNL     1      -3.836   3.287  86.586  1.00  0.00    -0.338 N 
HETATM   28  C13 UNL     1      -4.084   2.756  87.797  1.00  0.00     0.181 A 
ATOM     29  H8  UNL     1      -4.400   4.059  86.231  1.00  0.00     0.168 HD
HETATM   30  N9  UNL     1      -3.359   1.736  88.294  1.00  0.00    -0.361 N 
HETATM   31  C14 UNL     1      -2.350   1.221  87.569  1.00  0.00     0.103 A 
ATOM     32  H9  UNL     1      -3.573   1.356  89.216  1.00  0.00     0.166 HD
HETATM   33  C15 UNL     1      -2.053   1.730  86.323  1.00  0.00     0.058 A 
BRANCH  33  34
HETATM   34  C16 UNL     1      -0.939   1.162  85.521  1.00  0.00     0.416 C 
BRANCH  34  35
HETATM   35  N10 UNL     1      -0.949  -0.271  85.716  1.00  0.00    -0.046 N 
ATOM     36 3H10 UNL     1      -0.541  -0.555  86.607  1.00  0.00     0.277 HD
ATOM     37 2H10 UNL     1      -1.885  -0.644  85.874  1.00  0.00     0.277 HD
ATOM     38 1H10 UNL     1      -0.482  -0.693  84.914  1.00  0.00     0.277 HD
ENDBRANCH  34  35
BRANCH  34  39
HETATM   39  N11 UNL     1       0.313   1.766  85.958  1.00  0.00    -0.046 N 
ATOM     40 3H11 UNL     1       0.166   2.616  86.503  1.00  0.00     0.277 HD
ATOM     41 2H11 UNL     1       0.780   1.215  86.678  1.00  0.00     0.277 HD
ATOM     42 1H11 UNL     1       0.907   1.924  85.144  1.00  0.00     0.277 HD
ENDBRANCH  34  39
ENDBRANCH  33  34
ENDBRANCH  24  26
ENDBRANCH  23  24
ENDBRANCH  22  23
ENDBRANCH   1  22
TORSDOF 10
ENDMDL
MODEL 4
REMARK VINA RESULT: -6.754004381      2.551      7.342
REMARK  10 active torsions:
REMARK  status: ('A' for Active; 'I' for Inactive)
REMARK    1  A    between atoms: N1_2  and  C2_4 
REMARK    2  A    between atoms: C3_7  and  N3_8 
REMARK    3  A    between atoms: C9_18  and  N6_19 
REMARK    4  A    between atoms: N6_19  and  C10_20 
REMARK    5  A    between atoms: C10_20  and  C11_21 
REMARK    6  A    between atoms: C11_21  and  N7_22 
REMARK    7  A    between atoms: N7_22  and  C12_24 
REMARK    8  A    between atoms: C15_31  and  C16_32 
REMARK    9  A    between atoms: C16_32  and  N10_33 
REMARK   10  A    between atoms: C16_32  and  N11_37 
ROOT
HETATM    1  N6  UNL     1      -1.784   4.396  84.283  1.00  0.00    -0.413 NA
ENDROOT
BRANCH   1   2
HETATM    2  C9  UNL     1      -1.336   5.343  83.718  1.00  0.00     0.282 A 
HETATM    3  N5  UNL     1      -1.964   5.812  82.589  1.00  0.00    -0.148 N 
HETATM    4  C3  UNL     1      -1.557   6.853  81.884  1.00  0.00     0.698 A 
ATOM      5  H5  UNL     1      -2.802   5.324  82.274  1.00  0.00     0.188 HD
HETATM    6  N2  UNL     1      -0.453   7.489  82.307  1.00  0.00    -0.022 N 
HETATM    7  C2  UNL     1       0.234   7.108  83.399  1.00  0.00     0.695 A 
ATOM      8  H2  UNL     1      -0.121   8.295  81.779  1.00  0.00     0.203 HD
HETATM    9  N12 UNL     1      -0.220   6.056  84.070  1.00  0.00    -0.148 N 
ATOM     10  H12 UNL     1       0.295   5.760  84.899  1.00  0.00     0.188 HD
BRANCH   4  11
HETATM   11  N3  UNL     1      -2.272   7.265  80.725  1.00  0.00    -0.207 N 
HETATM   12  C4  UNL     1      -2.951   8.568  80.759  1.00  0.00     0.161 C 
HETATM   13  C5  UNL     1      -3.326   9.022  79.384  1.00  0.00     0.145 C 
HETATM   14  N4  UNL     1      -4.249   8.004  78.862  1.00  0.00    -0.354 N 
HETATM   15  C6  UNL     1      -5.533   8.300  78.311  1.00  0.00     0.152 C 
HETATM   16  C7  UNL     1      -3.763   6.669  78.945  1.00  0.00     0.237 C 
HETATM   17  O1  UNL     1      -4.453   5.694  78.556  1.00  0.00    -0.272 OA
HETATM   18  C8  UNL     1      -2.381   6.503  79.524  1.00  0.00     0.244 C 
ENDBRANCH   4  11
BRANCH   7  19
HETATM   19  N1  UNL     1       1.282   7.776  83.732  1.00  0.00    -0.230 N 
HETATM   20  C1  UNL     1       1.435   8.247  85.089  1.00  0.00     0.165 C 
ATOM     21  H1  UNL     1       2.004   7.973  83.038  1.00  0.00     0.177 HD
ENDBRANCH   7  19
ENDBRANCH   1   2
BRANCH   1  22
HETATM   22  C10 UNL     1      -2.285   3.338  84.915  1.00  0.00     0.241 C 
BRANCH  22  23
HETATM   23  C11 UNL     1      -1.467   2.058  84.694  1.00  0.00     0.154 C 
BRANCH  23  24
HETATM   24  N7  UNL     1      -1.383   1.817  83.269  1.00  0.00    -0.373 N 
ATOM     25  H7  UNL     1      -2.248   1.658  82.751  1.00  0.00     0.161 HD
BRANCH  24  26
HETATM   26  C12 UNL     1      -0.269   1.794  82.623  1.00  0.00     0.113 A 
HETATM   27  N8  UNL     1       0.661   2.775  82.737  1.00  0.00    -0.338 N 
HETATM   28  C13 UNL     1       1.799   2.673  82.026  1.00  0.00     0.181 A 
ATOM     29  H8  UNL     1       0.501   3.574  83.350  1.00  0.00     0.168 HD
HETATM   30  N9  UNL     1       2.042   1.630  81.209  1.00  0.00    -0.361 N 
HETATM   31  C14 UNL     1       1.128   0.651  81.089  1.00  0.00     0.103 A 
ATOM     32  H9  UNL     1       2.915   1.583  80.683  1.00  0.00     0.166 HD
HETATM   33  C15 UNL     1      -0.055   0.708  81.795  1.00  0.00     0.058 A 
BRANCH  33  34
HETATM   34  C16 UNL     1      -1.066  -0.372  81.662  1.00  0.00     0.416 C 
BRANCH  34  35
HETATM   35  N10 UNL     1      -0.358  -1.634  81.676  1.00  0.00    -0.046 N 
ATOM     36 3H10 UNL     1       0.533  -1.596  81.183  1.00  0.00     0.277 HD
ATOM     37 2H10 UNL     1       0.010  -1.873  82.597  1.00  0.00     0.277 HD
ATOM     38 1H10 UNL     1      -0.989  -2.343  81.303  1.00  0.00     0.277 HD
ENDBRANCH  34  35
BRANCH  34  39
HETATM   39  N11 UNL     1      -1.810  -0.175  80.425  1.00  0.00    -0.046 N 
ATOM     40 3H11 UNL     1      -2.753  -0.562  80.473  1.00  0.00     0.277 HD
ATOM     41 2H11 UNL     1      -2.064   0.801  80.276  1.00  0.00     0.277 HD
ATOM     42 1H11 UNL     1      -1.271  -0.559  79.650  1.00  0.00     0.277 HD
ENDBRANCH  34  39
ENDBRANCH  33  34
ENDBRANCH  24  26
ENDBRANCH  23  24
ENDBRANCH  22  23
ENDBRANCH   1  22
TORSDOF 10
ENDMDL
MODEL 5
REMARK VINA RESULT: -6.633860194      2.255      6.238
REMARK  10 active torsions:
REMARK  status: ('A' for Active; 'I' for Inactive)
REMARK    1  A    between atoms: N1_2  and  C2_4 
REMARK    2  A    between atoms: C3_7  and  N3_8 
REMARK    3  A    between atoms: C9_18  and  N6_19 
REMARK    4  A    between atoms: N6_19  and  C10_20 
REMARK    5  A    between atoms: C10_20  and  C11_21 
REMARK    6  A    between atoms: C11_21  and  N7_22 
REMARK    7  A    between atoms: N7_22  and  C12_24 
REMARK    8  A    between atoms: C15_31  and  C16_32 
REMARK    9  A    between atoms: C16_32  and  N10_33 
REMARK   10  A    between atoms: C16_32  and  N11_37 
ROOT
HETATM    1  N6  UNL     1      -0.242   1.385  82.093  1.00  0.00    -0.413 NA
ENDROOT
BRANCH   1   2
HETATM    2  C9  UNL     1       0.242   2.465  81.968  1.00  0.00     0.282 A 
HETATM    3  N5  UNL     1      -0.533   3.501  81.504  1.00  0.00    -0.148 N 
HETATM    4  C3  UNL     1      -0.102   4.737  81.328  1.00  0.00     0.698 A 
ATOM      5  H5  UNL     1      -1.508   3.301  81.280  1.00  0.00     0.188 HD
HETATM    6  N2  UNL     1       1.183   4.990  81.626  1.00  0.00    -0.022 N 
HETATM    7  C2  UNL     1       2.023   4.046  82.086  1.00  0.00     0.695 A 
ATOM      8  H2  UNL     1       1.536   5.937  81.499  1.00  0.00     0.203 HD
HETATM    9  N12 UNL     1       1.537   2.820  82.244  1.00  0.00    -0.148 N 
ATOM     10  H12 UNL     1       2.167   2.097  82.592  1.00  0.00     0.188 HD
BRANCH   4  11
HETATM   11  N3  UNL     1      -0.979   5.746  80.840  1.00  0.00    -0.207 N 
HETATM   12  C4  UNL     1      -1.934   6.347  81.781  1.00  0.00     0.161 C 
HETATM   13  C5  UNL     1      -2.506   7.617  81.238  1.00  0.00     0.145 C 
HETATM   14  N4  UNL     1      -3.209   7.245  80.001  1.00  0.00    -0.354 N 
HETATM   15  C6  UNL     1      -4.565   7.595  79.719  1.00  0.00     0.152 C 
HETATM   16  C7  UNL     1      -2.425   6.495  79.080  1.00  0.00     0.237 C 
HETATM   17  O1  UNL     1      -2.901   6.090  77.990  1.00  0.00    -0.272 OA
HETATM   18  C8  UNL     1      -1.002   6.220  79.494  1.00  0.00     0.244 C 
ENDBRANCH   4  11
BRANCH   7  19
HETATM   19  N1  UNL     1       3.238   4.377  82.346  1.00  0.00    -0.230 N 
HETATM   20  C1  UNL     1       3.714   5.698  82.004  1.00  0.00     0.165 C 
ATOM     21  H1  UNL     1       3.866   3.707  82.793  1.00  0.00     0.177 HD
ENDBRANCH   7  19
ENDBRANCH   1   2
BRANCH   1  22
HETATM   22  C10 UNL     1      -0.784   0.177  82.233  1.00  0.00     0.241 C 
BRANCH  22  23
HETATM   23  C11 UNL     1      -0.990  -0.227  83.699  1.00  0.00     0.154 C 
BRANCH  23  24
HETATM   24  N7  UNL     1      -0.956   0.974  84.507  1.00  0.00    -0.373 N 
ATOM     25  H7  UNL     1      -0.296   1.711  84.256  1.00  0.00     0.161 HD
BRANCH  24  26
HETATM   26  C12 UNL     1      -1.719   1.157  85.528  1.00  0.00     0.113 A 
HETATM   27  N8  UNL     1      -1.905   0.209  86.480  1.00  0.00    -0.338 N 
HETATM   28  C13 UNL     1      -2.720   0.482  87.515  1.00  0.00     0.181 A 
ATOM     29  H8  UNL     1      -1.436  -0.694  86.413  1.00  0.00     0.168 HD
HETATM   30  N9  UNL     1      -3.354   1.665  87.635  1.00  0.00    -0.361 N 
HETATM   31  C14 UNL     1      -3.176   2.613  86.698  1.00  0.00     0.103 A 
ATOM     32  H9  UNL     1      -3.966   1.841  88.432  1.00  0.00     0.166 HD
HETATM   33  C15 UNL     1      -2.351   2.383  85.617  1.00  0.00     0.058 A 
BRANCH  33  34
HETATM   34  C16 UNL     1      -2.155   3.430  84.582  1.00  0.00     0.416 C 
BRANCH  34  35
HETATM   35  N10 UNL     1      -1.008   4.220  84.974  1.00  0.00    -0.046 N 
ATOM     36 3H10 UNL     1      -1.107   5.208  84.741  1.00  0.00     0.277 HD
ATOM     37 2H10 UNL     1      -0.928   4.329  85.985  1.00  0.00     0.277 HD
ATOM     38 1H10 UNL     1      -0.184   3.794  84.553  1.00  0.00     0.277 HD
ENDBRANCH  34  35
BRANCH  34  39
HETATM   39  N11 UNL     1      -3.367   4.233  84.484  1.00  0.00    -0.046 N 
ATOM     40 3H11 UNL     1      -4.001   3.894  83.762  1.00  0.00     0.277 HD
ATOM     41 2H11 UNL     1      -3.983   4.105  85.286  1.00  0.00     0.277 HD
ATOM     42 1H11 UNL     1      -3.107   5.209  84.346  1.00  0.00     0.277 HD
ENDBRANCH  34  39
ENDBRANCH  33  34
ENDBRANCH  24  26
ENDBRANCH  23  24
ENDBRANCH  22  23
ENDBRANCH   1  22
TORSDOF 10
ENDMDL
