MODEL 1
REMARK VINA RESULT: -7.172719066      0.000      0.000
REMARK  10 active torsions:
REMARK  status: ('A' for Active; 'I' for Inactive)
REMARK    1  A    between atoms: N1_1  and  C1_4 
REMARK    2  A    between atoms: C2_7  and  S1_8 
REMARK    3  A    between atoms: S1_8  and  C3_9 
REMARK    4  A    between atoms: C4_13  and  N4_14 
REMARK    5  A    between atoms: N4_14  and  C5_16 
REMARK    6  A    between atoms: C5_16  and  N5_17 
REMARK    7  A    between atoms: C5_16  and  C6_21 
REMARK    8  A    between atoms: N5_17  and  O2_19 
REMARK    9  A    between atoms: C6_21  and  N6_22 
REMARK   10  A    between atoms: C6_21  and  N7_26 
ROOT
HETATM    1  N4  UNL     1      -9.345  22.854 -10.964  1.00  0.00    -0.199 N 
ATOM      2  H4  UNL     1      -9.488  23.623 -11.617  1.00  0.00     0.180 HD
ENDROOT
BRANCH   1   3
HETATM    3  C4  UNL     1      -8.972  21.708 -11.441  1.00  0.00     0.696 A 
HETATM    4  N3  UNL     1      -7.753  21.194 -11.166  1.00  0.00    -0.169 N 
HETATM    5  C2  UNL     1      -7.389  20.006 -11.671  1.00  0.00     0.181 A 
ATOM      6  H3  UNL     1      -7.106  21.713 -10.572  1.00  0.00     0.186 HD
HETATM    7  N2  UNL     1      -8.220  19.302 -12.456  1.00  0.00    -0.169 N 
HETATM    8  C1  UNL     1      -9.447  19.790 -12.748  1.00  0.00     0.692 A 
ATOM      9  H2  UNL     1      -7.925  18.401 -12.832  1.00  0.00     0.186 HD
HETATM   10  N8  UNL     1      -9.798  20.992 -12.229  1.00  0.00    -0.022 N 
ATOM     11  H8  UNL     1     -10.721  21.369 -12.443  1.00  0.00     0.203 HD
BRANCH   5  12
HETATM   12  S1  UNL     1      -5.761  19.366 -11.279  1.00  0.00    -0.024 SA
BRANCH  12  13
HETATM   13  C3  UNL     1      -5.010  20.260  -9.950  1.00  0.00     0.312 C 
HETATM   14  O1  UNL     1      -5.009  19.777  -8.836  1.00  0.00    -0.295 OA
ENDBRANCH  12  13
ENDBRANCH   5  12
BRANCH   8  15
HETATM   15  N1  UNL     1     -10.271  19.140 -13.500  1.00  0.00    -0.234 N 
ATOM     16  H12 UNL     1     -10.482  18.161 -13.306  1.00  0.00     0.174 HD
ATOM     17  H11 UNL     1     -10.728  19.582 -14.298  1.00  0.00     0.174 HD
ENDBRANCH   8  15
ENDBRANCH   1   3
BRANCH   1  18
HETATM   18  C5  UNL     1      -9.567  23.100  -9.576  1.00  0.00     0.278 C 
BRANCH  18  19
HETATM   19  N5  UNL     1     -10.943  23.167  -9.233  1.00  0.00    -0.277 N 
ATOM     20  H5  UNL     1     -11.565  22.364  -9.331  1.00  0.00     0.190 HD
BRANCH  19  21
HETATM   21  O2  UNL     1     -11.372  24.331  -8.779  1.00  0.00    -0.292 OA
ATOM     22  H2  UNL     1     -12.314  24.439  -8.735  1.00  0.00     0.244 HD
ENDBRANCH  19  21
ENDBRANCH  18  19
BRANCH  18  23
HETATM   23  C6  UNL     1      -8.766  24.308  -9.165  1.00  0.00     0.421 C 
BRANCH  23  24
HETATM   24  N6  UNL     1      -8.302  24.154  -7.798  1.00  0.00    -0.047 N 
ATOM     25  H63 UNL     1      -7.852  23.251  -7.647  1.00  0.00     0.276 HD
ATOM     26  H62 UNL     1      -7.504  24.755  -7.595  1.00  0.00     0.276 HD
ATOM     27  H61 UNL     1      -9.074  24.309  -7.149  1.00  0.00     0.276 HD
ENDBRANCH  23  24
BRANCH  23  28
HETATM   28  N7  UNL     1      -7.607  24.522  -9.993  1.00  0.00    -0.047 N 
ATOM     29  H73 UNL     1      -6.956  23.740  -9.917  1.00  0.00     0.276 HD
ATOM     30  H72 UNL     1      -7.845  24.444 -10.982  1.00  0.00     0.276 HD
ATOM     31  H71 UNL     1      -7.138  25.407  -9.799  1.00  0.00     0.276 HD
ENDBRANCH  23  28
ENDBRANCH  18  23
ENDBRANCH   1  18
TORSDOF 10
ENDMDL
MODEL 2
REMARK VINA RESULT: -7.168615498      1.048      1.268
REMARK  10 active torsions:
REMARK  status: ('A' for Active; 'I' for Inactive)
REMARK    1  A    between atoms: N1_1  and  C1_4 
REMARK    2  A    between atoms: C2_7  and  S1_8 
REMARK    3  A    between atoms: S1_8  and  C3_9 
REMARK    4  A    between atoms: C4_13  and  N4_14 
REMARK    5  A    between atoms: N4_14  and  C5_16 
REMARK    6  A    between atoms: C5_16  and  N5_17 
REMARK    7  A    between atoms: C5_16  and  C6_21 
REMARK    8  A    between atoms: N5_17  and  O2_19 
REMARK    9  A    between atoms: C6_21  and  N6_22 
REMARK   10  A    between atoms: C6_21  and  N7_26 
ROOT
HETATM    1  N4  UNL     1      -9.510  21.851  -8.765  1.00  0.00    -0.199 N 
ATOM      2  H4  UNL     1      -9.582  21.281  -7.922  1.00  0.00     0.180 HD
ENDROOT
BRANCH   1   3
HETATM    3  C4  UNL     1      -9.136  21.274  -9.863  1.00  0.00     0.696 A 
HETATM    4  N3  UNL     1      -7.889  20.774 -10.006  1.00  0.00    -0.169 N 
HETATM    5  C2  UNL     1      -7.524  20.181 -11.152  1.00  0.00     0.181 A 
ATOM      6  H3  UNL     1      -7.222  20.848  -9.238  1.00  0.00     0.186 HD
HETATM    7  N2  UNL     1      -8.381  20.070 -12.179  1.00  0.00    -0.169 N 
HETATM    8  C1  UNL     1      -9.637  20.560 -12.066  1.00  0.00     0.692 A 
ATOM      9  H2  UNL     1      -8.086  19.616 -13.044  1.00  0.00     0.186 HD
HETATM   10  N8  UNL     1      -9.988  21.156 -10.900  1.00  0.00    -0.022 N 
ATOM     11  H8  UNL     1     -10.932  21.529 -10.804  1.00  0.00     0.203 HD
BRANCH   5  12
HETATM   12  S1  UNL     1      -5.859  19.533 -11.294  1.00  0.00    -0.024 SA
BRANCH  12  13
HETATM   13  C3  UNL     1      -4.816  20.120  -9.992  1.00  0.00     0.312 C 
HETATM   14  O1  UNL     1      -5.031  19.760  -8.852  1.00  0.00    -0.295 OA
ENDBRANCH  12  13
ENDBRANCH   5  12
BRANCH   8  15
HETATM   15  N1  UNL     1     -10.487  20.470 -13.033  1.00  0.00    -0.234 N 
ATOM     16  H12 UNL     1     -10.184  20.603 -13.998  1.00  0.00     0.174 HD
ATOM     17  H11 UNL     1     -11.471  20.267 -12.862  1.00  0.00     0.174 HD
ENDBRANCH   8  15
ENDBRANCH   1   3
BRANCH   1  18
HETATM   18  C5  UNL     1      -9.828  23.239  -8.668  1.00  0.00     0.278 C 
BRANCH  18  19
HETATM   19  N5  UNL     1     -11.102  23.560  -9.206  1.00  0.00    -0.277 N 
ATOM     20  H5  UNL     1     -11.555  22.975  -9.909  1.00  0.00     0.190 HD
BRANCH  19  21
HETATM   21  O2  UNL     1     -11.667  24.660  -8.743  1.00  0.00    -0.292 OA
ATOM     22  H2  UNL     1     -11.846  25.338  -9.384  1.00  0.00     0.244 HD
ENDBRANCH  19  21
ENDBRANCH  18  19
BRANCH  18  23
HETATM   23  C6  UNL     1      -8.690  24.038  -9.250  1.00  0.00     0.421 C 
BRANCH  23  24
HETATM   24  N6  UNL     1      -9.210  25.168  -9.997  1.00  0.00    -0.047 N 
ATOM     25  H63 UNL     1     -10.230  25.192  -9.993  1.00  0.00     0.276 HD
ATOM     26  H62 UNL     1      -9.039  26.053  -9.520  1.00  0.00     0.276 HD
ATOM     27  H61 UNL     1      -8.831  25.164 -10.944  1.00  0.00     0.276 HD
ENDBRANCH  23  24
BRANCH  23  28
HETATM   28  N7  UNL     1      -7.798  24.557  -8.245  1.00  0.00    -0.047 N 
ATOM     29  H73 UNL     1      -7.306  25.383  -8.587  1.00  0.00     0.276 HD
ATOM     30  H72 UNL     1      -8.319  24.981  -7.477  1.00  0.00     0.276 HD
ATOM     31  H71 UNL     1      -7.141  23.858  -7.898  1.00  0.00     0.276 HD
ENDBRANCH  23  28
ENDBRANCH  18  23
ENDBRANCH   1  18
TORSDOF 10
ENDMDL
MODEL 3
REMARK VINA RESULT: -6.967551845      2.143      3.259
REMARK  10 active torsions:
REMARK  status: ('A' for Active; 'I' for Inactive)
REMARK    1  A    between atoms: N1_1  and  C1_4 
REMARK    2  A    between atoms: C2_7  and  S1_8 
REMARK    3  A    between atoms: S1_8  and  C3_9 
REMARK    4  A    between atoms: C4_13  and  N4_14 
REMARK    5  A    between atoms: N4_14  and  C5_16 
REMARK    6  A    between atoms: C5_16  and  N5_17 
REMARK    7  A    between atoms: C5_16  and  C6_21 
REMARK    8  A    between atoms: N5_17  and  O2_19 
REMARK    9  A    between atoms: C6_21  and  N6_22 
REMARK   10  A    between atoms: C6_21  and  N7_26 
ROOT
HETATM    1  N4  UNL     1     -10.296  23.378 -10.478  1.00  0.00    -0.199 N 
ATOM      2  H4  UNL     1     -11.070  23.064 -11.063  1.00  0.00     0.180 HD
ENDROOT
BRANCH   1   3
HETATM    3  C4  UNL     1      -9.489  22.483 -10.001  1.00  0.00     0.696 A 
HETATM    4  N3  UNL     1      -8.389  22.094 -10.682  1.00  0.00    -0.169 N 
HETATM    5  C2  UNL     1      -7.567  21.166 -10.169  1.00  0.00     0.181 A 
ATOM      6  H3  UNL     1      -8.182  22.507 -11.591  1.00  0.00     0.186 HD
HETATM    7  N2  UNL     1      -7.815  20.605  -8.975  1.00  0.00    -0.169 N 
HETATM    8  C1  UNL     1      -8.908  20.975  -8.268  1.00  0.00     0.692 A 
ATOM      9  H2  UNL     1      -7.180  19.900  -8.600  1.00  0.00     0.186 HD
HETATM   10  N8  UNL     1      -9.726  21.914  -8.803  1.00  0.00    -0.022 N 
ATOM     11  H8  UNL     1     -10.554  22.200  -8.280  1.00  0.00     0.203 HD
BRANCH   5  12
HETATM   12  S1  UNL     1      -6.121  20.682 -11.109  1.00  0.00    -0.024 SA
BRANCH  12  13
HETATM   13  C3  UNL     1      -5.099  19.557 -10.203  1.00  0.00     0.312 C 
HETATM   14  O1  UNL     1      -4.968  19.709  -9.006  1.00  0.00    -0.295 OA
ENDBRANCH  12  13
ENDBRANCH   5  12
BRANCH   8  15
HETATM   15  N1  UNL     1      -9.177  20.456  -7.118  1.00  0.00    -0.234 N 
ATOM     16  H12 UNL     1      -8.892  19.500  -6.905  1.00  0.00     0.174 HD
ATOM     17  H11 UNL     1      -9.674  20.981  -6.399  1.00  0.00     0.174 HD
ENDBRANCH   8  15
ENDBRANCH   1   3
BRANCH   1  18
HETATM   18  C5  UNL     1     -10.163  24.777 -10.231  1.00  0.00     0.278 C 
BRANCH  18  19
HETATM   19  N5  UNL     1      -9.200  25.080  -9.232  1.00  0.00    -0.277 N 
ATOM     20  H5  UNL     1      -8.214  25.215  -9.456  1.00  0.00     0.190 HD
BRANCH  19  21
HETATM   21  O2  UNL     1      -9.656  25.175  -7.997  1.00  0.00    -0.292 OA
ATOM     22  H2  UNL     1     -10.600  25.197  -7.902  1.00  0.00     0.244 HD
ENDBRANCH  19  21
ENDBRANCH  18  19
BRANCH  18  23
HETATM   23  C6  UNL     1     -11.530  25.354  -9.968  1.00  0.00     0.421 C 
BRANCH  23  24
HETATM   24  N6  UNL     1     -12.140  25.772 -11.217  1.00  0.00    -0.047 N 
ATOM     25  H63 UNL     1     -12.997  25.255 -11.416  1.00  0.00     0.276 HD
ATOM     26  H62 UNL     1     -12.542  26.707 -11.152  1.00  0.00     0.276 HD
ATOM     27  H61 UNL     1     -11.463  25.698 -11.976  1.00  0.00     0.276 HD
ENDBRANCH  23  24
BRANCH  23  28
HETATM   28  N7  UNL     1     -12.425  24.413  -9.343  1.00  0.00    -0.047 N 
ATOM     29  H73 UNL     1     -11.924  23.576  -9.046  1.00  0.00     0.276 HD
ATOM     30  H72 UNL     1     -12.735  24.753  -8.433  1.00  0.00     0.276 HD
ATOM     31  H71 UNL     1     -13.222  24.172  -9.933  1.00  0.00     0.276 HD
ENDBRANCH  23  28
ENDBRANCH  18  23
ENDBRANCH   1  18
TORSDOF 10
ENDMDL
MODEL 4
REMARK VINA RESULT: -6.942630556      2.706      6.070
REMARK  10 active torsions:
REMARK  status: ('A' for Active; 'I' for Inactive)
REMARK    1  A    between atoms: N1_1  and  C1_4 
REMARK    2  A    between atoms: C2_7  and  S1_8 
REMARK    3  A    between atoms: S1_8  and  C3_9 
REMARK    4  A    between atoms: C4_13  and  N4_14 
REMARK    5  A    between atoms: N4_14  and  C5_16 
REMARK    6  A    between atoms: C5_16  and  N5_17 
REMARK    7  A    between atoms: C5_16  and  C6_21 
REMARK    8  A    between atoms: N5_17  and  O2_19 
REMARK    9  A    between atoms: C6_21  and  N6_22 
REMARK   10  A    between atoms: C6_21  and  N7_26 
ROOT
HETATM    1  N4  UNL     1      -6.805  20.995 -11.027  1.00  0.00    -0.199 N 
ATOM      2  H4  UNL     1      -6.603  21.539 -11.865  1.00  0.00     0.180 HD
ENDROOT
BRANCH   1   3
HETATM    3  C4  UNL     1      -7.659  21.473 -10.178  1.00  0.00     0.696 A 
HETATM    4  N3  UNL     1      -8.215  22.693 -10.350  1.00  0.00    -0.169 N 
HETATM    5  C2  UNL     1      -9.097  23.167  -9.458  1.00  0.00     0.181 A 
ATOM      6  H3  UNL     1      -7.962  23.256 -11.162  1.00  0.00     0.186 HD
HETATM    7  N2  UNL     1      -9.448  22.448  -8.380  1.00  0.00    -0.169 N 
HETATM    8  C1  UNL     1      -8.909  21.223  -8.181  1.00  0.00     0.692 A 
ATOM      9  H2  UNL     1     -10.120  22.825  -7.711  1.00  0.00     0.186 HD
HETATM   10  N8  UNL     1      -8.019  20.760  -9.093  1.00  0.00    -0.022 N 
ATOM     11  H8  UNL     1      -7.607  19.838  -8.953  1.00  0.00     0.203 HD
BRANCH   5  12
HETATM   12  S1  UNL     1      -9.807  24.790  -9.729  1.00  0.00    -0.024 SA
BRANCH  12  13
HETATM   13  C3  UNL     1     -11.515  24.689 -10.177  1.00  0.00     0.312 C 
HETATM   14  O1  UNL     1     -11.969  25.491 -10.967  1.00  0.00    -0.295 OA
ENDBRANCH  12  13
ENDBRANCH   5  12
BRANCH   8  15
HETATM   15  N1  UNL     1      -9.224  20.505  -7.156  1.00  0.00    -0.234 N 
ATOM     16  H12 UNL     1      -9.394  20.946  -6.252  1.00  0.00     0.174 HD
ATOM     17  H11 UNL     1      -9.309  19.491  -7.220  1.00  0.00     0.174 HD
ENDBRANCH   8  15
ENDBRANCH   1   3
BRANCH   1  18
HETATM   18  C5  UNL     1      -6.129  19.749 -10.855  1.00  0.00     0.278 C 
BRANCH  18  19
HETATM   19  N5  UNL     1      -4.882  19.877 -10.188  1.00  0.00    -0.277 N 
ATOM     20  H5  UNL     1      -4.012  20.046 -10.695  1.00  0.00     0.190 HD
BRANCH  19  21
HETATM   21  O2  UNL     1      -4.914  19.766  -8.873  1.00  0.00    -0.292 OA
ATOM     22  H2  UNL     1      -4.443  19.028  -8.505  1.00  0.00     0.244 HD
ENDBRANCH  19  21
ENDBRANCH  18  19
BRANCH  18  23
HETATM   23  C6  UNL     1      -6.050  19.054 -12.189  1.00  0.00     0.421 C 
BRANCH  23  24
HETATM   24  N6  UNL     1      -5.252  17.847 -12.072  1.00  0.00    -0.047 N 
ATOM     25  H63 UNL     1      -5.518  17.144 -12.762  1.00  0.00     0.276 HD
ATOM     26  H62 UNL     1      -4.289  17.994 -12.373  1.00  0.00     0.276 HD
ATOM     27  H61 UNL     1      -5.304  17.486 -11.119  1.00  0.00     0.276 HD
ENDBRANCH  23  24
BRANCH  23  28
HETATM   28  N7  UNL     1      -7.342  18.670 -12.699  1.00  0.00    -0.047 N 
ATOM     29  H73 UNL     1      -7.808  18.024 -12.062  1.00  0.00     0.276 HD
ATOM     30  H72 UNL     1      -7.998  19.449 -12.655  1.00  0.00     0.276 HD
ATOM     31  H71 UNL     1      -7.297  18.283 -13.642  1.00  0.00     0.276 HD
ENDBRANCH  23  28
ENDBRANCH  18  23
ENDBRANCH   1  18
TORSDOF 10
ENDMDL
MODEL 5
REMARK VINA RESULT: -6.839700051      2.622      3.653
REMARK  10 active torsions:
REMARK  status: ('A' for Active; 'I' for Inactive)
REMARK    1  A    between atoms: N1_1  and  C1_4 
REMARK    2  A    between atoms: C2_7  and  S1_8 
REMARK    3  A    between atoms: S1_8  and  C3_9 
REMARK    4  A    between atoms: C4_13  and  N4_14 
REMARK    5  A    between atoms: N4_14  and  C5_16 
REMARK    6  A    between atoms: C5_16  and  N5_17 
REMARK    7  A    between atoms: C5_16  and  C6_21 
REMARK    8  A    between atoms: N5_17  and  O2_19 
REMARK    9  A    between atoms: C6_21  and  N6_22 
REMARK   10  A    between atoms: C6_21  and  N7_26 
ROOT
HETATM    1  N4  UNL     1      -8.428  21.878  -8.172  1.00  0.00    -0.199 N 
ATOM      2  H4  UNL     1      -8.431  21.444  -7.249  1.00  0.00     0.180 HD
ENDROOT
BRANCH   1   3
HETATM    3  C4  UNL     1      -7.853  21.243  -9.144  1.00  0.00     0.696 A 
HETATM    4  N3  UNL     1      -8.572  20.675 -10.137  1.00  0.00    -0.169 N 
HETATM    5  C2  UNL     1      -7.955  20.023 -11.133  1.00  0.00     0.181 A 
ATOM      6  H3  UNL     1      -9.589  20.742 -10.129  1.00  0.00     0.186 HD
HETATM    7  N2  UNL     1      -6.617  19.918 -11.168  1.00  0.00    -0.169 N 
HETATM    8  C1  UNL     1      -5.869  20.477 -10.189  1.00  0.00     0.692 A 
ATOM      9  H2  UNL     1      -6.164  19.417 -11.933  1.00  0.00     0.186 HD
HETATM   10  N8  UNL     1      -6.511  21.132  -9.191  1.00  0.00    -0.022 N 
ATOM     11  H8  UNL     1      -5.957  21.557  -8.447  1.00  0.00     0.203 HD
BRANCH   5  12
HETATM   12  S1  UNL     1      -8.951  19.286 -12.427  1.00  0.00    -0.024 SA
BRANCH  12  13
HETATM   13  C3  UNL     1     -10.251  20.366 -12.946  1.00  0.00     0.312 C 
HETATM   14  O1  UNL     1     -10.585  20.374 -14.113  1.00  0.00    -0.295 OA
ENDBRANCH  12  13
ENDBRANCH   5  12
BRANCH   8  15
HETATM   15  N1  UNL     1      -4.581  20.395 -10.192  1.00  0.00    -0.234 N 
ATOM     16  H12 UNL     1      -4.017  21.173 -10.535  1.00  0.00     0.174 HD
ATOM     17  H11 UNL     1      -4.099  19.563  -9.855  1.00  0.00     0.174 HD
ENDBRANCH   8  15
ENDBRANCH   1   3
BRANCH   1  18
HETATM   18  C5  UNL     1      -9.059  23.150  -8.319  1.00  0.00     0.278 C 
BRANCH  18  19
HETATM   19  N5  UNL     1     -10.406  23.058  -8.759  1.00  0.00    -0.277 N 
ATOM     20  H5  UNL     1     -10.745  22.264  -9.302  1.00  0.00     0.190 HD
BRANCH  19  21
HETATM   21  O2  UNL     1     -11.195  24.062  -8.422  1.00  0.00    -0.292 OA
ATOM     22  H2  UNL     1     -12.127  23.882  -8.434  1.00  0.00     0.244 HD
ENDBRANCH  19  21
ENDBRANCH  18  19
BRANCH  18  23
HETATM   23  C6  UNL     1      -8.185  24.026  -9.179  1.00  0.00     0.421 C 
BRANCH  23  24
HETATM   24  N6  UNL     1      -9.001  24.990  -9.894  1.00  0.00    -0.047 N 
ATOM     25  H63 UNL     1      -9.708  24.537 -10.474  1.00  0.00     0.276 HD
ATOM     26  H62 UNL     1      -9.625  25.501  -9.270  1.00  0.00     0.276 HD
ATOM     27  H61 UNL     1      -8.405  25.616 -10.437  1.00  0.00     0.276 HD
ENDBRANCH  23  24
BRANCH  23  28
HETATM   28  N7  UNL     1      -7.210  24.766  -8.417  1.00  0.00    -0.047 N 
ATOM     29  H73 UNL     1      -6.695  25.412  -9.015  1.00  0.00     0.276 HD
ATOM     30  H72 UNL     1      -7.664  25.439  -7.799  1.00  0.00     0.276 HD
ATOM     31  H71 UNL     1      -6.573  24.163  -7.896  1.00  0.00     0.276 HD
ENDBRANCH  23  28
ENDBRANCH  18  23
ENDBRANCH   1  18
TORSDOF 10
ENDMDL
