MODEL 1
REMARK VINA RESULT: -8.623546725      0.000      0.000
REMARK  10 active torsions:
REMARK  status: ('A' for Active; 'I' for Inactive)
REMARK       I    between atoms: C2_2  and  N1_4 
REMARK    1  A    between atoms: N1_4  and  N2_6 
REMARK       I    between atoms: N2_6  and  C3_8 
REMARK       I    between atoms: C3_8  and  N3_10 
REMARK    2  A    between atoms: N3_10  and  N4_12 
REMARK    3  A    between atoms: N4_12  and  C4_13 
REMARK    4  A    between atoms: C4_13  and  O3_14 
REMARK    5  A    between atoms: C4_13  and  C5_16 
REMARK    6  A    between atoms: C5_16  and  N5_17 
REMARK    7  A    between atoms: C5_16  and  C6_21 
REMARK    8  A    between atoms: C7_24  and  C8_25 
REMARK    9  A    between atoms: C8_25  and  N7_26 
REMARK   10  A    between atoms: N7_26  and  O4_28 
ROOT
HETATM    1  C5  UNL     1     -12.353  -9.630   9.546  1.00  0.00     0.297 C 
ENDROOT
BRANCH   1   2
HETATM    2  C4  UNL     1     -11.290  -8.628   9.314  1.00  0.00     0.269 C 
BRANCH   2   3
HETATM    3  N4  UNL     1     -10.206  -9.096   8.480  1.00  0.00    -0.102 NA
BRANCH   3   4
HETATM    4  N3  UNL     1     -10.225  -8.305   7.308  1.00  0.00    -0.252 N 
HETATM    5  C3  UNL     1     -10.627  -8.886   6.060  1.00  0.00     0.350 C 
HETATM    6  N2  UNL     1     -10.646  -8.101   4.890  1.00  0.00    -0.248 N 
HETATM    7  O2  UNL     1     -10.970 -10.113   6.008  1.00  0.00    -0.244 OA
ATOM      8  H2  UNL     1     -10.374  -7.118   4.916  1.00  0.00     0.192 HD
ATOM      9  H3  UNL     1      -9.952  -7.323   7.349  1.00  0.00     0.187 HD
BRANCH   6  10
HETATM   10  N1  UNL     1     -11.046  -8.701   3.693  1.00  0.00    -0.266 N 
HETATM   11  C2  UNL     1     -12.410  -8.830   3.405  1.00  0.00     0.232 C 
HETATM   12  C1  UNL     1     -12.828  -9.471   2.127  1.00  0.00     0.119 C 
HETATM   13  O1  UNL     1     -13.319  -8.435   4.163  1.00  0.00    -0.272 OA
ATOM     14  H1  UNL     1     -10.348  -9.043   3.032  1.00  0.00     0.190 HD
ENDBRANCH   6  10
ENDBRANCH   3   4
ENDBRANCH   2   3
BRANCH   2  15
HETATM   15  O3  UNL     1     -10.787  -7.988  10.413  1.00  0.00    -0.375 OA
ATOM     16  H3  UNL     1     -10.989  -8.485  11.197  1.00  0.00     0.211 HD
ENDBRANCH   2  15
ENDBRANCH   1   2
BRANCH   1  17
HETATM   17  N5  UNL     1     -13.094  -9.814   8.297  1.00  0.00    -0.064 N 
ATOM     18  H53 UNL     1     -13.690  -9.017   8.073  1.00  0.00     0.275 HD
ATOM     19  H52 UNL     1     -12.493  -9.773   7.474  1.00  0.00     0.275 HD
ATOM     20  H51 UNL     1     -13.615 -10.689   8.357  1.00  0.00     0.275 HD
ENDBRANCH   1  17
BRANCH   1  21
HETATM   21  C6  UNL     1     -13.225  -9.398  10.708  1.00  0.00     0.132 A 
HETATM   22  N6  UNL     1     -12.877  -9.465  12.003  1.00  0.00    -0.327 N 
HETATM   23  C7  UNL     1     -13.942  -9.185  12.793  1.00  0.00     0.139 A 
ATOM     24  H6  UNL     1     -11.943  -9.694  12.344  1.00  0.00     0.169 HD
HETATM   25  N8  UNL     1     -14.964  -8.943  11.954  1.00  0.00    -0.283 N 
HETATM   26  N9  UNL     1     -14.528  -9.072  10.720  1.00  0.00    -0.285 N 
ATOM     27  H8  UNL     1     -15.916  -8.700  12.229  1.00  0.00     0.188 HD
ATOM     28  H9  UNL     1     -15.101  -8.943   9.886  1.00  0.00     0.188 HD
BRANCH  23  29
HETATM   29  C8  UNL     1     -13.975  -9.147  14.251  1.00  0.00     0.163 C 
BRANCH  29  30
HETATM   30  N7  UNL     1     -13.287  -8.302  14.920  1.00  0.00    -0.277 N 
ATOM     31  H7  UNL     1     -13.376  -8.319  15.935  1.00  0.00     0.193 HD
BRANCH  30  32
HETATM   32  O4  UNL     1     -12.439  -7.378  14.375  1.00  0.00    -0.290 OA
ATOM     33  H4  UNL     1     -11.695  -6.992  14.823  1.00  0.00     0.244 HD
ENDBRANCH  30  32
ENDBRANCH  29  30
ENDBRANCH  23  29
ENDBRANCH   1  21
TORSDOF 10
ENDMDL
MODEL 2
REMARK VINA RESULT: -8.613231729      0.878      1.134
REMARK  10 active torsions:
REMARK  status: ('A' for Active; 'I' for Inactive)
REMARK       I    between atoms: C2_2  and  N1_4 
REMARK    1  A    between atoms: N1_4  and  N2_6 
REMARK       I    between atoms: N2_6  and  C3_8 
REMARK       I    between atoms: C3_8  and  N3_10 
REMARK    2  A    between atoms: N3_10  and  N4_12 
REMARK    3  A    between atoms: N4_12  and  C4_13 
REMARK    4  A    between atoms: C4_13  and  O3_14 
REMARK    5  A    between atoms: C4_13  and  C5_16 
REMARK    6  A    between atoms: C5_16  and  N5_17 
REMARK    7  A    between atoms: C5_16  and  C6_21 
REMARK    8  A    between atoms: C7_24  and  C8_25 
REMARK    9  A    between atoms: C8_25  and  N7_26 
REMARK   10  A    between atoms: N7_26  and  O4_28 
ROOT
HETATM    1  C5  UNL     1     -12.319  -9.661   9.582  1.00  0.00     0.297 C 
ENDROOT
BRANCH   1   2
HETATM    2  C4  UNL     1     -11.500  -8.466   9.293  1.00  0.00     0.269 C 
BRANCH   2   3
HETATM    3  N4  UNL     1     -10.219  -8.756   8.688  1.00  0.00    -0.102 NA
BRANCH   3   4
HETATM    4  N3  UNL     1     -10.195  -8.085   7.444  1.00  0.00    -0.252 N 
HETATM    5  C3  UNL     1     -10.581  -8.780   6.250  1.00  0.00     0.350 C 
HETATM    6  N2  UNL     1     -10.557  -8.114   5.008  1.00  0.00    -0.248 N 
HETATM    7  O2  UNL     1     -10.947  -9.999   6.310  1.00  0.00    -0.244 OA
ATOM      8  H2  UNL     1     -10.265  -7.138   4.944  1.00  0.00     0.192 HD
ATOM      9  H3  UNL     1      -9.903  -7.109   7.395  1.00  0.00     0.187 HD
BRANCH   6  10
HETATM   10  N1  UNL     1     -10.942  -8.822   3.866  1.00  0.00    -0.266 N 
HETATM   11  C2  UNL     1     -12.248  -8.694   3.380  1.00  0.00     0.232 C 
HETATM   12  C1  UNL     1     -12.650  -9.452   2.162  1.00  0.00     0.119 C 
HETATM   13  O1  UNL     1     -13.117  -7.970   3.908  1.00  0.00    -0.272 OA
ATOM     14  H1  UNL     1     -10.275  -9.429   3.390  1.00  0.00     0.190 HD
ENDBRANCH   6  10
ENDBRANCH   3   4
ENDBRANCH   2   3
BRANCH   2  15
HETATM   15  O3  UNL     1     -11.341  -7.559  10.305  1.00  0.00    -0.375 OA
ATOM     16  H3  UNL     1     -12.165  -7.440  10.763  1.00  0.00     0.211 HD
ENDBRANCH   2  15
ENDBRANCH   1   2
BRANCH   1  17
HETATM   17  N5  UNL     1     -13.321  -9.802   8.523  1.00  0.00    -0.064 N 
ATOM     18  H53 UNL     1     -13.644  -8.903   8.167  1.00  0.00     0.275 HD
ATOM     19  H52 UNL     1     -12.925 -10.161   7.654  1.00  0.00     0.275 HD
ATOM     20  H51 UNL     1     -14.083 -10.382   8.875  1.00  0.00     0.275 HD
ENDBRANCH   1  17
BRANCH   1  21
HETATM   21  C6  UNL     1     -12.891  -9.749  10.935  1.00  0.00     0.132 A 
HETATM   22  N6  UNL     1     -13.882  -8.996  11.440  1.00  0.00    -0.327 N 
HETATM   23  C7  UNL     1     -14.149  -9.364  12.717  1.00  0.00     0.139 A 
ATOM     24  H6  UNL     1     -14.364  -8.253  10.935  1.00  0.00     0.169 HD
HETATM   25  N8  UNL     1     -13.296 -10.365  12.994  1.00  0.00    -0.283 N 
HETATM   26  N9  UNL     1     -12.555 -10.585  11.929  1.00  0.00    -0.285 N 
ATOM     27  H8  UNL     1     -13.235 -10.869  13.879  1.00  0.00     0.188 HD
ATOM     28  H9  UNL     1     -11.824 -11.294  11.869  1.00  0.00     0.188 HD
BRANCH  23  29
HETATM   29  C8  UNL     1     -15.155  -8.797  13.608  1.00  0.00     0.163 C 
BRANCH  29  30
HETATM   30  N7  UNL     1     -14.835  -8.191  14.688  1.00  0.00    -0.277 N 
ATOM     31  H7  UNL     1     -15.253  -7.276  14.857  1.00  0.00     0.193 HD
BRANCH  30  32
HETATM   32  O4  UNL     1     -13.974  -8.677  15.632  1.00  0.00    -0.290 OA
ATOM     33  H4  UNL     1     -13.127  -8.301  15.840  1.00  0.00     0.244 HD
ENDBRANCH  30  32
ENDBRANCH  29  30
ENDBRANCH  23  29
ENDBRANCH   1  21
TORSDOF 10
ENDMDL
MODEL 3
REMARK VINA RESULT: -8.268154087      1.891      2.140
REMARK  10 active torsions:
REMARK  status: ('A' for Active; 'I' for Inactive)
REMARK       I    between atoms: C2_2  and  N1_4 
REMARK    1  A    between atoms: N1_4  and  N2_6 
REMARK       I    between atoms: N2_6  and  C3_8 
REMARK       I    between atoms: C3_8  and  N3_10 
REMARK    2  A    between atoms: N3_10  and  N4_12 
REMARK    3  A    between atoms: N4_12  and  C4_13 
REMARK    4  A    between atoms: C4_13  and  O3_14 
REMARK    5  A    between atoms: C4_13  and  C5_16 
REMARK    6  A    between atoms: C5_16  and  N5_17 
REMARK    7  A    between atoms: C5_16  and  C6_21 
REMARK    8  A    between atoms: C7_24  and  C8_25 
REMARK    9  A    between atoms: C8_25  and  N7_26 
REMARK   10  A    between atoms: N7_26  and  O4_28 
ROOT
HETATM    1  C5  UNL     1     -12.495  -8.730  10.296  1.00  0.00     0.297 C 
ENDROOT
BRANCH   1   2
HETATM    2  C4  UNL     1     -11.241  -7.947  10.325  1.00  0.00     0.269 C 
BRANCH   2   3
HETATM    3  N4  UNL     1     -10.147  -8.553   9.601  1.00  0.00    -0.102 NA
BRANCH   3   4
HETATM    4  N3  UNL     1     -10.722  -9.392   8.620  1.00  0.00    -0.252 N 
HETATM    5  C3  UNL     1     -10.759  -8.969   7.250  1.00  0.00     0.350 C 
HETATM    6  N2  UNL     1     -11.333  -9.803   6.270  1.00  0.00    -0.248 N 
HETATM    7  O2  UNL     1     -10.274  -7.839   6.917  1.00  0.00    -0.244 OA
ATOM      8  H2  UNL     1     -11.726 -10.711   6.521  1.00  0.00     0.192 HD
ATOM      9  H3  UNL     1     -11.110 -10.298   8.885  1.00  0.00     0.187 HD
BRANCH   6  10
HETATM   10  N1  UNL     1     -11.350  -9.359   4.945  1.00  0.00    -0.266 N 
HETATM   11  C2  UNL     1     -12.574  -9.148   4.301  1.00  0.00     0.232 C 
HETATM   12  C1  UNL     1     -12.584  -8.674   2.888  1.00  0.00     0.119 C 
HETATM   13  O1  UNL     1     -13.684  -9.333   4.842  1.00  0.00    -0.272 OA
ATOM     14  H1  UNL     1     -10.474  -9.188   4.449  1.00  0.00     0.190 HD
ENDBRANCH   6  10
ENDBRANCH   3   4
ENDBRANCH   2   3
BRANCH   2  15
HETATM   15  O3  UNL     1     -10.806  -7.512  11.546  1.00  0.00    -0.375 OA
ATOM     16  H3  UNL     1     -11.258  -7.983  12.236  1.00  0.00     0.211 HD
ENDBRANCH   2  15
ENDBRANCH   1   2
BRANCH   1  17
HETATM   17  N5  UNL     1     -13.521  -7.933   9.620  1.00  0.00    -0.064 N 
ATOM     18  H53 UNL     1     -13.210  -7.580   8.715  1.00  0.00     0.275 HD
ATOM     19  H52 UNL     1     -14.301  -8.500   9.286  1.00  0.00     0.275 HD
ATOM     20  H51 UNL     1     -13.819  -7.189  10.251  1.00  0.00     0.275 HD
ENDBRANCH   1  17
BRANCH   1  21
HETATM   21  C6  UNL     1     -12.947  -9.285  11.582  1.00  0.00     0.132 A 
HETATM   22  N6  UNL     1     -13.963  -8.839  12.338  1.00  0.00    -0.327 N 
HETATM   23  C7  UNL     1     -14.091  -9.602  13.452  1.00  0.00     0.139 A 
ATOM     24  H6  UNL     1     -14.554  -8.041  12.108  1.00  0.00     0.169 HD
HETATM   25  N8  UNL     1     -13.126 -10.533  13.369  1.00  0.00    -0.283 N 
HETATM   26  N9  UNL     1     -12.453 -10.335  12.255  1.00  0.00    -0.285 N 
ATOM     27  H8  UNL     1     -12.945 -11.268  14.053  1.00  0.00     0.188 HD
ATOM     28  H9  UNL     1     -11.664 -10.903  11.947  1.00  0.00     0.188 HD
BRANCH  23  29
HETATM   29  C8  UNL     1     -15.074  -9.449  14.518  1.00  0.00     0.163 C 
BRANCH  29  30
HETATM   30  N7  UNL     1     -16.101 -10.207  14.602  1.00  0.00    -0.277 N 
ATOM     31  H7  UNL     1     -16.284 -10.842  13.825  1.00  0.00     0.193 HD
BRANCH  30  32
HETATM   32  O4  UNL     1     -16.974 -10.228  15.654  1.00  0.00    -0.290 OA
ATOM     33  H4  UNL     1     -17.509  -9.493  15.931  1.00  0.00     0.244 HD
ENDBRANCH  30  32
ENDBRANCH  29  30
ENDBRANCH  23  29
ENDBRANCH   1  21
TORSDOF 10
ENDMDL
MODEL 4
REMARK VINA RESULT: -8.234944771      1.464      1.562
REMARK  10 active torsions:
REMARK  status: ('A' for Active; 'I' for Inactive)
REMARK       I    between atoms: C2_2  and  N1_4 
REMARK    1  A    between atoms: N1_4  and  N2_6 
REMARK       I    between atoms: N2_6  and  C3_8 
REMARK       I    between atoms: C3_8  and  N3_10 
REMARK    2  A    between atoms: N3_10  and  N4_12 
REMARK    3  A    between atoms: N4_12  and  C4_13 
REMARK    4  A    between atoms: C4_13  and  O3_14 
REMARK    5  A    between atoms: C4_13  and  C5_16 
REMARK    6  A    between atoms: C5_16  and  N5_17 
REMARK    7  A    between atoms: C5_16  and  C6_21 
REMARK    8  A    between atoms: C7_24  and  C8_25 
REMARK    9  A    between atoms: C8_25  and  N7_26 
REMARK   10  A    between atoms: N7_26  and  O4_28 
ROOT
HETATM    1  C5  UNL     1     -12.122  -9.555   9.284  1.00  0.00     0.297 C 
ENDROOT
BRANCH   1   2
HETATM    2  C4  UNL     1     -11.106  -8.815   8.507  1.00  0.00     0.269 C 
BRANCH   2   3
HETATM    3  N4  UNL     1     -10.478  -9.590   7.461  1.00  0.00    -0.102 NA
BRANCH   3   4
HETATM    4  N3  UNL     1     -10.611  -8.847   6.266  1.00  0.00    -0.252 N 
HETATM    5  C3  UNL     1     -11.736  -9.073   5.406  1.00  0.00     0.350 C 
HETATM    6  N2  UNL     1     -11.871  -8.334   4.214  1.00  0.00    -0.248 N 
HETATM    7  O2  UNL     1     -12.614  -9.941   5.718  1.00  0.00    -0.244 OA
ATOM      8  H2  UNL     1     -11.175  -7.635   3.950  1.00  0.00     0.192 HD
ATOM      9  H3  UNL     1      -9.908  -8.150   6.017  1.00  0.00     0.187 HD
BRANCH   6  10
HETATM   10  N1  UNL     1     -12.981  -8.580   3.401  1.00  0.00    -0.266 N 
HETATM   11  C2  UNL     1     -12.794  -9.089   2.110  1.00  0.00     0.232 C 
HETATM   12  C1  UNL     1     -13.983  -9.348   1.250  1.00  0.00     0.119 C 
HETATM   13  O1  UNL     1     -11.676  -9.347   1.621  1.00  0.00    -0.272 OA
ATOM     14  H1  UNL     1     -13.922  -8.390   3.746  1.00  0.00     0.190 HD
ENDBRANCH   6  10
ENDBRANCH   3   4
ENDBRANCH   2   3
BRANCH   2  15
HETATM   15  O3  UNL     1     -10.155  -8.133   9.215  1.00  0.00    -0.375 OA
ATOM     16  H3  UNL     1     -10.299  -7.198   9.129  1.00  0.00     0.211 HD
ENDBRANCH   2  15
ENDBRANCH   1   2
BRANCH   1  17
HETATM   17  N5  UNL     1     -13.308  -9.733   8.443  1.00  0.00    -0.064 N 
ATOM     18  H53 UNL     1     -13.785  -8.853   8.246  1.00  0.00     0.275 HD
ATOM     19  H52 UNL     1     -13.074  -9.981   7.482  1.00  0.00     0.275 HD
ATOM     20  H51 UNL     1     -13.918 -10.419   8.887  1.00  0.00     0.275 HD
ENDBRANCH   1  17
BRANCH   1  21
HETATM   21  C6  UNL     1     -12.435  -9.025  10.621  1.00  0.00     0.132 A 
HETATM   22  N6  UNL     1     -12.490  -9.719  11.770  1.00  0.00    -0.327 N 
HETATM   23  C7  UNL     1     -12.802  -8.898  12.802  1.00  0.00     0.139 A 
ATOM     24  H6  UNL     1     -12.320 -10.721  11.853  1.00  0.00     0.169 HD
HETATM   25  N8  UNL     1     -12.943  -7.674  12.264  1.00  0.00    -0.283 N 
HETATM   26  N9  UNL     1     -12.723  -7.761  10.970  1.00  0.00    -0.285 N 
ATOM     27  H8  UNL     1     -13.179  -6.822  12.773  1.00  0.00     0.188 HD
ATOM     28  H9  UNL     1     -12.766  -6.976  10.320  1.00  0.00     0.188 HD
BRANCH  23  29
HETATM   29  C8  UNL     1     -12.951  -9.261  14.206  1.00  0.00     0.163 C 
BRANCH  29  30
HETATM   30  N7  UNL     1     -13.663  -8.567  15.011  1.00  0.00    -0.277 N 
ATOM     31  H7  UNL     1     -13.278  -8.374  15.935  1.00  0.00     0.193 HD
BRANCH  30  32
HETATM   32  O4  UNL     1     -14.901  -8.063  14.724  1.00  0.00    -0.290 OA
ATOM     33  H4  UNL     1     -15.148  -7.667  13.897  1.00  0.00     0.244 HD
ENDBRANCH  30  32
ENDBRANCH  29  30
ENDBRANCH  23  29
ENDBRANCH   1  21
TORSDOF 10
ENDMDL
MODEL 5
REMARK VINA RESULT: -8.199603133      2.647      8.164
REMARK  10 active torsions:
REMARK  status: ('A' for Active; 'I' for Inactive)
REMARK       I    between atoms: C2_2  and  N1_4 
REMARK    1  A    between atoms: N1_4  and  N2_6 
REMARK       I    between atoms: N2_6  and  C3_8 
REMARK       I    between atoms: C3_8  and  N3_10 
REMARK    2  A    between atoms: N3_10  and  N4_12 
REMARK    3  A    between atoms: N4_12  and  C4_13 
REMARK    4  A    between atoms: C4_13  and  O3_14 
REMARK    5  A    between atoms: C4_13  and  C5_16 
REMARK    6  A    between atoms: C5_16  and  N5_17 
REMARK    7  A    between atoms: C5_16  and  C6_21 
REMARK    8  A    between atoms: C7_24  and  C8_25 
REMARK    9  A    between atoms: C8_25  and  N7_26 
REMARK   10  A    between atoms: N7_26  and  O4_28 
ROOT
HETATM    1  C5  UNL     1     -12.760  -9.351  12.051  1.00  0.00     0.297 C 
ENDROOT
BRANCH   1   2
HETATM    2  C4  UNL     1     -12.033  -8.216  12.658  1.00  0.00     0.269 C 
BRANCH   2   3
HETATM    3  N4  UNL     1     -12.796  -7.480  13.640  1.00  0.00    -0.102 NA
BRANCH   3   4
HETATM    4  N3  UNL     1     -14.151  -7.839  13.457  1.00  0.00    -0.252 N 
HETATM    5  C3  UNL     1     -14.760  -8.801  14.328  1.00  0.00     0.350 C 
HETATM    6  N2  UNL     1     -16.110  -9.162  14.147  1.00  0.00    -0.248 N 
HETATM    7  O2  UNL     1     -14.081  -9.332  15.267  1.00  0.00    -0.244 OA
ATOM      8  H2  UNL     1     -16.666  -8.746  13.399  1.00  0.00     0.192 HD
ATOM      9  H3  UNL     1     -14.695  -7.414  12.705  1.00  0.00     0.187 HD
BRANCH   6  10
HETATM   10  N1  UNL     1     -16.670 -10.102  15.016  1.00  0.00    -0.266 N 
HETATM   11  C2  UNL     1     -17.817  -9.772  15.747  1.00  0.00     0.232 C 
HETATM   12  C1  UNL     1     -18.408 -10.780  16.672  1.00  0.00     0.119 C 
HETATM   13  O1  UNL     1     -18.393  -8.667  15.674  1.00  0.00    -0.272 OA
ATOM     14  H1  UNL     1     -16.245 -11.024  15.118  1.00  0.00     0.190 HD
ENDBRANCH   6  10
ENDBRANCH   3   4
ENDBRANCH   2   3
BRANCH   2  15
HETATM   15  O3  UNL     1     -11.412  -7.345  11.805  1.00  0.00    -0.375 OA
ATOM     16  H3  UNL     1     -11.998  -7.121  11.091  1.00  0.00     0.211 HD
ENDBRANCH   2  15
ENDBRANCH   1   2
BRANCH   1  17
HETATM   17  N5  UNL     1     -12.297 -10.588  12.684  1.00  0.00    -0.064 N 
ATOM     18  H53 UNL     1     -11.509 -11.009  12.193  1.00  0.00     0.275 HD
ATOM     19  H52 UNL     1     -11.831 -10.421  13.576  1.00  0.00     0.275 HD
ATOM     20  H51 UNL     1     -13.091 -11.222  12.770  1.00  0.00     0.275 HD
ENDBRANCH   1  17
BRANCH   1  21
HETATM   21  C6  UNL     1     -12.756  -9.417  10.581  1.00  0.00     0.132 A 
HETATM   22  N6  UNL     1     -11.679  -9.436   9.779  1.00  0.00    -0.327 N 
HETATM   23  C7  UNL     1     -12.060  -9.507   8.480  1.00  0.00     0.139 A 
ATOM     24  H6  UNL     1     -10.712  -9.401  10.101  1.00  0.00     0.169 HD
HETATM   25  N8  UNL     1     -13.404  -9.530   8.495  1.00  0.00    -0.283 N 
HETATM   26  N9  UNL     1     -13.806  -9.476   9.747  1.00  0.00    -0.285 N 
ATOM     27  H8  UNL     1     -14.008  -9.580   7.675  1.00  0.00     0.188 HD
ATOM     28  H9  UNL     1     -14.782  -9.478  10.042  1.00  0.00     0.188 HD
BRANCH  23  29
HETATM   29  C8  UNL     1     -11.195  -9.553   7.307  1.00  0.00     0.163 C 
BRANCH  29  30
HETATM   30  N7  UNL     1     -10.533  -8.531   6.915  1.00  0.00    -0.277 N 
ATOM     31  H7  UNL     1     -10.459  -8.373   5.911  1.00  0.00     0.193 HD
BRANCH  30  32
HETATM   32  O4  UNL     1      -9.919  -7.633   7.743  1.00  0.00    -0.290 OA
ATOM     33  H4  UNL     1     -10.253  -6.768   7.951  1.00  0.00     0.244 HD
ENDBRANCH  30  32
ENDBRANCH  29  30
ENDBRANCH  23  29
ENDBRANCH   1  21
TORSDOF 10
ENDMDL
