MODEL 1
REMARK VINA RESULT: -7.263826165      0.000      0.000
REMARK  6 active torsions:
REMARK  status: ('A' for Active; 'I' for Inactive)
REMARK    1  A    between atoms: N1_1  and  C1_4 
REMARK    2  A    between atoms: C3_9  and  C4_10 
REMARK    3  A    between atoms: C4_10  and  C6_18 
REMARK    4  A    between atoms: N4_11  and  N5_13 
REMARK       I    between atoms: N5_13  and  C5_15 
REMARK    5  A    between atoms: C6_18  and  O3_20 
REMARK    6  A    between atoms: O3_20  and  N7_21 
ROOT
HETATM    1  C4  UNL     1     -14.685 -26.558  21.846  1.00  0.00     0.144 C 
HETATM    2  N4  UNL     1     -15.037 -27.440  22.760  1.00  0.00    -0.290 N 
ATOM      3  H4  UNL     1     -15.603 -28.220  22.422  1.00  0.00     0.187 HD
ENDROOT
BRANCH   1   4
HETATM    4  C3  UNL     1     -15.143 -26.807  20.489  1.00  0.00     0.108 A 
HETATM    5  C2  UNL     1     -16.497 -26.527  20.176  1.00  0.00     0.150 A 
HETATM    6  N2  UNL     1     -16.990 -26.732  18.946  1.00  0.00    -0.178 N 
HETATM    7  N3  UNL     1     -17.346 -26.020  21.188  1.00  0.00    -0.081 NA
HETATM    8  C1  UNL     1     -16.230 -27.203  17.972  1.00  0.00     0.680 A 
ATOM      9  H2  UNL     1     -17.970 -26.519  18.759  1.00  0.00     0.185 HD
HETATM   10  N8  UNL     1     -14.949 -27.492  18.185  1.00  0.00    -0.155 N 
HETATM   11  C7  UNL     1     -14.426 -27.288  19.441  1.00  0.00     0.275 A 
ATOM     12  H8  UNL     1     -14.365 -27.856  17.432  1.00  0.00     0.187 HD
HETATM   13  O4  UNL     1     -13.233 -27.580  19.550  1.00  0.00    -0.267 OA
BRANCH   8  14
HETATM   14  N1  UNL     1     -16.723 -27.393  16.796  1.00  0.00    -0.234 N 
ATOM     15  H12 UNL     1     -17.679 -27.740  16.713  1.00  0.00     0.174 HD
ATOM     16  H11 UNL     1     -16.165 -27.197  15.965  1.00  0.00     0.174 HD
ENDBRANCH   8  14
ENDBRANCH   1   4
BRANCH   1  17
HETATM   17  C6  UNL     1     -13.900 -25.481  22.319  1.00  0.00     0.333 C 
HETATM   18  O2  UNL     1     -14.318 -24.421  22.797  1.00  0.00    -0.256 OA
BRANCH  17  19
HETATM   19  O3  UNL     1     -12.487 -25.572  22.264  1.00  0.00    -0.201 OA
BRANCH  19  20
HETATM   20  N7  UNL     1     -11.810 -25.350  21.064  1.00  0.00    -0.302 N 
ATOM     21  H72 UNL     1     -12.305 -24.892  20.298  1.00  0.00     0.184 HD
ATOM     22  H71 UNL     1     -10.838 -25.640  20.956  1.00  0.00     0.184 HD
ENDBRANCH  19  20
ENDBRANCH  17  19
ENDBRANCH   1  17
BRANCH   2  23
HETATM   23  N5  UNL     1     -14.757 -27.458  24.076  1.00  0.00    -0.253 N 
HETATM   24  C5  UNL     1     -15.635 -27.068  25.124  1.00  0.00     0.347 C 
HETATM   25  N6  UNL     1     -15.222 -27.133  26.478  1.00  0.00    -0.038 NA
HETATM   26  O1  UNL     1     -16.803 -26.656  24.896  1.00  0.00    -0.249 OA
ATOM     27  H5  UNL     1     -13.828 -27.780  24.346  1.00  0.00     0.191 HD
ENDBRANCH   2  23
TORSDOF 6
ENDMDL
MODEL 2
REMARK VINA RESULT: -7.210077732      0.875      1.125
REMARK  6 active torsions:
REMARK  status: ('A' for Active; 'I' for Inactive)
REMARK    1  A    between atoms: N1_1  and  C1_4 
REMARK    2  A    between atoms: C3_9  and  C4_10 
REMARK    3  A    between atoms: C4_10  and  C6_18 
REMARK    4  A    between atoms: N4_11  and  N5_13 
REMARK       I    between atoms: N5_13  and  C5_15 
REMARK    5  A    between atoms: C6_18  and  O3_20 
REMARK    6  A    between atoms: O3_20  and  N7_21 
ROOT
HETATM    1  C4  UNL     1     -14.693 -26.533  21.844  1.00  0.00     0.144 C 
HETATM    2  N4  UNL     1     -15.039 -27.414  22.762  1.00  0.00    -0.290 N 
ATOM      3  H4  UNL     1     -15.597 -28.200  22.427  1.00  0.00     0.187 HD
ENDROOT
BRANCH   1   4
HETATM    4  C3  UNL     1     -15.147 -26.792  20.487  1.00  0.00     0.108 A 
HETATM    5  C2  UNL     1     -16.502 -26.523  20.169  1.00  0.00     0.150 A 
HETATM    6  N2  UNL     1     -16.992 -26.738  18.940  1.00  0.00    -0.178 N 
HETATM    7  N3  UNL     1     -17.356 -26.015  21.177  1.00  0.00    -0.081 NA
HETATM    8  C1  UNL     1     -16.227 -27.211  17.971  1.00  0.00     0.680 A 
ATOM      9  H2  UNL     1     -17.972 -26.532  18.749  1.00  0.00     0.185 HD
HETATM   10  N8  UNL     1     -14.944 -27.491  18.188  1.00  0.00    -0.155 N 
HETATM   11  C7  UNL     1     -14.425 -27.276  19.443  1.00  0.00     0.275 A 
ATOM     12  H8  UNL     1     -14.357 -27.856  17.438  1.00  0.00     0.187 HD
HETATM   13  O4  UNL     1     -13.231 -27.560  19.557  1.00  0.00    -0.267 OA
BRANCH   8  14
HETATM   14  N1  UNL     1     -16.717 -27.412  16.794  1.00  0.00    -0.234 N 
ATOM     15  H12 UNL     1     -17.438 -28.122  16.677  1.00  0.00     0.174 HD
ATOM     16  H11 UNL     1     -16.386 -26.866  15.999  1.00  0.00     0.174 HD
ENDBRANCH   8  14
ENDBRANCH   1   4
BRANCH   1  17
HETATM   17  C6  UNL     1     -13.920 -25.446  22.312  1.00  0.00     0.333 C 
HETATM   18  O2  UNL     1     -12.726 -25.237  22.077  1.00  0.00    -0.256 OA
BRANCH  17  19
HETATM   19  O3  UNL     1     -14.526 -24.468  23.140  1.00  0.00    -0.201 OA
BRANCH  19  20
HETATM   20  N7  UNL     1     -14.026 -23.165  23.178  1.00  0.00    -0.302 N 
ATOM     21  H72 UNL     1     -14.006 -22.622  22.315  1.00  0.00     0.184 HD
ATOM     22  H71 UNL     1     -13.688 -22.765  24.054  1.00  0.00     0.184 HD
ENDBRANCH  19  20
ENDBRANCH  17  19
ENDBRANCH   1  17
BRANCH   2  23
HETATM   23  N5  UNL     1     -14.760 -27.421  24.078  1.00  0.00    -0.253 N 
HETATM   24  C5  UNL     1     -15.653 -27.063  25.125  1.00  0.00     0.347 C 
HETATM   25  N6  UNL     1     -15.240 -27.113  26.480  1.00  0.00    -0.038 NA
HETATM   26  O1  UNL     1     -16.834 -26.691  24.895  1.00  0.00    -0.249 OA
ATOM     27  H5  UNL     1     -13.821 -27.712  24.350  1.00  0.00     0.191 HD
ENDBRANCH   2  23
TORSDOF 6
ENDMDL
MODEL 3
REMARK VINA RESULT: -7.190075632      1.934      3.234
REMARK  6 active torsions:
REMARK  status: ('A' for Active; 'I' for Inactive)
REMARK    1  A    between atoms: N1_1  and  C1_4 
REMARK    2  A    between atoms: C3_9  and  C4_10 
REMARK    3  A    between atoms: C4_10  and  C6_18 
REMARK    4  A    between atoms: N4_11  and  N5_13 
REMARK       I    between atoms: N5_13  and  C5_15 
REMARK    5  A    between atoms: C6_18  and  O3_20 
REMARK    6  A    between atoms: O3_20  and  N7_21 
ROOT
HETATM    1  C4  UNL     1     -14.478 -26.653  21.855  1.00  0.00     0.144 C 
HETATM    2  N4  UNL     1     -13.740 -25.562  21.923  1.00  0.00    -0.290 N 
ATOM      3  H4  UNL     1     -13.776 -24.957  21.102  1.00  0.00     0.187 HD
ENDROOT
BRANCH   1   4
HETATM    4  C3  UNL     1     -15.238 -26.850  20.632  1.00  0.00     0.108 A 
HETATM    5  C2  UNL     1     -14.588 -27.455  19.527  1.00  0.00     0.150 A 
HETATM    6  N2  UNL     1     -15.226 -27.668  18.367  1.00  0.00    -0.178 N 
HETATM    7  N3  UNL     1     -13.233 -27.841  19.655  1.00  0.00    -0.081 NA
HETATM    8  C1  UNL     1     -16.492 -27.323  18.207  1.00  0.00     0.680 A 
ATOM      9  H2  UNL     1     -14.724 -28.106  17.594  1.00  0.00     0.185 HD
HETATM   10  N8  UNL     1     -17.173 -26.750  19.196  1.00  0.00    -0.155 N 
HETATM   11  C7  UNL     1     -16.535 -26.523  20.393  1.00  0.00     0.275 A 
ATOM     12  H8  UNL     1     -18.150 -26.484  19.069  1.00  0.00     0.187 HD
HETATM   13  O4  UNL     1     -17.238 -25.990  21.253  1.00  0.00    -0.267 OA
BRANCH   8  14
HETATM   14  N1  UNL     1     -17.088 -27.537  17.083  1.00  0.00    -0.234 N 
ATOM     15  H12 UNL     1     -16.548 -27.473  16.221  1.00  0.00     0.174 HD
ATOM     16  H11 UNL     1     -18.081 -27.768  17.063  1.00  0.00     0.174 HD
ENDBRANCH   8  14
ENDBRANCH   1   4
BRANCH   1  17
HETATM   17  C6  UNL     1     -14.425 -27.487  22.995  1.00  0.00     0.333 C 
HETATM   18  O2  UNL     1     -13.465 -28.174  23.360  1.00  0.00    -0.256 OA
BRANCH  17  19
HETATM   19  O3  UNL     1     -15.560 -27.585  23.839  1.00  0.00    -0.201 OA
BRANCH  19  20
HETATM   20  N7  UNL     1     -16.244 -26.437  24.241  1.00  0.00    -0.302 N 
ATOM     21  H72 UNL     1     -17.080 -26.158  23.728  1.00  0.00     0.184 HD
ATOM     22  H71 UNL     1     -15.911 -25.888  25.034  1.00  0.00     0.184 HD
ENDBRANCH  19  20
ENDBRANCH  17  19
ENDBRANCH   1  17
BRANCH   2  23
HETATM   23  N5  UNL     1     -12.947 -25.135  22.922  1.00  0.00    -0.253 N 
HETATM   24  C5  UNL     1     -13.325 -24.252  23.971  1.00  0.00     0.347 C 
HETATM   25  N6  UNL     1     -12.395 -23.875  24.972  1.00  0.00    -0.038 NA
HETATM   26  O1  UNL     1     -14.488 -23.775  24.055  1.00  0.00    -0.249 OA
ATOM     27  H5  UNL     1     -11.986 -25.476  22.928  1.00  0.00     0.191 HD
ENDBRANCH   2  23
TORSDOF 6
ENDMDL
MODEL 4
REMARK VINA RESULT: -7.154569017      1.181      1.930
REMARK  6 active torsions:
REMARK  status: ('A' for Active; 'I' for Inactive)
REMARK    1  A    between atoms: N1_1  and  C1_4 
REMARK    2  A    between atoms: C3_9  and  C4_10 
REMARK    3  A    between atoms: C4_10  and  C6_18 
REMARK    4  A    between atoms: N4_11  and  N5_13 
REMARK       I    between atoms: N5_13  and  C5_15 
REMARK    5  A    between atoms: C6_18  and  O3_20 
REMARK    6  A    between atoms: O3_20  and  N7_21 
ROOT
HETATM    1  C4  UNL     1     -14.745 -26.571  22.019  1.00  0.00     0.144 C 
HETATM    2  N4  UNL     1     -14.870 -27.535  22.909  1.00  0.00    -0.290 N 
ATOM      3  H4  UNL     1     -15.392 -28.355  22.598  1.00  0.00     0.187 HD
ENDROOT
BRANCH   1   4
HETATM    4  C3  UNL     1     -15.361 -26.797  20.722  1.00  0.00     0.108 A 
HETATM    5  C2  UNL     1     -14.600 -27.456  19.723  1.00  0.00     0.150 A 
HETATM    6  N2  UNL     1     -15.102 -27.698  18.504  1.00  0.00    -0.178 N 
HETATM    7  N3  UNL     1     -13.280 -27.866  20.024  1.00  0.00    -0.081 NA
HETATM    8  C1  UNL     1     -16.331 -27.331  18.183  1.00  0.00     0.680 A 
ATOM      9  H2  UNL     1     -14.524 -28.174  17.811  1.00  0.00     0.185 HD
HETATM   10  N8  UNL     1     -17.110 -26.708  19.064  1.00  0.00    -0.155 N 
HETATM   11  C7  UNL     1     -16.611 -26.451  20.320  1.00  0.00     0.275 A 
ATOM     12  H8  UNL     1     -18.058 -26.426  18.814  1.00  0.00     0.187 HD
HETATM   13  O4  UNL     1     -17.397 -25.872  21.072  1.00  0.00    -0.267 OA
BRANCH   8  14
HETATM   14  N1  UNL     1     -16.796 -27.573  17.005  1.00  0.00    -0.234 N 
ATOM     15  H12 UNL     1     -16.197 -28.044  16.327  1.00  0.00     0.174 HD
ATOM     16  H11 UNL     1     -17.748 -27.298  16.760  1.00  0.00     0.174 HD
ENDBRANCH   8  14
ENDBRANCH   1   4
BRANCH   1  17
HETATM   17  C6  UNL     1     -14.020 -25.438  22.456  1.00  0.00     0.333 C 
HETATM   18  O2  UNL     1     -14.494 -24.397  22.924  1.00  0.00    -0.256 OA
BRANCH  17  19
HETATM   19  O3  UNL     1     -12.605 -25.442  22.371  1.00  0.00    -0.201 OA
BRANCH  19  20
HETATM   20  N7  UNL     1     -11.970 -25.306  21.136  1.00  0.00    -0.302 N 
ATOM     21  H72 UNL     1     -11.650 -24.382  20.847  1.00  0.00     0.184 HD
ATOM     22  H71 UNL     1     -11.830 -26.118  20.534  1.00  0.00     0.184 HD
ENDBRANCH  19  20
ENDBRANCH  17  19
ENDBRANCH   1  17
BRANCH   2  23
HETATM   23  N5  UNL     1     -14.406 -27.591  24.171  1.00  0.00    -0.253 N 
HETATM   24  C5  UNL     1     -15.169 -27.901  25.330  1.00  0.00     0.347 C 
HETATM   25  N6  UNL     1     -14.564 -27.930  26.611  1.00  0.00    -0.038 NA
HETATM   26  O1  UNL     1     -16.400 -28.162  25.268  1.00  0.00    -0.249 OA
ATOM     27  H5  UNL     1     -13.415 -27.392  24.309  1.00  0.00     0.191 HD
ENDBRANCH   2  23
TORSDOF 6
ENDMDL
MODEL 5
REMARK VINA RESULT: -7.137038207      1.823      2.911
REMARK  6 active torsions:
REMARK  status: ('A' for Active; 'I' for Inactive)
REMARK    1  A    between atoms: N1_1  and  C1_4 
REMARK    2  A    between atoms: C3_9  and  C4_10 
REMARK    3  A    between atoms: C4_10  and  C6_18 
REMARK    4  A    between atoms: N4_11  and  N5_13 
REMARK       I    between atoms: N5_13  and  C5_15 
REMARK    5  A    between atoms: C6_18  and  O3_20 
REMARK    6  A    between atoms: O3_20  and  N7_21 
ROOT
HETATM    1  C4  UNL     1     -14.939 -26.507  22.008  1.00  0.00     0.144 C 
HETATM    2  N4  UNL     1     -14.776 -25.248  22.360  1.00  0.00    -0.290 N 
ATOM      3  H4  UNL     1     -14.868 -24.566  21.606  1.00  0.00     0.187 HD
ENDROOT
BRANCH   1   4
HETATM    4  C3  UNL     1     -15.227 -26.760  20.605  1.00  0.00     0.108 A 
HETATM    5  C2  UNL     1     -16.535 -26.492  20.129  1.00  0.00     0.150 A 
HETATM    6  N2  UNL     1     -16.874 -26.701  18.849  1.00  0.00    -0.178 N 
HETATM    7  N3  UNL     1     -17.506 -25.992  21.030  1.00  0.00    -0.081 NA
HETATM    8  C1  UNL     1     -15.997 -27.166  17.975  1.00  0.00     0.680 A 
ATOM      9  H2  UNL     1     -17.825 -26.497  18.544  1.00  0.00     0.185 HD
HETATM   10  N8  UNL     1     -14.748 -27.443  18.343  1.00  0.00    -0.155 N 
HETATM   11  C7  UNL     1     -14.384 -27.235  19.652  1.00  0.00     0.275 A 
ATOM     12  H8  UNL     1     -14.074 -27.802  17.666  1.00  0.00     0.187 HD
HETATM   13  O4  UNL     1     -13.211 -27.516  19.906  1.00  0.00    -0.267 OA
BRANCH   8  14
HETATM   14  N1  UNL     1     -16.342 -27.361  16.748  1.00  0.00    -0.234 N 
ATOM     15  H12 UNL     1     -15.700 -27.857  16.130  1.00  0.00     0.174 HD
ATOM     16  H11 UNL     1     -17.242 -27.024  16.406  1.00  0.00     0.174 HD
ENDBRANCH   8  14
ENDBRANCH   1   4
BRANCH   1  17
HETATM   17  C6  UNL     1     -14.811 -27.448  23.055  1.00  0.00     0.333 C 
HETATM   18  O2  UNL     1     -13.921 -28.297  23.177  1.00  0.00    -0.256 OA
BRANCH  17  19
HETATM   19  O3  UNL     1     -15.770 -27.463  24.098  1.00  0.00    -0.201 OA
BRANCH  19  20
HETATM   20  N7  UNL     1     -15.982 -28.621  24.848  1.00  0.00    -0.302 N 
ATOM     21  H72 UNL     1     -15.926 -29.526  24.380  1.00  0.00     0.184 HD
ATOM     22  H71 UNL     1     -16.190 -28.562  25.845  1.00  0.00     0.184 HD
ENDBRANCH  19  20
ENDBRANCH  17  19
ENDBRANCH   1  17
BRANCH   2  23
HETATM   23  N5  UNL     1     -14.504 -24.735  23.574  1.00  0.00    -0.253 N 
HETATM   24  C5  UNL     1     -14.138 -23.388  23.850  1.00  0.00     0.347 C 
HETATM   25  N6  UNL     1     -13.876 -22.966  25.177  1.00  0.00    -0.038 NA
HETATM   26  O1  UNL     1     -14.034 -22.525  22.938  1.00  0.00    -0.249 OA
ATOM     27  H5  UNL     1     -14.566 -25.370  24.369  1.00  0.00     0.191 HD
ENDBRANCH   2  23
TORSDOF 6
ENDMDL
