MODEL 1
REMARK VINA RESULT: -9.112955714      0.000      0.000
REMARK  6 active torsions:
REMARK  status: ('A' for Active; 'I' for Inactive)
REMARK    1  A    between atoms: C5_5  and  C6_6 
REMARK    2  A    between atoms: C8_9  and  S2_10 
REMARK    3  A    between atoms: S2_10  and  C9_11 
REMARK    4  A    between atoms: C9_11  and  C10_12 
REMARK       I    between atoms: C10_12  and  N1_14 
REMARK    5  A    between atoms: N1_14  and  C11_16 
REMARK    6  A    between atoms: C14_19  and  N2_20 
ROOT
HETATM    1  C9  UNL     1     -24.678  11.331 -38.805  1.00  0.00     0.184 C 
ENDROOT
BRANCH   1   2
HETATM    2  S2  UNL     1     -22.974  11.588 -38.352  1.00  0.00    -0.096 SA
BRANCH   2   3
HETATM    3  C8  UNL     1     -22.099  12.272 -39.799  1.00  0.00     0.112 A 
HETATM    4  S1  UNL     1     -20.988  11.701 -40.915  1.00  0.00    -0.075 SA
HETATM    5  C7  UNL     1     -20.774  13.146 -41.855  1.00  0.00     0.082 A 
HETATM    6  C6  UNL     1     -21.623  14.004 -41.196  1.00  0.00     0.051 A 
HETATM    7  N3  UNL     1     -22.268  13.548 -40.180  1.00  0.00    -0.344 N 
ATOM      8  H3  UNL     1     -22.907  14.155 -39.666  1.00  0.00     0.167 HD
BRANCH   6   9
HETATM    9  C5  UNL     1     -21.756  15.440 -41.605  1.00  0.00     0.009 A 
HETATM   10  C4  UNL     1     -21.058  16.443 -40.998  1.00  0.00     0.015 A 
HETATM   11  C3  UNL     1     -21.252  17.777 -41.404  1.00  0.00     0.007 A 
HETATM   12  C2  UNL     1     -22.138  18.121 -42.411  1.00  0.00    -0.061 A 
HETATM   13  C1  UNL     1     -22.334  19.538 -42.838  1.00  0.00     0.048 C 
HETATM   14  C23 UNL     1     -22.827  17.091 -43.006  1.00  0.00     0.026 A 
HETATM   15  C22 UNL     1     -22.636  15.788 -42.608  1.00  0.00     0.024 A 
HETATM   16 BR1  UNL     1     -23.640  14.374 -43.433  1.00  0.00    -0.050 Br
ENDBRANCH   6   9
ENDBRANCH   2   3
ENDBRANCH   1   2
BRANCH   1  17
HETATM   17  C10 UNL     1     -24.784  11.094 -40.282  1.00  0.00     0.227 C 
HETATM   18  O1  UNL     1     -24.966  12.066 -41.051  1.00  0.00    -0.273 OA
HETATM   19  N1  UNL     1     -24.650   9.756 -40.700  1.00  0.00    -0.356 N 
ATOM     20  H1  UNL     1     -24.568   9.046 -39.973  1.00  0.00     0.162 HD
BRANCH  19  21
HETATM   21  C11 UNL     1     -24.618   9.316 -42.034  1.00  0.00     0.084 C 
HETATM   22  C12 UNL     1     -25.195  10.149 -43.092  1.00  0.00     0.027 C 
HETATM   23  C13 UNL     1     -24.343  10.159 -44.358  1.00  0.00     0.038 C 
HETATM   24  C14 UNL     1     -23.869   8.814 -44.790  1.00  0.00     0.223 C 
HETATM   25  C20 UNL     1     -23.394   7.975 -43.626  1.00  0.00     0.038 C 
HETATM   26  C21 UNL     1     -23.177   8.879 -42.407  1.00  0.00     0.027 C 
BRANCH  24  27
HETATM   27  N2  UNL     1     -22.809   8.992 -45.769  1.00  0.00     0.093 N 
HETATM   28  C15 UNL     1     -21.635   8.204 -45.485  1.00  0.00     0.273 C 
HETATM   29  C16 UNL     1     -20.842   7.921 -46.751  1.00  0.00     0.030 C 
HETATM   30  C17 UNL     1     -21.600   6.854 -47.504  1.00  0.00     0.003 C 
HETATM   31  C18 UNL     1     -23.062   7.200 -47.448  1.00  0.00     0.030 C 
HETATM   32  C19 UNL     1     -23.328   8.615 -47.066  1.00  0.00     0.273 C 
ENDBRANCH  24  27
ENDBRANCH  19  21
ENDBRANCH   1  17
TORSDOF 6
ENDMDL
MODEL 2
REMARK VINA RESULT: -8.937814077      0.774      1.056
REMARK  6 active torsions:
REMARK  status: ('A' for Active; 'I' for Inactive)
REMARK    1  A    between atoms: C5_5  and  C6_6 
REMARK    2  A    between atoms: C8_9  and  S2_10 
REMARK    3  A    between atoms: S2_10  and  C9_11 
REMARK    4  A    between atoms: C9_11  and  C10_12 
REMARK       I    between atoms: C10_12  and  N1_14 
REMARK    5  A    between atoms: N1_14  and  C11_16 
REMARK    6  A    between atoms: C14_19  and  N2_20 
ROOT
HETATM    1  C9  UNL     1     -24.854  11.204 -39.232  1.00  0.00     0.184 C 
ENDROOT
BRANCH   1   2
HETATM    2  S2  UNL     1     -23.210  11.508 -38.614  1.00  0.00    -0.096 SA
BRANCH   2   3
HETATM    3  C8  UNL     1     -22.226  12.248 -39.960  1.00  0.00     0.112 A 
HETATM    4  S1  UNL     1     -21.012  11.726 -40.991  1.00  0.00    -0.075 SA
HETATM    5  C7  UNL     1     -20.744  13.200 -41.868  1.00  0.00     0.082 A 
HETATM    6  C6  UNL     1     -21.662  14.026 -41.262  1.00  0.00     0.051 A 
HETATM    7  N3  UNL     1     -22.384  13.531 -40.319  1.00  0.00    -0.344 N 
ATOM      8  H3  UNL     1     -23.075  14.113 -39.846  1.00  0.00     0.167 HD
BRANCH   6   9
HETATM    9  C5  UNL     1     -21.784  15.472 -41.641  1.00  0.00     0.009 A 
HETATM   10  C4  UNL     1     -21.078  16.456 -41.014  1.00  0.00     0.015 A 
HETATM   11  C3  UNL     1     -21.263  17.800 -41.392  1.00  0.00     0.007 A 
HETATM   12  C2  UNL     1     -22.146  18.171 -42.391  1.00  0.00    -0.061 A 
HETATM   13  C1  UNL     1     -22.332  19.598 -42.788  1.00  0.00     0.048 C 
HETATM   14  C23 UNL     1     -22.843  17.159 -43.007  1.00  0.00     0.026 A 
HETATM   15  C22 UNL     1     -22.661  15.846 -42.637  1.00  0.00     0.024 A 
HETATM   16 BR1  UNL     1     -23.676  14.457 -43.490  1.00  0.00    -0.050 Br
ENDBRANCH   6   9
ENDBRANCH   2   3
ENDBRANCH   1   2
BRANCH   1  17
HETATM   17  C10 UNL     1     -24.818  11.044 -40.723  1.00  0.00     0.227 C 
HETATM   18  O1  UNL     1     -25.157  12.004 -41.453  1.00  0.00    -0.273 OA
HETATM   19  N1  UNL     1     -24.377   9.794 -41.196  1.00  0.00    -0.356 N 
ATOM     20  H1  UNL     1     -24.190   9.072 -40.501  1.00  0.00     0.162 HD
BRANCH  19  21
HETATM   21  C11 UNL     1     -24.173   9.456 -42.544  1.00  0.00     0.084 C 
HETATM   22  C12 UNL     1     -23.425  10.362 -43.420  1.00  0.00     0.027 C 
HETATM   23  C13 UNL     1     -22.479   9.619 -44.360  1.00  0.00     0.038 C 
HETATM   24  C14 UNL     1     -23.087   8.436 -45.032  1.00  0.00     0.223 C 
HETATM   25  C20 UNL     1     -23.934   7.614 -44.088  1.00  0.00     0.038 C 
HETATM   26  C21 UNL     1     -23.611   8.013 -42.642  1.00  0.00     0.027 C 
BRANCH  24  27
HETATM   27  N2  UNL     1     -22.018   7.633 -45.604  1.00  0.00     0.093 N 
HETATM   28  C15 UNL     1     -22.494   6.617 -46.510  1.00  0.00     0.273 C 
HETATM   29  C16 UNL     1     -21.423   6.233 -47.519  1.00  0.00     0.030 C 
HETATM   30  C17 UNL     1     -21.358   7.357 -48.525  1.00  0.00     0.003 C 
HETATM   31  C18 UNL     1     -21.422   8.656 -47.771  1.00  0.00     0.030 C 
HETATM   32  C19 UNL     1     -21.124   8.520 -46.317  1.00  0.00     0.273 C 
ENDBRANCH  24  27
ENDBRANCH  19  21
ENDBRANCH   1  17
TORSDOF 6
ENDMDL
MODEL 3
REMARK VINA RESULT: -8.854866774      1.027      1.074
REMARK  6 active torsions:
REMARK  status: ('A' for Active; 'I' for Inactive)
REMARK    1  A    between atoms: C5_5  and  C6_6 
REMARK    2  A    between atoms: C8_9  and  S2_10 
REMARK    3  A    between atoms: S2_10  and  C9_11 
REMARK    4  A    between atoms: C9_11  and  C10_12 
REMARK       I    between atoms: C10_12  and  N1_14 
REMARK    5  A    between atoms: N1_14  and  C11_16 
REMARK    6  A    between atoms: C14_19  and  N2_20 
ROOT
HETATM    1  C9  UNL     1     -24.795  11.603 -38.865  1.00  0.00     0.184 C 
ENDROOT
BRANCH   1   2
HETATM    2  S2  UNL     1     -23.067  11.630 -38.430  1.00  0.00    -0.096 SA
BRANCH   2   3
HETATM    3  C8  UNL     1     -22.138  12.327 -39.836  1.00  0.00     0.112 A 
HETATM    4  S1  UNL     1     -20.963  11.775 -40.895  1.00  0.00    -0.075 SA
HETATM    5  C7  UNL     1     -20.734  13.221 -41.830  1.00  0.00     0.082 A 
HETATM    6  C6  UNL     1     -21.632  14.064 -41.217  1.00  0.00     0.051 A 
HETATM    7  N3  UNL     1     -22.315  13.598 -40.231  1.00  0.00    -0.344 N 
ATOM      8  H3  UNL     1     -22.991  14.192 -39.751  1.00  0.00     0.167 HD
BRANCH   6   9
HETATM    9  C5  UNL     1     -21.775  15.495 -41.638  1.00  0.00     0.009 A 
HETATM   10  C4  UNL     1     -21.081  16.507 -41.042  1.00  0.00     0.015 A 
HETATM   11  C3  UNL     1     -21.285  17.837 -41.460  1.00  0.00     0.007 A 
HETATM   12  C2  UNL     1     -22.176  18.166 -42.466  1.00  0.00    -0.061 A 
HETATM   13  C1  UNL     1     -22.382  19.578 -42.905  1.00  0.00     0.048 C 
HETATM   14  C23 UNL     1     -22.861  17.127 -43.049  1.00  0.00     0.026 A 
HETATM   15  C22 UNL     1     -22.660  15.828 -42.641  1.00  0.00     0.024 A 
HETATM   16 BR1  UNL     1     -23.658  14.401 -43.450  1.00  0.00    -0.050 Br
ENDBRANCH   6   9
ENDBRANCH   2   3
ENDBRANCH   1   2
BRANCH   1  17
HETATM   17  C10 UNL     1     -25.053  10.518 -39.869  1.00  0.00     0.227 C 
HETATM   18  O1  UNL     1     -25.881   9.618 -39.602  1.00  0.00    -0.273 OA
HETATM   19  N1  UNL     1     -24.330  10.612 -41.073  1.00  0.00    -0.356 N 
ATOM     20  H1  UNL     1     -23.637  11.356 -41.145  1.00  0.00     0.162 HD
BRANCH  19  21
HETATM   21  C11 UNL     1     -24.482   9.766 -42.185  1.00  0.00     0.084 C 
HETATM   22  C12 UNL     1     -24.864  10.327 -43.483  1.00  0.00     0.027 C 
HETATM   23  C13 UNL     1     -24.103   9.691 -44.643  1.00  0.00     0.038 C 
HETATM   24  C14 UNL     1     -24.029   8.203 -44.586  1.00  0.00     0.223 C 
HETATM   25  C20 UNL     1     -23.742   7.699 -43.190  1.00  0.00     0.038 C 
HETATM   26  C21 UNL     1     -23.231   8.860 -42.328  1.00  0.00     0.027 C 
BRANCH  24  27
HETATM   27  N2  UNL     1     -23.008   7.758 -45.520  1.00  0.00     0.093 N 
HETATM   28  C15 UNL     1     -21.944   7.017 -44.888  1.00  0.00     0.273 C 
HETATM   29  C16 UNL     1     -21.268   6.075 -45.872  1.00  0.00     0.030 C 
HETATM   30  C17 UNL     1     -22.208   4.911 -46.069  1.00  0.00     0.003 C 
HETATM   31  C18 UNL     1     -23.601   5.460 -46.202  1.00  0.00     0.030 C 
HETATM   32  C19 UNL     1     -23.644   6.917 -46.511  1.00  0.00     0.273 C 
ENDBRANCH  24  27
ENDBRANCH  19  21
ENDBRANCH   1  17
TORSDOF 6
ENDMDL
MODEL 4
REMARK VINA RESULT: -8.840499849      1.269      1.532
REMARK  6 active torsions:
REMARK  status: ('A' for Active; 'I' for Inactive)
REMARK    1  A    between atoms: C5_5  and  C6_6 
REMARK    2  A    between atoms: C8_9  and  S2_10 
REMARK    3  A    between atoms: S2_10  and  C9_11 
REMARK    4  A    between atoms: C9_11  and  C10_12 
REMARK       I    between atoms: C10_12  and  N1_14 
REMARK    5  A    between atoms: N1_14  and  C11_16 
REMARK    6  A    between atoms: C14_19  and  N2_20 
ROOT
HETATM    1  C9  UNL     1     -23.791  11.625 -38.767  1.00  0.00     0.184 C 
ENDROOT
BRANCH   1   2
HETATM    2  S2  UNL     1     -22.057  12.029 -38.689  1.00  0.00    -0.096 SA
BRANCH   2   3
HETATM    3  C8  UNL     1     -21.589  12.830 -40.259  1.00  0.00     0.112 A 
HETATM    4  S1  UNL     1     -20.749  12.380 -41.637  1.00  0.00    -0.075 SA
HETATM    5  C7  UNL     1     -20.840  13.875 -42.516  1.00  0.00     0.082 A 
HETATM    6  C6  UNL     1     -21.551  14.648 -41.628  1.00  0.00     0.051 A 
HETATM    7  N3  UNL     1     -21.910  14.108 -40.517  1.00  0.00    -0.344 N 
ATOM      8  H3  UNL     1     -22.438  14.650 -39.832  1.00  0.00     0.167 HD
BRANCH   6   9
HETATM    9  C5  UNL     1     -21.851  16.089 -41.911  1.00  0.00     0.009 A 
HETATM   10  C4  UNL     1     -22.669  16.482 -42.929  1.00  0.00     0.015 A 
HETATM   11  C3  UNL     1     -22.884  17.854 -43.166  1.00  0.00     0.007 A 
HETATM   12  C2  UNL     1     -22.289  18.838 -42.396  1.00  0.00    -0.061 A 
HETATM   13  C1  UNL     1     -22.527  20.290 -42.650  1.00  0.00     0.048 C 
HETATM   14  C23 UNL     1     -21.472  18.414 -41.375  1.00  0.00     0.026 A 
HETATM   15  C22 UNL     1     -21.263  17.074 -41.145  1.00  0.00     0.024 A 
HETATM   16 BR1  UNL     1     -20.086  16.513 -39.735  1.00  0.00    -0.050 Br
ENDBRANCH   6   9
ENDBRANCH   2   3
ENDBRANCH   1   2
BRANCH   1  17
HETATM   17  C10 UNL     1     -24.170  11.270 -40.175  1.00  0.00     0.227 C 
HETATM   18  O1  UNL     1     -24.623  12.158 -40.933  1.00  0.00    -0.273 OA
HETATM   19  N1  UNL     1     -23.963   9.928 -40.546  1.00  0.00    -0.356 N 
ATOM     20  H1  UNL     1     -23.648   9.286 -39.820  1.00  0.00     0.162 HD
BRANCH  19  21
HETATM   21  C11 UNL     1     -24.155   9.398 -41.833  1.00  0.00     0.084 C 
HETATM   22  C12 UNL     1     -25.249   9.893 -42.672  1.00  0.00     0.027 C 
HETATM   23  C13 UNL     1     -24.837  10.060 -44.132  1.00  0.00     0.038 C 
HETATM   24  C14 UNL     1     -24.073   8.909 -44.691  1.00  0.00     0.223 C 
HETATM   25  C20 UNL     1     -23.039   8.384 -43.720  1.00  0.00     0.038 C 
HETATM   26  C21 UNL     1     -22.814   9.422 -42.613  1.00  0.00     0.027 C 
BRANCH  24  27
HETATM   27  N2  UNL     1     -23.452   9.330 -45.936  1.00  0.00     0.093 N 
HETATM   28  C15 UNL     1     -22.023   9.133 -45.952  1.00  0.00     0.273 C 
HETATM   29  C16 UNL     1     -21.504   8.983 -47.373  1.00  0.00     0.030 C 
HETATM   30  C17 UNL     1     -21.884   7.594 -47.826  1.00  0.00     0.003 C 
HETATM   31  C18 UNL     1     -23.296   7.333 -47.380  1.00  0.00     0.030 C 
HETATM   32  C19 UNL     1     -24.045   8.567 -47.013  1.00  0.00     0.273 C 
ENDBRANCH  24  27
ENDBRANCH  19  21
ENDBRANCH   1  17
TORSDOF 6
ENDMDL
MODEL 5
REMARK VINA RESULT: -8.770538411      1.794      2.123
REMARK  6 active torsions:
REMARK  status: ('A' for Active; 'I' for Inactive)
REMARK    1  A    between atoms: C5_5  and  C6_6 
REMARK    2  A    between atoms: C8_9  and  S2_10 
REMARK    3  A    between atoms: S2_10  and  C9_11 
REMARK    4  A    between atoms: C9_11  and  C10_12 
REMARK       I    between atoms: C10_12  and  N1_14 
REMARK    5  A    between atoms: N1_14  and  C11_16 
REMARK    6  A    between atoms: C14_19  and  N2_20 
ROOT
HETATM    1  C9  UNL     1     -24.855  11.336 -39.197  1.00  0.00     0.184 C 
ENDROOT
BRANCH   1   2
HETATM    2  S2  UNL     1     -23.202  11.645 -38.608  1.00  0.00    -0.096 SA
BRANCH   2   3
HETATM    3  C8  UNL     1     -22.236  12.365 -39.977  1.00  0.00     0.112 A 
HETATM    4  S1  UNL     1     -21.054  11.822 -41.033  1.00  0.00    -0.075 SA
HETATM    5  C7  UNL     1     -20.782  13.290 -41.920  1.00  0.00     0.082 A 
HETATM    6  C6  UNL     1     -21.672  14.132 -41.296  1.00  0.00     0.051 A 
HETATM    7  N3  UNL     1     -22.381  13.651 -40.336  1.00  0.00    -0.344 N 
ATOM      8  H3  UNL     1     -23.052  14.244 -39.849  1.00  0.00     0.167 HD
BRANCH   6   9
HETATM    9  C5  UNL     1     -21.779  15.578 -41.676  1.00  0.00     0.009 A 
HETATM   10  C4  UNL     1     -21.040  16.552 -41.070  1.00  0.00     0.015 A 
HETATM   11  C3  UNL     1     -21.212  17.898 -41.447  1.00  0.00     0.007 A 
HETATM   12  C2  UNL     1     -22.115  18.282 -42.423  1.00  0.00    -0.061 A 
HETATM   13  C1  UNL     1     -22.286  19.711 -42.820  1.00  0.00     0.048 C 
HETATM   14  C23 UNL     1     -22.845  17.280 -43.018  1.00  0.00     0.026 A 
HETATM   15  C22 UNL     1     -22.677  15.966 -42.648  1.00  0.00     0.024 A 
HETATM   16 BR1  UNL     1     -23.737  14.592 -43.471  1.00  0.00    -0.050 Br
ENDBRANCH   6   9
ENDBRANCH   2   3
ENDBRANCH   1   2
BRANCH   1  17
HETATM   17  C10 UNL     1     -24.802  10.710 -40.560  1.00  0.00     0.227 C 
HETATM   18  O1  UNL     1     -25.167  11.374 -41.557  1.00  0.00    -0.273 OA
HETATM   19  N1  UNL     1     -24.317   9.389 -40.610  1.00  0.00    -0.356 N 
ATOM     20  H1  UNL     1     -24.112   8.934 -39.721  1.00  0.00     0.162 HD
BRANCH  19  21
HETATM   21  C11 UNL     1     -24.092   8.646 -41.780  1.00  0.00     0.084 C 
HETATM   22  C12 UNL     1     -23.120   9.117 -42.770  1.00  0.00     0.027 C 
HETATM   23  C13 UNL     1     -22.278   7.984 -43.350  1.00  0.00     0.038 C 
HETATM   24  C14 UNL     1     -23.061   6.779 -43.746  1.00  0.00     0.223 C 
HETATM   25  C20 UNL     1     -24.118   6.423 -42.725  1.00  0.00     0.038 C 
HETATM   26  C21 UNL     1     -23.822   7.162 -41.413  1.00  0.00     0.027 C 
BRANCH  24  27
HETATM   27  N2  UNL     1     -22.136   5.674 -43.943  1.00  0.00     0.093 N 
HETATM   28  C15 UNL     1     -22.679   4.400 -43.539  1.00  0.00     0.273 C 
HETATM   29  C16 UNL     1     -22.009   3.256 -44.284  1.00  0.00     0.030 C 
HETATM   30  C17 UNL     1     -22.579   3.261 -45.682  1.00  0.00     0.003 C 
HETATM   31  C18 UNL     1     -22.641   4.689 -46.149  1.00  0.00     0.030 C 
HETATM   32  C19 UNL     1     -21.797   5.619 -45.348  1.00  0.00     0.273 C 
ENDBRANCH  24  27
ENDBRANCH  19  21
ENDBRANCH   1  17
TORSDOF 6
ENDMDL
