MODEL 1
REMARK VINA RESULT: -7.844764217      0.000      0.000
REMARK  10 active torsions:
REMARK  status: ('A' for Active; 'I' for Inactive)
REMARK    1  A    between atoms: C2_2  and  O1_3 
REMARK    2  A    between atoms: C2_2  and  C3_5 
REMARK    3  A    between atoms: C3_5  and  N1_6 
REMARK    4  A    between atoms: C3_5  and  C15_41 
REMARK       I    between atoms: N1_6  and  C4_8 
REMARK       I    between atoms: C4_8  and  N2_10 
REMARK    5  A    between atoms: C7_13  and  N3_14 
REMARK       I    between atoms: N3_14  and  C8_16 
REMARK    6  A    between atoms: C8_16  and  C9_18 
REMARK    7  A    between atoms: C9_18  and  C10_19 
REMARK    8  A    between atoms: C12_31  and  N9_32 
REMARK    9  A    between atoms: C15_41  and  O5_42 
REMARK   10  A    between atoms: N11_44  and  O6_46 
ROOT
HETATM    1  N3  UNL     1     -33.647 -24.389  17.990  1.00  0.00    -0.323 N 
ATOM      2  H3  UNL     1     -33.657 -24.518  16.978  1.00  0.00     0.169 HD
HETATM    3  C8  UNL     1     -34.030 -25.455  18.839  1.00  0.00     0.277 C 
HETATM    4  O3  UNL     1     -34.061 -25.433  20.071  1.00  0.00    -0.269 OA
ENDROOT
BRANCH   3   5
HETATM    5  C9  UNL     1     -34.438 -26.745  18.183  1.00  0.00     0.348 C 
HETATM    6  N8  UNL     1     -34.678 -27.792  19.127  1.00  0.00     0.005 N 
HETATM    7  C12 UNL     1     -35.822 -28.535  18.698  1.00  0.00     0.487 C 
ATOM      8  H82 UNL     1     -33.859 -28.382  19.273  1.00  0.00     0.284 HD
ATOM      9  H81 UNL     1     -34.771 -27.445  20.081  1.00  0.00     0.284 HD
HETATM   10  N10 UNL     1     -36.336 -27.882  17.513  1.00  0.00    -0.308 N 
HETATM   11  C13 UNL     1     -35.741 -26.597  17.492  1.00  0.00     0.275 C 
ATOM     12  H10 UNL     1     -36.991 -28.268  16.833  1.00  0.00     0.166 HD
HETATM   13  O4  UNL     1     -36.234 -25.555  16.986  1.00  0.00    -0.270 OA
BRANCH   5  14
HETATM   14  C10 UNL     1     -33.424 -27.140  17.142  1.00  0.00     0.170 A 
HETATM   15  N4  UNL     1     -33.677 -27.827  16.015  1.00  0.00    -0.269 N 
HETATM   16  N5  UNL     1     -32.531 -27.963  15.387  1.00  0.00    -0.225 N 
ATOM     17  H4  UNL     1     -34.585 -28.175  15.707  1.00  0.00     0.190 HD
HETATM   18  N6  UNL     1     -31.552 -27.397  16.052  1.00  0.00    -0.223 N 
ATOM     19  H5  UNL     1     -32.418 -28.447  14.497  1.00  0.00     0.210 HD
HETATM   20  C11 UNL     1     -30.159 -27.359  15.648  1.00  0.00     0.202 C 
HETATM   21  N7  UNL     1     -32.111 -26.889  17.139  1.00  0.00    -0.267 N 
ATOM     22  H7  UNL     1     -31.613 -26.379  17.868  1.00  0.00     0.190 HD
ENDBRANCH   5  14
BRANCH   7  23
HETATM   23  N9  UNL     1     -35.464 -29.920  18.457  1.00  0.00    -0.033 N 
ATOM     24  H93 UNL     1     -34.714 -30.005  17.772  1.00  0.00     0.278 HD
ATOM     25  H92 UNL     1     -34.985 -30.333  19.258  1.00  0.00     0.278 HD
ATOM     26  H91 UNL     1     -36.288 -30.458  18.188  1.00  0.00     0.278 HD
ENDBRANCH   7  23
ENDBRANCH   3   5
BRANCH   1  27
HETATM   27  C7  UNL     1     -33.251 -23.146  18.538  1.00  0.00     0.052 A 
HETATM   28  C6  UNL     1     -34.189 -22.154  18.856  1.00  0.00     0.048 A 
HETATM   29  C5  UNL     1     -33.452 -21.107  19.356  1.00  0.00     0.103 A 
HETATM   30  N2  UNL     1     -32.160 -21.375  19.368  1.00  0.00    -0.283 N 
HETATM   31  C4  UNL     1     -31.078 -20.543  19.812  1.00  0.00     0.327 C 
HETATM   32  C14 UNL     1     -32.033 -22.634  18.863  1.00  0.00     0.130 A 
HETATM   33  N1  UNL     1     -31.326 -19.249  20.320  1.00  0.00    -0.328 N 
HETATM   34  O2  UNL     1     -29.894 -20.988  19.741  1.00  0.00    -0.246 OA
ATOM     35  H1  UNL     1     -32.282 -18.898  20.374  1.00  0.00     0.165 HD
BRANCH  33  36
HETATM   36  C3  UNL     1     -30.233 -18.427  20.760  1.00  0.00     0.191 C 
BRANCH  36  37
HETATM   37  C2  UNL     1     -30.663 -17.287  21.653  1.00  0.00     0.144 C 
HETATM   38  C1  UNL     1     -31.182 -16.109  20.882  1.00  0.00     0.042 C 
BRANCH  37  39
HETATM   39  O1  UNL     1     -29.577 -16.893  22.428  1.00  0.00    -0.393 OA
ATOM     40  H1  UNL     1     -29.087 -17.659  22.701  1.00  0.00     0.210 HD
ENDBRANCH  37  39
ENDBRANCH  36  37
BRANCH  36  41
HETATM   41  C15 UNL     1     -29.554 -17.890  19.528  1.00  0.00     0.161 C 
HETATM   42  N11 UNL     1     -30.187 -17.942  18.413  1.00  0.00    -0.249 N 
ATOM     43  H11 UNL     1     -31.126 -18.338  18.368  1.00  0.00     0.196 HD
BRANCH  41  44
HETATM   44  O5  UNL     1     -28.285 -17.354  19.587  1.00  0.00    -0.346 OA
ATOM     45  H5  UNL     1     -27.905 -16.903  18.842  1.00  0.00     0.219 HD
ENDBRANCH  41  44
BRANCH  42  46
HETATM   46  O6  UNL     1     -29.582 -17.456  17.284  1.00  0.00    -0.288 OA
ATOM     47  H6  UNL     1     -30.073 -16.880  16.710  1.00  0.00     0.244 HD
ENDBRANCH  42  46
ENDBRANCH  36  41
ENDBRANCH  33  36
ENDBRANCH   1  27
TORSDOF 10
ENDMDL
MODEL 2
REMARK VINA RESULT: -7.438131940      1.876      2.523
REMARK  10 active torsions:
REMARK  status: ('A' for Active; 'I' for Inactive)
REMARK    1  A    between atoms: C2_2  and  O1_3 
REMARK    2  A    between atoms: C2_2  and  C3_5 
REMARK    3  A    between atoms: C3_5  and  N1_6 
REMARK    4  A    between atoms: C3_5  and  C15_41 
REMARK       I    between atoms: N1_6  and  C4_8 
REMARK       I    between atoms: C4_8  and  N2_10 
REMARK    5  A    between atoms: C7_13  and  N3_14 
REMARK       I    between atoms: N3_14  and  C8_16 
REMARK    6  A    between atoms: C8_16  and  C9_18 
REMARK    7  A    between atoms: C9_18  and  C10_19 
REMARK    8  A    between atoms: C12_31  and  N9_32 
REMARK    9  A    between atoms: C15_41  and  O5_42 
REMARK   10  A    between atoms: N11_44  and  O6_46 
ROOT
HETATM    1  N3  UNL     1     -34.618 -24.458  19.729  1.00  0.00    -0.323 N 
ATOM      2  H3  UNL     1     -34.948 -24.875  20.600  1.00  0.00     0.169 HD
HETATM    3  C8  UNL     1     -34.802 -25.144  18.506  1.00  0.00     0.277 C 
HETATM    4  O3  UNL     1     -34.454 -24.753  17.389  1.00  0.00    -0.269 OA
ENDROOT
BRANCH   3   5
HETATM    5  C9  UNL     1     -35.488 -26.480  18.562  1.00  0.00     0.348 C 
HETATM    6  N8  UNL     1     -34.644 -27.514  19.076  1.00  0.00     0.005 N 
HETATM    7  C12 UNL     1     -35.424 -28.353  19.930  1.00  0.00     0.487 C 
ATOM      8  H82 UNL     1     -34.170 -28.036  18.339  1.00  0.00     0.284 HD
ATOM      9  H81 UNL     1     -33.813 -27.146  19.541  1.00  0.00     0.284 HD
HETATM   10  N10 UNL     1     -36.751 -27.778  20.000  1.00  0.00    -0.308 N 
HETATM   11  C13 UNL     1     -36.621 -26.453  19.517  1.00  0.00     0.275 C 
ATOM     12  H10 UNL     1     -37.602 -28.233  20.329  1.00  0.00     0.166 HD
HETATM   13  O4  UNL     1     -37.332 -25.467  19.845  1.00  0.00    -0.270 OA
BRANCH   5  14
HETATM   14  C10 UNL     1     -36.053 -26.829  17.210  1.00  0.00     0.170 A 
HETATM   15  N4  UNL     1     -35.433 -27.542  16.255  1.00  0.00    -0.269 N 
HETATM   16  N5  UNL     1     -36.261 -27.620  15.239  1.00  0.00    -0.225 N 
ATOM     17  H4  UNL     1     -34.497 -27.946  16.310  1.00  0.00     0.190 HD
HETATM   18  N6  UNL     1     -37.386 -26.993  15.491  1.00  0.00    -0.223 N 
ATOM     19  H5  UNL     1     -36.056 -28.105  14.366  1.00  0.00     0.210 HD
HETATM   20  C11 UNL     1     -38.517 -26.880  14.591  1.00  0.00     0.202 C 
HETATM   21  N7  UNL     1     -37.252 -26.505  16.714  1.00  0.00    -0.267 N 
ATOM     22  H7  UNL     1     -37.959 -25.961  17.207  1.00  0.00     0.190 HD
ENDBRANCH   5  14
BRANCH   7  23
HETATM   23  N9  UNL     1     -35.436 -29.714  19.427  1.00  0.00    -0.033 N 
ATOM     24  H93 UNL     1     -36.327 -29.950  18.990  1.00  0.00     0.278 HD
ATOM     25  H92 UNL     1     -34.833 -29.823  18.611  1.00  0.00     0.278 HD
ATOM     26  H91 UNL     1     -35.192 -30.370  20.171  1.00  0.00     0.278 HD
ENDBRANCH   7  23
ENDBRANCH   3   5
BRANCH   1  27
HETATM   27  C7  UNL     1     -33.980 -23.195  19.751  1.00  0.00     0.052 A 
HETATM   28  C6  UNL     1     -34.513 -22.093  19.069  1.00  0.00     0.048 A 
HETATM   29  C5  UNL     1     -33.639 -21.060  19.313  1.00  0.00     0.103 A 
HETATM   30  N2  UNL     1     -32.631 -21.437  20.077  1.00  0.00    -0.283 N 
HETATM   31  C4  UNL     1     -31.525 -20.654  20.549  1.00  0.00     0.327 C 
HETATM   32  C14 UNL     1     -32.839 -22.755  20.349  1.00  0.00     0.130 A 
HETATM   33  N1  UNL     1     -31.409 -19.289  20.204  1.00  0.00    -0.328 N 
HETATM   34  O2  UNL     1     -30.651 -21.206  21.281  1.00  0.00    -0.246 OA
ATOM     35  H1  UNL     1     -32.117 -18.851  19.614  1.00  0.00     0.165 HD
BRANCH  33  36
HETATM   36  C3  UNL     1     -30.296 -18.518  20.682  1.00  0.00     0.191 C 
BRANCH  36  37
HETATM   37  C2  UNL     1     -30.699 -17.398  21.613  1.00  0.00     0.144 C 
HETATM   38  C1  UNL     1     -31.220 -16.195  20.882  1.00  0.00     0.042 C 
BRANCH  37  39
HETATM   39  O1  UNL     1     -29.596 -17.034  22.379  1.00  0.00    -0.393 OA
ATOM     40  H1  UNL     1     -29.734 -17.301  23.280  1.00  0.00     0.210 HD
ENDBRANCH  37  39
ENDBRANCH  36  37
BRANCH  36  41
HETATM   41  C15 UNL     1     -29.589 -17.958  19.476  1.00  0.00     0.161 C 
HETATM   42  N11 UNL     1     -30.203 -17.974  18.349  1.00  0.00    -0.249 N 
ATOM     43  H11 UNL     1     -31.145 -18.359  18.278  1.00  0.00     0.196 HD
BRANCH  41  44
HETATM   44  O5  UNL     1     -28.315 -17.438  19.571  1.00  0.00    -0.346 OA
ATOM     45  H5  UNL     1     -28.029 -16.973  20.348  1.00  0.00     0.219 HD
ENDBRANCH  41  44
BRANCH  42  46
HETATM   46  O6  UNL     1     -29.572 -17.468  17.244  1.00  0.00    -0.288 OA
ATOM     47  H6  UNL     1     -29.008 -18.037  16.735  1.00  0.00     0.244 HD
ENDBRANCH  42  46
ENDBRANCH  36  41
ENDBRANCH  33  36
ENDBRANCH   1  27
TORSDOF 10
ENDMDL
MODEL 3
REMARK VINA RESULT: -7.406033781      1.692      2.182
REMARK  10 active torsions:
REMARK  status: ('A' for Active; 'I' for Inactive)
REMARK    1  A    between atoms: C2_2  and  O1_3 
REMARK    2  A    between atoms: C2_2  and  C3_5 
REMARK    3  A    between atoms: C3_5  and  N1_6 
REMARK    4  A    between atoms: C3_5  and  C15_41 
REMARK       I    between atoms: N1_6  and  C4_8 
REMARK       I    between atoms: C4_8  and  N2_10 
REMARK    5  A    between atoms: C7_13  and  N3_14 
REMARK       I    between atoms: N3_14  and  C8_16 
REMARK    6  A    between atoms: C8_16  and  C9_18 
REMARK    7  A    between atoms: C9_18  and  C10_19 
REMARK    8  A    between atoms: C12_31  and  N9_32 
REMARK    9  A    between atoms: C15_41  and  O5_42 
REMARK   10  A    between atoms: N11_44  and  O6_46 
ROOT
HETATM    1  N3  UNL     1     -35.399 -23.689  18.215  1.00  0.00    -0.323 N 
ATOM      2  H3  UNL     1     -36.406 -23.540  18.147  1.00  0.00     0.169 HD
HETATM    3  C8  UNL     1     -34.840 -24.918  17.792  1.00  0.00     0.277 C 
HETATM    4  O3  UNL     1     -33.647 -25.226  17.819  1.00  0.00    -0.269 OA
ENDROOT
BRANCH   3   5
HETATM    5  C9  UNL     1     -35.786 -25.956  17.255  1.00  0.00     0.348 C 
HETATM    6  N8  UNL     1     -36.914 -26.170  18.107  1.00  0.00     0.005 N 
HETATM    7  C12 UNL     1     -38.074 -26.333  17.289  1.00  0.00     0.487 C 
ATOM      8  H82 UNL     1     -36.776 -26.948  18.751  1.00  0.00     0.284 HD
ATOM      9  H81 UNL     1     -37.024 -25.432  18.803  1.00  0.00     0.284 HD
HETATM   10  N10 UNL     1     -37.662 -26.138  15.916  1.00  0.00    -0.308 N 
HETATM   11  C13 UNL     1     -36.395 -25.507  15.981  1.00  0.00     0.275 C 
ATOM     12  H10 UNL     1     -38.176 -26.401  15.075  1.00  0.00     0.166 HD
HETATM   13  O4  UNL     1     -35.906 -24.727  15.122  1.00  0.00    -0.270 OA
BRANCH   5  14
HETATM   14  C10 UNL     1     -35.042 -27.234  16.966  1.00  0.00     0.170 A 
HETATM   15  N4  UNL     1     -34.048 -27.384  16.075  1.00  0.00    -0.269 N 
HETATM   16  N5  UNL     1     -33.674 -28.642  16.129  1.00  0.00    -0.225 N 
ATOM     17  H4  UNL     1     -33.658 -26.659  15.471  1.00  0.00     0.190 HD
HETATM   18  N6  UNL     1     -34.376 -29.311  17.012  1.00  0.00    -0.223 N 
ATOM     19  H5  UNL     1     -32.933 -29.047  15.558  1.00  0.00     0.210 HD
HETATM   20  C11 UNL     1     -34.228 -30.719  17.329  1.00  0.00     0.202 C 
HETATM   21  N7  UNL     1     -35.223 -28.433  17.528  1.00  0.00    -0.267 N 
ATOM     22  H7  UNL     1     -35.912 -28.641  18.250  1.00  0.00     0.190 HD
ENDBRANCH   5  14
BRANCH   7  23
HETATM   23  N9  UNL     1     -38.670 -27.637  17.510  1.00  0.00    -0.033 N 
ATOM     24  H93 UNL     1     -39.534 -27.574  18.048  1.00  0.00     0.278 HD
ATOM     25  H92 UNL     1     -39.055 -28.029  16.650  1.00  0.00     0.278 HD
ATOM     26  H91 UNL     1     -37.996 -28.267  17.946  1.00  0.00     0.278 HD
ENDBRANCH   7  23
ENDBRANCH   3   5
BRANCH   1  27
HETATM   27  C7  UNL     1     -34.569 -22.666  18.732  1.00  0.00     0.052 A 
HETATM   28  C6  UNL     1     -35.099 -21.446  19.172  1.00  0.00     0.048 A 
HETATM   29  C5  UNL     1     -34.016 -20.714  19.599  1.00  0.00     0.103 A 
HETATM   30  N2  UNL     1     -32.885 -21.380  19.455  1.00  0.00    -0.283 N 
HETATM   31  C4  UNL     1     -31.552 -20.959  19.783  1.00  0.00     0.327 C 
HETATM   32  C14 UNL     1     -33.224 -22.586  18.920  1.00  0.00     0.130 A 
HETATM   33  N1  UNL     1     -31.316 -19.681  20.336  1.00  0.00    -0.328 N 
HETATM   34  O2  UNL     1     -30.589 -21.752  19.568  1.00  0.00    -0.246 OA
ATOM     35  H1  UNL     1     -32.097 -19.047  20.506  1.00  0.00     0.165 HD
BRANCH  33  36
HETATM   36  C3  UNL     1     -29.977 -19.273  20.658  1.00  0.00     0.191 C 
BRANCH  36  37
HETATM   37  C2  UNL     1     -29.868 -18.578  21.995  1.00  0.00     0.144 C 
HETATM   38  C1  UNL     1     -30.924 -19.019  22.967  1.00  0.00     0.042 C 
BRANCH  37  39
HETATM   39  O1  UNL     1     -29.968 -17.204  21.794  1.00  0.00    -0.393 OA
ATOM     40  H1  UNL     1     -29.241 -16.909  21.258  1.00  0.00     0.210 HD
ENDBRANCH  37  39
ENDBRANCH  36  37
BRANCH  36  41
HETATM   41  C15 UNL     1     -29.514 -18.354  19.559  1.00  0.00     0.161 C 
HETATM   42  N11 UNL     1     -30.247 -18.239  18.512  1.00  0.00    -0.249 N 
ATOM     43  H11 UNL     1     -31.120 -18.760  18.432  1.00  0.00     0.196 HD
BRANCH  41  44
HETATM   44  O5  UNL     1     -28.333 -17.649  19.666  1.00  0.00    -0.346 OA
ATOM     45  H5  UNL     1     -28.107 -16.968  19.043  1.00  0.00     0.219 HD
ENDBRANCH  41  44
BRANCH  42  46
HETATM   46  O6  UNL     1     -29.838 -17.406  17.505  1.00  0.00    -0.288 OA
ATOM     47  H6  UNL     1     -30.193 -16.526  17.463  1.00  0.00     0.244 HD
ENDBRANCH  42  46
ENDBRANCH  36  41
ENDBRANCH  33  36
ENDBRANCH   1  27
TORSDOF 10
ENDMDL
MODEL 4
REMARK VINA RESULT: -7.404830816      1.372      2.265
REMARK  10 active torsions:
REMARK  status: ('A' for Active; 'I' for Inactive)
REMARK    1  A    between atoms: C2_2  and  O1_3 
REMARK    2  A    between atoms: C2_2  and  C3_5 
REMARK    3  A    between atoms: C3_5  and  N1_6 
REMARK    4  A    between atoms: C3_5  and  C15_41 
REMARK       I    between atoms: N1_6  and  C4_8 
REMARK       I    between atoms: C4_8  and  N2_10 
REMARK    5  A    between atoms: C7_13  and  N3_14 
REMARK       I    between atoms: N3_14  and  C8_16 
REMARK    6  A    between atoms: C8_16  and  C9_18 
REMARK    7  A    between atoms: C9_18  and  C10_19 
REMARK    8  A    between atoms: C12_31  and  N9_32 
REMARK    9  A    between atoms: C15_41  and  O5_42 
REMARK   10  A    between atoms: N11_44  and  O6_46 
ROOT
HETATM    1  N3  UNL     1     -32.951 -24.013  17.991  1.00  0.00    -0.323 N 
ATOM      2  H3  UNL     1     -33.072 -24.041  16.978  1.00  0.00     0.169 HD
HETATM    3  C8  UNL     1     -33.380 -25.105  18.781  1.00  0.00     0.277 C 
HETATM    4  O3  UNL     1     -33.292 -25.199  20.007  1.00  0.00    -0.269 OA
ENDROOT
BRANCH   3   5
HETATM    5  C9  UNL     1     -34.006 -26.269  18.066  1.00  0.00     0.348 C 
HETATM    6  N8  UNL     1     -34.498 -27.269  18.962  1.00  0.00     0.005 N 
HETATM    7  C12 UNL     1     -35.745 -27.754  18.458  1.00  0.00     0.487 C 
ATOM      8  H82 UNL     1     -33.824 -28.016  19.124  1.00  0.00     0.284 HD
ATOM      9  H81 UNL     1     -34.568 -26.933  19.923  1.00  0.00     0.284 HD
HETATM   10  N10 UNL     1     -36.058 -26.983  17.274  1.00  0.00    -0.308 N 
HETATM   11  C13 UNL     1     -35.216 -25.845  17.323  1.00  0.00     0.275 C 
ATOM     12  H10 UNL     1     -36.743 -27.212  16.554  1.00  0.00     0.166 HD
HETATM   13  O4  UNL     1     -35.464 -24.713  16.831  1.00  0.00    -0.270 OA
BRANCH   5  14
HETATM   14  C10 UNL     1     -33.041 -26.837  17.057  1.00  0.00     0.170 A 
HETATM   15  N4  UNL     1     -33.359 -27.630  16.021  1.00  0.00    -0.269 N 
HETATM   16  N5  UNL     1     -32.239 -27.901  15.391  1.00  0.00    -0.225 N 
ATOM     17  H4  UNL     1     -34.292 -27.959  15.771  1.00  0.00     0.190 HD
HETATM   18  N6  UNL     1     -31.214 -27.322  15.969  1.00  0.00    -0.223 N 
ATOM     19  H5  UNL     1     -32.174 -28.488  14.560  1.00  0.00     0.210 HD
HETATM   20  C11 UNL     1     -29.832 -27.409  15.538  1.00  0.00     0.202 C 
HETATM   21  N7  UNL     1     -31.717 -26.663  17.002  1.00  0.00    -0.267 N 
ATOM     22  H7  UNL     1     -31.174 -26.104  17.659  1.00  0.00     0.190 HD
ENDBRANCH   5  14
BRANCH   7  23
HETATM   23  N9  UNL     1     -35.662 -29.177  18.188  1.00  0.00    -0.033 N 
ATOM     24  H93 UNL     1     -34.741 -29.444  17.837  1.00  0.00     0.278 HD
ATOM     25  H92 UNL     1     -35.661 -29.728  19.047  1.00  0.00     0.278 HD
ATOM     26  H91 UNL     1     -36.408 -29.463  17.553  1.00  0.00     0.278 HD
ENDBRANCH   7  23
ENDBRANCH   3   5
BRANCH   1  27
HETATM   27  C7  UNL     1     -32.353 -22.883  18.598  1.00  0.00     0.052 A 
HETATM   28  C6  UNL     1     -30.961 -22.746  18.679  1.00  0.00     0.048 A 
HETATM   29  C5  UNL     1     -30.752 -21.548  19.320  1.00  0.00     0.103 A 
HETATM   30  N2  UNL     1     -31.888 -20.951  19.631  1.00  0.00    -0.283 N 
HETATM   31  C4  UNL     1     -32.085 -19.696  20.299  1.00  0.00     0.327 C 
HETATM   32  C14 UNL     1     -32.878 -21.774  19.186  1.00  0.00     0.130 A 
HETATM   33  N1  UNL     1     -30.980 -18.922  20.718  1.00  0.00    -0.328 N 
HETATM   34  O2  UNL     1     -33.267 -19.292  20.507  1.00  0.00    -0.246 OA
ATOM     35  H1  UNL     1     -30.031 -19.254  20.547  1.00  0.00     0.165 HD
BRANCH  33  36
HETATM   36  C3  UNL     1     -31.193 -17.668  21.386  1.00  0.00     0.191 C 
BRANCH  36  37
HETATM   37  C2  UNL     1     -30.699 -16.479  20.596  1.00  0.00     0.144 C 
HETATM   38  C1  UNL     1     -31.802 -15.763  19.873  1.00  0.00     0.042 C 
BRANCH  37  39
HETATM   39  O1  UNL     1     -29.749 -16.915  19.678  1.00  0.00    -0.393 OA
ATOM     40  H1  UNL     1     -28.905 -16.991  20.107  1.00  0.00     0.210 HD
ENDBRANCH  37  39
ENDBRANCH  36  37
BRANCH  36  41
HETATM   41  C15 UNL     1     -30.480 -17.741  22.710  1.00  0.00     0.161 C 
HETATM   42  N11 UNL     1     -29.472 -16.971  22.902  1.00  0.00    -0.249 N 
ATOM     43  H11 UNL     1     -29.165 -16.328  22.172  1.00  0.00     0.196 HD
BRANCH  41  44
HETATM   44  O5  UNL     1     -30.894 -18.610  23.699  1.00  0.00    -0.346 OA
ATOM     45  H5  UNL     1     -31.764 -18.549  24.076  1.00  0.00     0.219 HD
ENDBRANCH  41  44
BRANCH  42  46
HETATM   46  O6  UNL     1     -28.815 -17.026  24.103  1.00  0.00    -0.288 OA
ATOM     47  H6  UNL     1     -28.469 -16.224  24.474  1.00  0.00     0.244 HD
ENDBRANCH  42  46
ENDBRANCH  36  41
ENDBRANCH  33  36
ENDBRANCH   1  27
TORSDOF 10
ENDMDL
MODEL 5
REMARK VINA RESULT: -7.379233264      1.550      2.811
REMARK  10 active torsions:
REMARK  status: ('A' for Active; 'I' for Inactive)
REMARK    1  A    between atoms: C2_2  and  O1_3 
REMARK    2  A    between atoms: C2_2  and  C3_5 
REMARK    3  A    between atoms: C3_5  and  N1_6 
REMARK    4  A    between atoms: C3_5  and  C15_41 
REMARK       I    between atoms: N1_6  and  C4_8 
REMARK       I    between atoms: C4_8  and  N2_10 
REMARK    5  A    between atoms: C7_13  and  N3_14 
REMARK       I    between atoms: N3_14  and  C8_16 
REMARK    6  A    between atoms: C8_16  and  C9_18 
REMARK    7  A    between atoms: C9_18  and  C10_19 
REMARK    8  A    between atoms: C12_31  and  N9_32 
REMARK    9  A    between atoms: C15_41  and  O5_42 
REMARK   10  A    between atoms: N11_44  and  O6_46 
ROOT
HETATM    1  N3  UNL     1     -33.731 -24.592  18.566  1.00  0.00    -0.323 N 
ATOM      2  H3  UNL     1     -33.241 -25.409  18.932  1.00  0.00     0.169 HD
HETATM    3  C8  UNL     1     -34.827 -24.763  17.688  1.00  0.00     0.277 C 
HETATM    4  O3  UNL     1     -35.502 -23.867  17.178  1.00  0.00    -0.269 OA
ENDROOT
BRANCH   3   5
HETATM    5  C9  UNL     1     -35.214 -26.173  17.337  1.00  0.00     0.348 C 
HETATM    6  N8  UNL     1     -36.250 -26.233  16.354  1.00  0.00     0.005 N 
HETATM    7  C12 UNL     1     -35.955 -27.299  15.449  1.00  0.00     0.487 C 
ATOM      8  H82 UNL     1     -37.179 -26.316  16.768  1.00  0.00     0.284 HD
ATOM      9  H81 UNL     1     -36.390 -25.342  15.878  1.00  0.00     0.284 HD
HETATM   10  N10 UNL     1     -34.676 -27.851  15.840  1.00  0.00    -0.308 N 
HETATM   11  C13 UNL     1     -34.086 -26.887  16.694  1.00  0.00     0.275 C 
ATOM     12  H10 UNL     1     -34.281 -28.749  15.560  1.00  0.00     0.166 HD
HETATM   13  O4  UNL     1     -32.853 -26.691  16.857  1.00  0.00    -0.270 OA
BRANCH   5  14
HETATM   14  C10 UNL     1     -35.571 -26.938  18.585  1.00  0.00     0.170 A 
HETATM   15  N4  UNL     1     -36.758 -26.914  19.213  1.00  0.00    -0.269 N 
HETATM   16  N5  UNL     1     -36.656 -27.711  20.251  1.00  0.00    -0.225 N 
ATOM     17  H4  UNL     1     -37.582 -26.379  18.935  1.00  0.00     0.190 HD
HETATM   18  N6  UNL     1     -35.462 -28.250  20.325  1.00  0.00    -0.223 N 
ATOM     19  H5  UNL     1     -37.409 -27.889  20.916  1.00  0.00     0.210 HD
HETATM   20  C11 UNL     1     -35.007 -29.176  21.344  1.00  0.00     0.202 C 
HETATM   21  N7  UNL     1     -34.793 -27.766  19.290  1.00  0.00    -0.267 N 
ATOM     22  H7  UNL     1     -33.826 -27.994  19.062  1.00  0.00     0.190 HD
ENDBRANCH   5  14
BRANCH   7  23
HETATM   23  N9  UNL     1     -37.016 -28.289  15.470  1.00  0.00    -0.033 N 
ATOM     24  H93 UNL     1     -36.650 -29.239  15.408  1.00  0.00     0.278 HD
ATOM     25  H92 UNL     1     -37.455 -28.356  16.388  1.00  0.00     0.278 HD
ATOM     26  H91 UNL     1     -37.697 -28.095  14.735  1.00  0.00     0.278 HD
ENDBRANCH   7  23
ENDBRANCH   3   5
BRANCH   1  27
HETATM   27  C7  UNL     1     -33.310 -23.293  18.939  1.00  0.00     0.052 A 
HETATM   28  C6  UNL     1     -34.201 -22.211  18.950  1.00  0.00     0.048 A 
HETATM   29  C5  UNL     1     -33.452 -21.131  19.357  1.00  0.00     0.103 A 
HETATM   30  N2  UNL     1     -32.196 -21.463  19.589  1.00  0.00    -0.283 N 
HETATM   31  C4  UNL     1     -31.116 -20.624  20.025  1.00  0.00     0.327 C 
HETATM   32  C14 UNL     1     -32.106 -22.798  19.332  1.00  0.00     0.130 A 
HETATM   33  N1  UNL     1     -31.324 -19.247  20.263  1.00  0.00    -0.328 N 
HETATM   34  O2  UNL     1     -29.970 -21.138  20.193  1.00  0.00    -0.246 OA
ATOM     35  H1  UNL     1     -32.249 -18.841  20.126  1.00  0.00     0.165 HD
BRANCH  33  36
HETATM   36  C3  UNL     1     -30.233 -18.420  20.699  1.00  0.00     0.191 C 
BRANCH  36  37
HETATM   37  C2  UNL     1     -30.666 -17.276  21.585  1.00  0.00     0.144 C 
HETATM   38  C1  UNL     1     -31.101 -16.070  20.804  1.00  0.00     0.042 C 
BRANCH  37  39
HETATM   39  O1  UNL     1     -29.607 -16.931  22.420  1.00  0.00    -0.393 OA
ATOM     40  H1  UNL     1     -29.929 -16.809  23.305  1.00  0.00     0.210 HD
ENDBRANCH  37  39
ENDBRANCH  36  37
BRANCH  36  41
HETATM   41  C15 UNL     1     -29.555 -17.890  19.464  1.00  0.00     0.161 C 
HETATM   42  N11 UNL     1     -30.203 -17.910  18.357  1.00  0.00    -0.249 N 
ATOM     43  H11 UNL     1     -31.154 -18.279  18.320  1.00  0.00     0.196 HD
BRANCH  41  44
HETATM   44  O5  UNL     1     -28.269 -17.391  19.512  1.00  0.00    -0.346 OA
ATOM     45  H5  UNL     1     -28.105 -16.461  19.620  1.00  0.00     0.219 HD
ENDBRANCH  41  44
BRANCH  42  46
HETATM   46  O6  UNL     1     -29.599 -17.429  17.225  1.00  0.00    -0.288 OA
ATOM     47  H6  UNL     1     -29.853 -17.785  16.382  1.00  0.00     0.244 HD
ENDBRANCH  42  46
ENDBRANCH  36  41
ENDBRANCH  33  36
ENDBRANCH   1  27
TORSDOF 10
ENDMDL
