MODEL 1
REMARK VINA RESULT: -8.093261302      0.000      0.000
REMARK  12 active torsions:
REMARK  status: ('A' for Active; 'I' for Inactive)
REMARK    1  A    between atoms: C3_11  and  N5_12 
REMARK    2  A    between atoms: N5_12  and  N6_14 
REMARK    3  A    between atoms: N6_14  and  C4_16 
REMARK    4  A    between atoms: C4_16  and  C14_41 
REMARK    5  A    between atoms: C6_20  and  N8_21 
REMARK    6  A    between atoms: C9_31  and  O2_32 
REMARK    7  A    between atoms: O2_32  and  C10_33 
REMARK    8  A    between atoms: C10_33  and  C11_35 
REMARK    9  A    between atoms: C11_35  and  O4_36 
REMARK   10  A    between atoms: C14_41  and  O5_42 
REMARK   11  A    between atoms: C14_41  and  C15_44 
REMARK   12  A    between atoms: C15_44  and  O6_45 
ROOT
HETATM    1  C4  UNL     1     -33.104 -21.656  20.852  1.00  0.00     0.109 C 
HETATM    2  C5  UNL     1     -32.395 -21.054  21.949  1.00  0.00     0.109 A 
HETATM    3  N7  UNL     1     -32.927 -21.379  23.202  1.00  0.00    -0.187 N 
ATOM      4  H7  UNL     1     -33.485 -22.227  23.305  1.00  0.00     0.184 HD
HETATM    5  C6  UNL     1     -32.719 -20.606  24.256  1.00  0.00     0.677 A 
HETATM    6  N9  UNL     1     -31.992 -19.496  24.149  1.00  0.00    -0.184 N 
ATOM      7  H9  UNL     1     -31.845 -18.905  24.968  1.00  0.00     0.184 HD
HETATM    8  C7  UNL     1     -31.445 -19.145  22.948  1.00  0.00     0.146 A 
HETATM    9  C8  UNL     1     -30.620 -18.053  22.878  1.00  0.00     0.278 A 
HETATM   10  O1  UNL     1     -30.468 -17.335  23.913  1.00  0.00    -0.265 OA
HETATM   11  N10 UNL     1     -30.016 -17.799  21.721  1.00  0.00    -0.287 N 
ATOM     12  H10 UNL     1     -29.399 -16.990  21.643  1.00  0.00     0.172 HD
HETATM   13  C9  UNL     1     -30.206 -18.592  20.654  1.00  0.00     0.236 A 
HETATM   14  N11 UNL     1     -31.015 -19.690  20.662  1.00  0.00    -0.313 N 
HETATM   15  C12 UNL     1     -30.964 -20.603  19.542  1.00  0.00     0.160 C 
HETATM   16  C13 UNL     1     -31.649 -19.944  21.841  1.00  0.00     0.100 A 
ENDROOT
BRANCH   1  17
HETATM   17  N6  UNL     1     -33.331 -22.894  20.778  1.00  0.00    -0.282 N 
ATOM     18  H6  UNL     1     -33.340 -23.345  21.693  1.00  0.00     0.187 HD
BRANCH  17  19
HETATM   19  N5  UNL     1     -33.562 -23.757  19.775  1.00  0.00    -0.129 N 
ATOM     20  H5  UNL     1     -34.542 -23.987  19.605  1.00  0.00     0.205 HD
BRANCH  19  21
HETATM   21  C3  UNL     1     -32.698 -24.340  18.990  1.00  0.00     0.728 A 
HETATM   22  N1  UNL     1     -33.006 -25.184  17.997  1.00  0.00    -0.112 N 
HETATM   23  C1  UNL     1     -34.340 -25.626  17.591  1.00  0.00     0.198 C 
HETATM   24  N2  UNL     1     -31.880 -25.564  17.428  1.00  0.00    -0.116 N 
HETATM   25  C2  UNL     1     -30.857 -24.967  18.051  1.00  0.00     0.705 A 
ATOM     26  H2  UNL     1     -31.802 -26.207  16.641  1.00  0.00     0.206 HD
HETATM   27  N3  UNL     1     -29.592 -25.121  17.741  1.00  0.00    -0.233 N 
HETATM   28  N4  UNL     1     -31.375 -24.206  19.023  1.00  0.00    -0.018 N 
ATOM     29  H32 UNL     1     -29.197 -25.701  17.000  1.00  0.00     0.174 HD
ATOM     30  H31 UNL     1     -28.811 -24.667  18.215  1.00  0.00     0.174 HD
ATOM     31  H4  UNL     1     -30.847 -23.626  19.675  1.00  0.00     0.203 HD
ENDBRANCH  19  21
ENDBRANCH  17  19
ENDBRANCH   1  17
BRANCH   1  32
HETATM   32  C14 UNL     1     -34.024 -20.844  20.031  1.00  0.00     0.097 C 
BRANCH  32  33
HETATM   33  O5  UNL     1     -34.154 -21.083  18.700  1.00  0.00    -0.360 OA
ATOM     34  H5  UNL     1     -33.658 -20.576  18.068  1.00  0.00     0.217 HD
ENDBRANCH  32  33
BRANCH  32  35
HETATM   35  C15 UNL     1     -35.274 -20.366  20.685  1.00  0.00     0.230 C 
BRANCH  35  36
HETATM   36  O6  UNL     1     -35.154 -19.368  21.602  1.00  0.00    -0.394 OA
ATOM     37  H6  UNL     1     -35.846 -18.718  21.629  1.00  0.00     0.209 HD
ENDBRANCH  35  36
ENDBRANCH  32  35
ENDBRANCH   1  32
BRANCH   5  38
HETATM   38  N8  UNL     1     -33.242 -20.953  25.417  1.00  0.00    -0.234 N 
ATOM     39  H82 UNL     1     -32.643 -21.281  26.175  1.00  0.00     0.174 HD
ATOM     40  H81 UNL     1     -34.253 -20.890  25.544  1.00  0.00     0.174 HD
ENDBRANCH   5  38
BRANCH  13  41
HETATM   41  O2  UNL     1     -29.528 -18.255  19.486  1.00  0.00    -0.244 OA
BRANCH  41  42
HETATM   42  C10 UNL     1     -30.065 -17.260  18.665  1.00  0.00     0.289 C 
HETATM   43  O3  UNL     1     -29.916 -17.378  17.423  1.00  0.00    -0.262 OA
BRANCH  42  44
HETATM   44  C11 UNL     1     -30.791 -16.096  19.186  1.00  0.00     0.275 C 
BRANCH  44  45
HETATM   45  O4  UNL     1     -29.908 -15.152  19.673  1.00  0.00    -0.391 OA
ATOM     46  H4  UNL     1     -29.338 -15.535  20.329  1.00  0.00     0.210 HD
ENDBRANCH  44  45
ENDBRANCH  42  44
ENDBRANCH  41  42
ENDBRANCH  13  41
TORSDOF 12
ENDMDL
MODEL 2
REMARK VINA RESULT: -7.735846484      0.885      1.591
REMARK  12 active torsions:
REMARK  status: ('A' for Active; 'I' for Inactive)
REMARK    1  A    between atoms: C3_11  and  N5_12 
REMARK    2  A    between atoms: N5_12  and  N6_14 
REMARK    3  A    between atoms: N6_14  and  C4_16 
REMARK    4  A    between atoms: C4_16  and  C14_41 
REMARK    5  A    between atoms: C6_20  and  N8_21 
REMARK    6  A    between atoms: C9_31  and  O2_32 
REMARK    7  A    between atoms: O2_32  and  C10_33 
REMARK    8  A    between atoms: C10_33  and  C11_35 
REMARK    9  A    between atoms: C11_35  and  O4_36 
REMARK   10  A    between atoms: C14_41  and  O5_42 
REMARK   11  A    between atoms: C14_41  and  C15_44 
REMARK   12  A    between atoms: C15_44  and  O6_45 
ROOT
HETATM    1  C4  UNL     1     -32.385 -21.824  20.660  1.00  0.00     0.109 C 
HETATM    2  C5  UNL     1     -31.896 -21.167  21.842  1.00  0.00     0.109 A 
HETATM    3  N7  UNL     1     -32.496 -21.625  23.022  1.00  0.00    -0.187 N 
ATOM      4  H7  UNL     1     -32.920 -22.552  23.041  1.00  0.00     0.184 HD
HETATM    5  C6  UNL     1     -32.522 -20.875  24.112  1.00  0.00     0.677 A 
HETATM    6  N9  UNL     1     -31.973 -19.662  24.114  1.00  0.00    -0.184 N 
ATOM      7  H9  UNL     1     -32.005 -19.091  24.958  1.00  0.00     0.184 HD
HETATM    8  C7  UNL     1     -31.367 -19.179  22.988  1.00  0.00     0.146 A 
HETATM    9  C8  UNL     1     -30.722 -17.971  23.036  1.00  0.00     0.278 A 
HETATM   10  O1  UNL     1     -30.793 -17.284  24.101  1.00  0.00    -0.265 OA
HETATM   11  N10 UNL     1     -30.050 -17.577  21.959  1.00  0.00    -0.287 N 
ATOM     12  H10 UNL     1     -29.564 -16.680  21.969  1.00  0.00     0.172 HD
HETATM   13  C9  UNL     1     -30.003 -18.344  20.857  1.00  0.00     0.236 A 
HETATM   14  N11 UNL     1     -30.625 -19.553  20.748  1.00  0.00    -0.313 N 
HETATM   15  C12 UNL     1     -30.315 -20.399  19.617  1.00  0.00     0.160 C 
HETATM   16  C13 UNL     1     -31.328 -19.952  21.844  1.00  0.00     0.100 A 
ENDROOT
BRANCH   1  17
HETATM   17  N6  UNL     1     -32.404 -23.078  20.529  1.00  0.00    -0.282 N 
ATOM     18  H6  UNL     1     -33.112 -23.521  21.114  1.00  0.00     0.187 HD
BRANCH  17  19
HETATM   19  N5  UNL     1     -31.710 -23.966  19.798  1.00  0.00    -0.129 N 
ATOM     20  H5  UNL     1     -30.722 -24.060  20.037  1.00  0.00     0.205 HD
BRANCH  19  21
HETATM   21  C3  UNL     1     -32.133 -24.722  18.823  1.00  0.00     0.728 A 
HETATM   22  N1  UNL     1     -31.355 -25.276  17.884  1.00  0.00    -0.112 N 
HETATM   23  C1  UNL     1     -29.904 -25.153  17.750  1.00  0.00     0.198 C 
HETATM   24  N2  UNL     1     -32.131 -25.969  17.077  1.00  0.00    -0.116 N 
HETATM   25  C2  UNL     1     -33.398 -25.862  17.494  1.00  0.00     0.705 A 
ATOM     26  H2  UNL     1     -31.817 -26.502  16.266  1.00  0.00     0.206 HD
HETATM   27  N3  UNL     1     -34.432 -26.428  16.919  1.00  0.00    -0.233 N 
HETATM   28  N4  UNL     1     -33.391 -25.083  18.583  1.00  0.00    -0.018 N 
ATOM     29  H32 UNL     1     -34.438 -27.021  16.090  1.00  0.00     0.174 HD
ATOM     30  H31 UNL     1     -35.398 -26.346  17.237  1.00  0.00     0.174 HD
ATOM     31  H4  UNL     1     -34.207 -24.813  19.132  1.00  0.00     0.203 HD
ENDBRANCH  19  21
ENDBRANCH  17  19
ENDBRANCH   1  17
BRANCH   1  32
HETATM   32  C14 UNL     1     -33.333 -21.129  19.766  1.00  0.00     0.097 C 
BRANCH  32  33
HETATM   33  O5  UNL     1     -33.406 -21.457  18.450  1.00  0.00    -0.360 OA
ATOM     34  H5  UNL     1     -33.770 -22.292  18.180  1.00  0.00     0.217 HD
ENDBRANCH  32  33
BRANCH  32  35
HETATM   35  C15 UNL     1     -34.631 -20.700  20.357  1.00  0.00     0.230 C 
BRANCH  35  36
HETATM   36  O6  UNL     1     -35.176 -21.505  21.310  1.00  0.00    -0.394 OA
ATOM     37  H6  UNL     1     -36.093 -21.370  21.518  1.00  0.00     0.209 HD
ENDBRANCH  35  36
ENDBRANCH  32  35
ENDBRANCH   1  32
BRANCH   5  38
HETATM   38  N8  UNL     1     -33.100 -21.348  25.200  1.00  0.00    -0.234 N 
ATOM     39  H82 UNL     1     -32.765 -22.212  25.628  1.00  0.00     0.174 HD
ATOM     40  H81 UNL     1     -33.885 -20.838  25.605  1.00  0.00     0.174 HD
ENDBRANCH   5  38
BRANCH  13  41
HETATM   41  O2  UNL     1     -29.271 -17.857  19.778  1.00  0.00    -0.244 OA
BRANCH  41  42
HETATM   42  C10 UNL     1     -29.905 -17.005  18.870  1.00  0.00     0.289 C 
HETATM   43  O3  UNL     1     -29.904 -17.333  17.657  1.00  0.00    -0.262 OA
BRANCH  42  44
HETATM   44  C11 UNL     1     -30.567 -15.757  19.268  1.00  0.00     0.275 C 
BRANCH  44  45
HETATM   45  O4  UNL     1     -31.864 -16.004  19.673  1.00  0.00    -0.391 OA
ATOM     46  H4  UNL     1     -32.390 -16.308  18.941  1.00  0.00     0.210 HD
ENDBRANCH  44  45
ENDBRANCH  42  44
ENDBRANCH  41  42
ENDBRANCH  13  41
TORSDOF 12
ENDMDL
MODEL 3
REMARK VINA RESULT: -7.714391429      0.800      1.217
REMARK  12 active torsions:
REMARK  status: ('A' for Active; 'I' for Inactive)
REMARK    1  A    between atoms: C3_11  and  N5_12 
REMARK    2  A    between atoms: N5_12  and  N6_14 
REMARK    3  A    between atoms: N6_14  and  C4_16 
REMARK    4  A    between atoms: C4_16  and  C14_41 
REMARK    5  A    between atoms: C6_20  and  N8_21 
REMARK    6  A    between atoms: C9_31  and  O2_32 
REMARK    7  A    between atoms: O2_32  and  C10_33 
REMARK    8  A    between atoms: C10_33  and  C11_35 
REMARK    9  A    between atoms: C11_35  and  O4_36 
REMARK   10  A    between atoms: C14_41  and  O5_42 
REMARK   11  A    between atoms: C14_41  and  C15_44 
REMARK   12  A    between atoms: C15_44  and  O6_45 
ROOT
HETATM    1  C4  UNL     1     -33.184 -21.675  21.284  1.00  0.00     0.109 C 
HETATM    2  C5  UNL     1     -32.411 -21.012  22.299  1.00  0.00     0.109 A 
HETATM    3  N7  UNL     1     -32.879 -21.247  23.597  1.00  0.00    -0.187 N 
ATOM      4  H7  UNL     1     -33.439 -22.078  23.786  1.00  0.00     0.184 HD
HETATM    5  C6  UNL     1     -32.607 -20.409  24.585  1.00  0.00     0.677 A 
HETATM    6  N9  UNL     1     -31.876 -19.318  24.366  1.00  0.00    -0.184 N 
ATOM      7  H9  UNL     1     -31.679 -18.676  25.134  1.00  0.00     0.184 HD
HETATM    8  C7  UNL     1     -31.390 -19.054  23.117  1.00  0.00     0.146 A 
HETATM    9  C8  UNL     1     -30.559 -17.981  22.931  1.00  0.00     0.278 A 
HETATM   10  O1  UNL     1     -30.345 -17.198  23.906  1.00  0.00    -0.265 OA
HETATM   11  N10 UNL     1     -30.015 -17.812  21.729  1.00  0.00    -0.287 N 
ATOM     12  H10 UNL     1     -29.395 -17.018  21.565  1.00  0.00     0.172 HD
HETATM   13  C9  UNL     1     -30.270 -18.671  20.729  1.00  0.00     0.236 A 
HETATM   14  N11 UNL     1     -31.089 -19.755  20.853  1.00  0.00    -0.313 N 
HETATM   15  C12 UNL     1     -31.107 -20.741  19.795  1.00  0.00     0.160 C 
HETATM   16  C13 UNL     1     -31.661 -19.922  22.078  1.00  0.00     0.100 A 
ENDROOT
BRANCH   1  17
HETATM   17  N6  UNL     1     -33.427 -22.912  21.304  1.00  0.00    -0.282 N 
ATOM     18  H6  UNL     1     -34.422 -23.114  21.396  1.00  0.00     0.187 HD
BRANCH  17  19
HETATM   19  N5  UNL     1     -32.679 -24.027  21.234  1.00  0.00    -0.129 N 
ATOM     20  H5  UNL     1     -32.454 -24.466  22.126  1.00  0.00     0.205 HD
BRANCH  19  21
HETATM   21  C3  UNL     1     -32.204 -24.619  20.173  1.00  0.00     0.728 A 
HETATM   22  N1  UNL     1     -32.824 -25.588  19.488  1.00  0.00    -0.112 N 
HETATM   23  C1  UNL     1     -34.131 -26.178  19.775  1.00  0.00     0.198 C 
HETATM   24  N2  UNL     1     -32.044 -25.935  18.485  1.00  0.00    -0.116 N 
HETATM   25  C2  UNL     1     -30.930 -25.194  18.525  1.00  0.00     0.705 A 
ATOM     26  H2  UNL     1     -32.254 -26.651  17.791  1.00  0.00     0.206 HD
HETATM   27  N3  UNL     1     -29.937 -25.277  17.673  1.00  0.00    -0.233 N 
HETATM   28  N4  UNL     1     -31.037 -24.376  19.580  1.00  0.00    -0.018 N 
ATOM     29  H32 UNL     1     -29.855 -25.900  16.869  1.00  0.00     0.174 HD
ATOM     30  H31 UNL     1     -29.088 -24.713  17.703  1.00  0.00     0.174 HD
ATOM     31  H4  UNL     1     -30.346 -23.687  19.877  1.00  0.00     0.203 HD
ENDBRANCH  19  21
ENDBRANCH  17  19
ENDBRANCH   1  17
BRANCH   1  32
HETATM   32  C14 UNL     1     -34.139 -20.907  20.460  1.00  0.00     0.097 C 
BRANCH  32  33
HETATM   33  O5  UNL     1     -34.448 -19.624  20.780  1.00  0.00    -0.360 OA
ATOM     34  H5  UNL     1     -35.266 -19.238  20.490  1.00  0.00     0.217 HD
ENDBRANCH  32  33
BRANCH  32  35
HETATM   35  C15 UNL     1     -34.149 -21.186  18.997  1.00  0.00     0.230 C 
BRANCH  35  36
HETATM   36  O6  UNL     1     -34.119 -22.491  18.613  1.00  0.00    -0.394 OA
ATOM     37  H6  UNL     1     -33.887 -22.672  17.710  1.00  0.00     0.209 HD
ENDBRANCH  35  36
ENDBRANCH  32  35
ENDBRANCH   1  32
BRANCH   5  38
HETATM   38  N8  UNL     1     -33.070 -20.671  25.793  1.00  0.00    -0.234 N 
ATOM     39  H82 UNL     1     -32.744 -21.492  26.303  1.00  0.00     0.174 HD
ATOM     40  H81 UNL     1     -33.760 -20.042  26.205  1.00  0.00     0.174 HD
ENDBRANCH   5  38
BRANCH  13  41
HETATM   41  O2  UNL     1     -29.653 -18.421  19.507  1.00  0.00    -0.244 OA
BRANCH  41  42
HETATM   42  C10 UNL     1     -30.126 -17.367  18.722  1.00  0.00     0.289 C 
HETATM   43  O3  UNL     1     -29.944 -17.429  17.480  1.00  0.00    -0.262 OA
BRANCH  42  44
HETATM   44  C11 UNL     1     -30.822 -16.201  19.280  1.00  0.00     0.275 C 
BRANCH  44  45
HETATM   45  O4  UNL     1     -29.915 -15.229  19.655  1.00  0.00    -0.391 OA
ATOM     46  H4  UNL     1     -29.316 -15.566  20.311  1.00  0.00     0.210 HD
ENDBRANCH  44  45
ENDBRANCH  42  44
ENDBRANCH  41  42
ENDBRANCH  13  41
TORSDOF 12
ENDMDL
MODEL 4
REMARK VINA RESULT: -7.632555488      2.114      2.744
REMARK  12 active torsions:
REMARK  status: ('A' for Active; 'I' for Inactive)
REMARK    1  A    between atoms: C3_11  and  N5_12 
REMARK    2  A    between atoms: N5_12  and  N6_14 
REMARK    3  A    between atoms: N6_14  and  C4_16 
REMARK    4  A    between atoms: C4_16  and  C14_41 
REMARK    5  A    between atoms: C6_20  and  N8_21 
REMARK    6  A    between atoms: C9_31  and  O2_32 
REMARK    7  A    between atoms: O2_32  and  C10_33 
REMARK    8  A    between atoms: C10_33  and  C11_35 
REMARK    9  A    between atoms: C11_35  and  O4_36 
REMARK   10  A    between atoms: C14_41  and  O5_42 
REMARK   11  A    between atoms: C14_41  and  C15_44 
REMARK   12  A    between atoms: C15_44  and  O6_45 
ROOT
HETATM    1  C4  UNL     1     -33.267 -23.947  19.947  1.00  0.00     0.109 C 
HETATM    2  C5  UNL     1     -32.669 -23.400  21.135  1.00  0.00     0.109 A 
HETATM    3  N7  UNL     1     -32.809 -24.224  22.259  1.00  0.00    -0.187 N 
ATOM      4  H7  UNL     1     -32.967 -25.224  22.131  1.00  0.00     0.184 HD
HETATM    5  C6  UNL     1     -32.739 -23.729  23.484  1.00  0.00     0.677 A 
HETATM    6  N9  UNL     1     -32.531 -22.428  23.679  1.00  0.00    -0.184 N 
ATOM      7  H9  UNL     1     -32.486 -22.058  24.628  1.00  0.00     0.184 HD
HETATM    8  C7  UNL     1     -32.378 -21.589  22.611  1.00  0.00     0.146 A 
HETATM    9  C8  UNL     1     -32.068 -20.272  22.830  1.00  0.00     0.278 A 
HETATM   10  O1  UNL     1     -32.031 -19.844  24.024  1.00  0.00    -0.265 OA
HETATM   11  N10 UNL     1     -31.819 -19.505  21.773  1.00  0.00    -0.287 N 
ATOM     12  H10 UNL     1     -31.589 -18.520  21.910  1.00  0.00     0.172 HD
HETATM   13  C9  UNL     1     -31.867 -20.007  20.529  1.00  0.00     0.236 A 
HETATM   14  N11 UNL     1     -32.172 -21.306  20.248  1.00  0.00    -0.313 N 
HETATM   15  C12 UNL     1     -31.964 -21.798  18.904  1.00  0.00     0.160 C 
HETATM   16  C13 UNL     1     -32.444 -22.092  21.327  1.00  0.00     0.100 A 
ENDROOT
BRANCH   1  17
HETATM   17  N6  UNL     1     -33.004 -25.102  19.516  1.00  0.00    -0.282 N 
ATOM     18  H6  UNL     1     -32.393 -25.625  20.144  1.00  0.00     0.187 HD
BRANCH  17  19
HETATM   19  N5  UNL     1     -33.340 -25.806  18.421  1.00  0.00    -0.129 N 
ATOM     20  H5  UNL     1     -34.340 -25.938  18.269  1.00  0.00     0.205 HD
BRANCH  19  21
HETATM   21  C3  UNL     1     -32.554 -26.341  17.528  1.00  0.00     0.728 A 
HETATM   22  N1  UNL     1     -32.897 -27.332  16.695  1.00  0.00    -0.112 N 
HETATM   23  C1  UNL     1     -34.189 -28.012  16.611  1.00  0.00     0.198 C 
HETATM   24  N2  UNL     1     -31.852 -27.604  15.941  1.00  0.00    -0.116 N 
HETATM   25  C2  UNL     1     -30.844 -26.793  16.287  1.00  0.00     0.705 A 
ATOM     26  H2  UNL     1     -31.816 -28.316  15.212  1.00  0.00     0.206 HD
HETATM   27  N3  UNL     1     -29.654 -26.793  15.738  1.00  0.00    -0.233 N 
HETATM   28  N4  UNL     1     -31.290 -26.009  17.276  1.00  0.00    -0.018 N 
ATOM     29  H32 UNL     1     -29.314 -27.390  14.984  1.00  0.00     0.174 HD
ATOM     30  H31 UNL     1     -28.886 -26.175  16.001  1.00  0.00     0.174 HD
ATOM     31  H4  UNL     1     -30.754 -25.284  17.754  1.00  0.00     0.203 HD
ENDBRANCH  19  21
ENDBRANCH  17  19
ENDBRANCH   1  17
BRANCH   1  32
HETATM   32  C14 UNL     1     -34.557 -23.421  19.458  1.00  0.00     0.097 C 
BRANCH  32  33
HETATM   33  O5  UNL     1     -34.853 -23.446  18.132  1.00  0.00    -0.360 OA
ATOM     34  H5  UNL     1     -34.389 -22.884  17.523  1.00  0.00     0.217 HD
ENDBRANCH  32  33
BRANCH  32  35
HETATM   35  C15 UNL     1     -35.739 -23.593  20.346  1.00  0.00     0.230 C 
BRANCH  35  36
HETATM   36  O6  UNL     1     -35.778 -24.711  21.120  1.00  0.00    -0.394 OA
ATOM     37  H6  UNL     1     -36.075 -25.514  20.708  1.00  0.00     0.209 HD
ENDBRANCH  35  36
ENDBRANCH  32  35
ENDBRANCH   1  32
BRANCH   5  38
HETATM   38  N8  UNL     1     -32.877 -24.545  24.513  1.00  0.00    -0.234 N 
ATOM     39  H82 UNL     1     -32.256 -25.346  24.623  1.00  0.00     0.174 HD
ATOM     40  H81 UNL     1     -33.615 -24.362  25.193  1.00  0.00     0.174 HD
ENDBRANCH   5  38
BRANCH  13  41
HETATM   41  O2  UNL     1     -31.586 -19.133  19.482  1.00  0.00    -0.244 OA
BRANCH  41  42
HETATM   42  C10 UNL     1     -30.314 -18.559  19.414  1.00  0.00     0.289 C 
HETATM   43  O3  UNL     1     -29.349 -19.209  19.887  1.00  0.00    -0.262 OA
BRANCH  42  44
HETATM   44  C11 UNL     1     -30.060 -17.243  18.817  1.00  0.00     0.275 C 
BRANCH  44  45
HETATM   45  O4  UNL     1     -30.005 -17.337  17.440  1.00  0.00    -0.391 OA
ATOM     46  H4  UNL     1     -30.864 -17.191  17.061  1.00  0.00     0.210 HD
ENDBRANCH  44  45
ENDBRANCH  42  44
ENDBRANCH  41  42
ENDBRANCH  13  41
TORSDOF 12
ENDMDL
MODEL 5
REMARK VINA RESULT: -7.526583845      1.912      2.921
REMARK  12 active torsions:
REMARK  status: ('A' for Active; 'I' for Inactive)
REMARK    1  A    between atoms: C3_11  and  N5_12 
REMARK    2  A    between atoms: N5_12  and  N6_14 
REMARK    3  A    between atoms: N6_14  and  C4_16 
REMARK    4  A    between atoms: C4_16  and  C14_41 
REMARK    5  A    between atoms: C6_20  and  N8_21 
REMARK    6  A    between atoms: C9_31  and  O2_32 
REMARK    7  A    between atoms: O2_32  and  C10_33 
REMARK    8  A    between atoms: C10_33  and  C11_35 
REMARK    9  A    between atoms: C11_35  and  O4_36 
REMARK   10  A    between atoms: C14_41  and  O5_42 
REMARK   11  A    between atoms: C14_41  and  C15_44 
REMARK   12  A    between atoms: C15_44  and  O6_45 
ROOT
HETATM    1  C4  UNL     1     -31.929 -22.847  19.912  1.00  0.00     0.109 C 
HETATM    2  C5  UNL     1     -31.975 -22.616  21.331  1.00  0.00     0.109 A 
HETATM    3  N7  UNL     1     -32.623 -23.635  22.040  1.00  0.00    -0.187 N 
ATOM      4  H7  UNL     1     -32.690 -24.567  21.630  1.00  0.00     0.184 HD
HETATM    5  C6  UNL     1     -33.150 -23.410  23.233  1.00  0.00     0.677 A 
HETATM    6  N9  UNL     1     -33.074 -22.204  23.791  1.00  0.00    -0.184 N 
ATOM      7  H9  UNL     1     -33.490 -22.041  24.708  1.00  0.00     0.184 HD
HETATM    8  C7  UNL     1     -32.442 -21.182  23.140  1.00  0.00     0.146 A 
HETATM    9  C8  UNL     1     -32.288 -19.976  23.769  1.00  0.00     0.278 A 
HETATM   10  O1  UNL     1     -32.828 -19.807  24.905  1.00  0.00    -0.265 OA
HETATM   11  N10 UNL     1     -31.575 -19.036  23.156  1.00  0.00    -0.287 N 
ATOM     12  H10 UNL     1     -31.448 -18.128  23.603  1.00  0.00     0.172 HD
HETATM   13  C9  UNL     1     -31.020 -19.266  21.955  1.00  0.00     0.236 A 
HETATM   14  N11 UNL     1     -31.139 -20.444  21.278  1.00  0.00    -0.313 N 
HETATM   15  C12 UNL     1     -30.311 -20.668  20.113  1.00  0.00     0.160 C 
HETATM   16  C13 UNL     1     -31.883 -21.403  21.896  1.00  0.00     0.100 A 
ENDROOT
BRANCH   1  17
HETATM   17  N6  UNL     1     -31.480 -23.909  19.403  1.00  0.00    -0.282 N 
ATOM     18  H6  UNL     1     -31.105 -24.550  20.103  1.00  0.00     0.187 HD
BRANCH  17  19
HETATM   19  N5  UNL     1     -31.379 -24.395  18.154  1.00  0.00    -0.129 N 
ATOM     20  H5  UNL     1     -30.738 -23.897  17.536  1.00  0.00     0.205 HD
BRANCH  19  21
HETATM   21  C3  UNL     1     -31.994 -25.419  17.630  1.00  0.00     0.728 A 
HETATM   22  N1  UNL     1     -31.437 -26.310  16.800  1.00  0.00    -0.112 N 
HETATM   23  C1  UNL     1     -30.057 -26.326  16.314  1.00  0.00     0.198 C 
HETATM   24  N2  UNL     1     -32.358 -27.196  16.483  1.00  0.00    -0.116 N 
HETATM   25  C2  UNL     1     -33.500 -26.876  17.105  1.00  0.00     0.705 A 
ATOM     26  H2  UNL     1     -32.223 -27.996  15.865  1.00  0.00     0.206 HD
HETATM   27  N3  UNL     1     -34.623 -27.547  17.012  1.00  0.00    -0.233 N 
HETATM   28  N4  UNL     1     -33.264 -25.768  17.817  1.00  0.00    -0.018 N 
ATOM     29  H32 UNL     1     -34.802 -28.392  16.470  1.00  0.00     0.174 HD
ATOM     30  H31 UNL     1     -35.493 -27.304  17.485  1.00  0.00     0.174 HD
ATOM     31  H4  UNL     1     -33.941 -25.276  18.402  1.00  0.00     0.203 HD
ENDBRANCH  19  21
ENDBRANCH  17  19
ENDBRANCH   1  17
BRANCH   1  32
HETATM   32  C14 UNL     1     -32.837 -22.108  19.012  1.00  0.00     0.097 C 
BRANCH  32  33
HETATM   33  O5  UNL     1     -32.411 -21.694  17.790  1.00  0.00    -0.360 OA
ATOM     34  H5  UNL     1     -31.911 -22.277  17.231  1.00  0.00     0.217 HD
ENDBRANCH  32  33
BRANCH  32  35
HETATM   35  C15 UNL     1     -34.281 -22.469  19.059  1.00  0.00     0.230 C 
BRANCH  35  36
HETATM   36  O6  UNL     1     -34.592 -23.737  19.446  1.00  0.00    -0.394 OA
ATOM     37  H6  UNL     1     -33.955 -24.195  19.982  1.00  0.00     0.209 HD
ENDBRANCH  35  36
ENDBRANCH  32  35
ENDBRANCH   1  32
BRANCH   5  38
HETATM   38  N8  UNL     1     -33.752 -24.401  23.864  1.00  0.00    -0.234 N 
ATOM     39  H82 UNL     1     -34.422 -24.993  23.373  1.00  0.00     0.174 HD
ATOM     40  H81 UNL     1     -33.537 -24.564  24.848  1.00  0.00     0.174 HD
ENDBRANCH   5  38
BRANCH  13  41
HETATM   41  O2  UNL     1     -30.284 -18.228  21.388  1.00  0.00    -0.244 OA
BRANCH  41  42
HETATM   42  C10 UNL     1     -30.500 -16.927  21.849  1.00  0.00     0.289 C 
HETATM   43  O3  UNL     1     -29.907 -16.567  22.897  1.00  0.00    -0.262 OA
BRANCH  42  44
HETATM   44  C11 UNL     1     -31.380 -15.971  21.167  1.00  0.00     0.275 C 
BRANCH  44  45
HETATM   45  O4  UNL     1     -30.685 -14.824  20.834  1.00  0.00    -0.391 OA
ATOM     46  H4  UNL     1     -29.784 -14.883  21.129  1.00  0.00     0.210 HD
ENDBRANCH  44  45
ENDBRANCH  42  44
ENDBRANCH  41  42
ENDBRANCH  13  41
TORSDOF 12
ENDMDL
