MODEL 1
REMARK VINA RESULT: -6.435162585      0.000      0.000
REMARK  6 active torsions:
REMARK  status: ('A' for Active; 'I' for Inactive)
REMARK    1  A    between atoms: C2_2  and  C3_3 
REMARK    2  A    between atoms: C3_3  and  N1_4 
REMARK       I    between atoms: N1_4  and  C4_6 
REMARK    3  A    between atoms: C4_6  and  C5_8 
REMARK    4  A    between atoms: C5_8  and  N2_9 
REMARK    5  A    between atoms: C5_8  and  C7_13 
REMARK    6  A    between atoms: N2_9  and  C6_11 
REMARK       I    between atoms: C7_13  and  N3_15 
ROOT
HETATM    1  C5  UNL     1      -1.389   4.446  85.878  1.00  0.00     0.269 C 
ENDROOT
BRANCH   1   2
HETATM    2  C4  UNL     1      -1.205   3.355  84.878  1.00  0.00     0.249 C 
HETATM    3  N1  UNL     1      -0.875   3.641  83.548  1.00  0.00    -0.359 N 
ATOM      4  H1  UNL     1      -0.762   4.615  83.266  1.00  0.00     0.162 HD
HETATM    5  O1  UNL     1      -1.341   2.158  85.220  1.00  0.00    -0.271 OA
BRANCH   3   6
HETATM    6  C3  UNL     1      -0.687   2.591  82.552  1.00  0.00     0.122 C 
BRANCH   6   7
HETATM    7  C2  UNL     1      -1.390   2.918  81.265  1.00  0.00     0.015 C 
HETATM    8  C1  UNL     1      -1.712   4.367  81.113  1.00  0.00     0.006 C 
ENDBRANCH   6   7
ENDBRANCH   3   6
ENDBRANCH   1   2
BRANCH   1   9
HETATM    9  N2  UNL     1      -2.610   3.996  86.603  1.00  0.00    -0.347 N 
ATOM     10  H2  UNL     1      -3.437   3.692  86.090  1.00  0.00     0.163 HD
BRANCH   9  11
HETATM   11  C6  UNL     1      -2.600   3.998  87.998  1.00  0.00     0.349 C 
HETATM   12  O2  UNL     1      -3.004   4.949  88.719  1.00  0.00    -0.284 OA
ENDBRANCH   9  11
ENDBRANCH   1   9
BRANCH   1  13
HETATM   13  C7  UNL     1      -1.720   5.729  85.262  1.00  0.00     0.252 C 
HETATM   14  O3  UNL     1      -2.952   5.936  85.001  1.00  0.00    -0.270 OA
HETATM   15  N3  UNL     1      -0.780   6.724  84.953  1.00  0.00    -0.350 N 
HETATM   16  C8  UNL     1      -1.221   7.978  84.281  1.00  0.00     0.126 C 
HETATM   17  C11 UNL     1       0.623   6.845  85.185  1.00  0.00     0.126 C 
HETATM   18  C9  UNL     1      -0.004   8.855  84.188  1.00  0.00     0.021 C 
HETATM   19  C10 UNL     1       1.093   7.787  84.058  1.00  0.00     0.021 C 
ENDBRANCH   1  13
TORSDOF 6
ENDMDL
MODEL 2
REMARK VINA RESULT: -6.385356528      2.282      4.459
REMARK  6 active torsions:
REMARK  status: ('A' for Active; 'I' for Inactive)
REMARK    1  A    between atoms: C2_2  and  C3_3 
REMARK    2  A    between atoms: C3_3  and  N1_4 
REMARK       I    between atoms: N1_4  and  C4_6 
REMARK    3  A    between atoms: C4_6  and  C5_8 
REMARK    4  A    between atoms: C5_8  and  N2_9 
REMARK    5  A    between atoms: C5_8  and  C7_13 
REMARK    6  A    between atoms: N2_9  and  C6_11 
REMARK       I    between atoms: C7_13  and  N3_15 
ROOT
HETATM    1  C5  UNL     1      -1.084   5.148  83.138  1.00  0.00     0.269 C 
ENDROOT
BRANCH   1   2
HETATM    2  C4  UNL     1      -1.163   4.575  84.513  1.00  0.00     0.249 C 
HETATM    3  N1  UNL     1      -1.742   5.295  85.564  1.00  0.00    -0.359 N 
ATOM      4  H1  UNL     1      -2.113   6.227  85.378  1.00  0.00     0.162 HD
HETATM    5  O1  UNL     1      -0.710   3.430  84.744  1.00  0.00    -0.271 OA
BRANCH   3   6
HETATM    6  C3  UNL     1      -1.833   4.755  86.917  1.00  0.00     0.122 C 
BRANCH   6   7
HETATM    7  C2  UNL     1      -3.227   4.871  87.466  1.00  0.00     0.015 C 
HETATM    8  C1  UNL     1      -4.117   3.739  87.075  1.00  0.00     0.006 C 
ENDBRANCH   6   7
ENDBRANCH   3   6
ENDBRANCH   1   2
BRANCH   1   9
HETATM    9  N2  UNL     1      -0.956   3.922  82.300  1.00  0.00    -0.347 N 
ATOM     10  H2  UNL     1      -0.397   3.131  82.619  1.00  0.00     0.163 HD
BRANCH   9  11
HETATM   11  C6  UNL     1      -1.615   3.878  81.072  1.00  0.00     0.349 C 
HETATM   12  O2  UNL     1      -1.248   4.494  80.036  1.00  0.00    -0.284 OA
ENDBRANCH   9  11
ENDBRANCH   1   9
BRANCH   1  13
HETATM   13  C7  UNL     1       0.130   5.930  82.920  1.00  0.00     0.252 C 
HETATM   14  O3  UNL     1       1.101   5.330  82.349  1.00  0.00    -0.270 OA
HETATM   15  N3  UNL     1       0.282   7.275  83.289  1.00  0.00    -0.350 N 
HETATM   16  C8  UNL     1       1.583   7.964  83.062  1.00  0.00     0.126 C 
HETATM   17  C11 UNL     1      -0.608   8.238  83.852  1.00  0.00     0.126 C 
HETATM   18  C9  UNL     1       1.377   9.396  83.473  1.00  0.00     0.021 C 
HETATM   19  C10 UNL     1       0.334   9.214  84.585  1.00  0.00     0.021 C 
ENDBRANCH   1  13
TORSDOF 6
ENDMDL
MODEL 3
REMARK VINA RESULT: -6.307347122      1.976      4.585
REMARK  6 active torsions:
REMARK  status: ('A' for Active; 'I' for Inactive)
REMARK    1  A    between atoms: C2_2  and  C3_3 
REMARK    2  A    between atoms: C3_3  and  N1_4 
REMARK       I    between atoms: N1_4  and  C4_6 
REMARK    3  A    between atoms: C4_6  and  C5_8 
REMARK    4  A    between atoms: C5_8  and  N2_9 
REMARK    5  A    between atoms: C5_8  and  C7_13 
REMARK    6  A    between atoms: N2_9  and  C6_11 
REMARK       I    between atoms: C7_13  and  N3_15 
ROOT
HETATM    1  C5  UNL     1      -0.702   6.280  85.156  1.00  0.00     0.269 C 
ENDROOT
BRANCH   1   2
HETATM    2  C4  UNL     1      -1.176   6.126  83.750  1.00  0.00     0.249 C 
HETATM    3  N1  UNL     1      -0.814   5.013  82.983  1.00  0.00    -0.359 N 
ATOM      4  H1  UNL     1      -0.215   4.300  83.400  1.00  0.00     0.162 HD
HETATM    5  O1  UNL     1      -1.913   6.999  83.235  1.00  0.00    -0.271 OA
BRANCH   3   6
HETATM    6  C3  UNL     1      -1.266   4.839  81.606  1.00  0.00     0.122 C 
BRANCH   6   7
HETATM    7  C2  UNL     1      -1.493   3.390  81.278  1.00  0.00     0.015 C 
HETATM    8  C1  UNL     1      -0.862   2.453  82.251  1.00  0.00     0.006 C 
ENDBRANCH   6   7
ENDBRANCH   3   6
ENDBRANCH   1   2
BRANCH   1   9
HETATM    9  N2  UNL     1       0.771   6.404  84.973  1.00  0.00    -0.347 N 
ATOM     10  H2  UNL     1       1.392   5.633  85.218  1.00  0.00     0.163 HD
BRANCH   9  11
HETATM   11  C6  UNL     1       1.284   7.595  84.460  1.00  0.00     0.349 C 
HETATM   12  O2  UNL     1       1.980   7.686  83.413  1.00  0.00    -0.284 OA
ENDBRANCH   9  11
ENDBRANCH   1   9
BRANCH   1  13
HETATM   13  C7  UNL     1      -0.922   5.081  85.962  1.00  0.00     0.252 C 
HETATM   14  O3  UNL     1       0.092   4.332  86.158  1.00  0.00    -0.270 OA
HETATM   15  N3  UNL     1      -2.157   4.720  86.523  1.00  0.00    -0.350 N 
HETATM   16  C8  UNL     1      -2.280   3.449  87.289  1.00  0.00     0.126 C 
HETATM   17  C11 UNL     1      -3.431   5.359  86.566  1.00  0.00     0.126 C 
HETATM   18  C9  UNL     1      -3.684   3.417  87.826  1.00  0.00     0.021 C 
HETATM   19  C10 UNL     1      -4.418   4.184  86.717  1.00  0.00     0.021 C 
ENDBRANCH   1  13
TORSDOF 6
ENDMDL
MODEL 4
REMARK VINA RESULT: -6.225020761      1.966      4.254
REMARK  6 active torsions:
REMARK  status: ('A' for Active; 'I' for Inactive)
REMARK    1  A    between atoms: C2_2  and  C3_3 
REMARK    2  A    between atoms: C3_3  and  N1_4 
REMARK       I    between atoms: N1_4  and  C4_6 
REMARK    3  A    between atoms: C4_6  and  C5_8 
REMARK    4  A    between atoms: C5_8  and  N2_9 
REMARK    5  A    between atoms: C5_8  and  C7_13 
REMARK    6  A    between atoms: N2_9  and  C6_11 
REMARK       I    between atoms: C7_13  and  N3_15 
ROOT
HETATM    1  C5  UNL     1      -1.094   5.835  83.640  1.00  0.00     0.269 C 
ENDROOT
BRANCH   1   2
HETATM    2  C4  UNL     1      -2.286   5.894  84.534  1.00  0.00     0.249 C 
HETATM    3  N1  UNL     1      -2.269   5.301  85.802  1.00  0.00    -0.359 N 
ATOM      4  H1  UNL     1      -1.423   4.822  86.112  1.00  0.00     0.162 HD
HETATM    5  O1  UNL     1      -3.326   6.482  84.158  1.00  0.00    -0.271 OA
BRANCH   3   6
HETATM    6  C3  UNL     1      -3.422   5.347  86.696  1.00  0.00     0.122 C 
BRANCH   6   7
HETATM    7  C2  UNL     1      -3.845   3.970  87.124  1.00  0.00     0.015 C 
HETATM    8  C1  UNL     1      -2.701   3.065  87.433  1.00  0.00     0.006 C 
ENDBRANCH   6   7
ENDBRANCH   3   6
ENDBRANCH   1   2
BRANCH   1   9
HETATM    9  N2  UNL     1      -0.637   4.429  83.828  1.00  0.00    -0.347 N 
ATOM     10  H2  UNL     1      -0.207   4.136  84.705  1.00  0.00     0.163 HD
BRANCH   9  11
HETATM   11  C6  UNL     1      -0.808   3.523  82.782  1.00  0.00     0.349 C 
HETATM   12  O2  UNL     1      -1.071   2.299  82.927  1.00  0.00    -0.284 OA
ENDBRANCH   9  11
ENDBRANCH   1   9
BRANCH   1  13
HETATM   13  C7  UNL     1      -0.002   6.692  84.095  1.00  0.00     0.252 C 
HETATM   14  O3  UNL     1       0.586   6.343  85.173  1.00  0.00    -0.270 OA
HETATM   15  N3  UNL     1       0.429   7.848  83.426  1.00  0.00    -0.350 N 
HETATM   16  C8  UNL     1       1.522   8.677  84.005  1.00  0.00     0.126 C 
HETATM   17  C11 UNL     1       0.055   8.453  82.189  1.00  0.00     0.126 C 
HETATM   18  C9  UNL     1       1.799   9.764  83.005  1.00  0.00     0.021 C 
HETATM   19  C10 UNL     1       0.399   9.942  82.399  1.00  0.00     0.021 C 
ENDBRANCH   1  13
TORSDOF 6
ENDMDL
MODEL 5
REMARK VINA RESULT: -6.224864532      2.307      5.618
REMARK  6 active torsions:
REMARK  status: ('A' for Active; 'I' for Inactive)
REMARK    1  A    between atoms: C2_2  and  C3_3 
REMARK    2  A    between atoms: C3_3  and  N1_4 
REMARK       I    between atoms: N1_4  and  C4_6 
REMARK    3  A    between atoms: C4_6  and  C5_8 
REMARK    4  A    between atoms: C5_8  and  N2_9 
REMARK    5  A    between atoms: C5_8  and  C7_13 
REMARK    6  A    between atoms: N2_9  and  C6_11 
REMARK       I    between atoms: C7_13  and  N3_15 
ROOT
HETATM    1  C5  UNL     1      -0.700   5.785  83.732  1.00  0.00     0.269 C 
ENDROOT
BRANCH   1   2
HETATM    2  C4  UNL     1       0.298   6.848  84.047  1.00  0.00     0.249 C 
HETATM    3  N1  UNL     1       0.186   8.130  83.497  1.00  0.00    -0.359 N 
ATOM      4  H1  UNL     1      -0.594   8.333  82.871  1.00  0.00     0.162 HD
HETATM    5  O1  UNL     1       1.256   6.604  84.816  1.00  0.00    -0.271 OA
BRANCH   3   6
HETATM    6  C3  UNL     1       1.148   9.188  83.791  1.00  0.00     0.122 C 
BRANCH   6   7
HETATM    7  C2  UNL     1       0.709  10.025  84.958  1.00  0.00     0.015 C 
HETATM    8  C1  UNL     1       1.679  11.099  85.320  1.00  0.00     0.006 C 
ENDBRANCH   6   7
ENDBRANCH   3   6
ENDBRANCH   1   2
BRANCH   1   9
HETATM    9  N2  UNL     1      -1.065   6.112  82.325  1.00  0.00    -0.347 N 
ATOM     10  H2  UNL     1      -1.194   7.081  82.034  1.00  0.00     0.163 HD
BRANCH   9  11
HETATM   11  C6  UNL     1      -1.227   5.068  81.414  1.00  0.00     0.349 C 
HETATM   12  O2  UNL     1      -1.018   5.156  80.175  1.00  0.00    -0.284 OA
ENDBRANCH   9  11
ENDBRANCH   1   9
BRANCH   1  13
HETATM   13  C7  UNL     1      -1.925   5.907  84.519  1.00  0.00     0.252 C 
HETATM   14  O3  UNL     1      -2.668   6.913  84.265  1.00  0.00    -0.270 OA
HETATM   15  N3  UNL     1      -2.322   4.999  85.512  1.00  0.00    -0.350 N 
HETATM   16  C8  UNL     1      -3.568   5.246  86.288  1.00  0.00     0.126 C 
HETATM   17  C11 UNL     1      -1.782   3.761  85.972  1.00  0.00     0.126 C 
HETATM   18  C9  UNL     1      -3.749   4.052  87.184  1.00  0.00     0.021 C 
HETATM   19  C10 UNL     1      -2.281   3.669  87.427  1.00  0.00     0.021 C 
ENDBRANCH   1  13
TORSDOF 6
ENDMDL
