MODEL 1
REMARK VINA RESULT: -7.206148048      0.000      0.000
REMARK  6 active torsions:
REMARK  status: ('A' for Active; 'I' for Inactive)
REMARK    1  A    between atoms: C2_2  and  C4_4 
REMARK    2  A    between atoms: C4_4  and  N1_5 
REMARK    3  A    between atoms: C4_4  and  C11_16 
REMARK       I    between atoms: N1_5  and  C5_7 
REMARK    4  A    between atoms: C5_7  and  C6_9 
REMARK    5  A    between atoms: C6_9  and  N2_10 
REMARK    6  A    between atoms: N2_10  and  C7_11 
ROOT
HETATM    1  C7  UNL     1      -0.095   4.704  82.268  1.00  0.00     0.361 C 
HETATM    2  C8  UNL     1      -1.398   4.649  81.599  1.00  0.00     0.087 C 
HETATM    3  N3  UNL     1      -2.434   4.593  81.050  1.00  0.00    -0.196 NA
ENDROOT
BRANCH   1   4
HETATM    4  N2  UNL     1       0.238   6.103  82.441  1.00  0.00    -0.044 N 
HETATM    5  C9  UNL     1       1.575   6.558  82.232  1.00  0.00     0.267 A 
HETATM    6  C10 UNL     1       0.564   6.767  81.176  1.00  0.00     0.267 A 
BRANCH   4   7
HETATM    7  C6  UNL     1      -0.612   6.816  83.372  1.00  0.00     0.340 C 
BRANCH   7   8
HETATM    8  C5  UNL     1      -0.636   6.156  84.706  1.00  0.00     0.244 C 
HETATM    9  N1  UNL     1      -1.769   5.450  85.185  1.00  0.00    -0.345 N 
ATOM     10  H1  UNL     1      -2.610   5.379  84.613  1.00  0.00     0.163 HD
HETATM   11  O1  UNL     1       0.387   6.232  85.420  1.00  0.00    -0.272 OA
BRANCH   9  12
HETATM   12  C4  UNL     1      -1.723   4.833  86.491  1.00  0.00     0.189 C 
BRANCH  12  13
HETATM   13  C2  UNL     1      -3.059   4.971  87.211  1.00  0.00     0.010 C 
HETATM   14  C1  UNL     1      -3.573   6.383  86.956  1.00  0.00     0.012 C 
HETATM   15  C3  UNL     1      -2.816   4.822  88.699  1.00  0.00     0.012 C 
ENDBRANCH  12  13
BRANCH  12  16
HETATM   16  C11 UNL     1      -1.465   3.386  86.324  1.00  0.00     0.197 C 
HETATM   17  O2  UNL     1      -0.305   3.005  86.040  1.00  0.00    -0.646 OA
HETATM   18  O3  UNL     1      -2.442   2.411  86.464  1.00  0.00    -0.646 OA
ENDBRANCH  12  16
ENDBRANCH   9  12
ENDBRANCH   7   8
ENDBRANCH   4   7
ENDBRANCH   1   4
TORSDOF 6
ENDMDL
MODEL 2
REMARK VINA RESULT: -6.904569482      1.001      1.732
REMARK  6 active torsions:
REMARK  status: ('A' for Active; 'I' for Inactive)
REMARK    1  A    between atoms: C2_2  and  C4_4 
REMARK    2  A    between atoms: C4_4  and  N1_5 
REMARK    3  A    between atoms: C4_4  and  C11_16 
REMARK       I    between atoms: N1_5  and  C5_7 
REMARK    4  A    between atoms: C5_7  and  C6_9 
REMARK    5  A    between atoms: C6_9  and  N2_10 
REMARK    6  A    between atoms: N2_10  and  C7_11 
ROOT
HETATM    1  C7  UNL     1       0.496   6.329  81.459  1.00  0.00     0.361 C 
HETATM    2  C8  UNL     1       0.047   6.755  80.131  1.00  0.00     0.087 C 
HETATM    3  N3  UNL     1      -0.307   7.115  79.071  1.00  0.00    -0.196 NA
ENDROOT
BRANCH   1   4
HETATM    4  N2  UNL     1      -0.648   5.750  82.132  1.00  0.00    -0.044 N 
HETATM    5  C9  UNL     1      -1.442   4.757  81.483  1.00  0.00     0.267 A 
HETATM    6  C10 UNL     1      -0.441   4.343  82.487  1.00  0.00     0.267 A 
BRANCH   4   7
HETATM    7  C6  UNL     1      -1.263   6.607  83.125  1.00  0.00     0.340 C 
BRANCH   7   8
HETATM    8  C5  UNL     1      -1.086   6.067  84.500  1.00  0.00     0.244 C 
HETATM    9  N1  UNL     1      -2.098   5.325  85.163  1.00  0.00    -0.345 N 
ATOM     10  H1  UNL     1      -2.988   5.143  84.700  1.00  0.00     0.163 HD
HETATM   11  O1  UNL     1      -0.000   6.278  85.082  1.00  0.00    -0.272 OA
BRANCH   9  12
HETATM   12  C4  UNL     1      -1.857   4.830  86.498  1.00  0.00     0.189 C 
BRANCH  12  13
HETATM   13  C2  UNL     1      -3.119   4.908  87.349  1.00  0.00     0.010 C 
HETATM   14  C1  UNL     1      -3.733   6.285  87.131  1.00  0.00     0.012 C 
HETATM   15  C3  UNL     1      -2.721   4.796  88.806  1.00  0.00     0.012 C 
ENDBRANCH  12  13
BRANCH  12  16
HETATM   16  C11 UNL     1      -1.474   3.403  86.414  1.00  0.00     0.197 C 
HETATM   17  O2  UNL     1      -0.300   3.108  86.093  1.00  0.00    -0.646 OA
HETATM   18  O3  UNL     1      -2.350   2.358  86.674  1.00  0.00    -0.646 OA
ENDBRANCH  12  16
ENDBRANCH   9  12
ENDBRANCH   7   8
ENDBRANCH   4   7
ENDBRANCH   1   4
TORSDOF 6
ENDMDL
MODEL 3
REMARK VINA RESULT: -6.707531198      0.725      2.169
REMARK  6 active torsions:
REMARK  status: ('A' for Active; 'I' for Inactive)
REMARK    1  A    between atoms: C2_2  and  C4_4 
REMARK    2  A    between atoms: C4_4  and  N1_5 
REMARK    3  A    between atoms: C4_4  and  C11_16 
REMARK       I    between atoms: N1_5  and  C5_7 
REMARK    4  A    between atoms: C5_7  and  C6_9 
REMARK    5  A    between atoms: C6_9  and  N2_10 
REMARK    6  A    between atoms: N2_10  and  C7_11 
ROOT
HETATM    1  C7  UNL     1       0.143   6.276  81.159  1.00  0.00     0.361 C 
HETATM    2  C8  UNL     1       1.426   6.346  81.863  1.00  0.00     0.087 C 
HETATM    3  N3  UNL     1       2.463   6.392  82.413  1.00  0.00    -0.196 NA
ENDROOT
BRANCH   1   4
HETATM    4  N2  UNL     1      -0.822   5.714  82.082  1.00  0.00    -0.044 N 
HETATM    5  C9  UNL     1      -1.676   4.646  81.673  1.00  0.00     0.267 A 
HETATM    6  C10 UNL     1      -0.483   4.348  82.490  1.00  0.00     0.267 A 
BRANCH   4   7
HETATM    7  C6  UNL     1      -1.278   6.627  83.111  1.00  0.00     0.340 C 
BRANCH   7   8
HETATM    8  C5  UNL     1      -1.105   6.048  84.470  1.00  0.00     0.244 C 
HETATM    9  N1  UNL     1      -2.151   5.368  85.146  1.00  0.00    -0.345 N 
ATOM     10  H1  UNL     1      -3.063   5.259  84.704  1.00  0.00     0.163 HD
HETATM   11  O1  UNL     1       0.007   6.170  85.028  1.00  0.00    -0.272 OA
BRANCH   9  12
HETATM   12  C4  UNL     1      -1.913   4.831  86.466  1.00  0.00     0.189 C 
BRANCH  12  13
HETATM   13  C2  UNL     1      -3.163   4.929  87.333  1.00  0.00     0.010 C 
HETATM   14  C1  UNL     1      -3.738   6.328  87.150  1.00  0.00     0.012 C 
HETATM   15  C3  UNL     1      -2.753   4.776  88.783  1.00  0.00     0.012 C 
ENDBRANCH  12  13
BRANCH  12  16
HETATM   16  C11 UNL     1      -1.580   3.395  86.342  1.00  0.00     0.197 C 
HETATM   17  O2  UNL     1      -2.490   2.545  86.484  1.00  0.00    -0.646 OA
HETATM   18  O3  UNL     1      -0.302   2.925  86.074  1.00  0.00    -0.646 OA
ENDBRANCH  12  16
ENDBRANCH   9  12
ENDBRANCH   7   8
ENDBRANCH   4   7
ENDBRANCH   1   4
TORSDOF 6
ENDMDL
MODEL 4
REMARK VINA RESULT: -6.548488568      1.165      1.305
REMARK  6 active torsions:
REMARK  status: ('A' for Active; 'I' for Inactive)
REMARK    1  A    between atoms: C2_2  and  C4_4 
REMARK    2  A    between atoms: C4_4  and  N1_5 
REMARK    3  A    between atoms: C4_4  and  C11_16 
REMARK       I    between atoms: N1_5  and  C5_7 
REMARK    4  A    between atoms: C5_7  and  C6_9 
REMARK    5  A    between atoms: C6_9  and  N2_10 
REMARK    6  A    between atoms: N2_10  and  C7_11 
ROOT
HETATM    1  C7  UNL     1      -0.994   7.186  81.707  1.00  0.00     0.361 C 
HETATM    2  C8  UNL     1      -1.026   5.925  80.963  1.00  0.00     0.087 C 
HETATM    3  N3  UNL     1      -1.068   4.909  80.375  1.00  0.00    -0.196 NA
ENDROOT
BRANCH   1   4
HETATM    4  N2  UNL     1       0.258   7.223  82.434  1.00  0.00    -0.044 N 
HETATM    5  C9  UNL     1       1.298   6.295  82.129  1.00  0.00     0.267 A 
HETATM    6  C10 UNL     1       1.379   7.673  81.605  1.00  0.00     0.267 A 
BRANCH   4   7
HETATM    7  C6  UNL     1       0.162   7.758  83.777  1.00  0.00     0.340 C 
BRANCH   7   8
HETATM    8  C5  UNL     1      -0.003   6.676  84.785  1.00  0.00     0.244 C 
HETATM    9  N1  UNL     1      -1.257   6.065  85.047  1.00  0.00    -0.345 N 
ATOM     10  H1  UNL     1      -2.089   6.361  84.539  1.00  0.00     0.163 HD
HETATM   11  O1  UNL     1       1.007   6.298  85.417  1.00  0.00    -0.272 OA
BRANCH   9  12
HETATM   12  C4  UNL     1      -1.345   5.019  86.040  1.00  0.00     0.189 C 
BRANCH  12  13
HETATM   13  C2  UNL     1      -2.768   4.880  86.567  1.00  0.00     0.010 C 
HETATM   14  C1  UNL     1      -3.383   6.274  86.597  1.00  0.00     0.012 C 
HETATM   15  C3  UNL     1      -2.702   4.366  87.991  1.00  0.00     0.012 C 
ENDBRANCH  12  13
BRANCH  12  16
HETATM   16  C11 UNL     1      -0.985   3.731  85.407  1.00  0.00     0.197 C 
HETATM   17  O2  UNL     1      -0.307   2.903  86.059  1.00  0.00    -0.646 OA
HETATM   18  O3  UNL     1      -1.360   3.379  84.118  1.00  0.00    -0.646 OA
ENDBRANCH  12  16
ENDBRANCH   9  12
ENDBRANCH   7   8
ENDBRANCH   4   7
ENDBRANCH   1   4
TORSDOF 6
ENDMDL
MODEL 5
REMARK VINA RESULT: -6.524037158      1.192      1.233
REMARK  6 active torsions:
REMARK  status: ('A' for Active; 'I' for Inactive)
REMARK    1  A    between atoms: C2_2  and  C4_4 
REMARK    2  A    between atoms: C4_4  and  N1_5 
REMARK    3  A    between atoms: C4_4  and  C11_16 
REMARK       I    between atoms: N1_5  and  C5_7 
REMARK    4  A    between atoms: C5_7  and  C6_9 
REMARK    5  A    between atoms: C6_9  and  N2_10 
REMARK    6  A    between atoms: N2_10  and  C7_11 
ROOT
HETATM    1  C7  UNL     1       0.448   6.272  82.089  1.00  0.00     0.361 C 
HETATM    2  C8  UNL     1      -0.454   5.631  81.129  1.00  0.00     0.087 C 
HETATM    3  N3  UNL     1      -1.161   5.115  80.346  1.00  0.00    -0.196 NA
ENDROOT
BRANCH   1   4
HETATM    4  N2  UNL     1      -0.110   7.573  82.398  1.00  0.00    -0.044 N 
HETATM    5  C9  UNL     1       0.744   8.705  82.557  1.00  0.00     0.267 A 
HETATM    6  C10 UNL     1       0.016   8.519  81.286  1.00  0.00     0.267 A 
BRANCH   4   7
HETATM    7  C6  UNL     1      -1.373   7.536  83.107  1.00  0.00     0.340 C 
BRANCH   7   8
HETATM    8  C5  UNL     1      -1.234   6.880  84.435  1.00  0.00     0.244 C 
HETATM    9  N1  UNL     1      -1.945   5.701  84.779  1.00  0.00    -0.345 N 
ATOM     10  H1  UNL     1      -2.579   5.269  84.107  1.00  0.00     0.163 HD
HETATM   11  O1  UNL     1      -0.460   7.394  85.270  1.00  0.00    -0.272 OA
BRANCH   9  12
HETATM   12  C4  UNL     1      -1.763   5.117  86.087  1.00  0.00     0.189 C 
BRANCH  12  13
HETATM   13  C2  UNL     1      -3.093   4.983  86.819  1.00  0.00     0.010 C 
HETATM   14  C1  UNL     1      -3.641   6.389  87.033  1.00  0.00     0.012 C 
HETATM   15  C3  UNL     1      -2.830   4.370  88.179  1.00  0.00     0.012 C 
ENDBRANCH  12  13
BRANCH  12  16
HETATM   16  C11 UNL     1      -1.214   3.752  85.927  1.00  0.00     0.197 C 
HETATM   17  O2  UNL     1      -0.025   3.534  86.255  1.00  0.00    -0.646 OA
HETATM   18  O3  UNL     1      -1.947   2.684  85.427  1.00  0.00    -0.646 OA
ENDBRANCH  12  16
ENDBRANCH   9  12
ENDBRANCH   7   8
ENDBRANCH   4   7
ENDBRANCH   1   4
TORSDOF 6
ENDMDL
