MODEL 1
REMARK VINA RESULT: -6.987523244      0.000      0.000
REMARK  6 active torsions:
REMARK  status: ('A' for Active; 'I' for Inactive)
REMARK    1  A    between atoms: C2_2  and  O1_3 
REMARK    2  A    between atoms: O1_3  and  C3_4 
REMARK    3  A    between atoms: C3_4  and  C4_6 
REMARK    4  A    between atoms: C8_11  and  N1_12 
REMARK       I    between atoms: N1_12  and  C9_14 
REMARK    5  A    between atoms: C9_14  and  C10_16 
REMARK    6  A    between atoms: C11_17  and  C12_18 
ROOT
HETATM    1  C12 UNL     1     -50.540   0.162 -17.719  1.00  0.00     0.165 C 
HETATM    2  C13 UNL     1     -50.787  -1.187 -17.184  1.00  0.00     0.063 C 
HETATM    3  N2  UNL     1     -50.998  -2.248 -16.745  1.00  0.00    -0.197 NA
ENDROOT
BRANCH   1   4
HETATM    4  C11 UNL     1     -51.391   0.535 -18.827  1.00  0.00    -0.006 A 
HETATM    5  C10 UNL     1     -51.192   0.212 -20.160  1.00  0.00     0.060 A 
HETATM    6  C19 UNL     1     -52.146   0.628 -21.114  1.00  0.00     0.048 A 
HETATM    7  C16 UNL     1     -53.258   1.333 -20.793  1.00  0.00     0.051 A 
HETATM    8  S2  UNL     1     -52.310   0.439 -22.794  1.00  0.00    -0.099 SA
HETATM    9  N3  UNL     1     -53.433   1.642 -19.466  1.00  0.00    -0.358 N 
HETATM   10  C17 UNL     1     -54.111   1.665 -21.791  1.00  0.00     0.038 A 
HETATM   11  C14 UNL     1     -52.558   1.265 -18.568  1.00  0.00     0.014 A 
ATOM     12  H3  UNL     1     -54.255   2.173 -19.176  1.00  0.00     0.166 HD
HETATM   13  C15 UNL     1     -52.789   1.617 -17.128  1.00  0.00     0.068 C 
HETATM   14  C18 UNL     1     -53.778   1.257 -23.052  1.00  0.00     0.053 A 
BRANCH   5  15
HETATM   15  C9  UNL     1     -50.046  -0.527 -20.585  1.00  0.00     0.258 C 
HETATM   16  N1  UNL     1     -49.902  -1.936 -20.619  1.00  0.00    -0.321 N 
ATOM     17  H1  UNL     1     -50.672  -2.535 -20.322  1.00  0.00     0.169 HD
HETATM   18  O3  UNL     1     -49.017   0.126 -20.990  1.00  0.00    -0.267 OA
BRANCH  16  19
HETATM   19  C8  UNL     1     -48.643  -2.534 -21.081  1.00  0.00     0.064 A 
HETATM   20  C4  UNL     1     -48.495  -2.871 -22.397  1.00  0.00     0.107 A 
HETATM   21  S1  UNL     1     -46.915  -3.513 -22.458  1.00  0.00    -0.093 SA
HETATM   22  C5  UNL     1     -46.486  -3.339 -20.823  1.00  0.00     0.059 A 
HETATM   23  C6  UNL     1     -47.601  -2.777 -20.261  1.00  0.00    -0.027 A 
HETATM   24  C7  UNL     1     -47.637  -2.447 -18.770  1.00  0.00     0.051 C 
BRANCH  20  25
HETATM   25  C3  UNL     1     -49.479  -2.711 -23.491  1.00  0.00     0.302 C 
HETATM   26  O2  UNL     1     -50.695  -2.844 -23.251  1.00  0.00    -0.259 OA
BRANCH  25  27
HETATM   27  O1  UNL     1     -49.026  -2.422 -24.742  1.00  0.00    -0.317 OA
BRANCH  27  28
HETATM   28  C2  UNL     1     -48.921  -3.365 -25.790  1.00  0.00     0.174 C 
HETATM   29  C1  UNL     1     -48.650  -2.622 -27.062  1.00  0.00     0.034 C 
ENDBRANCH  27  28
ENDBRANCH  25  27
ENDBRANCH  20  25
ENDBRANCH  16  19
ENDBRANCH   5  15
ENDBRANCH   1   4
TORSDOF 6
ENDMDL
MODEL 2
REMARK VINA RESULT: -6.910309324      1.005      1.468
REMARK  6 active torsions:
REMARK  status: ('A' for Active; 'I' for Inactive)
REMARK    1  A    between atoms: C2_2  and  O1_3 
REMARK    2  A    between atoms: O1_3  and  C3_4 
REMARK    3  A    between atoms: C3_4  and  C4_6 
REMARK    4  A    between atoms: C8_11  and  N1_12 
REMARK       I    between atoms: N1_12  and  C9_14 
REMARK    5  A    between atoms: C9_14  and  C10_16 
REMARK    6  A    between atoms: C11_17  and  C12_18 
ROOT
HETATM    1  C12 UNL     1     -50.500   0.107 -17.718  1.00  0.00     0.165 C 
HETATM    2  C13 UNL     1     -50.751  -1.261 -17.234  1.00  0.00     0.063 C 
HETATM    3  N2  UNL     1     -50.964  -2.337 -16.835  1.00  0.00    -0.197 NA
ENDROOT
BRANCH   1   4
HETATM    4  C11 UNL     1     -51.410   0.557 -18.748  1.00  0.00    -0.006 A 
HETATM    5  C10 UNL     1     -51.323   0.273 -20.102  1.00  0.00     0.060 A 
HETATM    6  C19 UNL     1     -52.323   0.766 -20.969  1.00  0.00     0.048 A 
HETATM    7  C16 UNL     1     -53.374   1.509 -20.544  1.00  0.00     0.051 A 
HETATM    8  S2  UNL     1     -52.618   0.645 -22.637  1.00  0.00    -0.099 SA
HETATM    9  N3  UNL     1     -53.436   1.779 -19.198  1.00  0.00    -0.358 N 
HETATM   10  C17 UNL     1     -54.279   1.916 -21.465  1.00  0.00     0.038 A 
HETATM   11  C14 UNL     1     -52.519   1.330 -18.380  1.00  0.00     0.014 A 
ATOM     12  H3  UNL     1     -54.208   2.337 -18.832  1.00  0.00     0.166 HD
HETATM   13  C15 UNL     1     -52.627   1.642 -16.917  1.00  0.00     0.068 C 
HETATM   14  C18 UNL     1     -54.058   1.537 -22.759  1.00  0.00     0.053 A 
BRANCH   5  15
HETATM   15  C9  UNL     1     -50.249  -0.503 -20.634  1.00  0.00     0.258 C 
HETATM   16  N1  UNL     1     -50.150  -1.915 -20.671  1.00  0.00    -0.321 N 
ATOM     17  H1  UNL     1     -50.905  -2.489 -20.294  1.00  0.00     0.169 HD
HETATM   18  O3  UNL     1     -49.246   0.117 -21.145  1.00  0.00    -0.267 OA
BRANCH  16  19
HETATM   19  C8  UNL     1     -48.963  -2.554 -21.252  1.00  0.00     0.064 A 
HETATM   20  C4  UNL     1     -48.964  -2.915 -22.570  1.00  0.00     0.107 A 
HETATM   21  S1  UNL     1     -47.415  -3.600 -22.786  1.00  0.00    -0.093 SA
HETATM   22  C5  UNL     1     -46.811  -3.410 -21.209  1.00  0.00     0.059 A 
HETATM   23  C6  UNL     1     -47.845  -2.810 -20.543  1.00  0.00    -0.027 A 
HETATM   24  C7  UNL     1     -47.714  -2.455 -19.063  1.00  0.00     0.051 C 
BRANCH  20  25
HETATM   25  C3  UNL     1     -50.055  -2.748 -23.557  1.00  0.00     0.302 C 
HETATM   26  O2  UNL     1     -49.778  -2.470 -24.740  1.00  0.00    -0.259 OA
BRANCH  25  27
HETATM   27  O1  UNL     1     -51.342  -2.904 -23.142  1.00  0.00    -0.317 OA
BRANCH  27  28
HETATM   28  C2  UNL     1     -52.451  -3.018 -24.011  1.00  0.00     0.174 C 
HETATM   29  C1  UNL     1     -52.741  -4.474 -24.211  1.00  0.00     0.034 C 
ENDBRANCH  27  28
ENDBRANCH  25  27
ENDBRANCH  20  25
ENDBRANCH  16  19
ENDBRANCH   5  15
ENDBRANCH   1   4
TORSDOF 6
ENDMDL
MODEL 3
REMARK VINA RESULT: -6.892066557      2.695      3.706
REMARK  6 active torsions:
REMARK  status: ('A' for Active; 'I' for Inactive)
REMARK    1  A    between atoms: C2_2  and  O1_3 
REMARK    2  A    between atoms: O1_3  and  C3_4 
REMARK    3  A    between atoms: C3_4  and  C4_6 
REMARK    4  A    between atoms: C8_11  and  N1_12 
REMARK       I    between atoms: N1_12  and  C9_14 
REMARK    5  A    between atoms: C9_14  and  C10_16 
REMARK    6  A    between atoms: C11_17  and  C12_18 
ROOT
HETATM    1  C12 UNL     1     -51.931   1.055 -21.434  1.00  0.00     0.165 C 
HETATM    2  C13 UNL     1     -52.026  -0.058 -20.475  1.00  0.00     0.063 C 
HETATM    3  N2  UNL     1     -52.115  -0.928 -19.702  1.00  0.00    -0.197 NA
ENDROOT
BRANCH   1   4
HETATM    4  C11 UNL     1     -52.960   1.063 -22.450  1.00  0.00    -0.006 A 
HETATM    5  C10 UNL     1     -52.966   0.317 -23.618  1.00  0.00     0.060 A 
HETATM    6  C19 UNL     1     -54.073   0.418 -24.489  1.00  0.00     0.048 A 
HETATM    7  C16 UNL     1     -55.141   1.214 -24.241  1.00  0.00     0.051 A 
HETATM    8  S2  UNL     1     -54.497  -0.307 -25.964  1.00  0.00    -0.099 SA
HETATM    9  N3  UNL     1     -55.111   1.946 -23.078  1.00  0.00    -0.358 N 
HETATM   10  C17 UNL     1     -56.152   1.220 -25.141  1.00  0.00     0.038 A 
HETATM   11  C14 UNL     1     -54.093   1.864 -22.259  1.00  0.00     0.014 A 
ATOM     12  H3  UNL     1     -55.893   2.561 -22.849  1.00  0.00     0.166 HD
HETATM   13  C15 UNL     1     -54.102   2.674 -20.997  1.00  0.00     0.068 C 
HETATM   14  C18 UNL     1     -56.012   0.413 -26.235  1.00  0.00     0.053 A 
BRANCH   5  15
HETATM   15  C9  UNL     1     -51.880  -0.547 -23.957  1.00  0.00     0.258 C 
HETATM   16  N1  UNL     1     -51.535  -1.772 -23.334  1.00  0.00    -0.321 N 
ATOM     17  H1  UNL     1     -52.094  -2.124 -22.557  1.00  0.00     0.169 HD
HETATM   18  O3  UNL     1     -51.113  -0.207 -24.930  1.00  0.00    -0.267 OA
BRANCH  16  19
HETATM   19  C8  UNL     1     -50.373  -2.535 -23.808  1.00  0.00     0.064 A 
HETATM   20  C4  UNL     1     -50.527  -3.451 -24.810  1.00  0.00     0.107 A 
HETATM   21  S1  UNL     1     -48.949  -4.070 -25.015  1.00  0.00    -0.093 SA
HETATM   22  C5  UNL     1     -48.142  -3.156 -23.832  1.00  0.00     0.059 A 
HETATM   23  C6  UNL     1     -49.135  -2.380 -23.298  1.00  0.00    -0.027 A 
HETATM   24  C7  UNL     1     -48.829  -1.390 -22.177  1.00  0.00     0.051 C 
BRANCH  20  25
HETATM   25  C3  UNL     1     -51.770  -3.809 -25.531  1.00  0.00     0.302 C 
HETATM   26  O2  UNL     1     -52.455  -4.773 -25.136  1.00  0.00    -0.259 OA
BRANCH  25  27
HETATM   27  O1  UNL     1     -52.133  -3.070 -26.615  1.00  0.00    -0.317 OA
BRANCH  27  28
HETATM   28  C2  UNL     1     -51.255  -2.702 -27.659  1.00  0.00     0.174 C 
HETATM   29  C1  UNL     1     -51.720  -1.393 -28.222  1.00  0.00     0.034 C 
ENDBRANCH  27  28
ENDBRANCH  25  27
ENDBRANCH  20  25
ENDBRANCH  16  19
ENDBRANCH   5  15
ENDBRANCH   1   4
TORSDOF 6
ENDMDL
MODEL 4
REMARK VINA RESULT: -6.867468561      2.928      6.715
REMARK  6 active torsions:
REMARK  status: ('A' for Active; 'I' for Inactive)
REMARK    1  A    between atoms: C2_2  and  O1_3 
REMARK    2  A    between atoms: O1_3  and  C3_4 
REMARK    3  A    between atoms: C3_4  and  C4_6 
REMARK    4  A    between atoms: C8_11  and  N1_12 
REMARK       I    between atoms: N1_12  and  C9_14 
REMARK    5  A    between atoms: C9_14  and  C10_16 
REMARK    6  A    between atoms: C11_17  and  C12_18 
ROOT
HETATM    1  C12 UNL     1     -48.886  -2.895 -23.783  1.00  0.00     0.165 C 
HETATM    2  C13 UNL     1     -49.131  -4.023 -22.869  1.00  0.00     0.063 C 
HETATM    3  N2  UNL     1     -49.338  -4.903 -22.131  1.00  0.00    -0.197 NA
ENDROOT
BRANCH   1   4
HETATM    4  C11 UNL     1     -49.849  -2.768 -24.854  1.00  0.00    -0.006 A 
HETATM    5  C10 UNL     1     -51.058  -2.091 -24.795  1.00  0.00     0.060 A 
HETATM    6  C19 UNL     1     -51.867  -2.035 -25.951  1.00  0.00     0.048 A 
HETATM    7  C16 UNL     1     -51.522  -2.613 -27.127  1.00  0.00     0.051 A 
HETATM    8  S2  UNL     1     -53.361  -1.319 -26.325  1.00  0.00    -0.099 SA
HETATM    9  N3  UNL     1     -50.321  -3.281 -27.160  1.00  0.00    -0.358 N 
HETATM   10  C17 UNL     1     -52.371  -2.482 -28.173  1.00  0.00     0.038 A 
HETATM   11  C14 UNL     1     -49.558  -3.342 -26.098  1.00  0.00     0.014 A 
ATOM     12  H3  UNL     1     -50.020  -3.733 -28.023  1.00  0.00     0.166 HD
HETATM   13  C15 UNL     1     -48.252  -4.075 -26.177  1.00  0.00     0.068 C 
HETATM   14  C18 UNL     1     -53.516  -1.768 -27.956  1.00  0.00     0.053 A 
BRANCH   5  15
HETATM   15  C9  UNL     1     -51.498  -1.454 -23.595  1.00  0.00     0.258 C 
HETATM   16  N1  UNL     1     -51.197  -0.138 -23.165  1.00  0.00    -0.321 N 
ATOM     17  H1  UNL     1     -50.610   0.464 -23.741  1.00  0.00     0.169 HD
HETATM   18  O3  UNL     1     -52.253  -2.118 -22.796  1.00  0.00    -0.267 OA
BRANCH  16  19
HETATM   19  C8  UNL     1     -51.731   0.358 -21.891  1.00  0.00     0.064 A 
HETATM   20  C4  UNL     1     -51.013   0.184 -20.741  1.00  0.00     0.107 A 
HETATM   21  S1  UNL     1     -52.004   0.903 -19.552  1.00  0.00    -0.093 SA
HETATM   22  C5  UNL     1     -53.295   1.402 -20.537  1.00  0.00     0.059 A 
HETATM   23  C6  UNL     1     -52.917   0.990 -21.787  1.00  0.00    -0.027 A 
HETATM   24  C7  UNL     1     -53.816   1.249 -22.995  1.00  0.00     0.051 C 
BRANCH  20  25
HETATM   25  C3  UNL     1     -49.696  -0.473 -20.584  1.00  0.00     0.302 C 
HETATM   26  O2  UNL     1     -48.701  -0.010 -21.176  1.00  0.00    -0.259 OA
BRANCH  25  27
HETATM   27  O1  UNL     1     -49.605  -1.575 -19.789  1.00  0.00    -0.317 OA
BRANCH  27  28
HETATM   28  C2  UNL     1     -50.599  -2.577 -19.700  1.00  0.00     0.174 C 
HETATM   29  C1  UNL     1     -51.008  -2.702 -18.264  1.00  0.00     0.034 C 
ENDBRANCH  27  28
ENDBRANCH  25  27
ENDBRANCH  20  25
ENDBRANCH  16  19
ENDBRANCH   5  15
ENDBRANCH   1   4
TORSDOF 6
ENDMDL
MODEL 5
REMARK VINA RESULT: -6.850054282      2.809      5.176
REMARK  6 active torsions:
REMARK  status: ('A' for Active; 'I' for Inactive)
REMARK    1  A    between atoms: C2_2  and  O1_3 
REMARK    2  A    between atoms: O1_3  and  C3_4 
REMARK    3  A    between atoms: C3_4  and  C4_6 
REMARK    4  A    between atoms: C8_11  and  N1_12 
REMARK       I    between atoms: N1_12  and  C9_14 
REMARK    5  A    between atoms: C9_14  and  C10_16 
REMARK    6  A    between atoms: C11_17  and  C12_18 
ROOT
HETATM    1  C12 UNL     1     -52.287   1.283 -21.615  1.00  0.00     0.165 C 
HETATM    2  C13 UNL     1     -53.734   1.477 -21.805  1.00  0.00     0.063 C 
HETATM    3  N2  UNL     1     -54.879   1.621 -21.976  1.00  0.00    -0.197 NA
ENDROOT
BRANCH   1   4
HETATM    4  C11 UNL     1     -51.925   0.028 -20.993  1.00  0.00    -0.006 A 
HETATM    5  C10 UNL     1     -51.667  -1.168 -21.645  1.00  0.00     0.060 A 
HETATM    6  C19 UNL     1     -51.290  -2.295 -20.883  1.00  0.00     0.048 A 
HETATM    7  C16 UNL     1     -51.165  -2.270 -19.534  1.00  0.00     0.051 A 
HETATM    8  S2  UNL     1     -50.871  -3.898 -21.255  1.00  0.00    -0.099 SA
HETATM    9  N3  UNL     1     -51.428  -1.074 -18.909  1.00  0.00    -0.358 N 
HETATM   10  C17 UNL     1     -50.783  -3.409 -18.909  1.00  0.00     0.038 A 
HETATM   11  C14 UNL     1     -51.779  -0.020 -19.601  1.00  0.00     0.014 A 
ATOM     12  H3  UNL     1     -51.349  -1.008 -17.895  1.00  0.00     0.166 HD
HETATM   13  C15 UNL     1     -52.051   1.269 -18.882  1.00  0.00     0.068 C 
HETATM   14  C18 UNL     1     -50.550  -4.500 -19.699  1.00  0.00     0.053 A 
BRANCH   5  15
HETATM   15  C9  UNL     1     -51.776  -1.281 -23.065  1.00  0.00     0.258 C 
HETATM   16  N1  UNL     1     -52.766  -1.984 -23.794  1.00  0.00    -0.321 N 
ATOM     17  H1  UNL     1     -53.509  -2.477 -23.299  1.00  0.00     0.169 HD
HETATM   18  O3  UNL     1     -50.896  -0.690 -23.790  1.00  0.00    -0.267 OA
BRANCH  16  19
HETATM   19  C8  UNL     1     -52.722  -2.003 -25.261  1.00  0.00     0.064 A 
HETATM   20  C4  UNL     1     -51.956  -2.935 -25.905  1.00  0.00     0.107 A 
HETATM   21  S1  UNL     1     -52.214  -2.576 -27.554  1.00  0.00    -0.093 SA
HETATM   22  C5  UNL     1     -53.279  -1.263 -27.385  1.00  0.00     0.059 A 
HETATM   23  C6  UNL     1     -53.410  -1.134 -26.028  1.00  0.00    -0.027 A 
HETATM   24  C7  UNL     1     -54.302  -0.046 -25.435  1.00  0.00     0.051 C 
BRANCH  20  25
HETATM   25  C3  UNL     1     -51.112  -3.990 -25.301  1.00  0.00     0.302 C 
HETATM   26  O2  UNL     1     -51.622  -4.813 -24.515  1.00  0.00    -0.259 OA
BRANCH  25  27
HETATM   27  O1  UNL     1     -49.790  -4.035 -25.624  1.00  0.00    -0.317 OA
BRANCH  27  28
HETATM   28  C2  UNL     1     -48.962  -2.896 -25.751  1.00  0.00     0.174 C 
HETATM   29  C1  UNL     1     -48.453  -2.844 -27.159  1.00  0.00     0.034 C 
ENDBRANCH  27  28
ENDBRANCH  25  27
ENDBRANCH  20  25
ENDBRANCH  16  19
ENDBRANCH   5  15
ENDBRANCH   1   4
TORSDOF 6
ENDMDL
