MODEL 1
REMARK VINA RESULT: -4.449168846      0.000      0.000
REMARK  3 active torsions:
REMARK  status: ('A' for Active; 'I' for Inactive)
REMARK    1  A    between atoms: S1_2  and  C2_3 
REMARK    2  A    between atoms: C2_3  and  N1_4 
REMARK    3  A    between atoms: C3_6  and  C4_7 
ROOT
HETATM    1  C4  UNL     1      10.538  -8.241 -24.629  1.00  0.00    -0.003 C 
HETATM    2  C5  UNL     1      11.319  -9.190 -25.522  1.00  0.00     0.042 C 
HETATM    3  C6  UNL     1      12.348  -9.946 -24.744  1.00  0.00     0.233 C 
HETATM    4  N2  UNL     1      12.833  -9.243 -23.584  1.00  0.00    -0.071 N 
ATOM      5  H21 UNL     1      13.758  -8.852 -23.764  1.00  0.00     0.277 HD
ATOM      6  H22 UNL     1      13.065  -9.899 -22.838  1.00  0.00     0.277 HD
HETATM    7  C7  UNL     1      11.943  -8.226 -23.101  1.00  0.00     0.188 C 
HETATM    8  C8  UNL     1      10.480  -8.685 -23.208  1.00  0.00     0.048 C 
HETATM    9  C9  UNL     1      11.574  -7.208 -24.163  1.00  0.00     0.048 C 
ENDROOT
BRANCH   1  10
HETATM   10  C3  UNL     1       9.347  -7.687 -25.264  1.00  0.00     0.070 C 
HETATM   11  N1  UNL     1       8.210  -8.076 -24.870  1.00  0.00    -0.373 N 
ATOM     12  H1  UNL     1       8.223  -8.766 -24.119  1.00  0.00     0.164 HD
BRANCH  11  13
HETATM   13  C2  UNL     1       6.930  -7.699 -25.313  1.00  0.00     0.132 C 
BRANCH  13  14
HETATM   14  S1  UNL     1       7.022  -6.093 -26.125  1.00  0.00    -0.129 SA
HETATM   15  C1  UNL     1       5.976  -4.845 -25.374  1.00  0.00     0.096 C 
ENDBRANCH  13  14
ENDBRANCH  11  13
ENDBRANCH   1  10
TORSDOF 3
ENDMDL
MODEL 2
REMARK VINA RESULT: -4.298600571      1.345      1.687
REMARK  3 active torsions:
REMARK  status: ('A' for Active; 'I' for Inactive)
REMARK    1  A    between atoms: S1_2  and  C2_3 
REMARK    2  A    between atoms: C2_3  and  N1_4 
REMARK    3  A    between atoms: C3_6  and  C4_7 
ROOT
HETATM    1  C4  UNL     1      10.520  -8.266 -24.613  1.00  0.00    -0.003 C 
HETATM    2  C5  UNL     1      11.315  -9.223 -25.486  1.00  0.00     0.042 C 
HETATM    3  C6  UNL     1      12.356  -9.944 -24.692  1.00  0.00     0.233 C 
HETATM    4  N2  UNL     1      12.832  -9.207 -23.549  1.00  0.00    -0.071 N 
ATOM      5  H21 UNL     1      13.750  -8.807 -23.739  1.00  0.00     0.277 HD
ATOM      6  H22 UNL     1      13.075  -9.843 -22.789  1.00  0.00     0.277 HD
HETATM    7  C7  UNL     1      11.927  -8.195 -23.088  1.00  0.00     0.188 C 
HETATM    8  C8  UNL     1      10.471  -8.679 -23.182  1.00  0.00     0.048 C 
HETATM    9  C9  UNL     1      11.540  -7.206 -24.172  1.00  0.00     0.048 C 
ENDROOT
BRANCH   1  10
HETATM   10  C3  UNL     1       9.320  -7.746 -25.258  1.00  0.00     0.070 C 
HETATM   11  N1  UNL     1       8.190  -8.160 -24.869  1.00  0.00    -0.373 N 
ATOM     12  H1  UNL     1       8.216  -8.845 -24.113  1.00  0.00     0.164 HD
BRANCH  11  13
HETATM   13  C2  UNL     1       6.904  -7.818 -25.322  1.00  0.00     0.132 C 
BRANCH  13  14
HETATM   14  S1  UNL     1       5.918  -9.314 -25.521  1.00  0.00    -0.129 SA
HETATM   15  C1  UNL     1       4.280  -9.199 -24.800  1.00  0.00     0.096 C 
ENDBRANCH  13  14
ENDBRANCH  11  13
ENDBRANCH   1  10
TORSDOF 3
ENDMDL
MODEL 3
REMARK VINA RESULT: -4.168988712      1.076      1.386
REMARK  3 active torsions:
REMARK  status: ('A' for Active; 'I' for Inactive)
REMARK    1  A    between atoms: S1_2  and  C2_3 
REMARK    2  A    between atoms: C2_3  and  N1_4 
REMARK    3  A    between atoms: C3_6  and  C4_7 
ROOT
HETATM    1  C4  UNL     1      10.647  -8.229 -25.014  1.00  0.00    -0.003 C 
HETATM    2  C5  UNL     1      11.615  -9.237 -25.612  1.00  0.00     0.042 C 
HETATM    3  C6  UNL     1      12.464  -9.868 -24.555  1.00  0.00     0.233 C 
HETATM    4  N2  UNL     1      12.680  -9.029 -23.404  1.00  0.00    -0.071 N 
ATOM      5  H21 UNL     1      13.616  -8.626 -23.426  1.00  0.00     0.277 HD
ATOM      6  H22 UNL     1      12.755  -9.595 -22.558  1.00  0.00     0.277 HD
HETATM    7  C7  UNL     1      11.693  -8.002 -23.235  1.00  0.00     0.188 C 
HETATM    8  C8  UNL     1      10.293  -8.524 -23.597  1.00  0.00     0.048 C 
HETATM    9  C9  UNL     1      11.545  -7.115 -24.457  1.00  0.00     0.048 C 
ENDROOT
BRANCH   1  10
HETATM   10  C3  UNL     1       9.612  -7.791 -25.943  1.00  0.00     0.070 C 
HETATM   11  N1  UNL     1       8.656  -7.089 -25.504  1.00  0.00    -0.373 N 
ATOM     12  H1  UNL     1       8.692  -6.883 -24.506  1.00  0.00     0.164 HD
BRANCH  11  13
HETATM   13  C2  UNL     1       7.552  -6.549 -26.187  1.00  0.00     0.132 C 
BRANCH  13  14
HETATM   14  S1  UNL     1       6.036  -6.972 -25.309  1.00  0.00    -0.129 SA
HETATM   15  C1  UNL     1       5.692  -8.732 -25.272  1.00  0.00     0.096 C 
ENDBRANCH  13  14
ENDBRANCH  11  13
ENDBRANCH   1  10
TORSDOF 3
ENDMDL
MODEL 4
REMARK VINA RESULT: -4.150809124      1.788      2.473
REMARK  3 active torsions:
REMARK  status: ('A' for Active; 'I' for Inactive)
REMARK    1  A    between atoms: S1_2  and  C2_3 
REMARK    2  A    between atoms: C2_3  and  N1_4 
REMARK    3  A    between atoms: C3_6  and  C4_7 
ROOT
HETATM    1  C4  UNL     1       9.837  -8.404 -24.974  1.00  0.00    -0.003 C 
HETATM    2  C5  UNL     1       9.407  -6.949 -25.050  1.00  0.00     0.042 C 
HETATM    3  C6  UNL     1      10.586  -6.031 -25.011  1.00  0.00     0.233 C 
HETATM    4  N2  UNL     1      11.720  -6.569 -24.304  1.00  0.00    -0.071 N 
ATOM      5  H21 UNL     1      11.798  -6.146 -23.379  1.00  0.00     0.277 HD
ATOM      6  H22 UNL     1      12.591  -6.239 -24.719  1.00  0.00     0.277 HD
HETATM    7  C7  UNL     1      11.721  -8.000 -24.204  1.00  0.00     0.188 C 
HETATM    8  C8  UNL     1      11.209  -8.640 -25.504  1.00  0.00     0.048 C 
HETATM    9  C9  UNL     1      10.455  -8.552 -23.576  1.00  0.00     0.048 C 
ENDROOT
BRANCH   1  10
HETATM   10  C3  UNL     1       8.768  -9.346 -25.286  1.00  0.00     0.070 C 
HETATM   11  N1  UNL     1       7.569  -8.947 -25.236  1.00  0.00    -0.373 N 
ATOM     12  H1  UNL     1       7.448  -7.969 -24.972  1.00  0.00     0.164 HD
BRANCH  11  13
HETATM   13  C2  UNL     1       6.377  -9.649 -25.490  1.00  0.00     0.132 C 
BRANCH  13  14
HETATM   14  S1  UNL     1       4.968  -8.647 -24.980  1.00  0.00    -0.129 SA
HETATM   15  C1  UNL     1       5.390  -6.943 -24.617  1.00  0.00     0.096 C 
ENDBRANCH  13  14
ENDBRANCH  11  13
ENDBRANCH   1  10
TORSDOF 3
ENDMDL
MODEL 5
REMARK VINA RESULT: -4.150629508      2.965      4.221
REMARK  3 active torsions:
REMARK  status: ('A' for Active; 'I' for Inactive)
REMARK    1  A    between atoms: S1_2  and  C2_3 
REMARK    2  A    between atoms: C2_3  and  N1_4 
REMARK    3  A    between atoms: C3_6  and  C4_7 
ROOT
HETATM    1  C4  UNL     1       9.792  -8.398 -25.020  1.00  0.00    -0.003 C 
HETATM    2  C5  UNL     1       9.420  -6.925 -25.078  1.00  0.00     0.042 C 
HETATM    3  C6  UNL     1      10.634  -6.055 -25.014  1.00  0.00     0.233 C 
HETATM    4  N2  UNL     1      11.738  -6.648 -24.303  1.00  0.00    -0.071 N 
ATOM      5  H21 UNL     1      11.823  -6.242 -23.371  1.00  0.00     0.277 HD
ATOM      6  H22 UNL     1      12.626  -6.346 -24.704  1.00  0.00     0.277 HD
HETATM    7  C7  UNL     1      11.682  -8.080 -24.225  1.00  0.00     0.188 C 
HETATM    8  C8  UNL     1      11.160  -8.679 -25.540  1.00  0.00     0.048 C 
HETATM    9  C9  UNL     1      10.389  -8.590 -23.619  1.00  0.00     0.048 C 
ENDROOT
BRANCH   1  10
HETATM   10  C3  UNL     1       8.690  -9.292 -25.358  1.00  0.00     0.070 C 
HETATM   11  N1  UNL     1       8.944 -10.508 -25.597  1.00  0.00    -0.373 N 
ATOM     12  H1  UNL     1       9.928 -10.767 -25.532  1.00  0.00     0.164 HD
BRANCH  11  13
HETATM   13  C2  UNL     1       8.071 -11.556 -25.939  1.00  0.00     0.132 C 
BRANCH  13  14
HETATM   14  S1  UNL     1       9.020 -13.065 -26.211  1.00  0.00    -0.129 SA
HETATM   15  C1  UNL     1      10.794 -12.830 -26.097  1.00  0.00     0.096 C 
ENDBRANCH  13  14
ENDBRANCH  11  13
ENDBRANCH   1  10
TORSDOF 3
ENDMDL
