MODEL 1
REMARK VINA RESULT: -8.600840105      0.000      0.000
REMARK  13 active torsions:
REMARK  status: ('A' for Active; 'I' for Inactive)
REMARK    1  A    between atoms: O1_2  and  C2_3 
REMARK    2  A    between atoms: C2_3  and  C3_5 
REMARK    3  A    between atoms: C3_5  and  N1_6 
REMARK    4  A    between atoms: C4_9  and  C5_10 
REMARK    5  A    between atoms: C5_10  and  O3_12 
REMARK    6  A    between atoms: C8_15  and  C9_16 
REMARK    7  A    between atoms: N4_19  and  N5_20 
REMARK    8  A    between atoms: N6_25  and  C12_26 
REMARK    9  A    between atoms: C12_26  and  C13_27 
REMARK       I    between atoms: C13_27  and  N7_29 
REMARK   10  A    between atoms: N7_29  and  N8_31 
REMARK       I    between atoms: N8_31  and  C14_33 
REMARK   11  A    between atoms: C14_33  and  C15_35 
REMARK   12  A    between atoms: C15_35  and  C16_36 
REMARK   13  A    between atoms: C16_36  and  N9_37 
ROOT
HETATM    1  C9  UNL     1      17.935   4.357  12.055  1.00  0.00     0.100 A 
HETATM    2  C10 UNL     1      17.173   5.081  11.126  1.00  0.00     0.158 A 
HETATM    3  N3  UNL     1      16.172   4.373  10.373  1.00  0.00    -0.080 NA
HETATM    4  N4  UNL     1      17.382   6.380  10.936  1.00  0.00    -0.221 N 
HETATM    5  C11 UNL     1      18.348   7.036  11.636  1.00  0.00     0.204 A 
HETATM    6  S1  UNL     1      18.548   8.640  11.349  1.00  0.00    -0.038 SA
HETATM    7  N6  UNL     1      19.086   6.376  12.525  1.00  0.00    -0.280 N 
HETATM    8  C21 UNL     1      18.893   5.066  12.738  1.00  0.00     0.266 A 
HETATM    9  O8  UNL     1      19.614   4.472  13.603  1.00  0.00    -0.267 OA
ENDROOT
BRANCH   7  10
HETATM   10  C12 UNL     1      20.096   7.066  13.275  1.00  0.00     0.239 C 
BRANCH  10  11
HETATM   11  C13 UNL     1      21.408   7.069  12.574  1.00  0.00     0.254 C 
HETATM   12  O4  UNL     1      21.949   8.132  12.189  1.00  0.00    -0.270 OA
HETATM   13  N7  UNL     1      22.096   5.876  12.311  1.00  0.00    -0.266 N 
ATOM     14  H7  UNL     1      21.648   5.021  12.641  1.00  0.00     0.190 HD
BRANCH  13  15
HETATM   15  N8  UNL     1      23.303   5.712  11.659  1.00  0.00    -0.267 N 
HETATM   16  C14 UNL     1      24.597   5.971  11.984  1.00  0.00     0.237 C 
HETATM   17  O5  UNL     1      24.943   6.447  13.087  1.00  0.00    -0.272 OA
ATOM     18  H8  UNL     1      23.201   5.307  10.729  1.00  0.00     0.190 HD
BRANCH  16  19
HETATM   19  C15 UNL     1      25.700   5.665  10.963  1.00  0.00     0.125 C 
BRANCH  19  20
HETATM   20  C16 UNL     1      25.417   6.346   9.643  1.00  0.00     0.142 C 
BRANCH  20  21
HETATM   21  N9  UNL     1      25.298   5.370   8.592  1.00  0.00    -0.309 N 
HETATM   22  C17 UNL     1      26.345   4.676   8.105  1.00  0.00     0.101 A 
HETATM   23  C18 UNL     1      26.137   3.715   7.140  1.00  0.00     0.092 A 
HETATM   24  C19 UNL     1      24.865   3.477   6.678  1.00  0.00     0.250 A 
HETATM   25  O6  UNL     1      24.655   2.607   5.799  1.00  0.00    -0.268 OA
HETATM   26  N10 UNL     1      23.834   4.212   7.199  1.00  0.00    -0.275 N 
HETATM   27  C20 UNL     1      24.020   5.134   8.130  1.00  0.00     0.329 A 
ATOM     28  H10 UNL     1      22.888   4.043   6.857  1.00  0.00     0.173 HD
HETATM   29  O7  UNL     1      23.044   5.792   8.589  1.00  0.00    -0.246 OA
ENDBRANCH  20  21
ENDBRANCH  19  20
ENDBRANCH  16  19
ENDBRANCH  13  15
ENDBRANCH  10  11
ENDBRANCH   7  10
BRANCH   4  30
HETATM   30  N5  UNL     1      16.619   7.101  10.025  1.00  0.00    -0.335 N 
ATOM     31  H52 UNL     1      17.033   7.338   9.123  1.00  0.00     0.177 HD
ATOM     32  H51 UNL     1      15.668   7.392  10.251  1.00  0.00     0.177 HD
ENDBRANCH   4  30
BRANCH   1  33
HETATM   33  C8  UNL     1      17.559   2.983  12.365  1.00  0.00     0.054 A 
HETATM   34  N1  UNL     1      16.914   2.505  13.411  1.00  0.00    -0.285 N 
HETATM   35  N2  UNL     1      16.898   1.274  13.198  1.00  0.00    -0.299 N 
HETATM   36  C4  UNL     1      17.304   0.521  12.352  1.00  0.00     0.060 A 
ATOM     37  H2  UNL     1      16.411   0.773  13.941  1.00  0.00     0.187 HD
HETATM   38  C7  UNL     1      17.880   1.907  11.613  1.00  0.00     0.121 A 
BRANCH  34  39
HETATM   39  C3  UNL     1      16.460   3.052  14.673  1.00  0.00     0.259 C 
BRANCH  39  40
HETATM   40  C2  UNL     1      16.622   1.925  15.693  1.00  0.00     0.278 C 
HETATM   41  O2  UNL     1      17.695   1.741  16.288  1.00  0.00    -0.263 OA
BRANCH  40  42
HETATM   42  O1  UNL     1      15.525   1.128  15.923  1.00  0.00    -0.325 OA
HETATM   43  C1  UNL     1      14.653   1.274  17.048  1.00  0.00     0.213 C 
ENDBRANCH  40  42
ENDBRANCH  39  40
ENDBRANCH  34  39
BRANCH  36  44
HETATM   44  C5  UNL     1      17.803  -0.380  11.320  1.00  0.00     0.063 C 
HETATM   45  C6  UNL     1      18.295  -1.715  11.213  1.00  0.00     0.078 C 
BRANCH  44  46
HETATM   46  O3  UNL     1      17.779   0.251  10.121  1.00  0.00    -0.363 OA
ATOM     47  H3  UNL     1      17.591  -0.380   9.437  1.00  0.00     0.217 HD
ENDBRANCH  44  46
ENDBRANCH  36  44
ENDBRANCH   1  33
TORSDOF 13
ENDMDL
MODEL 2
REMARK VINA RESULT: -8.496386192      4.676      8.197
REMARK  13 active torsions:
REMARK  status: ('A' for Active; 'I' for Inactive)
REMARK    1  A    between atoms: O1_2  and  C2_3 
REMARK    2  A    between atoms: C2_3  and  C3_5 
REMARK    3  A    between atoms: C3_5  and  N1_6 
REMARK    4  A    between atoms: C4_9  and  C5_10 
REMARK    5  A    between atoms: C5_10  and  O3_12 
REMARK    6  A    between atoms: C8_15  and  C9_16 
REMARK    7  A    between atoms: N4_19  and  N5_20 
REMARK    8  A    between atoms: N6_25  and  C12_26 
REMARK    9  A    between atoms: C12_26  and  C13_27 
REMARK       I    between atoms: C13_27  and  N7_29 
REMARK   10  A    between atoms: N7_29  and  N8_31 
REMARK       I    between atoms: N8_31  and  C14_33 
REMARK   11  A    between atoms: C14_33  and  C15_35 
REMARK   12  A    between atoms: C15_35  and  C16_36 
REMARK   13  A    between atoms: C16_36  and  N9_37 
ROOT
HETATM    1  C9  UNL     1      18.203   4.608  12.560  1.00  0.00     0.100 A 
HETATM    2  C10 UNL     1      19.565   4.681  12.229  1.00  0.00     0.158 A 
HETATM    3  N3  UNL     1      20.321   3.458  12.202  1.00  0.00    -0.080 NA
HETATM    4  N4  UNL     1      20.141   5.849  11.967  1.00  0.00    -0.221 N 
HETATM    5  C11 UNL     1      19.423   7.005  12.017  1.00  0.00     0.204 A 
HETATM    6  S1  UNL     1      20.203   8.409  11.679  1.00  0.00    -0.038 SA
HETATM    7  N6  UNL     1      18.129   6.967  12.327  1.00  0.00    -0.280 N 
HETATM    8  C21 UNL     1      17.522   5.801  12.593  1.00  0.00     0.266 A 
HETATM    9  O8  UNL     1      16.281   5.806  12.876  1.00  0.00    -0.267 OA
ENDROOT
BRANCH   7  10
HETATM   10  C12 UNL     1      17.364   8.180  12.368  1.00  0.00     0.239 C 
BRANCH  10  11
HETATM   11  C13 UNL     1      16.469   8.315  11.188  1.00  0.00     0.254 C 
HETATM   12  O4  UNL     1      16.920   8.486  10.032  1.00  0.00    -0.270 OA
HETATM   13  N7  UNL     1      15.074   8.260  11.322  1.00  0.00    -0.266 N 
ATOM     14  H7  UNL     1      14.722   8.109  12.267  1.00  0.00     0.190 HD
BRANCH  13  15
HETATM   15  N8  UNL     1      14.115   8.386  10.334  1.00  0.00    -0.267 N 
HETATM   16  C14 UNL     1      13.705   7.596   9.308  1.00  0.00     0.237 C 
HETATM   17  O5  UNL     1      14.187   6.466   9.079  1.00  0.00    -0.272 OA
ATOM     18  H8  UNL     1      13.602   9.266  10.389  1.00  0.00     0.190 HD
BRANCH  16  19
HETATM   19  C15 UNL     1      12.592   8.097   8.378  1.00  0.00     0.125 C 
BRANCH  19  20
HETATM   20  C16 UNL     1      13.122   9.129   7.408  1.00  0.00     0.142 C 
BRANCH  20  21
HETATM   21  N9  UNL     1      12.596  10.429   7.724  1.00  0.00    -0.309 N 
HETATM   22  C17 UNL     1      11.316  10.785   7.498  1.00  0.00     0.101 A 
HETATM   23  C18 UNL     1      10.876  12.031   7.884  1.00  0.00     0.092 A 
HETATM   24  C19 UNL     1      11.745  12.904   8.494  1.00  0.00     0.250 A 
HETATM   25  O6  UNL     1      11.363  14.043   8.854  1.00  0.00    -0.268 OA
HETATM   26  N10 UNL     1      13.037  12.499   8.698  1.00  0.00    -0.275 N 
HETATM   27  C20 UNL     1      13.472  11.303   8.335  1.00  0.00     0.329 A 
ATOM     28  H10 UNL     1      13.689  13.143   9.145  1.00  0.00     0.173 HD
HETATM   29  O7  UNL     1      14.671  10.964   8.540  1.00  0.00    -0.246 OA
ENDBRANCH  20  21
ENDBRANCH  19  20
ENDBRANCH  16  19
ENDBRANCH  13  15
ENDBRANCH  10  11
ENDBRANCH   7  10
BRANCH   4  30
HETATM   30  N5  UNL     1      21.488   5.921  11.627  1.00  0.00    -0.335 N 
ATOM     31  H52 UNL     1      22.076   5.105  11.796  1.00  0.00     0.177 HD
ATOM     32  H51 UNL     1      21.883   6.771  11.223  1.00  0.00     0.177 HD
ENDBRANCH   4  30
BRANCH   1  33
HETATM   33  C8  UNL     1      17.566   3.301  12.665  1.00  0.00     0.054 A 
HETATM   34  N1  UNL     1      16.902   2.769  13.672  1.00  0.00    -0.285 N 
HETATM   35  N2  UNL     1      16.614   1.628  13.253  1.00  0.00    -0.299 N 
HETATM   36  C4  UNL     1      16.798   0.984  12.253  1.00  0.00     0.060 A 
ATOM     37  H2  UNL     1      16.080   1.101  13.944  1.00  0.00     0.187 HD
HETATM   38  C7  UNL     1      17.605   2.345  11.710  1.00  0.00     0.121 A 
BRANCH  34  39
HETATM   39  C3  UNL     1      16.653   3.146  15.049  1.00  0.00     0.259 C 
BRANCH  39  40
HETATM   40  C2  UNL     1      16.613   1.835  15.833  1.00  0.00     0.278 C 
HETATM   41  O2  UNL     1      17.643   1.333  16.308  1.00  0.00    -0.263 OA
BRANCH  40  42
HETATM   42  O1  UNL     1      15.383   1.239  15.992  1.00  0.00    -0.325 OA
HETATM   43  C1  UNL     1      14.442   1.607  17.005  1.00  0.00     0.213 C 
ENDBRANCH  40  42
ENDBRANCH  39  40
ENDBRANCH  34  39
BRANCH  36  44
HETATM   44  C5  UNL     1      17.030   0.215  11.037  1.00  0.00     0.063 C 
HETATM   45  C6  UNL     1      17.765  -0.937  10.623  1.00  0.00     0.078 C 
BRANCH  44  46
HETATM   46  O3  UNL     1      16.334   0.768  10.015  1.00  0.00    -0.363 OA
ATOM     47  H3  UNL     1      16.303   0.158   9.287  1.00  0.00     0.217 HD
ENDBRANCH  44  46
ENDBRANCH  36  44
ENDBRANCH   1  33
TORSDOF 13
ENDMDL
MODEL 3
REMARK VINA RESULT: -8.448724204      5.797      9.145
REMARK  13 active torsions:
REMARK  status: ('A' for Active; 'I' for Inactive)
REMARK    1  A    between atoms: O1_2  and  C2_3 
REMARK    2  A    between atoms: C2_3  and  C3_5 
REMARK    3  A    between atoms: C3_5  and  N1_6 
REMARK    4  A    between atoms: C4_9  and  C5_10 
REMARK    5  A    between atoms: C5_10  and  O3_12 
REMARK    6  A    between atoms: C8_15  and  C9_16 
REMARK    7  A    between atoms: N4_19  and  N5_20 
REMARK    8  A    between atoms: N6_25  and  C12_26 
REMARK    9  A    between atoms: C12_26  and  C13_27 
REMARK       I    between atoms: C13_27  and  N7_29 
REMARK   10  A    between atoms: N7_29  and  N8_31 
REMARK       I    between atoms: N8_31  and  C14_33 
REMARK   11  A    between atoms: C14_33  and  C15_35 
REMARK   12  A    between atoms: C15_35  and  C16_36 
REMARK   13  A    between atoms: C16_36  and  N9_37 
ROOT
HETATM    1  C9  UNL     1      17.468   4.181  12.378  1.00  0.00     0.100 A 
HETATM    2  C10 UNL     1      18.199   4.908  13.330  1.00  0.00     0.158 A 
HETATM    3  N3  UNL     1      18.479   4.278  14.593  1.00  0.00    -0.080 NA
HETATM    4  N4  UNL     1      18.604   6.148  13.078  1.00  0.00    -0.221 N 
HETATM    5  C11 UNL     1      18.313   6.744  11.889  1.00  0.00     0.204 A 
HETATM    6  S1  UNL     1      18.848   8.278  11.648  1.00  0.00    -0.038 SA
HETATM    7  N6  UNL     1      17.622   6.080  10.966  1.00  0.00    -0.280 N 
HETATM    8  C21 UNL     1      17.205   4.826  11.194  1.00  0.00     0.266 A 
HETATM    9  O8  UNL     1      16.554   4.220  10.282  1.00  0.00    -0.267 OA
ENDROOT
BRANCH   7  10
HETATM   10  C12 UNL     1      17.326   6.698   9.706  1.00  0.00     0.239 C 
BRANCH  10  11
HETATM   11  C13 UNL     1      15.942   7.241   9.664  1.00  0.00     0.254 C 
HETATM   12  O4  UNL     1      15.124   7.040  10.591  1.00  0.00    -0.270 OA
HETATM   13  N7  UNL     1      15.490   8.002   8.576  1.00  0.00    -0.266 N 
ATOM     14  H7  UNL     1      16.171   8.168   7.835  1.00  0.00     0.190 HD
BRANCH  13  15
HETATM   15  N8  UNL     1      14.239   8.556   8.381  1.00  0.00    -0.267 N 
HETATM   16  C14 UNL     1      13.014   8.047   8.088  1.00  0.00     0.237 C 
HETATM   17  O5  UNL     1      12.797   6.824   7.950  1.00  0.00    -0.272 OA
ATOM     18  H8  UNL     1      14.235   9.571   8.479  1.00  0.00     0.190 HD
BRANCH  16  19
HETATM   19  C15 UNL     1      11.827   9.005   7.921  1.00  0.00     0.125 C 
BRANCH  19  20
HETATM   20  C16 UNL     1      12.304  10.424   7.711  1.00  0.00     0.142 C 
BRANCH  20  21
HETATM   21  N9  UNL     1      11.287  11.201   7.053  1.00  0.00    -0.309 N 
HETATM   22  C17 UNL     1      10.753  10.866   5.863  1.00  0.00     0.101 A 
HETATM   23  C18 UNL     1       9.741  11.632   5.329  1.00  0.00     0.092 A 
HETATM   24  C19 UNL     1       9.286  12.734   6.012  1.00  0.00     0.250 A 
HETATM   25  O6  UNL     1       8.365  13.444   5.543  1.00  0.00    -0.268 OA
HETATM   26  N10 UNL     1       9.864  13.038   7.216  1.00  0.00    -0.275 N 
HETATM   27  C20 UNL     1      10.834  12.307   7.741  1.00  0.00     0.329 A 
ATOM     28  H10 UNL     1       9.534  13.857   7.726  1.00  0.00     0.173 HD
HETATM   29  O7  UNL     1      11.342  12.618   8.856  1.00  0.00    -0.246 OA
ENDBRANCH  20  21
ENDBRANCH  19  20
ENDBRANCH  16  19
ENDBRANCH  13  15
ENDBRANCH  10  11
ENDBRANCH   7  10
BRANCH   4  30
HETATM   30  N5  UNL     1      19.339   6.865  14.016  1.00  0.00    -0.335 N 
ATOM     31  H52 UNL     1      18.895   7.101  14.904  1.00  0.00     0.177 HD
ATOM     32  H51 UNL     1      20.298   7.153  13.822  1.00  0.00     0.177 HD
ENDBRANCH   4  30
BRANCH   1  33
HETATM   33  C8  UNL     1      17.197   2.768  12.617  1.00  0.00     0.054 A 
HETATM   34  N1  UNL     1      16.576   2.192  13.627  1.00  0.00    -0.285 N 
HETATM   35  N2  UNL     1      16.660   0.975  13.358  1.00  0.00    -0.299 N 
HETATM   36  C4  UNL     1      17.138   0.297  12.485  1.00  0.00     0.060 A 
ATOM     37  H2  UNL     1      16.203   0.403  14.067  1.00  0.00     0.187 HD
HETATM   38  C7  UNL     1      17.613   1.758  11.823  1.00  0.00     0.121 A 
BRANCH  34  39
HETATM   39  C3  UNL     1      16.059   2.641  14.904  1.00  0.00     0.259 C 
BRANCH  39  40
HETATM   40  C2  UNL     1      16.331   1.499  15.883  1.00  0.00     0.278 C 
HETATM   41  O2  UNL     1      17.483   1.225  16.253  1.00  0.00    -0.263 OA
BRANCH  40  42
HETATM   42  O1  UNL     1      15.241   0.793  16.337  1.00  0.00    -0.325 OA
HETATM   43  C1  UNL     1      14.166   1.374  17.081  1.00  0.00     0.213 C 
ENDBRANCH  40  42
ENDBRANCH  39  40
ENDBRANCH  34  39
BRANCH  36  44
HETATM   44  C5  UNL     1      17.723  -0.511  11.423  1.00  0.00     0.063 C 
HETATM   45  C6  UNL     1      18.305  -1.804  11.260  1.00  0.00     0.078 C 
BRANCH  44  46
HETATM   46  O3  UNL     1      17.690   0.182  10.259  1.00  0.00    -0.363 OA
ATOM     47  H3  UNL     1      16.856   0.040   9.830  1.00  0.00     0.217 HD
ENDBRANCH  44  46
ENDBRANCH  36  44
ENDBRANCH   1  33
TORSDOF 13
ENDMDL
MODEL 4
REMARK VINA RESULT: -8.408219243      5.594      8.702
REMARK  13 active torsions:
REMARK  status: ('A' for Active; 'I' for Inactive)
REMARK    1  A    between atoms: O1_2  and  C2_3 
REMARK    2  A    between atoms: C2_3  and  C3_5 
REMARK    3  A    between atoms: C3_5  and  N1_6 
REMARK    4  A    between atoms: C4_9  and  C5_10 
REMARK    5  A    between atoms: C5_10  and  O3_12 
REMARK    6  A    between atoms: C8_15  and  C9_16 
REMARK    7  A    between atoms: N4_19  and  N5_20 
REMARK    8  A    between atoms: N6_25  and  C12_26 
REMARK    9  A    between atoms: C12_26  and  C13_27 
REMARK       I    between atoms: C13_27  and  N7_29 
REMARK   10  A    between atoms: N7_29  and  N8_31 
REMARK       I    between atoms: N8_31  and  C14_33 
REMARK   11  A    between atoms: C14_33  and  C15_35 
REMARK   12  A    between atoms: C15_35  and  C16_36 
REMARK   13  A    between atoms: C16_36  and  N9_37 
ROOT
HETATM    1  C9  UNL     1      17.553   4.291  12.480  1.00  0.00     0.100 A 
HETATM    2  C10 UNL     1      18.311   4.972  13.445  1.00  0.00     0.158 A 
HETATM    3  N3  UNL     1      18.596   4.295  14.682  1.00  0.00    -0.080 NA
HETATM    4  N4  UNL     1      18.737   6.212  13.228  1.00  0.00    -0.221 N 
HETATM    5  C11 UNL     1      18.443   6.853  12.064  1.00  0.00     0.204 A 
HETATM    6  S1  UNL     1      19.005   8.383  11.866  1.00  0.00    -0.038 SA
HETATM    7  N6  UNL     1      17.727   6.233  11.129  1.00  0.00    -0.280 N 
HETATM    8  C21 UNL     1      17.287   4.980  11.321  1.00  0.00     0.266 A 
HETATM    9  O8  UNL     1      16.612   4.418  10.399  1.00  0.00    -0.267 OA
ENDROOT
BRANCH   7  10
HETATM   10  C12 UNL     1      17.426   6.899   9.894  1.00  0.00     0.239 C 
BRANCH  10  11
HETATM   11  C13 UNL     1      16.034   7.424   9.869  1.00  0.00     0.254 C 
HETATM   12  O4  UNL     1      15.338   7.502  10.908  1.00  0.00    -0.270 OA
HETATM   13  N7  UNL     1      15.438   7.851   8.674  1.00  0.00    -0.266 N 
ATOM     14  H7  UNL     1      16.021   7.792   7.839  1.00  0.00     0.190 HD
BRANCH  13  15
HETATM   15  N8  UNL     1      14.160   8.342   8.484  1.00  0.00    -0.267 N 
HETATM   16  C14 UNL     1      12.968   7.776   8.160  1.00  0.00     0.237 C 
HETATM   17  O5  UNL     1      12.820   6.549   7.978  1.00  0.00    -0.272 OA
ATOM     18  H8  UNL     1      14.099   9.351   8.616  1.00  0.00     0.190 HD
BRANCH  16  19
HETATM   19  C15 UNL     1      11.731   8.673   8.013  1.00  0.00     0.125 C 
BRANCH  19  20
HETATM   20  C16 UNL     1      12.130  10.090   7.671  1.00  0.00     0.142 C 
BRANCH  20  21
HETATM   21  N9  UNL     1      11.486  10.511   6.455  1.00  0.00    -0.309 N 
HETATM   22  C17 UNL     1      10.180  10.832   6.382  1.00  0.00     0.101 A 
HETATM   23  C18 UNL     1       9.653  11.284   5.192  1.00  0.00     0.092 A 
HETATM   24  C19 UNL     1      10.463  11.399   4.088  1.00  0.00     0.250 A 
HETATM   25  O6  UNL     1      10.003  11.809   2.995  1.00  0.00    -0.268 OA
HETATM   26  N10 UNL     1      11.783  11.055   4.209  1.00  0.00    -0.275 N 
HETATM   27  C20 UNL     1      12.302  10.625   5.348  1.00  0.00     0.329 A 
ATOM     28  H10 UNL     1      12.389  11.134   3.393  1.00  0.00     0.173 HD
HETATM   29  O7  UNL     1      13.525  10.318   5.424  1.00  0.00    -0.246 OA
ENDBRANCH  20  21
ENDBRANCH  19  20
ENDBRANCH  16  19
ENDBRANCH  13  15
ENDBRANCH  10  11
ENDBRANCH   7  10
BRANCH   4  30
HETATM   30  N5  UNL     1      19.499   6.882  14.179  1.00  0.00    -0.335 N 
ATOM     31  H52 UNL     1      20.101   6.335  14.793  1.00  0.00     0.177 HD
ATOM     32  H51 UNL     1      19.455   7.898  14.266  1.00  0.00     0.177 HD
ENDBRANCH   4  30
BRANCH   1  33
HETATM   33  C8  UNL     1      17.257   2.877  12.676  1.00  0.00     0.054 A 
HETATM   34  N1  UNL     1      16.609   2.284  13.658  1.00  0.00    -0.285 N 
HETATM   35  N2  UNL     1      16.681   1.073  13.358  1.00  0.00    -0.299 N 
HETATM   36  C4  UNL     1      17.164   0.412  12.476  1.00  0.00     0.060 A 
ATOM     37  H2  UNL     1      16.202   0.489  14.043  1.00  0.00     0.187 HD
HETATM   38  C7  UNL     1      17.673   1.882  11.862  1.00  0.00     0.121 A 
BRANCH  34  39
HETATM   39  C3  UNL     1      16.076   2.706  14.938  1.00  0.00     0.259 C 
BRANCH  39  40
HETATM   40  C2  UNL     1      16.331   1.542  15.895  1.00  0.00     0.278 C 
HETATM   41  O2  UNL     1      17.478   1.245  16.261  1.00  0.00    -0.263 OA
BRANCH  40  42
HETATM   42  O1  UNL     1      15.231   0.842  16.334  1.00  0.00    -0.325 OA
HETATM   43  C1  UNL     1      14.169   1.420  17.098  1.00  0.00     0.213 C 
ENDBRANCH  40  42
ENDBRANCH  39  40
ENDBRANCH  34  39
BRANCH  36  44
HETATM   44  C5  UNL     1      17.756  -0.377  11.403  1.00  0.00     0.063 C 
HETATM   45  C6  UNL     1      18.333  -1.669  11.218  1.00  0.00     0.078 C 
BRANCH  44  46
HETATM   46  O3  UNL     1      17.740   0.341  10.254  1.00  0.00    -0.363 OA
ATOM     47  H3  UNL     1      18.561   0.218   9.793  1.00  0.00     0.217 HD
ENDBRANCH  44  46
ENDBRANCH  36  44
ENDBRANCH   1  33
TORSDOF 13
ENDMDL
MODEL 5
REMARK VINA RESULT: -8.365917036      5.119      8.195
REMARK  13 active torsions:
REMARK  status: ('A' for Active; 'I' for Inactive)
REMARK    1  A    between atoms: O1_2  and  C2_3 
REMARK    2  A    between atoms: C2_3  and  C3_5 
REMARK    3  A    between atoms: C3_5  and  N1_6 
REMARK    4  A    between atoms: C4_9  and  C5_10 
REMARK    5  A    between atoms: C5_10  and  O3_12 
REMARK    6  A    between atoms: C8_15  and  C9_16 
REMARK    7  A    between atoms: N4_19  and  N5_20 
REMARK    8  A    between atoms: N6_25  and  C12_26 
REMARK    9  A    between atoms: C12_26  and  C13_27 
REMARK       I    between atoms: C13_27  and  N7_29 
REMARK   10  A    between atoms: N7_29  and  N8_31 
REMARK       I    between atoms: N8_31  and  C14_33 
REMARK   11  A    between atoms: C14_33  and  C15_35 
REMARK   12  A    between atoms: C15_35  and  C16_36 
REMARK   13  A    between atoms: C16_36  and  N9_37 
ROOT
HETATM    1  C9  UNL     1      18.359   4.687  12.572  1.00  0.00     0.100 A 
HETATM    2  C10 UNL     1      19.731   4.699  12.282  1.00  0.00     0.158 A 
HETATM    3  N3  UNL     1      20.429   3.440  12.257  1.00  0.00    -0.080 NA
HETATM    4  N4  UNL     1      20.371   5.841  12.055  1.00  0.00    -0.221 N 
HETATM    5  C11 UNL     1      19.708   7.029  12.103  1.00  0.00     0.204 A 
HETATM    6  S1  UNL     1      20.563   8.399  11.810  1.00  0.00    -0.038 SA
HETATM    7  N6  UNL     1      18.405   7.049  12.375  1.00  0.00    -0.280 N 
HETATM    8  C21 UNL     1      17.735   5.910  12.605  1.00  0.00     0.266 A 
HETATM    9  O8  UNL     1      16.488   5.971  12.853  1.00  0.00    -0.267 OA
ENDROOT
BRANCH   7  10
HETATM   10  C12 UNL     1      17.698   8.298  12.414  1.00  0.00     0.239 C 
BRANCH  10  11
HETATM   11  C13 UNL     1      16.811   8.472  11.233  1.00  0.00     0.254 C 
HETATM   12  O4  UNL     1      17.265   8.761  10.101  1.00  0.00    -0.270 OA
HETATM   13  N7  UNL     1      15.420   8.324  11.338  1.00  0.00    -0.266 N 
ATOM     14  H7  UNL     1      15.067   8.077  12.262  1.00  0.00     0.190 HD
BRANCH  13  15
HETATM   15  N8  UNL     1      14.468   8.471  10.347  1.00  0.00    -0.267 N 
HETATM   16  C14 UNL     1      13.961   7.648   9.392  1.00  0.00     0.237 C 
HETATM   17  O5  UNL     1      14.316   6.457   9.257  1.00  0.00    -0.272 OA
ATOM     18  H8  UNL     1      14.053   9.402  10.330  1.00  0.00     0.190 HD
BRANCH  16  19
HETATM   19  C15 UNL     1      12.896   8.187   8.428  1.00  0.00     0.125 C 
BRANCH  19  20
HETATM   20  C16 UNL     1      13.417   9.383   7.664  1.00  0.00     0.142 C 
BRANCH  20  21
HETATM   21  N9  UNL     1      12.373   9.953   6.855  1.00  0.00    -0.309 N 
HETATM   22  C17 UNL     1      11.119  10.158   7.302  1.00  0.00     0.101 A 
HETATM   23  C18 UNL     1      10.193  10.764   6.482  1.00  0.00     0.092 A 
HETATM   24  C19 UNL     1      10.554  11.150   5.213  1.00  0.00     0.250 A 
HETATM   25  O6  UNL     1       9.725  11.703   4.451  1.00  0.00    -0.268 OA
HETATM   26  N10 UNL     1      11.838  10.915   4.801  1.00  0.00    -0.275 N 
HETATM   27  C20 UNL     1      12.739  10.338   5.582  1.00  0.00     0.329 A 
ATOM     28  H10 UNL     1      12.112  11.194   3.860  1.00  0.00     0.173 HD
HETATM   29  O7  UNL     1      13.916  10.138   5.168  1.00  0.00    -0.246 OA
ENDBRANCH  20  21
ENDBRANCH  19  20
ENDBRANCH  16  19
ENDBRANCH  13  15
ENDBRANCH  10  11
ENDBRANCH   7  10
BRANCH   4  30
HETATM   30  N5  UNL     1      21.729   5.853  11.755  1.00  0.00    -0.335 N 
ATOM     31  H52 UNL     1      22.271   5.005  11.923  1.00  0.00     0.177 HD
ATOM     32  H51 UNL     1      22.176   6.689  11.381  1.00  0.00     0.177 HD
ENDBRANCH   4  30
BRANCH   1  33
HETATM   33  C8  UNL     1      17.657   3.410  12.638  1.00  0.00     0.054 A 
HETATM   34  N1  UNL     1      16.966   2.883  13.629  1.00  0.00    -0.285 N 
HETATM   35  N2  UNL     1      16.621   1.770  13.176  1.00  0.00    -0.299 N 
HETATM   36  C4  UNL     1      16.775   1.148  12.157  1.00  0.00     0.060 A 
ATOM     37  H2  UNL     1      16.061   1.250  13.850  1.00  0.00     0.187 HD
HETATM   38  C7  UNL     1      17.649   2.483  11.655  1.00  0.00     0.121 A 
BRANCH  34  39
HETATM   39  C3  UNL     1      16.734   3.230  15.016  1.00  0.00     0.259 C 
BRANCH  39  40
HETATM   40  C2  UNL     1      16.648   1.900  15.765  1.00  0.00     0.278 C 
HETATM   41  O2  UNL     1      17.654   1.370  16.260  1.00  0.00    -0.263 OA
BRANCH  40  42
HETATM   42  O1  UNL     1      15.404   1.320  15.867  1.00  0.00    -0.325 OA
HETATM   43  C1  UNL     1      14.543   1.469  16.999  1.00  0.00     0.213 C 
ENDBRANCH  40  42
ENDBRANCH  39  40
ENDBRANCH  34  39
BRANCH  36  44
HETATM   44  C5  UNL     1      16.970   0.406  10.919  1.00  0.00     0.063 C 
HETATM   45  C6  UNL     1      17.795  -0.648  10.421  1.00  0.00     0.078 C 
BRANCH  44  46
HETATM   46  O3  UNL     1      16.103   0.858   9.980  1.00  0.00    -0.363 OA
ATOM     47  H3  UNL     1      15.958   1.788  10.107  1.00  0.00     0.217 HD
ENDBRANCH  44  46
ENDBRANCH  36  44
ENDBRANCH   1  33
TORSDOF 13
ENDMDL
