MODEL 1
REMARK VINA RESULT: -6.671687002      0.000      0.000
REMARK  1 active torsions:
REMARK  status: ('A' for Active; 'I' for Inactive)
REMARK    1  A    between atoms: C1_2  and  C2_5 
ROOT
HETATM    1  C2  UNL     1     -31.596 -12.460  19.792  1.00  0.00     0.116 C 
HETATM    2  S1  UNL     1     -32.684 -11.480  20.892  1.00  0.00    -0.077 SA
HETATM    3  C3  UNL     1     -31.349 -13.754  20.463  1.00  0.00     0.030 C 
HETATM    4  C4  UNL     1     -30.158 -14.519  20.017  1.00  0.00     0.002 C 
HETATM    5  C5  UNL     1     -28.951 -14.139  20.853  1.00  0.00     0.000 C 
HETATM    6  C6  UNL     1     -28.377 -12.882  20.190  1.00  0.00     0.000 C 
HETATM    7  C7  UNL     1     -29.316 -11.752  20.578  1.00  0.00     0.002 C 
HETATM    8  C8  UNL     1     -30.380 -11.629  19.538  1.00  0.00     0.030 C 
ENDROOT
BRANCH   1   9
HETATM    9  C1  UNL     1     -32.343 -12.593  18.471  1.00  0.00     0.405 C 
HETATM   10  F1  UNL     1     -32.805 -13.853  18.263  1.00  0.00    -0.169 F 
HETATM   11  F2  UNL     1     -33.323 -11.655  18.356  1.00  0.00    -0.169 F 
HETATM   12  F3  UNL     1     -31.387 -12.340  17.479  1.00  0.00    -0.169 F 
ENDBRANCH   1   9
TORSDOF 1
ENDMDL
MODEL 2
REMARK VINA RESULT: -6.562972298      0.105      1.115
REMARK  1 active torsions:
REMARK  status: ('A' for Active; 'I' for Inactive)
REMARK    1  A    between atoms: C1_2  and  C2_5 
ROOT
HETATM    1  C2  UNL     1     -31.573 -12.394  19.789  1.00  0.00     0.116 C 
HETATM    2  S1  UNL     1     -32.663 -11.459  20.925  1.00  0.00    -0.077 SA
HETATM    3  C3  UNL     1     -31.367 -13.732  20.384  1.00  0.00     0.030 C 
HETATM    4  C4  UNL     1     -30.183 -14.494  19.915  1.00  0.00     0.002 C 
HETATM    5  C5  UNL     1     -28.986 -14.192  20.796  1.00  0.00     0.000 C 
HETATM    6  C6  UNL     1     -28.372 -12.911  20.222  1.00  0.00     0.000 C 
HETATM    7  C7  UNL     1     -29.296 -11.786  20.661  1.00  0.00     0.002 C 
HETATM    8  C8  UNL     1     -30.335 -11.576  19.610  1.00  0.00     0.030 C 
ENDROOT
BRANCH   1   9
HETATM    9  C1  UNL     1     -32.295 -12.430  18.448  1.00  0.00     0.405 C 
HETATM   10  F1  UNL     1     -33.365 -11.595  18.414  1.00  0.00    -0.169 F 
HETATM   11  F2  UNL     1     -31.437 -12.216  17.413  1.00  0.00    -0.169 F 
HETATM   12  F3  UNL     1     -32.793 -13.735  18.331  1.00  0.00    -0.169 F 
ENDBRANCH   1   9
TORSDOF 1
ENDMDL
MODEL 3
REMARK VINA RESULT: -6.528221484      2.621      3.861
REMARK  1 active torsions:
REMARK  status: ('A' for Active; 'I' for Inactive)
REMARK    1  A    between atoms: C1_2  and  C2_5 
ROOT
HETATM    1  C2  UNL     1     -30.311 -12.717  20.215  1.00  0.00     0.116 C 
HETATM    2  S1  UNL     1     -28.825 -11.652  20.309  1.00  0.00    -0.077 SA
HETATM    3  C3  UNL     1     -30.802 -12.660  18.822  1.00  0.00     0.030 C 
HETATM    4  C4  UNL     1     -32.217 -13.046  18.598  1.00  0.00     0.002 C 
HETATM    5  C5  UNL     1     -33.113 -11.827  18.700  1.00  0.00     0.000 C 
HETATM    6  C6  UNL     1     -33.407 -11.663  20.195  1.00  0.00     0.000 C 
HETATM    7  C7  UNL     1     -32.135 -11.090  20.800  1.00  0.00     0.002 C 
HETATM    8  C8  UNL     1     -31.265 -12.217  21.251  1.00  0.00     0.030 C 
ENDROOT
BRANCH   1   9
HETATM    9  C1  UNL     1     -29.860 -14.108  20.644  1.00  0.00     0.405 C 
HETATM   10  F1  UNL     1     -30.707 -15.080  20.219  1.00  0.00    -0.169 F 
HETATM   11  F2  UNL     1     -28.570 -14.347  20.280  1.00  0.00    -0.169 F 
HETATM   12  F3  UNL     1     -29.918 -14.100  22.044  1.00  0.00    -0.169 F 
ENDBRANCH   1   9
TORSDOF 1
ENDMDL
MODEL 4
REMARK VINA RESULT: -6.383329230      2.382      3.344
REMARK  1 active torsions:
REMARK  status: ('A' for Active; 'I' for Inactive)
REMARK    1  A    between atoms: C1_2  and  C2_5 
ROOT
HETATM    1  C2  UNL     1     -30.800 -12.765  19.364  1.00  0.00     0.116 C 
HETATM    2  S1  UNL     1     -30.201 -12.110  17.763  1.00  0.00    -0.077 SA
HETATM    3  C3  UNL     1     -29.892 -13.865  19.753  1.00  0.00     0.030 C 
HETATM    4  C4  UNL     1     -30.412 -14.841  20.742  1.00  0.00     0.002 C 
HETATM    5  C5  UNL     1     -31.096 -15.992  20.030  1.00  0.00     0.000 C 
HETATM    6  C6  UNL     1     -32.529 -15.513  19.766  1.00  0.00     0.000 C 
HETATM    7  C7  UNL     1     -32.423 -14.530  18.611  1.00  0.00     0.002 C 
HETATM    8  C8  UNL     1     -32.228 -13.156  19.162  1.00  0.00     0.030 C 
ENDROOT
BRANCH   1   9
HETATM    9  C1  UNL     1     -30.781 -11.590  20.334  1.00  0.00     0.405 C 
HETATM   10  F1  UNL     1     -29.617 -10.894  20.279  1.00  0.00    -0.169 F 
HETATM   11  F2  UNL     1     -31.871 -10.791  20.170  1.00  0.00    -0.169 F 
HETATM   12  F3  UNL     1     -30.854 -12.162  21.610  1.00  0.00    -0.169 F 
ENDBRANCH   1   9
TORSDOF 1
ENDMDL
MODEL 5
REMARK VINA RESULT: -6.371661552      2.623      3.852
REMARK  1 active torsions:
REMARK  status: ('A' for Active; 'I' for Inactive)
REMARK    1  A    between atoms: C1_2  and  C2_5 
ROOT
HETATM    1  C2  UNL     1     -30.296 -12.656  20.276  1.00  0.00     0.116 C 
HETATM    2  S1  UNL     1     -28.837 -11.555  20.381  1.00  0.00    -0.077 SA
HETATM    3  C3  UNL     1     -30.739 -12.660  18.865  1.00  0.00     0.030 C 
HETATM    4  C4  UNL     1     -32.136 -13.086  18.607  1.00  0.00     0.002 C 
HETATM    5  C5  UNL     1     -33.061 -11.885  18.633  1.00  0.00     0.000 C 
HETATM    6  C6  UNL     1     -33.411 -11.673  20.110  1.00  0.00     0.000 C 
HETATM    7  C7  UNL     1     -32.174 -11.051  20.736  1.00  0.00     0.002 C 
HETATM    8  C8  UNL     1     -31.296 -12.140  21.259  1.00  0.00     0.030 C 
ENDROOT
BRANCH   1   9
HETATM    9  C1  UNL     1     -29.830 -14.019  20.771  1.00  0.00     0.405 C 
HETATM   10  F1  UNL     1     -28.631 -14.378  20.244  1.00  0.00    -0.169 F 
HETATM   11  F2  UNL     1     -29.840 -14.086  22.130  1.00  0.00    -0.169 F 
HETATM   12  F3  UNL     1     -30.777 -14.932  20.288  1.00  0.00    -0.169 F 
ENDBRANCH   1   9
TORSDOF 1
ENDMDL
