MODEL 1
REMARK VINA RESULT: -7.735370625      0.000      0.000
REMARK  18 active torsions:
REMARK  status: ('A' for Active; 'I' for Inactive)
REMARK    1  A    between atoms: C2_2  and  O2_4 
REMARK    2  A    between atoms: O2_4  and  C3_5 
REMARK    3  A    between atoms: C7_12  and  C8_13 
REMARK    4  A    between atoms: C9_16  and  O8_17 
REMARK    5  A    between atoms: C10_19  and  O9_20 
REMARK    6  A    between atoms: O9_20  and  C11_21 
REMARK    7  A    between atoms: C13_24  and  C14_25 
REMARK    8  A    between atoms: C14_25  and  O11_27 
REMARK    9  A    between atoms: C14_25  and  C16_29 
REMARK   10  A    between atoms: C16_29  and  C17_30 
REMARK   11  A    between atoms: C17_30  and  C19_32 
REMARK   12  A    between atoms: C19_32  and  C20_34 
REMARK   13  A    between atoms: C21_38  and  O16_39 
REMARK   14  A    between atoms: C21_38  and  C22_41 
REMARK   15  A    between atoms: C22_41  and  O17_42 
REMARK   16  A    between atoms: C23_44  and  O18_45 
REMARK   17  A    between atoms: O18_45  and  C24_46 
REMARK   18  A    between atoms: C26_49  and  O20_50 
ROOT
HETATM    1  C3  UNL     1     -36.233  57.599 -22.830  1.00  0.00     0.304 C 
HETATM    2  O3  UNL     1     -35.003  57.982 -23.356  1.00  0.00    -0.316 OA
HETATM    3  C4  UNL     1     -34.251  58.449 -22.235  1.00  0.00     0.234 C 
HETATM    4  O4  UNL     1     -33.264  59.331 -22.671  1.00  0.00    -0.328 OA
HETATM    5  C5  UNL     1     -32.347  58.874 -23.579  1.00  0.00     0.172 C 
HETATM    6  C6  UNL     1     -32.266  57.367 -23.340  1.00  0.00     0.216 C 
HETATM    7  O5  UNL     1     -32.396  57.111 -21.978  1.00  0.00    -0.366 OA
HETATM    8  C7  UNL     1     -33.761  57.247 -21.551  1.00  0.00     0.287 C 
HETATM    9  C9  UNL     1     -32.791  59.197 -24.967  1.00  0.00     0.192 C 
HETATM   10  C10 UNL     1     -32.286  60.542 -25.492  1.00  0.00     0.196 C 
HETATM   11  C13 UNL     1     -31.904  61.350 -24.298  1.00  0.00     0.191 C 
HETATM   12  O15 UNL     1     -30.871  60.784 -23.615  1.00  0.00    -0.340 OA
HETATM   13  C21 UNL     1     -31.024  59.486 -23.195  1.00  0.00     0.221 C 
HETATM   14  C23 UNL     1     -35.285  59.312 -21.594  1.00  0.00     0.231 C 
HETATM   15  C26 UNL     1     -36.632  58.780 -21.933  1.00  0.00     0.209 C 
ENDROOT
BRANCH   9  16
HETATM   16  O8  UNL     1     -32.364  58.154 -25.802  1.00  0.00    -0.390 OA
ATOM     17  H8  UNL     1     -32.967  57.429 -25.688  1.00  0.00     0.210 HD
ENDBRANCH   9  16
BRANCH  13  18
HETATM   18  O16 UNL     1     -31.012  59.539 -21.778  1.00  0.00    -0.361 OA
ATOM     19  H16 UNL     1     -30.102  59.642 -21.526  1.00  0.00     0.213 HD
ENDBRANCH  13  18
BRANCH  13  20
HETATM   20  C22 UNL     1     -29.801  58.738 -23.585  1.00  0.00     0.235 C 
BRANCH  20  21
HETATM   21  O17 UNL     1     -29.086  58.183 -22.533  1.00  0.00    -0.395 OA
ATOM     22  H17 UNL     1     -29.255  57.262 -22.370  1.00  0.00     0.209 HD
ENDBRANCH  20  21
ENDBRANCH  13  20
BRANCH  10  23
HETATM   23  O9  UNL     1     -33.324  61.228 -26.169  1.00  0.00    -0.311 OA
BRANCH  23  24
HETATM   24  C11 UNL     1     -33.540  61.150 -27.530  1.00  0.00     0.255 C 
HETATM   25  C12 UNL     1     -34.781  60.472 -27.988  1.00  0.00     0.126 C 
HETATM   26  O10 UNL     1     -32.697  61.645 -28.298  1.00  0.00    -0.266 OA
ENDBRANCH  23  24
ENDBRANCH  10  23
BRANCH   8  27
HETATM   27  C8  UNL     1     -33.746  57.162 -20.103  1.00  0.00     0.208 C 
HETATM   28  O6  UNL     1     -32.753  57.552 -19.410  1.00  0.00    -0.646 OA
HETATM   29  O7  UNL     1     -34.781  56.653 -19.355  1.00  0.00    -0.646 OA
ENDBRANCH   8  27
BRANCH  14  30
HETATM   30  O18 UNL     1     -35.071  59.695 -20.278  1.00  0.00    -0.308 OA
BRANCH  30  31
HETATM   31  C24 UNL     1     -34.442  60.872 -19.911  1.00  0.00     0.255 C 
HETATM   32  C25 UNL     1     -35.183  62.042 -19.339  1.00  0.00     0.126 C 
HETATM   33  O19 UNL     1     -33.196  60.931 -20.077  1.00  0.00    -0.266 OA
ENDBRANCH  30  31
ENDBRANCH  14  30
BRANCH  11  34
HETATM   34  C14 UNL     1     -31.424  62.772 -24.656  1.00  0.00     0.084 C 
HETATM   35  C15 UNL     1     -32.652  63.630 -24.298  1.00  0.00     0.049 C 
BRANCH  34  36
HETATM   36  O11 UNL     1     -31.226  62.943 -26.001  1.00  0.00    -0.387 OA
ATOM     37  H11 UNL     1     -30.663  63.681 -26.200  1.00  0.00     0.210 HD
ENDBRANCH  34  36
BRANCH  34  38
HETATM   38  C16 UNL     1     -30.218  63.077 -23.859  1.00  0.00     0.052 C 
BRANCH  38  39
HETATM   39  C17 UNL     1     -29.848  64.496 -23.637  1.00  0.00     0.066 C 
HETATM   40  C18 UNL     1     -28.707  64.720 -22.691  1.00  0.00     0.018 C 
BRANCH  39  41
HETATM   41  C19 UNL     1     -29.510  65.155 -24.952  1.00  0.00     0.228 C 
HETATM   42  O12 UNL     1     -28.552  64.683 -25.627  1.00  0.00    -0.285 OA
BRANCH  41  43
HETATM   43  C20 UNL     1     -30.228  66.299 -25.476  1.00  0.00     0.247 C 
HETATM   44  O13 UNL     1     -29.952  67.493 -25.199  1.00  0.00    -0.642 OA
HETATM   45  O14 UNL     1     -31.296  66.106 -26.342  1.00  0.00    -0.642 OA
ENDBRANCH  41  43
ENDBRANCH  39  41
ENDBRANCH  38  39
ENDBRANCH  34  38
ENDBRANCH  11  34
BRANCH   1  46
HETATM   46  O2  UNL     1     -37.142  57.567 -23.915  1.00  0.00    -0.287 OA
BRANCH  46  47
HETATM   47  C2  UNL     1     -37.600  56.350 -24.411  1.00  0.00     0.257 C 
HETATM   48  C1  UNL     1     -38.661  56.352 -25.435  1.00  0.00     0.126 C 
HETATM   49  O1  UNL     1     -37.067  55.315 -23.944  1.00  0.00    -0.266 OA
ENDBRANCH  46  47
ENDBRANCH   1  46
BRANCH  15  50
HETATM   50  O20 UNL     1     -37.460  58.445 -20.910  1.00  0.00    -0.388 OA
ATOM     51  H20 UNL     1     -37.662  59.163 -20.321  1.00  0.00     0.210 HD
ENDBRANCH  15  50
TORSDOF 18
ENDMDL
MODEL 2
REMARK VINA RESULT: -7.326961268      3.244      7.185
REMARK  18 active torsions:
REMARK  status: ('A' for Active; 'I' for Inactive)
REMARK    1  A    between atoms: C2_2  and  O2_4 
REMARK    2  A    between atoms: O2_4  and  C3_5 
REMARK    3  A    between atoms: C7_12  and  C8_13 
REMARK    4  A    between atoms: C9_16  and  O8_17 
REMARK    5  A    between atoms: C10_19  and  O9_20 
REMARK    6  A    between atoms: O9_20  and  C11_21 
REMARK    7  A    between atoms: C13_24  and  C14_25 
REMARK    8  A    between atoms: C14_25  and  O11_27 
REMARK    9  A    between atoms: C14_25  and  C16_29 
REMARK   10  A    between atoms: C16_29  and  C17_30 
REMARK   11  A    between atoms: C17_30  and  C19_32 
REMARK   12  A    between atoms: C19_32  and  C20_34 
REMARK   13  A    between atoms: C21_38  and  O16_39 
REMARK   14  A    between atoms: C21_38  and  C22_41 
REMARK   15  A    between atoms: C22_41  and  O17_42 
REMARK   16  A    between atoms: C23_44  and  O18_45 
REMARK   17  A    between atoms: O18_45  and  C24_46 
REMARK   18  A    between atoms: C26_49  and  O20_50 
ROOT
HETATM    1  C3  UNL     1     -30.828  56.274 -27.071  1.00  0.00     0.304 C 
HETATM    2  O3  UNL     1     -31.623  57.113 -26.296  1.00  0.00    -0.316 OA
HETATM    3  C4  UNL     1     -31.126  56.964 -24.965  1.00  0.00     0.234 C 
HETATM    4  O4  UNL     1     -32.127  57.298 -24.054  1.00  0.00    -0.328 OA
HETATM    5  C5  UNL     1     -32.666  58.554 -24.120  1.00  0.00     0.172 C 
HETATM    6  C6  UNL     1     -31.563  59.430 -24.715  1.00  0.00     0.216 C 
HETATM    7  O5  UNL     1     -30.328  58.999 -24.240  1.00  0.00    -0.366 OA
HETATM    8  C7  UNL     1     -29.914  57.788 -24.894  1.00  0.00     0.287 C 
HETATM    9  C9  UNL     1     -33.893  58.545 -24.970  1.00  0.00     0.192 C 
HETATM   10  C10 UNL     1     -35.189  58.289 -24.200  1.00  0.00     0.196 C 
HETATM   11  C13 UNL     1     -34.800  57.645 -22.912  1.00  0.00     0.191 C 
HETATM   12  O15 UNL     1     -34.045  58.475 -22.140  1.00  0.00    -0.340 OA
HETATM   13  C21 UNL     1     -32.902  58.993 -22.697  1.00  0.00     0.221 C 
HETATM   14  C23 UNL     1     -31.030  55.477 -24.908  1.00  0.00     0.231 C 
HETATM   15  C26 UNL     1     -30.805  54.957 -26.282  1.00  0.00     0.209 C 
ENDROOT
BRANCH   9  16
HETATM   16  O8  UNL     1     -33.955  59.778 -25.637  1.00  0.00    -0.390 OA
ATOM     17  H8  UNL     1     -34.778  59.806 -26.111  1.00  0.00     0.210 HD
ENDBRANCH   9  16
BRANCH  13  18
HETATM   18  O16 UNL     1     -31.831  58.458 -21.938  1.00  0.00    -0.361 OA
ATOM     19  H16 UNL     1     -31.915  58.826 -21.066  1.00  0.00     0.213 HD
ENDBRANCH  13  18
BRANCH  13  20
HETATM   20  C22 UNL     1     -32.895  60.456 -22.437  1.00  0.00     0.235 C 
BRANCH  20  21
HETATM   21  O17 UNL     1     -32.232  60.848 -21.283  1.00  0.00    -0.395 OA
ATOM     22  H17 UNL     1     -32.487  60.385 -20.493  1.00  0.00     0.209 HD
ENDBRANCH  20  21
ENDBRANCH  13  20
BRANCH  10  23
HETATM   23  O9  UNL     1     -36.013  57.381 -24.910  1.00  0.00    -0.311 OA
BRANCH  23  24
HETATM   24  C11 UNL     1     -37.047  57.764 -25.740  1.00  0.00     0.255 C 
HETATM   25  C12 UNL     1     -38.293  56.957 -25.698  1.00  0.00     0.126 C 
HETATM   26  O10 UNL     1     -36.886  58.755 -26.474  1.00  0.00    -0.266 OA
ENDBRANCH  23  24
ENDBRANCH  10  23
BRANCH   8  27
HETATM   27  C8  UNL     1     -28.733  57.327 -24.187  1.00  0.00     0.208 C 
HETATM   28  O6  UNL     1     -28.598  57.464 -22.931  1.00  0.00    -0.646 OA
HETATM   29  O7  UNL     1     -27.665  56.715 -24.799  1.00  0.00    -0.646 OA
ENDBRANCH   8  27
BRANCH  14  30
HETATM   30  O18 UNL     1     -30.265  54.924 -23.891  1.00  0.00    -0.308 OA
BRANCH  30  31
HETATM   31  C24 UNL     1     -30.641  53.809 -23.163  1.00  0.00     0.255 C 
HETATM   32  C25 UNL     1     -30.108  52.438 -23.447  1.00  0.00     0.126 C 
HETATM   33  O19 UNL     1     -31.468  53.986 -22.230  1.00  0.00    -0.266 OA
ENDBRANCH  30  31
ENDBRANCH  14  30
BRANCH  11  34
HETATM   34  C14 UNL     1     -36.010  57.264 -22.034  1.00  0.00     0.084 C 
HETATM   35  C15 UNL     1     -36.392  55.879 -22.587  1.00  0.00     0.049 C 
BRANCH  34  36
HETATM   36  O11 UNL     1     -37.099  58.068 -22.253  1.00  0.00    -0.387 OA
ATOM     37  H11 UNL     1     -36.882  58.859 -22.732  1.00  0.00     0.210 HD
ENDBRANCH  34  36
BRANCH  34  38
HETATM   38  C16 UNL     1     -35.583  57.256 -20.620  1.00  0.00     0.052 C 
BRANCH  38  39
HETATM   39  C17 UNL     1     -36.384  58.012 -19.627  1.00  0.00     0.066 C 
HETATM   40  C18 UNL     1     -36.953  57.195 -18.506  1.00  0.00     0.018 C 
BRANCH  39  41
HETATM   41  C19 UNL     1     -35.554  59.122 -19.030  1.00  0.00     0.228 C 
HETATM   42  O12 UNL     1     -35.012  58.924 -17.906  1.00  0.00    -0.285 OA
BRANCH  41  43
HETATM   43  C20 UNL     1     -35.351  60.402 -19.681  1.00  0.00     0.247 C 
HETATM   44  O13 UNL     1     -34.507  61.256 -19.311  1.00  0.00    -0.642 OA
HETATM   45  O14 UNL     1     -36.118  60.742 -20.787  1.00  0.00    -0.642 OA
ENDBRANCH  41  43
ENDBRANCH  39  41
ENDBRANCH  38  39
ENDBRANCH  34  38
ENDBRANCH  11  34
BRANCH   1  46
HETATM   46  O2  UNL     1     -31.544  56.036 -28.270  1.00  0.00    -0.287 OA
BRANCH  46  47
HETATM   47  C2  UNL     1     -30.872  55.639 -29.422  1.00  0.00     0.257 C 
HETATM   48  C1  UNL     1     -31.655  55.341 -30.636  1.00  0.00     0.126 C 
HETATM   49  O1  UNL     1     -29.623  55.560 -29.346  1.00  0.00    -0.266 OA
ENDBRANCH  46  47
ENDBRANCH   1  46
BRANCH  15  50
HETATM   50  O20 UNL     1     -29.701  54.197 -26.503  1.00  0.00    -0.388 OA
ATOM     51  H20 UNL     1     -29.014  54.313 -25.856  1.00  0.00     0.210 HD
ENDBRANCH  15  50
TORSDOF 18
ENDMDL
MODEL 3
REMARK VINA RESULT: -7.236290059      3.048      7.157
REMARK  18 active torsions:
REMARK  status: ('A' for Active; 'I' for Inactive)
REMARK    1  A    between atoms: C2_2  and  O2_4 
REMARK    2  A    between atoms: O2_4  and  C3_5 
REMARK    3  A    between atoms: C7_12  and  C8_13 
REMARK    4  A    between atoms: C9_16  and  O8_17 
REMARK    5  A    between atoms: C10_19  and  O9_20 
REMARK    6  A    between atoms: O9_20  and  C11_21 
REMARK    7  A    between atoms: C13_24  and  C14_25 
REMARK    8  A    between atoms: C14_25  and  O11_27 
REMARK    9  A    between atoms: C14_25  and  C16_29 
REMARK   10  A    between atoms: C16_29  and  C17_30 
REMARK   11  A    between atoms: C17_30  and  C19_32 
REMARK   12  A    between atoms: C19_32  and  C20_34 
REMARK   13  A    between atoms: C21_38  and  O16_39 
REMARK   14  A    between atoms: C21_38  and  C22_41 
REMARK   15  A    between atoms: C22_41  and  O17_42 
REMARK   16  A    between atoms: C23_44  and  O18_45 
REMARK   17  A    between atoms: O18_45  and  C24_46 
REMARK   18  A    between atoms: C26_49  and  O20_50 
ROOT
HETATM    1  C3  UNL     1     -35.890  60.212 -21.320  1.00  0.00     0.304 C 
HETATM    2  O3  UNL     1     -34.612  59.755 -21.627  1.00  0.00    -0.316 OA
HETATM    3  C4  UNL     1     -34.327  60.295 -22.918  1.00  0.00     0.234 C 
HETATM    4  O4  UNL     1     -33.365  59.508 -23.550  1.00  0.00    -0.328 OA
HETATM    5  C5  UNL     1     -32.156  59.346 -22.930  1.00  0.00     0.172 C 
HETATM    6  C6  UNL     1     -31.974  60.600 -22.076  1.00  0.00     0.216 C 
HETATM    7  O5  UNL     1     -32.507  61.695 -22.750  1.00  0.00    -0.366 OA
HETATM    8  C7  UNL     1     -33.942  61.693 -22.693  1.00  0.00     0.287 C 
HETATM    9  C9  UNL     1     -32.161  58.102 -22.105  1.00  0.00     0.192 C 
HETATM   10  C10 UNL     1     -31.680  56.854 -22.846  1.00  0.00     0.196 C 
HETATM   11  C13 UNL     1     -31.807  57.146 -24.303  1.00  0.00     0.191 C 
HETATM   12  O15 UNL     1     -30.990  58.167 -24.686  1.00  0.00    -0.340 OA
HETATM   13  C21 UNL     1     -31.113  59.361 -24.019  1.00  0.00     0.221 C 
HETATM   14  C23 UNL     1     -35.609  59.967 -23.605  1.00  0.00     0.231 C 
HETATM   15  C26 UNL     1     -36.698  59.923 -22.594  1.00  0.00     0.209 C 
ENDROOT
BRANCH   9  16
HETATM   16  O8  UNL     1     -31.363  58.339 -20.976  1.00  0.00    -0.390 OA
ATOM     17  H8  UNL     1     -30.482  58.050 -21.182  1.00  0.00     0.210 HD
ENDBRANCH   9  16
BRANCH  13  18
HETATM   18  O16 UNL     1     -31.567  60.293 -24.986  1.00  0.00    -0.361 OA
ATOM     19  H16 UNL     1     -30.942  61.008 -24.978  1.00  0.00     0.213 HD
ENDBRANCH  13  18
BRANCH  13  20
HETATM   20  C22 UNL     1     -29.748  59.805 -23.634  1.00  0.00     0.235 C 
BRANCH  20  21
HETATM   21  O17 UNL     1     -28.970  58.844 -23.005  1.00  0.00    -0.395 OA
ATOM     22  H17 UNL     1     -28.031  58.981 -23.063  1.00  0.00     0.209 HD
ENDBRANCH  20  21
ENDBRANCH  13  20
BRANCH  10  23
HETATM   23  O9  UNL     1     -32.518  55.750 -22.548  1.00  0.00    -0.311 OA
BRANCH  23  24
HETATM   24  C11 UNL     1     -33.749  55.860 -21.934  1.00  0.00     0.255 C 
HETATM   25  C12 UNL     1     -34.928  56.106 -22.804  1.00  0.00     0.126 C 
HETATM   26  O10 UNL     1     -33.810  55.751 -20.697  1.00  0.00    -0.266 OA
ENDBRANCH  23  24
ENDBRANCH  10  23
BRANCH   8  27
HETATM   27  C8  UNL     1     -34.387  62.747 -23.586  1.00  0.00     0.208 C 
HETATM   28  O6  UNL     1     -33.741  63.067 -24.633  1.00  0.00    -0.646 OA
HETATM   29  O7  UNL     1     -35.526  63.490 -23.385  1.00  0.00    -0.646 OA
ENDBRANCH   8  27
BRANCH  14  30
HETATM   30  O18 UNL     1     -35.881  60.623 -24.797  1.00  0.00    -0.308 OA
BRANCH  30  31
HETATM   31  C24 UNL     1     -35.546  60.125 -26.044  1.00  0.00     0.255 C 
HETATM   32  C25 UNL     1     -36.493  59.312 -26.873  1.00  0.00     0.126 C 
HETATM   33  O19 UNL     1     -34.391  60.383 -26.473  1.00  0.00    -0.266 OA
ENDBRANCH  30  31
ENDBRANCH  14  30
BRANCH  11  34
HETATM   34  C14 UNL     1     -31.413  55.953 -25.198  1.00  0.00     0.084 C 
HETATM   35  C15 UNL     1     -31.512  56.558 -26.611  1.00  0.00     0.049 C 
BRANCH  34  36
HETATM   36  O11 UNL     1     -32.330  54.935 -25.161  1.00  0.00    -0.387 OA
ATOM     37  H11 UNL     1     -33.071  55.086 -25.734  1.00  0.00     0.210 HD
ENDBRANCH  34  36
BRANCH  34  38
HETATM   38  C16 UNL     1     -30.054  55.510 -24.822  1.00  0.00     0.052 C 
BRANCH  38  39
HETATM   39  C17 UNL     1     -29.353  54.538 -25.695  1.00  0.00     0.066 C 
HETATM   40  C18 UNL     1     -27.895  54.813 -25.917  1.00  0.00     0.018 C 
BRANCH  39  41
HETATM   41  C19 UNL     1     -29.493  53.144 -25.136  1.00  0.00     0.228 C 
HETATM   42  O12 UNL     1     -30.055  53.006 -24.013  1.00  0.00    -0.285 OA
BRANCH  41  43
HETATM   43  C20 UNL     1     -29.014  51.960 -25.821  1.00  0.00     0.247 C 
HETATM   44  O13 UNL     1     -27.817  51.580 -25.822  1.00  0.00    -0.642 OA
HETATM   45  O14 UNL     1     -29.906  51.169 -26.534  1.00  0.00    -0.642 OA
ENDBRANCH  41  43
ENDBRANCH  39  41
ENDBRANCH  38  39
ENDBRANCH  34  38
ENDBRANCH  11  34
BRANCH   1  46
HETATM   46  O2  UNL     1     -36.388  59.362 -20.303  1.00  0.00    -0.287 OA
BRANCH  46  47
HETATM   47  C2  UNL     1     -35.740  59.287 -19.073  1.00  0.00     0.257 C 
HETATM   48  C1  UNL     1     -35.381  57.960 -18.538  1.00  0.00     0.126 C 
HETATM   49  O1  UNL     1     -35.503  60.373 -18.494  1.00  0.00    -0.266 OA
ENDBRANCH  46  47
ENDBRANCH   1  46
BRANCH  15  50
HETATM   50  O20 UNL     1     -37.766  60.743 -22.772  1.00  0.00    -0.388 OA
ATOM     51  H20 UNL     1     -38.021  60.858 -23.680  1.00  0.00     0.210 HD
ENDBRANCH  15  50
TORSDOF 18
ENDMDL
MODEL 4
REMARK VINA RESULT: -7.210682732      3.162      6.503
REMARK  18 active torsions:
REMARK  status: ('A' for Active; 'I' for Inactive)
REMARK    1  A    between atoms: C2_2  and  O2_4 
REMARK    2  A    between atoms: O2_4  and  C3_5 
REMARK    3  A    between atoms: C7_12  and  C8_13 
REMARK    4  A    between atoms: C9_16  and  O8_17 
REMARK    5  A    between atoms: C10_19  and  O9_20 
REMARK    6  A    between atoms: O9_20  and  C11_21 
REMARK    7  A    between atoms: C13_24  and  C14_25 
REMARK    8  A    between atoms: C14_25  and  O11_27 
REMARK    9  A    between atoms: C14_25  and  C16_29 
REMARK   10  A    between atoms: C16_29  and  C17_30 
REMARK   11  A    between atoms: C17_30  and  C19_32 
REMARK   12  A    between atoms: C19_32  and  C20_34 
REMARK   13  A    between atoms: C21_38  and  O16_39 
REMARK   14  A    between atoms: C21_38  and  C22_41 
REMARK   15  A    between atoms: C22_41  and  O17_42 
REMARK   16  A    between atoms: C23_44  and  O18_45 
REMARK   17  A    between atoms: O18_45  and  C24_46 
REMARK   18  A    between atoms: C26_49  and  O20_50 
ROOT
HETATM    1  C3  UNL     1     -30.124  56.373 -25.615  1.00  0.00     0.304 C 
HETATM    2  O3  UNL     1     -30.994  57.454 -25.707  1.00  0.00    -0.316 OA
HETATM    3  C4  UNL     1     -31.573  57.573 -24.406  1.00  0.00     0.234 C 
HETATM    4  O4  UNL     1     -32.802  58.223 -24.501  1.00  0.00    -0.328 OA
HETATM    5  C5  UNL     1     -32.827  59.479 -25.044  1.00  0.00     0.172 C 
HETATM    6  C6  UNL     1     -31.441  60.061 -24.769  1.00  0.00     0.216 C 
HETATM    7  O5  UNL     1     -30.998  59.622 -23.525  1.00  0.00    -0.366 OA
HETATM    8  C7  UNL     1     -30.567  58.252 -23.580  1.00  0.00     0.287 C 
HETATM    9  C9  UNL     1     -33.123  59.403 -26.505  1.00  0.00     0.192 C 
HETATM   10  C10 UNL     1     -34.610  59.482 -26.852  1.00  0.00     0.196 C 
HETATM   11  C13 UNL     1     -35.357  59.125 -25.611  1.00  0.00     0.191 C 
HETATM   12  O15 UNL     1     -35.139  60.027 -24.614  1.00  0.00    -0.340 OA
HETATM   13  C21 UNL     1     -33.837  60.267 -24.250  1.00  0.00     0.221 C 
HETATM   14  C23 UNL     1     -31.908  56.141 -24.159  1.00  0.00     0.231 C 
HETATM   15  C26 UNL     1     -30.959  55.287 -24.919  1.00  0.00     0.209 C 
ENDROOT
BRANCH   9  16
HETATM   16  O8  UNL     1     -32.418  60.439 -27.135  1.00  0.00    -0.390 OA
ATOM     17  H8  UNL     1     -31.505  60.357 -26.887  1.00  0.00     0.210 HD
ENDBRANCH   9  16
BRANCH  13  18
HETATM   18  O16 UNL     1     -33.725  59.815 -22.911  1.00  0.00    -0.361 OA
ATOM     19  H16 UNL     1     -34.469  59.243 -22.762  1.00  0.00     0.213 HD
ENDBRANCH  13  18
BRANCH  13  20
HETATM   20  C22 UNL     1     -33.647  61.741 -24.199  1.00  0.00     0.235 C 
BRANCH  20  21
HETATM   21  O17 UNL     1     -34.074  62.430 -25.326  1.00  0.00    -0.395 OA
ATOM     22  H17 UNL     1     -35.015  62.449 -25.456  1.00  0.00     0.209 HD
ENDBRANCH  20  21
ENDBRANCH  13  20
BRANCH  10  23
HETATM   23  O9  UNL     1     -34.937  58.527 -27.846  1.00  0.00    -0.311 OA
BRANCH  23  24
HETATM   24  C11 UNL     1     -34.858  58.769 -29.203  1.00  0.00     0.255 C 
HETATM   25  C12 UNL     1     -35.476  57.770 -30.112  1.00  0.00     0.126 C 
HETATM   26  O10 UNL     1     -34.280  59.798 -29.592  1.00  0.00    -0.266 OA
ENDBRANCH  23  24
ENDBRANCH  10  23
BRANCH   8  27
HETATM   27  C8  UNL     1     -30.324  57.846 -22.209  1.00  0.00     0.208 C 
HETATM   28  O6  UNL     1     -29.393  57.040 -21.894  1.00  0.00    -0.646 OA
HETATM   29  O7  UNL     1     -31.070  58.280 -21.138  1.00  0.00    -0.646 OA
ENDBRANCH   8  27
BRANCH  14  30
HETATM   30  O18 UNL     1     -32.187  55.767 -22.853  1.00  0.00    -0.308 OA
BRANCH  30  31
HETATM   31  C24 UNL     1     -33.465  55.704 -22.325  1.00  0.00     0.255 C 
HETATM   32  C25 UNL     1     -34.687  55.546 -23.178  1.00  0.00     0.126 C 
HETATM   33  O19 UNL     1     -33.573  55.785 -21.074  1.00  0.00    -0.266 OA
ENDBRANCH  30  31
ENDBRANCH  14  30
BRANCH  11  34
HETATM   34  C14 UNL     1     -36.886  59.100 -25.809  1.00  0.00     0.084 C 
HETATM   35  C15 UNL     1     -37.393  58.761 -24.395  1.00  0.00     0.049 C 
BRANCH  34  36
HETATM   36  O11 UNL     1     -37.301  58.071 -26.613  1.00  0.00    -0.387 OA
ATOM     37  H11 UNL     1     -37.904  57.482 -26.176  1.00  0.00     0.210 HD
ENDBRANCH  34  36
BRANCH  34  38
HETATM   38  C16 UNL     1     -37.319  60.423 -26.306  1.00  0.00     0.052 C 
BRANCH  38  39
HETATM   39  C17 UNL     1     -37.996  60.504 -27.623  1.00  0.00     0.066 C 
HETATM   40  C18 UNL     1     -39.440  60.907 -27.578  1.00  0.00     0.018 C 
BRANCH  39  41
HETATM   41  C19 UNL     1     -37.263  61.468 -28.523  1.00  0.00     0.228 C 
HETATM   42  O12 UNL     1     -36.486  62.310 -27.989  1.00  0.00    -0.285 OA
BRANCH  41  43
HETATM   43  C20 UNL     1     -37.408  61.478 -29.965  1.00  0.00     0.247 C 
HETATM   44  O13 UNL     1     -37.665  60.460 -30.655  1.00  0.00    -0.642 OA
HETATM   45  O14 UNL     1     -37.260  62.668 -30.665  1.00  0.00    -0.642 OA
ENDBRANCH  41  43
ENDBRANCH  39  41
ENDBRANCH  38  39
ENDBRANCH  34  38
ENDBRANCH  11  34
BRANCH   1  46
HETATM   46  O2  UNL     1     -29.884  55.936 -26.941  1.00  0.00    -0.287 OA
BRANCH  46  47
HETATM   47  C2  UNL     1     -29.029  54.864 -27.182  1.00  0.00     0.257 C 
HETATM   48  C1  UNL     1     -29.353  53.927 -28.274  1.00  0.00     0.126 C 
HETATM   49  O1  UNL     1     -28.024  54.767 -26.440  1.00  0.00    -0.266 OA
ENDBRANCH  46  47
ENDBRANCH   1  46
BRANCH  15  50
HETATM   50  O20 UNL     1     -30.223  54.380 -24.227  1.00  0.00    -0.388 OA
ATOM     51  H20 UNL     1     -30.700  53.594 -23.987  1.00  0.00     0.210 HD
ENDBRANCH  15  50
TORSDOF 18
ENDMDL
MODEL 5
REMARK VINA RESULT: -7.191113652      2.681      7.391
REMARK  18 active torsions:
REMARK  status: ('A' for Active; 'I' for Inactive)
REMARK    1  A    between atoms: C2_2  and  O2_4 
REMARK    2  A    between atoms: O2_4  and  C3_5 
REMARK    3  A    between atoms: C7_12  and  C8_13 
REMARK    4  A    between atoms: C9_16  and  O8_17 
REMARK    5  A    between atoms: C10_19  and  O9_20 
REMARK    6  A    between atoms: O9_20  and  C11_21 
REMARK    7  A    between atoms: C13_24  and  C14_25 
REMARK    8  A    between atoms: C14_25  and  O11_27 
REMARK    9  A    between atoms: C14_25  and  C16_29 
REMARK   10  A    between atoms: C16_29  and  C17_30 
REMARK   11  A    between atoms: C17_30  and  C19_32 
REMARK   12  A    between atoms: C19_32  and  C20_34 
REMARK   13  A    between atoms: C21_38  and  O16_39 
REMARK   14  A    between atoms: C21_38  and  C22_41 
REMARK   15  A    between atoms: C22_41  and  O17_42 
REMARK   16  A    between atoms: C23_44  and  O18_45 
REMARK   17  A    between atoms: O18_45  and  C24_46 
REMARK   18  A    between atoms: C26_49  and  O20_50 
ROOT
HETATM    1  C3  UNL     1     -34.643  62.185 -22.372  1.00  0.00     0.304 C 
HETATM    2  O3  UNL     1     -33.654  61.207 -22.361  1.00  0.00    -0.316 OA
HETATM    3  C4  UNL     1     -33.403  60.921 -23.738  1.00  0.00     0.234 C 
HETATM    4  O4  UNL     1     -32.867  59.639 -23.858  1.00  0.00    -0.328 OA
HETATM    5  C5  UNL     1     -31.703  59.363 -23.194  1.00  0.00     0.172 C 
HETATM    6  C6  UNL     1     -30.985  60.706 -23.070  1.00  0.00     0.216 C 
HETATM    7  O5  UNL     1     -31.215  61.457 -24.219  1.00  0.00    -0.366 OA
HETATM    8  C7  UNL     1     -32.543  62.006 -24.224  1.00  0.00     0.287 C 
HETATM    9  C9  UNL     1     -32.000  58.762 -21.860  1.00  0.00     0.192 C 
HETATM   10  C10 UNL     1     -32.082  57.235 -21.862  1.00  0.00     0.196 C 
HETATM   11  C13 UNL     1     -32.322  56.822 -23.276  1.00  0.00     0.191 C 
HETATM   12  O15 UNL     1     -31.279  57.158 -24.084  1.00  0.00    -0.340 OA
HETATM   13  C21 UNL     1     -30.892  58.476 -24.105  1.00  0.00     0.221 C 
HETATM   14  C23 UNL     1     -34.809  60.800 -24.220  1.00  0.00     0.231 C 
HETATM   15  C26 UNL     1     -35.684  61.643 -23.363  1.00  0.00     0.209 C 
ENDROOT
BRANCH   9  16
HETATM   16  O8  UNL     1     -31.008  59.197 -20.969  1.00  0.00    -0.390 OA
ATOM     17  H8  UNL     1     -31.378  59.172 -20.094  1.00  0.00     0.210 HD
ENDBRANCH   9  16
BRANCH  13  18
HETATM   18  O16 UNL     1     -31.149  58.928 -25.424  1.00  0.00    -0.361 OA
ATOM     19  H16 UNL     1     -30.299  59.063 -25.827  1.00  0.00     0.213 HD
ENDBRANCH  13  18
BRANCH  13  20
HETATM   20  C22 UNL     1     -29.416  58.516 -23.939  1.00  0.00     0.235 C 
BRANCH  20  21
HETATM   21  O17 UNL     1     -28.928  57.844 -22.828  1.00  0.00    -0.395 OA
ATOM     22  H17 UNL     1     -28.307  57.149 -23.015  1.00  0.00     0.209 HD
ENDBRANCH  20  21
ENDBRANCH  13  20
BRANCH  10  23
HETATM   23  O9  UNL     1     -33.186  56.799 -21.088  1.00  0.00    -0.311 OA
BRANCH  23  24
HETATM   24  C11 UNL     1     -34.049  57.650 -20.428  1.00  0.00     0.255 C 
HETATM   25  C12 UNL     1     -35.189  58.205 -21.204  1.00  0.00     0.126 C 
HETATM   26  O10 UNL     1     -33.833  57.909 -19.232  1.00  0.00    -0.266 OA
ENDBRANCH  23  24
ENDBRANCH  10  23
BRANCH   8  27
HETATM   27  C8  UNL     1     -32.739  62.588 -25.539  1.00  0.00     0.208 C 
HETATM   28  O6  UNL     1     -32.240  62.074 -26.589  1.00  0.00    -0.646 OA
HETATM   29  O7  UNL     1     -33.464  63.733 -25.770  1.00  0.00    -0.646 OA
ENDBRANCH   8  27
BRANCH  14  30
HETATM   30  O18 UNL     1     -35.022  60.858 -25.589  1.00  0.00    -0.308 OA
BRANCH  30  31
HETATM   31  C24 UNL     1     -35.092  59.743 -26.406  1.00  0.00     0.255 C 
HETATM   32  C25 UNL     1     -36.389  59.099 -26.789  1.00  0.00     0.126 C 
HETATM   33  O19 UNL     1     -34.003  59.273 -26.828  1.00  0.00    -0.266 OA
ENDBRANCH  30  31
ENDBRANCH  14  30
BRANCH  11  34
HETATM   34  C14 UNL     1     -32.490  55.298 -23.443  1.00  0.00     0.084 C 
HETATM   35  C15 UNL     1     -34.020  55.145 -23.521  1.00  0.00     0.049 C 
BRANCH  34  36
HETATM   36  O11 UNL     1     -32.098  54.595 -22.333  1.00  0.00    -0.387 OA
ATOM     37  H11 UNL     1     -31.308  54.090 -22.478  1.00  0.00     0.210 HD
ENDBRANCH  34  36
BRANCH  34  38
HETATM   38  C16 UNL     1     -31.776  54.876 -24.666  1.00  0.00     0.052 C 
BRANCH  38  39
HETATM   39  C17 UNL     1     -30.525  54.091 -24.528  1.00  0.00     0.066 C 
HETATM   40  C18 UNL     1     -30.698  52.602 -24.555  1.00  0.00     0.018 C 
BRANCH  39  41
HETATM   41  C19 UNL     1     -29.550  54.476 -25.613  1.00  0.00     0.228 C 
HETATM   42  O12 UNL     1     -29.960  55.223 -26.546  1.00  0.00    -0.285 OA
BRANCH  41  43
HETATM   43  C20 UNL     1     -28.172  54.030 -25.639  1.00  0.00     0.247 C 
HETATM   44  O13 UNL     1     -27.820  52.828 -25.739  1.00  0.00    -0.642 OA
HETATM   45  O14 UNL     1     -27.144  54.960 -25.549  1.00  0.00    -0.642 OA
ENDBRANCH  41  43
ENDBRANCH  39  41
ENDBRANCH  38  39
ENDBRANCH  34  38
ENDBRANCH  11  34
BRANCH   1  46
HETATM   46  O2  UNL     1     -35.237  62.171 -21.087  1.00  0.00    -0.287 OA
BRANCH  46  47
HETATM   47  C2  UNL     1     -35.673  63.356 -20.503  1.00  0.00     0.257 C 
HETATM   48  C1  UNL     1     -35.677  63.466 -19.032  1.00  0.00     0.126 C 
HETATM   49  O1  UNL     1     -36.039  64.267 -21.282  1.00  0.00    -0.266 OA
ENDBRANCH  46  47
ENDBRANCH   1  46
BRANCH  15  50
HETATM   50  O20 UNL     1     -36.429  62.605 -23.966  1.00  0.00    -0.388 OA
ATOM     51  H20 UNL     1     -36.809  62.340 -24.796  1.00  0.00     0.210 HD
ENDBRANCH  15  50
TORSDOF 18
ENDMDL
