MODEL 1
REMARK VINA RESULT: -6.688594829      0.000      0.000
REMARK  5 active torsions:
REMARK  status: ('A' for Active; 'I' for Inactive)
REMARK    1  A    between atoms: C4_5  and  N1_6 
REMARK    2  A    between atoms: N1_6  and  C6_8 
REMARK    3  A    between atoms: C14_17  and  C15_18 
REMARK    4  A    between atoms: C18_21  and  O1_22 
REMARK    5  A    between atoms: C19_24  and  O2_25 
ROOT
HETATM    1  C1  UNL     1      -8.252  19.019  -8.538  1.00  0.00     0.037 C 
HETATM    2  C2  UNL     1      -9.216  17.906  -8.340  1.00  0.00    -0.015 C 
HETATM    3  C3  UNL     1     -10.505  18.084  -8.280  1.00  0.00    -0.006 C 
HETATM    4  S1  UNL     1     -11.307  19.687  -8.424  1.00  0.00    -0.075 SA
HETATM    5  C4  UNL     1     -12.832  19.030  -9.116  1.00  0.00     0.090 C 
HETATM    6  C12 UNL     1     -12.836  17.751  -8.856  1.00  0.00     0.069 C 
HETATM    7  C13 UNL     1     -13.926  16.842  -9.264  1.00  0.00     0.099 C 
HETATM    8  N2  UNL     1     -14.791  16.148  -9.589  1.00  0.00    -0.192 NA
HETATM    9  C14 UNL     1     -11.690  17.233  -8.100  1.00  0.00     0.105 C 
ENDROOT
BRANCH   5  10
HETATM   10  N1  UNL     1     -13.841  19.790  -9.821  1.00  0.00    -0.374 N 
HETATM   11  C5  UNL     1     -14.329  21.012  -9.219  1.00  0.00     0.150 C 
BRANCH  10  12
HETATM   12  C6  UNL     1     -14.366  19.381 -11.075  1.00  0.00     0.084 C 
HETATM   13  C7  UNL     1     -13.239  19.255 -12.073  1.00  0.00     0.025 C 
HETATM   14  C8  UNL     1     -13.701  18.391 -13.232  1.00  0.00     0.002 C 
HETATM   15  C9  UNL     1     -15.184  18.655 -13.422  1.00  0.00     0.000 C 
HETATM   16  C10 UNL     1     -15.411  20.125 -13.160  1.00  0.00     0.002 C 
HETATM   17  C11 UNL     1     -15.368  20.350 -11.662  1.00  0.00     0.025 C 
ENDBRANCH  10  12
ENDBRANCH   5  10
BRANCH   9  18
HETATM   18  C15 UNL     1     -11.445  15.805  -8.331  1.00  0.00    -0.041 A 
HETATM   19  C16 UNL     1     -12.069  14.846  -7.576  1.00  0.00     0.011 A 
HETATM   20  C17 UNL     1     -11.804  13.510  -7.834  1.00  0.00     0.040 A 
HETATM   21  C18 UNL     1     -10.914  13.131  -8.845  1.00  0.00     0.099 A 
HETATM   22  C19 UNL     1     -10.293  14.101  -9.597  1.00  0.00     0.101 A 
HETATM   23  C21 UNL     1     -10.566  15.425  -9.331  1.00  0.00     0.047 A 
BRANCH  21  24
HETATM   24  O1  UNL     1     -10.694  11.781  -9.049  1.00  0.00    -0.358 OA
ATOM     25  H1  UNL     1      -9.945  11.523  -9.571  1.00  0.00     0.217 HD
ENDBRANCH  21  24
BRANCH  22  26
HETATM   26  O2  UNL     1      -9.419  13.701 -10.589  1.00  0.00    -0.353 OA
HETATM   27  C20 UNL     1      -8.059  14.039 -10.637  1.00  0.00     0.210 C 
ENDBRANCH  22  26
ENDBRANCH   9  18
TORSDOF 5
ENDMDL
MODEL 2
REMARK VINA RESULT: -6.628106907      3.219      6.775
REMARK  5 active torsions:
REMARK  status: ('A' for Active; 'I' for Inactive)
REMARK    1  A    between atoms: C4_5  and  N1_6 
REMARK    2  A    between atoms: N1_6  and  C6_8 
REMARK    3  A    between atoms: C14_17  and  C15_18 
REMARK    4  A    between atoms: C18_21  and  O1_22 
REMARK    5  A    between atoms: C19_24  and  O2_25 
ROOT
HETATM    1  C1  UNL     1     -15.317  17.718 -12.318  1.00  0.00     0.037 C 
HETATM    2  C2  UNL     1     -14.453  18.540 -11.431  1.00  0.00    -0.015 C 
HETATM    3  C3  UNL     1     -13.972  18.103 -10.303  1.00  0.00    -0.006 C 
HETATM    4  S1  UNL     1     -14.277  16.455  -9.649  1.00  0.00    -0.075 SA
HETATM    5  C4  UNL     1     -12.724  16.361  -8.747  1.00  0.00     0.090 C 
HETATM    6  C12 UNL     1     -12.280  17.585  -8.646  1.00  0.00     0.069 C 
HETATM    7  C13 UNL     1     -11.016  17.937  -7.968  1.00  0.00     0.099 C 
HETATM    8  N2  UNL     1     -10.025  18.193  -7.431  1.00  0.00    -0.192 NA
HETATM    9  C14 UNL     1     -13.119  18.636  -9.230  1.00  0.00     0.105 C 
ENDROOT
BRANCH   5  10
HETATM   10  N1  UNL     1     -12.106  15.155  -8.243  1.00  0.00    -0.374 N 
HETATM   11  C5  UNL     1     -12.336  14.788  -6.862  1.00  0.00     0.150 C 
BRANCH  10  12
HETATM   12  C6  UNL     1     -11.288  14.321  -9.051  1.00  0.00     0.084 C 
HETATM   13  C7  UNL     1     -11.095  12.990  -8.363  1.00  0.00     0.025 C 
HETATM   14  C8  UNL     1     -10.647  11.965  -9.388  1.00  0.00     0.002 C 
HETATM   15  C9  UNL     1      -9.797  12.699 -10.410  1.00  0.00     0.000 C 
HETATM   16  C10 UNL     1      -8.991  13.732  -9.659  1.00  0.00     0.002 C 
HETATM   17  C11 UNL     1      -9.911  14.886  -9.312  1.00  0.00     0.025 C 
ENDBRANCH  10  12
ENDBRANCH   5  10
BRANCH   9  18
HETATM   18  C15 UNL     1     -12.362  19.836  -9.606  1.00  0.00    -0.041 A 
HETATM   19  C16 UNL     1     -12.613  21.048  -9.015  1.00  0.00     0.011 A 
HETATM   20  C17 UNL     1     -11.870  22.151  -9.405  1.00  0.00     0.040 A 
HETATM   21  C18 UNL     1     -10.878  22.046 -10.386  1.00  0.00     0.099 A 
HETATM   22  C19 UNL     1     -10.634  20.826 -10.972  1.00  0.00     0.101 A 
HETATM   23  C21 UNL     1     -11.380  19.737 -10.576  1.00  0.00     0.047 A 
BRANCH  21  24
HETATM   24  O1  UNL     1     -10.175  23.187 -10.728  1.00  0.00    -0.358 OA
ATOM     25  H1  UNL     1      -9.226  23.146 -10.729  1.00  0.00     0.217 HD
ENDBRANCH  21  24
BRANCH  22  26
HETATM   26  O2  UNL     1      -9.650  20.749 -11.937  1.00  0.00    -0.353 OA
HETATM   27  C20 UNL     1      -9.886  20.757 -13.320  1.00  0.00     0.210 C 
ENDBRANCH  22  26
ENDBRANCH   9  18
TORSDOF 5
ENDMDL
MODEL 3
REMARK VINA RESULT: -6.583106457      3.477      6.836
REMARK  5 active torsions:
REMARK  status: ('A' for Active; 'I' for Inactive)
REMARK    1  A    between atoms: C4_5  and  N1_6 
REMARK    2  A    between atoms: N1_6  and  C6_8 
REMARK    3  A    between atoms: C14_17  and  C15_18 
REMARK    4  A    between atoms: C18_21  and  O1_22 
REMARK    5  A    between atoms: C19_24  and  O2_25 
ROOT
HETATM    1  C1  UNL     1      -9.074  20.091  -6.877  1.00  0.00     0.037 C 
HETATM    2  C2  UNL     1     -10.377  20.079  -7.590  1.00  0.00    -0.015 C 
HETATM    3  C3  UNL     1     -10.825  19.040  -8.236  1.00  0.00    -0.006 C 
HETATM    4  S1  UNL     1      -9.944  17.478  -8.365  1.00  0.00    -0.075 SA
HETATM    5  C4  UNL     1     -11.430  16.479  -8.526  1.00  0.00     0.090 C 
HETATM    6  C12 UNL     1     -12.393  17.298  -8.854  1.00  0.00     0.069 C 
HETATM    7  C13 UNL     1     -13.787  16.864  -9.079  1.00  0.00     0.099 C 
HETATM    8  N2  UNL     1     -14.871  16.505  -9.254  1.00  0.00    -0.192 NA
HETATM    9  C14 UNL     1     -12.025  18.708  -9.018  1.00  0.00     0.105 C 
ENDROOT
BRANCH   5  10
HETATM   10  N1  UNL     1     -11.519  15.050  -8.324  1.00  0.00    -0.374 N 
HETATM   11  C5  UNL     1     -12.245  14.560  -7.173  1.00  0.00     0.150 C 
BRANCH  10  12
HETATM   12  C6  UNL     1     -10.922  14.115  -9.212  1.00  0.00     0.084 C 
HETATM   13  C7  UNL     1     -10.609  12.841  -8.462  1.00  0.00     0.025 C 
HETATM   14  C8  UNL     1     -10.426  11.713  -9.461  1.00  0.00     0.002 C 
HETATM   15  C9  UNL     1      -9.813  12.319 -10.711  1.00  0.00     0.000 C 
HETATM   16  C10 UNL     1      -8.835  13.378 -10.258  1.00  0.00     0.002 C 
HETATM   17  C11 UNL     1      -9.627  14.596  -9.825  1.00  0.00     0.025 C 
ENDBRANCH  10  12
ENDBRANCH   5  10
BRANCH   9  18
HETATM   18  C15 UNL     1     -13.151  19.626  -8.808  1.00  0.00    -0.041 A 
HETATM   19  C16 UNL     1     -13.616  20.423  -9.823  1.00  0.00     0.011 A 
HETATM   20  C17 UNL     1     -14.682  21.272  -9.574  1.00  0.00     0.040 A 
HETATM   21  C18 UNL     1     -15.285  21.328  -8.313  1.00  0.00     0.099 A 
HETATM   22  C19 UNL     1     -14.812  20.524  -7.302  1.00  0.00     0.101 A 
HETATM   23  C21 UNL     1     -13.751  19.683  -7.563  1.00  0.00     0.047 A 
BRANCH  21  24
HETATM   24  O1  UNL     1     -16.344  22.199  -8.133  1.00  0.00    -0.358 OA
ATOM     25  H1  UNL     1     -16.975  22.287  -8.837  1.00  0.00     0.217 HD
ENDBRANCH  21  24
BRANCH  22  26
HETATM   26  O2  UNL     1     -15.424  20.597  -6.067  1.00  0.00    -0.353 OA
HETATM   27  C20 UNL     1     -14.814  21.086  -4.903  1.00  0.00     0.210 C 
ENDBRANCH  22  26
ENDBRANCH   9  18
TORSDOF 5
ENDMDL
MODEL 4
REMARK VINA RESULT: -6.569142980      2.675      4.542
REMARK  5 active torsions:
REMARK  status: ('A' for Active; 'I' for Inactive)
REMARK    1  A    between atoms: C4_5  and  N1_6 
REMARK    2  A    between atoms: N1_6  and  C6_8 
REMARK    3  A    between atoms: C14_17  and  C15_18 
REMARK    4  A    between atoms: C18_21  and  O1_22 
REMARK    5  A    between atoms: C19_24  and  O2_25 
ROOT
HETATM    1  C1  UNL     1     -15.314  17.630 -12.079  1.00  0.00     0.037 C 
HETATM    2  C2  UNL     1     -14.197  17.244 -11.178  1.00  0.00    -0.015 C 
HETATM    3  C3  UNL     1     -13.663  18.061 -10.316  1.00  0.00    -0.006 C 
HETATM    4  S1  UNL     1     -14.189  19.765 -10.086  1.00  0.00    -0.075 SA
HETATM    5  C4  UNL     1     -13.713  19.837  -8.353  1.00  0.00     0.090 C 
HETATM    6  C12 UNL     1     -12.897  18.838  -8.151  1.00  0.00     0.069 C 
HETATM    7  C13 UNL     1     -12.279  18.546  -6.842  1.00  0.00     0.099 C 
HETATM    8  N2  UNL     1     -11.803  18.335  -5.811  1.00  0.00    -0.192 NA
HETATM    9  C14 UNL     1     -12.588  18.000  -9.315  1.00  0.00     0.105 C 
ENDROOT
BRANCH   5  10
HETATM   10  N1  UNL     1     -14.162  20.818  -7.389  1.00  0.00    -0.374 N 
HETATM   11  C5  UNL     1     -13.524  22.117  -7.380  1.00  0.00     0.150 C 
BRANCH  10  12
HETATM   12  C6  UNL     1     -15.201  20.553  -6.458  1.00  0.00     0.084 C 
HETATM   13  C7  UNL     1     -16.428  21.349  -6.837  1.00  0.00     0.025 C 
HETATM   14  C8  UNL     1     -17.642  20.733  -6.166  1.00  0.00     0.002 C 
HETATM   15  C9  UNL     1     -17.179  20.179  -4.830  1.00  0.00     0.000 C 
HETATM   16  C10 UNL     1     -16.152  21.141  -4.281  1.00  0.00     0.002 C 
HETATM   17  C11 UNL     1     -14.855  20.928  -5.035  1.00  0.00     0.025 C 
ENDBRANCH  10  12
ENDBRANCH   5  10
BRANCH   9  18
HETATM   18  C15 UNL     1     -12.181  16.638  -8.953  1.00  0.00    -0.041 A 
HETATM   19  C16 UNL     1     -13.022  15.807  -8.258  1.00  0.00     0.011 A 
HETATM   20  C17 UNL     1     -12.590  14.528  -7.941  1.00  0.00     0.040 A 
HETATM   21  C18 UNL     1     -11.319  14.079  -8.317  1.00  0.00     0.099 A 
HETATM   22  C19 UNL     1     -10.484  14.920  -9.014  1.00  0.00     0.101 A 
HETATM   23  C21 UNL     1     -10.925  16.189  -9.323  1.00  0.00     0.047 A 
BRANCH  21  24
HETATM   24  O1  UNL     1     -10.952  12.792  -7.967  1.00  0.00    -0.358 OA
ATOM     25  H1  UNL     1     -10.970  12.123  -8.640  1.00  0.00     0.217 HD
ENDBRANCH  21  24
BRANCH  22  26
HETATM   26  O2  UNL     1      -9.235  14.454  -9.373  1.00  0.00    -0.353 OA
HETATM   27  C20 UNL     1      -8.939  13.827 -10.592  1.00  0.00     0.210 C 
ENDBRANCH  22  26
ENDBRANCH   9  18
TORSDOF 5
ENDMDL
MODEL 5
REMARK VINA RESULT: -6.490063715      3.393      6.749
REMARK  5 active torsions:
REMARK  status: ('A' for Active; 'I' for Inactive)
REMARK    1  A    between atoms: C4_5  and  N1_6 
REMARK    2  A    between atoms: N1_6  and  C6_8 
REMARK    3  A    between atoms: C14_17  and  C15_18 
REMARK    4  A    between atoms: C18_21  and  O1_22 
REMARK    5  A    between atoms: C19_24  and  O2_25 
ROOT
HETATM    1  C1  UNL     1      -8.965  20.014  -7.125  1.00  0.00     0.037 C 
HETATM    2  C2  UNL     1     -10.301  20.009  -7.775  1.00  0.00    -0.015 C 
HETATM    3  C3  UNL     1     -10.794  18.966  -8.380  1.00  0.00    -0.006 C 
HETATM    4  S1  UNL     1      -9.941  17.390  -8.524  1.00  0.00    -0.075 SA
HETATM    5  C4  UNL     1     -11.447  16.410  -8.595  1.00  0.00     0.090 C 
HETATM    6  C12 UNL     1     -12.414  17.236  -8.891  1.00  0.00     0.069 C 
HETATM    7  C13 UNL     1     -13.822  16.819  -9.040  1.00  0.00     0.099 C 
HETATM    8  N2  UNL     1     -14.919  16.473  -9.156  1.00  0.00    -0.192 NA
HETATM    9  C14 UNL     1     -12.035  18.638  -9.097  1.00  0.00     0.105 C 
ENDROOT
BRANCH   5  10
HETATM   10  N1  UNL     1     -11.545  14.985  -8.364  1.00  0.00    -0.374 N 
HETATM   11  C5  UNL     1     -12.270  14.524  -7.199  1.00  0.00     0.150 C 
BRANCH  10  12
HETATM   12  C6  UNL     1     -10.960  14.028  -9.235  1.00  0.00     0.084 C 
HETATM   13  C7  UNL     1     -10.587  12.794  -8.447  1.00  0.00     0.025 C 
HETATM   14  C8  UNL     1     -10.415  11.630  -9.405  1.00  0.00     0.002 C 
HETATM   15  C9  UNL     1      -9.864  12.198 -10.702  1.00  0.00     0.000 C 
HETATM   16  C10 UNL     1      -8.897  13.297 -10.331  1.00  0.00     0.002 C 
HETATM   17  C11 UNL     1      -9.701  14.513  -9.917  1.00  0.00     0.025 C 
ENDBRANCH  10  12
ENDBRANCH   5  10
BRANCH   9  18
HETATM   18  C15 UNL     1     -13.137  19.576  -8.849  1.00  0.00    -0.041 A 
HETATM   19  C16 UNL     1     -13.587  19.823  -7.578  1.00  0.00     0.011 A 
HETATM   20  C17 UNL     1     -14.630  20.718  -7.398  1.00  0.00     0.040 A 
HETATM   21  C18 UNL     1     -15.225  21.365  -8.486  1.00  0.00     0.099 A 
HETATM   22  C19 UNL     1     -14.766  21.111  -9.757  1.00  0.00     0.101 A 
HETATM   23  C21 UNL     1     -13.727  20.219  -9.923  1.00  0.00     0.047 A 
BRANCH  21  24
HETATM   24  O1  UNL     1     -16.262  22.245  -8.234  1.00  0.00    -0.358 OA
ATOM     25  H1  UNL     1     -16.069  23.037  -7.746  1.00  0.00     0.217 HD
ENDBRANCH  21  24
BRANCH  22  26
HETATM   26  O2  UNL     1     -15.369  21.763 -10.814  1.00  0.00    -0.353 OA
HETATM   27  C20 UNL     1     -16.174  21.141 -11.779  1.00  0.00     0.210 C 
ENDBRANCH  22  26
ENDBRANCH   9  18
TORSDOF 5
ENDMDL
