MODEL 1
REMARK VINA RESULT: -8.167974220      0.000      0.000
REMARK  6 active torsions:
REMARK  status: ('A' for Active; 'I' for Inactive)
REMARK    1  A    between atoms: C2_3  and  C9_25 
REMARK    2  A    between atoms: C3_4  and  C4_5 
REMARK    3  A    between atoms: C5_6  and  S1_7 
REMARK    4  A    between atoms: S1_7  and  N2_10 
REMARK       I    between atoms: N2_10  and  C6_12 
REMARK    5  A    between atoms: N4_15  and  N5_16 
REMARK       I    between atoms: C9_25  and  N7_27 
REMARK    6  A    between atoms: N7_27  and  N8_29 
ROOT
HETATM    1  N1  UNL     1      14.690  -2.222  -1.126  1.00  0.00    -0.191 NA
HETATM    2  C1  UNL     1      14.827  -2.797  -2.145  1.00  0.00     0.105 C 
HETATM    3  C2  UNL     1      15.033  -3.510  -3.386  1.00  0.00     0.114 C 
HETATM    4  C3  UNL     1      14.114  -4.287  -3.909  1.00  0.00     0.048 C 
ENDROOT
BRANCH   3   5
HETATM    5  C9  UNL     1      16.343  -3.321  -4.062  1.00  0.00     0.280 C 
HETATM    6  O6  UNL     1      16.565  -3.980  -5.098  1.00  0.00    -0.265 OA
HETATM    7  N7  UNL     1      17.261  -2.410  -3.500  1.00  0.00    -0.272 N 
ATOM      8  H7  UNL     1      16.987  -1.918  -2.649  1.00  0.00     0.189 HD
BRANCH   7   9
HETATM    9  N8  UNL     1      18.517  -2.141  -4.034  1.00  0.00    -0.342 N 
ATOM     10  H82 UNL     1      18.945  -2.875  -4.599  1.00  0.00     0.176 HD
ATOM     11  H81 UNL     1      19.022  -1.266  -3.893  1.00  0.00     0.176 HD
ENDBRANCH   7   9
ENDBRANCH   3   5
BRANCH   4  12
HETATM   12  C4  UNL     1      12.798  -4.590  -3.435  1.00  0.00     0.076 A 
HETATM   13  C5  UNL     1      11.717  -3.966  -4.078  1.00  0.00     0.191 A 
HETATM   14  N4  UNL     1      10.466  -4.199  -3.656  1.00  0.00    -0.198 N 
HETATM   15  C7  UNL     1      10.252  -5.033  -2.614  1.00  0.00     0.349 A 
HETATM   16  O4  UNL     1       9.054  -5.239  -2.232  1.00  0.00    -0.245 OA
HETATM   17  N6  UNL     1      11.281  -5.630  -1.997  1.00  0.00    -0.273 N 
HETATM   18  C8  UNL     1      12.575  -5.439  -2.373  1.00  0.00     0.262 A 
ATOM     19  H6  UNL     1      11.086  -6.254  -1.214  1.00  0.00     0.173 HD
HETATM   20  O5  UNL     1      13.510  -6.016  -1.760  1.00  0.00    -0.267 OA
BRANCH  13  21
HETATM   21  S1  UNL     1      12.025  -2.897  -5.415  1.00  0.00     0.285 S 
HETATM   22  O1  UNL     1      12.350  -1.506  -4.916  1.00  0.00    -0.199 OA
HETATM   23  O2  UNL     1      10.881  -2.848  -6.393  1.00  0.00    -0.199 OA
BRANCH  21  24
HETATM   24  N2  UNL     1      13.389  -3.462  -6.287  1.00  0.00    -0.233 N 
HETATM   25  C6  UNL     1      13.964  -2.782  -7.383  1.00  0.00     0.342 C 
HETATM   26  N3  UNL     1      15.097  -3.317  -8.062  1.00  0.00    -0.039 NA
HETATM   27  O3  UNL     1      13.522  -1.685  -7.818  1.00  0.00    -0.250 OA
ATOM     28  H2  UNL     1      13.810  -4.345  -5.996  1.00  0.00     0.183 HD
ENDBRANCH  21  24
ENDBRANCH  13  21
BRANCH  14  29
HETATM   29  N5  UNL     1       9.413  -3.569  -4.321  1.00  0.00    -0.333 N 
ATOM     30  H52 UNL     1       9.573  -2.810  -4.983  1.00  0.00     0.177 HD
ATOM     31  H51 UNL     1       8.462  -3.882  -4.129  1.00  0.00     0.177 HD
ENDBRANCH  14  29
ENDBRANCH   4  12
TORSDOF 6
ENDMDL
MODEL 2
REMARK VINA RESULT: -7.812651958      2.047      5.441
REMARK  6 active torsions:
REMARK  status: ('A' for Active; 'I' for Inactive)
REMARK    1  A    between atoms: C2_3  and  C9_25 
REMARK    2  A    between atoms: C3_4  and  C4_5 
REMARK    3  A    between atoms: C5_6  and  S1_7 
REMARK    4  A    between atoms: S1_7  and  N2_10 
REMARK       I    between atoms: N2_10  and  C6_12 
REMARK    5  A    between atoms: N4_15  and  N5_16 
REMARK       I    between atoms: C9_25  and  N7_27 
REMARK    6  A    between atoms: N7_27  and  N8_29 
ROOT
HETATM    1  N1  UNL     1      11.776  -1.863  -4.226  1.00  0.00    -0.191 NA
HETATM    2  C1  UNL     1      12.152  -2.737  -3.531  1.00  0.00     0.105 C 
HETATM    3  C2  UNL     1      12.590  -3.834  -2.698  1.00  0.00     0.114 C 
HETATM    4  C3  UNL     1      13.829  -3.946  -2.279  1.00  0.00     0.048 C 
ENDROOT
BRANCH   3   5
HETATM    5  C9  UNL     1      11.567  -4.844  -2.321  1.00  0.00     0.280 C 
HETATM    6  O6  UNL     1      11.963  -5.927  -1.845  1.00  0.00    -0.265 OA
HETATM    7  N7  UNL     1      10.207  -4.524  -2.519  1.00  0.00    -0.272 N 
ATOM      8  H7  UNL     1       9.983  -3.611  -2.915  1.00  0.00     0.189 HD
BRANCH   7   9
HETATM    9  N8  UNL     1       9.154  -5.378  -2.207  1.00  0.00    -0.342 N 
ATOM     10  H82 UNL     1       8.999  -5.578  -1.219  1.00  0.00     0.176 HD
ATOM     11  H81 UNL     1       8.540  -5.805  -2.900  1.00  0.00     0.176 HD
ENDBRANCH   7   9
ENDBRANCH   3   5
BRANCH   4  12
HETATM   12  C4  UNL     1      14.951  -3.089  -2.512  1.00  0.00     0.076 A 
HETATM   13  C5  UNL     1      15.640  -3.238  -3.726  1.00  0.00     0.191 A 
HETATM   14  N4  UNL     1      16.713  -2.475  -3.982  1.00  0.00    -0.198 N 
HETATM   15  C7  UNL     1      17.125  -1.567  -3.070  1.00  0.00     0.349 A 
HETATM   16  O4  UNL     1      18.145  -0.853  -3.336  1.00  0.00    -0.245 OA
HETATM   17  N6  UNL     1      16.470  -1.421  -1.909  1.00  0.00    -0.273 N 
HETATM   18  C8  UNL     1      15.375  -2.162  -1.585  1.00  0.00     0.262 A 
ATOM     19  H6  UNL     1      16.806  -0.728  -1.242  1.00  0.00     0.173 HD
HETATM   20  O5  UNL     1      14.796  -1.996  -0.481  1.00  0.00    -0.267 OA
BRANCH  13  21
HETATM   21  S1  UNL     1      15.087  -4.417  -4.879  1.00  0.00     0.285 S 
HETATM   22  O1  UNL     1      14.453  -5.593  -4.171  1.00  0.00    -0.199 OA
HETATM   23  O2  UNL     1      16.183  -4.886  -5.798  1.00  0.00    -0.199 OA
BRANCH  21  24
HETATM   24  N2  UNL     1      13.884  -3.709  -5.876  1.00  0.00    -0.233 N 
HETATM   25  C6  UNL     1      14.141  -2.696  -6.826  1.00  0.00     0.342 C 
HETATM   26  N3  UNL     1      13.087  -2.153  -7.617  1.00  0.00    -0.039 NA
HETATM   27  O3  UNL     1      15.290  -2.220  -7.029  1.00  0.00    -0.250 OA
ATOM     28  H2  UNL     1      12.924  -4.040  -5.776  1.00  0.00     0.183 HD
ENDBRANCH  21  24
ENDBRANCH  13  21
BRANCH  14  29
HETATM   29  N5  UNL     1      17.371  -2.642  -5.201  1.00  0.00    -0.333 N 
ATOM     30  H52 UNL     1      17.537  -3.566  -5.599  1.00  0.00     0.177 HD
ATOM     31  H51 UNL     1      17.694  -1.811  -5.695  1.00  0.00     0.177 HD
ENDBRANCH  14  29
ENDBRANCH   4  12
TORSDOF 6
ENDMDL
MODEL 3
REMARK VINA RESULT: -7.722767324      1.674      5.160
REMARK  6 active torsions:
REMARK  status: ('A' for Active; 'I' for Inactive)
REMARK    1  A    between atoms: C2_3  and  C9_25 
REMARK    2  A    between atoms: C3_4  and  C4_5 
REMARK    3  A    between atoms: C5_6  and  S1_7 
REMARK    4  A    between atoms: S1_7  and  N2_10 
REMARK       I    between atoms: N2_10  and  C6_12 
REMARK    5  A    between atoms: N4_15  and  N5_16 
REMARK       I    between atoms: C9_25  and  N7_27 
REMARK    6  A    between atoms: N7_27  and  N8_29 
ROOT
HETATM    1  N1  UNL     1      14.600  -2.443  -1.482  1.00  0.00    -0.191 NA
HETATM    2  C1  UNL     1      14.059  -3.268  -2.126  1.00  0.00     0.105 C 
HETATM    3  C2  UNL     1      13.360  -4.269  -2.900  1.00  0.00     0.114 C 
HETATM    4  C3  UNL     1      13.666  -4.530  -4.149  1.00  0.00     0.048 C 
ENDROOT
BRANCH   3   5
HETATM    5  C9  UNL     1      12.269  -5.009  -2.214  1.00  0.00     0.280 C 
HETATM    6  O6  UNL     1      12.581  -6.000  -1.523  1.00  0.00    -0.265 OA
HETATM    7  N7  UNL     1      10.944  -4.555  -2.381  1.00  0.00    -0.272 N 
ATOM      8  H7  UNL     1      10.791  -3.734  -2.968  1.00  0.00     0.189 HD
BRANCH   7   9
HETATM    9  N8  UNL     1       9.835  -5.156  -1.795  1.00  0.00    -0.342 N 
ATOM     10  H82 UNL     1       9.606  -4.872  -0.842  1.00  0.00     0.176 HD
ATOM     11  H81 UNL     1       9.251  -5.851  -2.258  1.00  0.00     0.176 HD
ENDBRANCH   7   9
ENDBRANCH   3   5
BRANCH   4  12
HETATM   12  C4  UNL     1      14.678  -3.952  -4.980  1.00  0.00     0.076 A 
HETATM   13  C5  UNL     1      14.271  -2.999  -5.928  1.00  0.00     0.191 A 
HETATM   14  N4  UNL     1      15.177  -2.445  -6.747  1.00  0.00    -0.198 N 
HETATM   15  C7  UNL     1      16.476  -2.807  -6.656  1.00  0.00     0.349 A 
HETATM   16  O4  UNL     1      17.318  -2.265  -7.444  1.00  0.00    -0.245 OA
HETATM   17  N6  UNL     1      16.869  -3.716  -5.752  1.00  0.00    -0.273 N 
HETATM   18  C8  UNL     1      16.003  -4.318  -4.891  1.00  0.00     0.262 A 
ATOM     19  H6  UNL     1      17.856  -3.967  -5.709  1.00  0.00     0.173 HD
HETATM   20  O5  UNL     1      16.415  -5.170  -4.064  1.00  0.00    -0.267 OA
BRANCH  13  21
HETATM   21  S1  UNL     1      12.592  -2.557  -6.023  1.00  0.00     0.285 S 
HETATM   22  O1  UNL     1      12.246  -2.088  -7.419  1.00  0.00    -0.199 OA
HETATM   23  O2  UNL     1      12.210  -1.511  -5.009  1.00  0.00    -0.199 OA
BRANCH  21  24
HETATM   24  N2  UNL     1      11.626  -3.934  -5.690  1.00  0.00    -0.233 N 
HETATM   25  C6  UNL     1      10.230  -3.890  -5.483  1.00  0.00     0.342 C 
HETATM   26  N3  UNL     1       9.494  -5.078  -5.207  1.00  0.00    -0.039 NA
HETATM   27  O3  UNL     1       9.563  -2.821  -5.529  1.00  0.00    -0.250 OA
ATOM     28  H2  UNL     1      12.089  -4.842  -5.638  1.00  0.00     0.183 HD
ENDBRANCH  21  24
ENDBRANCH  13  21
BRANCH  14  29
HETATM   29  N5  UNL     1      14.742  -1.496  -7.673  1.00  0.00    -0.333 N 
ATOM     30  H52 UNL     1      14.436  -0.566  -7.386  1.00  0.00     0.177 HD
ATOM     31  H51 UNL     1      14.728  -1.752  -8.660  1.00  0.00     0.177 HD
ENDBRANCH  14  29
ENDBRANCH   4  12
TORSDOF 6
ENDMDL
MODEL 4
REMARK VINA RESULT: -7.687100088      2.246      5.258
REMARK  6 active torsions:
REMARK  status: ('A' for Active; 'I' for Inactive)
REMARK    1  A    between atoms: C2_3  and  C9_25 
REMARK    2  A    between atoms: C3_4  and  C4_5 
REMARK    3  A    between atoms: C5_6  and  S1_7 
REMARK    4  A    between atoms: S1_7  and  N2_10 
REMARK       I    between atoms: N2_10  and  C6_12 
REMARK    5  A    between atoms: N4_15  and  N5_16 
REMARK       I    between atoms: C9_25  and  N7_27 
REMARK    6  A    between atoms: N7_27  and  N8_29 
ROOT
HETATM    1  N1  UNL     1      16.178  -0.364  -7.063  1.00  0.00    -0.191 NA
HETATM    2  C1  UNL     1      15.333  -1.116  -7.395  1.00  0.00     0.105 C 
HETATM    3  C2  UNL     1      14.310  -2.034  -7.840  1.00  0.00     0.114 C 
HETATM    4  C3  UNL     1      13.952  -3.081  -7.133  1.00  0.00     0.048 C 
ENDROOT
BRANCH   3   5
HETATM    5  C9  UNL     1      13.661  -1.741  -9.144  1.00  0.00     0.280 C 
HETATM    6  O6  UNL     1      14.335  -1.903 -10.181  1.00  0.00    -0.265 OA
HETATM    7  N7  UNL     1      12.322  -1.297  -9.139  1.00  0.00    -0.272 N 
ATOM      8  H7  UNL     1      11.855  -1.195  -8.238  1.00  0.00     0.189 HD
BRANCH   7   9
HETATM    9  N8  UNL     1      11.600  -0.990 -10.288  1.00  0.00    -0.342 N 
ATOM     10  H82 UNL     1      11.969  -0.245 -10.880  1.00  0.00     0.176 HD
ATOM     11  H81 UNL     1      10.739  -1.462 -10.565  1.00  0.00     0.176 HD
ENDBRANCH   7   9
ENDBRANCH   3   5
BRANCH   4  12
HETATM   12  C4  UNL     1      14.433  -3.531  -5.862  1.00  0.00     0.076 A 
HETATM   13  C5  UNL     1      13.550  -3.460  -4.773  1.00  0.00     0.191 A 
HETATM   14  N4  UNL     1      13.960  -3.847  -3.556  1.00  0.00    -0.198 N 
HETATM   15  C7  UNL     1      15.220  -4.303  -3.384  1.00  0.00     0.349 A 
HETATM   16  O4  UNL     1      15.585  -4.666  -2.220  1.00  0.00    -0.245 OA
HETATM   17  N6  UNL     1      16.066  -4.373  -4.421  1.00  0.00    -0.273 N 
HETATM   18  C8  UNL     1      15.717  -3.997  -5.682  1.00  0.00     0.262 A 
ATOM     19  H6  UNL     1      17.010  -4.722  -4.259  1.00  0.00     0.173 HD
HETATM   20  O5  UNL     1      16.546  -4.073  -6.624  1.00  0.00    -0.267 OA
BRANCH  13  21
HETATM   21  S1  UNL     1      11.935  -2.865  -5.024  1.00  0.00     0.285 S 
HETATM   22  O1  UNL     1      11.777  -2.342  -6.435  1.00  0.00    -0.199 OA
HETATM   23  O2  UNL     1      11.545  -1.808  -4.026  1.00  0.00    -0.199 OA
BRANCH  21  24
HETATM   24  N2  UNL     1      10.822  -4.156  -4.828  1.00  0.00    -0.233 N 
HETATM   25  C6  UNL     1       9.424  -3.985  -4.718  1.00  0.00     0.342 C 
HETATM   26  N3  UNL     1       8.562  -5.107  -4.552  1.00  0.00    -0.039 NA
HETATM   27  O3  UNL     1       8.866  -2.856  -4.758  1.00  0.00    -0.250 OA
ATOM     28  H2  UNL     1      11.193  -5.105  -4.788  1.00  0.00     0.183 HD
ENDBRANCH  21  24
ENDBRANCH  13  21
BRANCH  14  29
HETATM   29  N5  UNL     1      13.055  -3.771  -2.496  1.00  0.00    -0.333 N 
ATOM     30  H52 UNL     1      12.254  -4.398  -2.427  1.00  0.00     0.177 HD
ATOM     31  H51 UNL     1      13.206  -3.061  -1.779  1.00  0.00     0.177 HD
ENDBRANCH  14  29
ENDBRANCH   4  12
TORSDOF 6
ENDMDL
MODEL 5
REMARK VINA RESULT: -7.628213891      2.133      5.375
REMARK  6 active torsions:
REMARK  status: ('A' for Active; 'I' for Inactive)
REMARK    1  A    between atoms: C2_3  and  C9_25 
REMARK    2  A    between atoms: C3_4  and  C4_5 
REMARK    3  A    between atoms: C5_6  and  S1_7 
REMARK    4  A    between atoms: S1_7  and  N2_10 
REMARK       I    between atoms: N2_10  and  C6_12 
REMARK    5  A    between atoms: N4_15  and  N5_16 
REMARK       I    between atoms: C9_25  and  N7_27 
REMARK    6  A    between atoms: N7_27  and  N8_29 
ROOT
HETATM    1  N1  UNL     1      11.863  -2.044  -4.068  1.00  0.00    -0.191 NA
HETATM    2  C1  UNL     1      12.397  -2.924  -3.494  1.00  0.00     0.105 C 
HETATM    3  C2  UNL     1      13.032  -4.029  -2.813  1.00  0.00     0.114 C 
HETATM    4  C3  UNL     1      14.287  -3.990  -2.431  1.00  0.00     0.048 C 
ENDROOT
BRANCH   3   5
HETATM    5  C9  UNL     1      12.196  -5.229  -2.550  1.00  0.00     0.280 C 
HETATM    6  O6  UNL     1      10.961  -5.072  -2.463  1.00  0.00    -0.265 OA
HETATM    7  N7  UNL     1      12.840  -6.477  -2.416  1.00  0.00    -0.272 N 
ATOM      8  H7  UNL     1      13.856  -6.503  -2.503  1.00  0.00     0.189 HD
BRANCH   7   9
HETATM    9  N8  UNL     1      12.175  -7.673  -2.170  1.00  0.00    -0.342 N 
ATOM     10  H82 UNL     1      11.207  -7.737  -2.486  1.00  0.00     0.176 HD
ATOM     11  H81 UNL     1      12.595  -8.475  -1.700  1.00  0.00     0.176 HD
ENDBRANCH   7   9
ENDBRANCH   3   5
BRANCH   4  12
HETATM   12  C4  UNL     1      15.250  -2.940  -2.570  1.00  0.00     0.076 A 
HETATM   13  C5  UNL     1      15.943  -2.854  -3.788  1.00  0.00     0.191 A 
HETATM   14  N4  UNL     1      16.873  -1.903  -3.961  1.00  0.00    -0.198 N 
HETATM   15  C7  UNL     1      17.138  -1.033  -2.961  1.00  0.00     0.349 A 
HETATM   16  O4  UNL     1      18.024  -0.138  -3.149  1.00  0.00    -0.245 OA
HETATM   17  N6  UNL     1      16.479  -1.112  -1.796  1.00  0.00    -0.273 N 
HETATM   18  C8  UNL     1      15.525  -2.051  -1.554  1.00  0.00     0.262 A 
ATOM     19  H6  UNL     1      16.703  -0.440  -1.062  1.00  0.00     0.173 HD
HETATM   20  O5  UNL     1      14.936  -2.092  -0.443  1.00  0.00    -0.267 OA
BRANCH  13  21
HETATM   21  S1  UNL     1      15.581  -3.990  -5.055  1.00  0.00     0.285 S 
HETATM   22  O1  UNL     1      15.181  -5.326  -4.470  1.00  0.00    -0.199 OA
HETATM   23  O2  UNL     1      16.723  -4.161  -6.022  1.00  0.00    -0.199 OA
BRANCH  21  24
HETATM   24  N2  UNL     1      14.251  -3.410  -5.969  1.00  0.00    -0.233 N 
HETATM   25  C6  UNL     1      14.304  -2.279  -6.813  1.00  0.00     0.342 C 
HETATM   26  N3  UNL     1      13.154  -1.855  -7.540  1.00  0.00    -0.039 NA
HETATM   27  O3  UNL     1      15.348  -1.591  -6.973  1.00  0.00    -0.250 OA
ATOM     28  H2  UNL     1      13.366  -3.913  -5.898  1.00  0.00     0.183 HD
ENDBRANCH  21  24
ENDBRANCH  13  21
BRANCH  14  29
HETATM   29  N5  UNL     1      17.538  -1.839  -5.186  1.00  0.00    -0.333 N 
ATOM     30  H52 UNL     1      17.674  -2.667  -5.767  1.00  0.00     0.177 HD
ATOM     31  H51 UNL     1      17.899  -0.938  -5.495  1.00  0.00     0.177 HD
ENDBRANCH  14  29
ENDBRANCH   4  12
TORSDOF 6
ENDMDL
