MODEL 1
REMARK VINA RESULT: -6.843486692      0.000      0.000
REMARK  11 active torsions:
REMARK  status: ('A' for Active; 'I' for Inactive)
REMARK    1  A    between atoms: C2_2  and  C4_4 
REMARK    2  A    between atoms: C2_2  and  O2_6 
REMARK    3  A    between atoms: O2_6  and  C5_7 
REMARK    4  A    between atoms: C7_12  and  O3_13 
REMARK    5  A    between atoms: O3_13  and  C8_14 
REMARK    6  A    between atoms: C9_15  and  O4_16 
REMARK    7  A    between atoms: C10_18  and  O5_19 
REMARK    8  A    between atoms: C11_21  and  O6_22 
REMARK    9  A    between atoms: C12_24  and  O7_25 
REMARK   10  A    between atoms: C13_27  and  O8_28 
REMARK   11  A    between atoms: C14_30  and  O9_31 
ROOT
HETATM    1  C8  UNL     1      11.056  -3.891  -3.331  1.00  0.00     0.184 C 
HETATM    2  C9  UNL     1       9.774  -4.527  -2.887  1.00  0.00     0.181 C 
HETATM    3  C10 UNL     1       8.559  -4.009  -3.574  1.00  0.00     0.180 C 
HETATM    4  C11 UNL     1       8.681  -3.865  -5.051  1.00  0.00     0.180 C 
HETATM    5  C12 UNL     1      10.035  -3.399  -5.510  1.00  0.00     0.180 C 
HETATM    6  C13 UNL     1      10.728  -2.788  -4.299  1.00  0.00     0.181 C 
ENDROOT
BRANCH   1   7
HETATM    7  O3  UNL     1      11.853  -4.878  -3.893  1.00  0.00    -0.371 OA
BRANCH   7   8
HETATM    8  C7  UNL     1      13.128  -4.922  -3.397  1.00  0.00     0.181 C 
HETATM    9  C6  UNL     1      13.235  -3.830  -2.324  1.00  0.00     0.270 C 
HETATM   10  N1  UNL     1      14.035  -2.785  -2.930  1.00  0.00    -0.044 N 
HETATM   11  C5  UNL     1      15.058  -3.548  -3.654  1.00  0.00     0.353 C 
ATOM     12  H12 UNL     1      14.400  -2.091  -2.278  1.00  0.00     0.280 HD
ATOM     13  H11 UNL     1      13.512  -2.121  -3.501  1.00  0.00     0.280 HD
HETATM   14  C14 UNL     1      14.199  -4.568  -4.375  1.00  0.00     0.205 C 
BRANCH  11  15
HETATM   15  O2  UNL     1      15.713  -2.783  -4.585  1.00  0.00    -0.339 OA
BRANCH  15  16
HETATM   16  C2  UNL     1      16.991  -2.427  -4.255  1.00  0.00     0.109 C 
HETATM   17  C1  UNL     1      17.947  -3.602  -4.217  1.00  0.00     0.053 C 
HETATM   18  C3  UNL     1      17.506  -1.479  -5.320  1.00  0.00     0.053 C 
BRANCH  16  19
HETATM   19  C4  UNL     1      17.093  -1.726  -2.950  1.00  0.00     0.268 C 
HETATM   20  O1  UNL     1      17.449  -0.562  -2.902  1.00  0.00    -0.304 OA
ENDBRANCH  16  19
ENDBRANCH  15  16
ENDBRANCH  11  15
BRANCH  14  21
HETATM   21  O9  UNL     1      13.710  -3.970  -5.534  1.00  0.00    -0.389 OA
ATOM     22  H9  UNL     1      12.998  -4.508  -5.861  1.00  0.00     0.210 HD
ENDBRANCH  14  21
ENDBRANCH   7   8
ENDBRANCH   1   7
BRANCH   2  23
HETATM   23  O4  UNL     1       9.600  -4.298  -1.502  1.00  0.00    -0.390 OA
ATOM     24  H4  UNL     1       9.583  -5.133  -1.050  1.00  0.00     0.210 HD
ENDBRANCH   2  23
BRANCH   6  25
HETATM   25  O8  UNL     1      11.813  -2.020  -4.652  1.00  0.00    -0.390 OA
ATOM     26  H8  UNL     1      12.557  -2.526  -4.957  1.00  0.00     0.210 HD
ENDBRANCH   6  25
BRANCH   3  27
HETATM   27  O5  UNL     1       7.513  -4.928  -3.327  1.00  0.00    -0.390 OA
ATOM     28  H5  UNL     1       6.764  -4.428  -3.023  1.00  0.00     0.210 HD
ENDBRANCH   3  27
BRANCH   5  29
HETATM   29  O7  UNL     1       9.963  -2.398  -6.477  1.00  0.00    -0.390 OA
ATOM     30  H7  UNL     1      10.514  -1.651  -6.276  1.00  0.00     0.210 HD
ENDBRANCH   5  29
BRANCH   4  31
HETATM   31  O6  UNL     1       8.262  -5.019  -5.747  1.00  0.00    -0.390 OA
ATOM     32  H6  UNL     1       8.685  -5.111  -6.593  1.00  0.00     0.210 HD
ENDBRANCH   4  31
TORSDOF 11
ENDMDL
MODEL 2
REMARK VINA RESULT: -6.495784933      1.704      7.084
REMARK  11 active torsions:
REMARK  status: ('A' for Active; 'I' for Inactive)
REMARK    1  A    between atoms: C2_2  and  C4_4 
REMARK    2  A    between atoms: C2_2  and  O2_6 
REMARK    3  A    between atoms: O2_6  and  C5_7 
REMARK    4  A    between atoms: C7_12  and  O3_13 
REMARK    5  A    between atoms: O3_13  and  C8_14 
REMARK    6  A    between atoms: C9_15  and  O4_16 
REMARK    7  A    between atoms: C10_18  and  O5_19 
REMARK    8  A    between atoms: C11_21  and  O6_22 
REMARK    9  A    between atoms: C12_24  and  O7_25 
REMARK   10  A    between atoms: C13_27  and  O8_28 
REMARK   11  A    between atoms: C14_30  and  O9_31 
ROOT
HETATM    1  C8  UNL     1      15.234  -2.924  -2.141  1.00  0.00     0.184 C 
HETATM    2  C9  UNL     1      15.575  -1.666  -1.400  1.00  0.00     0.181 C 
HETATM    3  C10 UNL     1      16.991  -1.232  -1.543  1.00  0.00     0.180 C 
HETATM    4  C11 UNL     1      17.530  -1.279  -2.930  1.00  0.00     0.180 C 
HETATM    5  C12 UNL     1      17.040  -2.450  -3.737  1.00  0.00     0.180 C 
HETATM    6  C13 UNL     1      16.495  -3.473  -2.749  1.00  0.00     0.181 C 
ENDROOT
BRANCH   1   7
HETATM    7  O3  UNL     1      14.271  -2.614  -3.092  1.00  0.00    -0.371 OA
BRANCH   7   8
HETATM    8  C7  UNL     1      12.988  -2.884  -2.701  1.00  0.00     0.181 C 
HETATM    9  C6  UNL     1      12.937  -4.365  -2.303  1.00  0.00     0.270 C 
HETATM   10  N1  UNL     1      12.220  -5.018  -3.381  1.00  0.00    -0.044 N 
HETATM   11  C5  UNL     1      11.161  -4.051  -3.689  1.00  0.00     0.353 C 
ATOM     12  H12 UNL     1      11.892  -5.961  -3.168  1.00  0.00     0.280 HD
ATOM     13  H11 UNL     1      12.797  -5.290  -4.176  1.00  0.00     0.280 HD
HETATM   14  C14 UNL     1      11.961  -2.767  -3.778  1.00  0.00     0.205 C 
BRANCH  11  15
HETATM   15  O2  UNL     1      10.576  -4.294  -4.906  1.00  0.00    -0.339 OA
BRANCH  15  16
HETATM   16  C2  UNL     1       9.238  -4.023  -4.976  1.00  0.00     0.109 C 
HETATM   17  C1  UNL     1       8.903  -2.583  -4.646  1.00  0.00     0.053 C 
HETATM   18  C3  UNL     1       8.783  -4.262  -6.402  1.00  0.00     0.053 C 
BRANCH  16  19
HETATM   19  C4  UNL     1       8.411  -4.887  -4.096  1.00  0.00     0.268 C 
HETATM   20  O1  UNL     1       7.927  -4.438  -3.072  1.00  0.00    -0.304 OA
ENDBRANCH  16  19
ENDBRANCH  15  16
ENDBRANCH  11  15
BRANCH  14  21
HETATM   21  O9  UNL     1      12.510  -2.694  -5.056  1.00  0.00    -0.389 OA
ATOM     22  H9  UNL     1      11.948  -2.140  -5.583  1.00  0.00     0.210 HD
ENDBRANCH  14  21
ENDBRANCH   7   8
ENDBRANCH   1   7
BRANCH   2  23
HETATM   23  O4  UNL     1      15.336  -1.864  -0.021  1.00  0.00    -0.390 OA
ATOM     24  H4  UNL     1      15.635  -2.732   0.224  1.00  0.00     0.210 HD
ENDBRANCH   2  23
BRANCH   6  25
HETATM   25  O8  UNL     1      16.340  -4.715  -3.317  1.00  0.00    -0.390 OA
ATOM     26  H8  UNL     1      17.041  -5.322  -3.109  1.00  0.00     0.210 HD
ENDBRANCH   6  25
BRANCH   3  27
HETATM   27  O5  UNL     1      17.064   0.112  -1.111  1.00  0.00    -0.390 OA
ATOM     28  H5  UNL     1      17.032   0.661  -1.886  1.00  0.00     0.210 HD
ENDBRANCH   3  27
BRANCH   5  29
HETATM   29  O7  UNL     1      18.058  -3.082  -4.447  1.00  0.00    -0.390 OA
ATOM     30  H7  UNL     1      18.129  -4.008  -4.245  1.00  0.00     0.210 HD
ENDBRANCH   5  29
BRANCH   4  31
HETATM   31  O6  UNL     1      17.362  -0.061  -3.622  1.00  0.00    -0.390 OA
ATOM     32  H6  UNL     1      17.646  -0.111  -4.527  1.00  0.00     0.210 HD
ENDBRANCH   4  31
TORSDOF 11
ENDMDL
MODEL 3
REMARK VINA RESULT: -6.409039347      1.863      7.045
REMARK  11 active torsions:
REMARK  status: ('A' for Active; 'I' for Inactive)
REMARK    1  A    between atoms: C2_2  and  C4_4 
REMARK    2  A    between atoms: C2_2  and  O2_6 
REMARK    3  A    between atoms: O2_6  and  C5_7 
REMARK    4  A    between atoms: C7_12  and  O3_13 
REMARK    5  A    between atoms: O3_13  and  C8_14 
REMARK    6  A    between atoms: C9_15  and  O4_16 
REMARK    7  A    between atoms: C10_18  and  O5_19 
REMARK    8  A    between atoms: C11_21  and  O6_22 
REMARK    9  A    between atoms: C12_24  and  O7_25 
REMARK   10  A    between atoms: C13_27  and  O8_28 
REMARK   11  A    between atoms: C14_30  and  O9_31 
ROOT
HETATM    1  C8  UNL     1      15.292  -3.185  -2.906  1.00  0.00     0.184 C 
HETATM    2  C9  UNL     1      15.356  -2.009  -1.978  1.00  0.00     0.181 C 
HETATM    3  C10 UNL     1      16.732  -1.503  -1.719  1.00  0.00     0.180 C 
HETATM    4  C11 UNL     1      17.594  -1.367  -2.925  1.00  0.00     0.180 C 
HETATM    5  C12 UNL     1      17.396  -2.455  -3.945  1.00  0.00     0.180 C 
HETATM    6  C13 UNL     1      16.698  -3.607  -3.233  1.00  0.00     0.181 C 
ENDROOT
BRANCH   1   7
HETATM    7  O3  UNL     1      14.571  -2.807  -4.029  1.00  0.00    -0.371 OA
BRANCH   7   8
HETATM    8  C7  UNL     1      13.646  -3.728  -4.440  1.00  0.00     0.181 C 
HETATM    9  C6  UNL     1      13.991  -4.104  -5.887  1.00  0.00     0.270 C 
HETATM   10  N1  UNL     1      12.976  -3.458  -6.694  1.00  0.00    -0.044 N 
HETATM   11  C5  UNL     1      11.761  -3.656  -5.896  1.00  0.00     0.353 C 
ATOM     12  H12 UNL     1      12.916  -3.792  -7.657  1.00  0.00     0.280 HD
ATOM     13  H11 UNL     1      13.176  -2.488  -6.938  1.00  0.00     0.280 HD
HETATM   14  C14 UNL     1      12.244  -3.222  -4.526  1.00  0.00     0.205 C 
BRANCH  11  15
HETATM   15  O2  UNL     1      10.742  -2.827  -6.289  1.00  0.00    -0.339 OA
BRANCH  15  16
HETATM   16  C2  UNL     1       9.481  -3.278  -6.013  1.00  0.00     0.109 C 
HETATM   17  C1  UNL     1       8.790  -2.488  -4.921  1.00  0.00     0.053 C 
HETATM   18  C3  UNL     1       8.640  -3.122  -7.264  1.00  0.00     0.053 C 
BRANCH  16  19
HETATM   19  C4  UNL     1       9.437  -4.711  -5.623  1.00  0.00     0.268 C 
HETATM   20  O1  UNL     1       8.779  -5.067  -4.662  1.00  0.00    -0.304 OA
ENDBRANCH  16  19
ENDBRANCH  15  16
ENDBRANCH  11  15
BRANCH  14  21
HETATM   21  O9  UNL     1      12.156  -1.834  -4.463  1.00  0.00    -0.389 OA
ATOM     22  H9  UNL     1      11.576  -1.611  -3.745  1.00  0.00     0.210 HD
ENDBRANCH  14  21
ENDBRANCH   7   8
ENDBRANCH   1   7
BRANCH   2  23
HETATM   23  O4  UNL     1      14.803  -2.375  -0.730  1.00  0.00    -0.390 OA
ATOM     24  H4  UNL     1      14.772  -3.323  -0.671  1.00  0.00     0.210 HD
ENDBRANCH   2  23
BRANCH   6  25
HETATM   25  O8  UNL     1      16.771  -4.781  -3.946  1.00  0.00    -0.390 OA
ATOM     26  H8  UNL     1      16.471  -5.541  -3.463  1.00  0.00     0.210 HD
ENDBRANCH   6  25
BRANCH   3  27
HETATM   27  O5  UNL     1      16.605  -0.216  -1.147  1.00  0.00    -0.390 OA
ATOM     28  H5  UNL     1      16.287   0.366  -1.827  1.00  0.00     0.210 HD
ENDBRANCH   3  27
BRANCH   5  29
HETATM   29  O7  UNL     1      18.597  -2.958  -4.440  1.00  0.00    -0.390 OA
ATOM     30  H7  UNL     1      18.996  -3.596  -3.860  1.00  0.00     0.210 HD
ENDBRANCH   5  29
BRANCH   4  31
HETATM   31  O6  UNL     1      17.515  -0.084  -3.509  1.00  0.00    -0.390 OA
ATOM     32  H6  UNL     1      17.902   0.591  -2.964  1.00  0.00     0.210 HD
ENDBRANCH   4  31
TORSDOF 11
ENDMDL
MODEL 4
REMARK VINA RESULT: -6.243231402      1.844      2.561
REMARK  11 active torsions:
REMARK  status: ('A' for Active; 'I' for Inactive)
REMARK    1  A    between atoms: C2_2  and  C4_4 
REMARK    2  A    between atoms: C2_2  and  O2_6 
REMARK    3  A    between atoms: O2_6  and  C5_7 
REMARK    4  A    between atoms: C7_12  and  O3_13 
REMARK    5  A    between atoms: O3_13  and  C8_14 
REMARK    6  A    between atoms: C9_15  and  O4_16 
REMARK    7  A    between atoms: C10_18  and  O5_19 
REMARK    8  A    between atoms: C11_21  and  O6_22 
REMARK    9  A    between atoms: C12_24  and  O7_25 
REMARK   10  A    between atoms: C13_27  and  O8_28 
REMARK   11  A    between atoms: C14_30  and  O9_31 
ROOT
HETATM    1  C8  UNL     1      10.664  -2.480  -5.574  1.00  0.00     0.184 C 
HETATM    2  C9  UNL     1      10.585  -2.790  -4.110  1.00  0.00     0.181 C 
HETATM    3  C10 UNL     1       9.345  -3.501  -3.696  1.00  0.00     0.180 C 
HETATM    4  C11 UNL     1       8.941  -4.633  -4.574  1.00  0.00     0.180 C 
HETATM    5  C12 UNL     1       9.191  -4.392  -6.038  1.00  0.00     0.180 C 
HETATM    6  C13 UNL     1       9.366  -2.888  -6.215  1.00  0.00     0.181 C 
ENDROOT
BRANCH   1   7
HETATM    7  O3  UNL     1      11.757  -3.156  -6.098  1.00  0.00    -0.371 OA
BRANCH   7   8
HETATM    8  C7  UNL     1      12.879  -2.386  -6.238  1.00  0.00     0.181 C 
HETATM    9  C6  UNL     1      13.613  -2.878  -7.493  1.00  0.00     0.270 C 
HETATM   10  N1  UNL     1      14.769  -3.596  -6.992  1.00  0.00    -0.044 N 
HETATM   11  C5  UNL     1      15.204  -2.756  -5.871  1.00  0.00     0.353 C 
ATOM     12  H12 UNL     1      15.489  -3.788  -7.689  1.00  0.00     0.280 HD
ATOM     13  H11 UNL     1      14.597  -4.573  -6.755  1.00  0.00     0.280 HD
HETATM   14  C14 UNL     1      13.889  -2.536  -5.150  1.00  0.00     0.205 C 
BRANCH  11  15
HETATM   15  O2  UNL     1      16.065  -3.416  -5.032  1.00  0.00    -0.339 OA
BRANCH  15  16
HETATM   16  C2  UNL     1      17.033  -2.640  -4.458  1.00  0.00     0.109 C 
HETATM   17  C1  UNL     1      18.373  -3.337  -4.354  1.00  0.00     0.053 C 
HETATM   18  C3  UNL     1      17.240  -1.420  -5.333  1.00  0.00     0.053 C 
BRANCH  16  19
HETATM   19  C4  UNL     1      16.676  -2.156  -3.099  1.00  0.00     0.268 C 
HETATM   20  O1  UNL     1      15.904  -2.792  -2.403  1.00  0.00    -0.304 OA
ENDBRANCH  16  19
ENDBRANCH  15  16
ENDBRANCH  11  15
BRANCH  14  21
HETATM   21  O9  UNL     1      13.659  -3.643  -4.336  1.00  0.00    -0.389 OA
ATOM     22  H9  UNL     1      13.424  -3.325  -3.473  1.00  0.00     0.210 HD
ENDBRANCH  14  21
ENDBRANCH   7   8
ENDBRANCH   1   7
BRANCH   2  23
HETATM   23  O4  UNL     1      10.638  -1.581  -3.379  1.00  0.00    -0.390 OA
ATOM     24  H4  UNL     1      10.738  -0.857  -3.985  1.00  0.00     0.210 HD
ENDBRANCH   2  23
BRANCH   6  25
HETATM   25  O8  UNL     1       9.253  -2.503  -7.530  1.00  0.00    -0.390 OA
ATOM     26  H8  UNL     1       8.371  -2.578  -7.877  1.00  0.00     0.210 HD
ENDBRANCH   6  25
BRANCH   3  27
HETATM   27  O5  UNL     1       9.575  -4.032  -2.406  1.00  0.00    -0.390 OA
ATOM     28  H5  UNL     1       9.080  -3.504  -1.791  1.00  0.00     0.210 HD
ENDBRANCH   3  27
BRANCH   5  29
HETATM   29  O7  UNL     1       8.116  -4.767  -6.840  1.00  0.00    -0.390 OA
ATOM     30  H7  UNL     1       8.233  -4.525  -7.751  1.00  0.00     0.210 HD
ENDBRANCH   5  29
BRANCH   4  31
HETATM   31  O6  UNL     1       9.476  -5.868  -4.150  1.00  0.00    -0.390 OA
ATOM     32  H6  UNL     1      10.397  -5.811  -3.925  1.00  0.00     0.210 HD
ENDBRANCH   4  31
TORSDOF 11
ENDMDL
MODEL 5
REMARK VINA RESULT: -6.203431281      1.802      3.260
REMARK  11 active torsions:
REMARK  status: ('A' for Active; 'I' for Inactive)
REMARK    1  A    between atoms: C2_2  and  C4_4 
REMARK    2  A    between atoms: C2_2  and  O2_6 
REMARK    3  A    between atoms: O2_6  and  C5_7 
REMARK    4  A    between atoms: C7_12  and  O3_13 
REMARK    5  A    between atoms: O3_13  and  C8_14 
REMARK    6  A    between atoms: C9_15  and  O4_16 
REMARK    7  A    between atoms: C10_18  and  O5_19 
REMARK    8  A    between atoms: C11_21  and  O6_22 
REMARK    9  A    between atoms: C12_24  and  O7_25 
REMARK   10  A    between atoms: C13_27  and  O8_28 
REMARK   11  A    between atoms: C14_30  and  O9_31 
ROOT
HETATM    1  C8  UNL     1      12.859  -3.655  -3.183  1.00  0.00     0.184 C 
HETATM    2  C9  UNL     1      11.454  -3.156  -3.339  1.00  0.00     0.181 C 
HETATM    3  C10 UNL     1      10.429  -4.229  -3.456  1.00  0.00     0.180 C 
HETATM    4  C11 UNL     1      10.567  -5.345  -2.481  1.00  0.00     0.180 C 
HETATM    5  C12 UNL     1      11.991  -5.726  -2.184  1.00  0.00     0.180 C 
HETATM    6  C13 UNL     1      12.846  -5.154  -3.309  1.00  0.00     0.181 C 
ENDROOT
BRANCH   1   7
HETATM    7  O3  UNL     1      13.333  -3.224  -1.952  1.00  0.00    -0.371 OA
BRANCH   7   8
HETATM    8  C7  UNL     1      14.691  -3.321  -1.808  1.00  0.00     0.181 C 
HETATM    9  C6  UNL     1      15.110  -2.284  -0.757  1.00  0.00     0.270 C 
HETATM   10  N1  UNL     1      15.761  -1.230  -1.509  1.00  0.00    -0.044 N 
HETATM   11  C5  UNL     1      16.534  -1.981  -2.505  1.00  0.00     0.353 C 
ATOM     12  H12 UNL     1      16.306  -0.576  -0.947  1.00  0.00     0.280 HD
ATOM     13  H11 UNL     1      15.131  -0.528  -1.896  1.00  0.00     0.280 HD
HETATM   14  C14 UNL     1      15.483  -2.946  -3.016  1.00  0.00     0.205 C 
BRANCH  11  15
HETATM   15  O2  UNL     1      16.951  -1.188  -3.543  1.00  0.00    -0.339 OA
BRANCH  15  16
HETATM   16  C2  UNL     1      18.265  -1.328  -3.895  1.00  0.00     0.109 C 
HETATM   17  C1  UNL     1      19.222  -1.033  -2.759  1.00  0.00     0.053 C 
HETATM   18  C3  UNL     1      18.494  -2.771  -4.297  1.00  0.00     0.053 C 
BRANCH  16  19
HETATM   19  C4  UNL     1      18.664  -0.477  -5.046  1.00  0.00     0.268 C 
HETATM   20  O1  UNL     1      19.657   0.225  -4.978  1.00  0.00    -0.304 OA
ENDBRANCH  16  19
ENDBRANCH  15  16
ENDBRANCH  11  15
BRANCH  14  21
HETATM   21  O9  UNL     1      14.731  -2.282  -3.983  1.00  0.00    -0.389 OA
ATOM     22  H9  UNL     1      14.181  -1.648  -3.539  1.00  0.00     0.210 HD
ENDBRANCH  14  21
ENDBRANCH   7   8
ENDBRANCH   1   7
BRANCH   2  23
HETATM   23  O4  UNL     1      11.371  -2.369  -4.511  1.00  0.00    -0.390 OA
ATOM     24  H4  UNL     1      10.468  -2.109  -4.645  1.00  0.00     0.210 HD
ENDBRANCH   2  23
BRANCH   6  25
HETATM   25  O8  UNL     1      14.100  -5.716  -3.348  1.00  0.00    -0.390 OA
ATOM     26  H8  UNL     1      14.278  -6.305  -2.623  1.00  0.00     0.210 HD
ENDBRANCH   6  25
BRANCH   3  27
HETATM   27  O5  UNL     1       9.167  -3.630  -3.232  1.00  0.00    -0.390 OA
ATOM     28  H5  UNL     1       8.553  -4.329  -3.039  1.00  0.00     0.210 HD
ENDBRANCH   3  27
BRANCH   5  29
HETATM   29  O7  UNL     1      12.196  -7.104  -2.188  1.00  0.00    -0.390 OA
ATOM     30  H7  UNL     1      11.752  -7.541  -2.905  1.00  0.00     0.210 HD
ENDBRANCH   5  29
BRANCH   4  31
HETATM   31  O6  UNL     1       9.827  -5.130  -1.298  1.00  0.00    -0.390 OA
ATOM     32  H6  UNL     1       8.909  -5.355  -1.394  1.00  0.00     0.210 HD
ENDBRANCH   4  31
TORSDOF 11
ENDMDL
