MODEL 1
REMARK VINA RESULT: -8.685434708      0.000      0.000
REMARK  9 active torsions:
REMARK  status: ('A' for Active; 'I' for Inactive)
REMARK    1  A    between atoms: C1_2  and  C2_4 
REMARK    2  A    between atoms: C2_4  and  O3_5 
REMARK    3  A    between atoms: C2_4  and  C3_7 
REMARK    4  A    between atoms: C3_7  and  O4_8 
REMARK    5  A    between atoms: C7_14  and  O6_15 
REMARK    6  A    between atoms: C7_14  and  C8_17 
REMARK    7  A    between atoms: C8_17  and  C9_19 
REMARK    8  A    between atoms: C9_19  and  C10_20 
REMARK    9  A    between atoms: C10_20  and  C11_21 
ROOT
HETATM    1  C3  UNL     1      10.792  -3.350  -4.086  1.00  0.00     0.192 C 
HETATM    2  C4  UNL     1      10.213  -3.226  -5.493  1.00  0.00     0.168 C 
HETATM    3  O5  UNL     1       9.117  -2.792  -5.769  1.00  0.00    -0.294 OA
HETATM    4  C5  UNL     1      11.199  -3.718  -6.473  1.00  0.00     0.085 C 
HETATM    5  C6  UNL     1      12.480  -3.852  -5.711  1.00  0.00     0.057 C 
HETATM    6  C7  UNL     1      12.240  -3.130  -4.418  1.00  0.00     0.163 C 
ENDROOT
BRANCH   6   7
HETATM    7  O6  UNL     1      12.266  -1.726  -4.802  1.00  0.00    -0.378 OA
ATOM      8  H6  UNL     1      11.578  -1.677  -5.456  1.00  0.00     0.211 HD
ENDBRANCH   6   7
BRANCH   6   9
HETATM    9  C8  UNL     1      13.226  -3.266  -3.394  1.00  0.00     0.187 C 
HETATM   10  O7  UNL     1      12.948  -3.069  -2.184  1.00  0.00    -0.290 OA
BRANCH   9  11
HETATM   11  C9  UNL     1      14.615  -3.638  -3.696  1.00  0.00     0.056 C 
BRANCH  11  12
HETATM   12  C10 UNL     1      15.518  -3.500  -2.752  1.00  0.00     0.040 C 
BRANCH  12  13
HETATM   13  C11 UNL     1      15.953  -2.273  -2.149  1.00  0.00     0.116 A 
HETATM   14  N1  UNL     1      15.323  -1.874  -0.994  1.00  0.00    -0.292 N 
HETATM   15  N2  UNL     1      15.628  -0.777  -0.351  1.00  0.00    -0.251 N 
ATOM     16  H1  UNL     1      14.579  -2.464  -0.620  1.00  0.00     0.187 HD
HETATM   17  C12 UNL     1      16.583   0.049  -0.769  1.00  0.00     0.341 A 
ATOM     18  H2  UNL     1      15.117  -0.547   0.501  1.00  0.00     0.191 HD
HETATM   19  O8  UNL     1      16.874   1.105  -0.147  1.00  0.00    -0.245 OA
HETATM   20  N3  UNL     1      17.237  -0.276  -1.886  1.00  0.00    -0.272 N 
HETATM   21  C13 UNL     1      16.932  -1.422  -2.576  1.00  0.00     0.277 A 
ATOM     22  H3  UNL     1      17.974   0.338  -2.232  1.00  0.00     0.173 HD
HETATM   23  O9  UNL     1      17.568  -1.689  -3.616  1.00  0.00    -0.266 OA
ENDBRANCH  12  13
ENDBRANCH  11  12
ENDBRANCH   9  11
ENDBRANCH   6   9
BRANCH   1  24
HETATM   24  C2  UNL     1      10.348  -4.651  -3.575  1.00  0.00     0.264 C 
BRANCH  24  25
HETATM   25  C1  UNL     1       8.946  -4.669  -3.022  1.00  0.00     0.206 C 
HETATM   26  O1  UNL     1       8.767  -4.243  -1.867  1.00  0.00    -0.646 OA
HETATM   27  O2  UNL     1       7.860  -5.135  -3.746  1.00  0.00    -0.646 OA
ENDBRANCH  24  25
BRANCH  24  28
HETATM   28  O3  UNL     1      11.235  -5.374  -2.824  1.00  0.00    -0.381 OA
ATOM     29  H3  UNL     1      10.847  -6.142  -2.422  1.00  0.00     0.210 HD
ENDBRANCH  24  28
ENDBRANCH   1  24
BRANCH   1  30
HETATM   30  O4  UNL     1      10.337  -2.287  -3.356  1.00  0.00    -0.376 OA
ATOM     31  H4  UNL     1      10.320  -1.469  -3.840  1.00  0.00     0.211 HD
ENDBRANCH   1  30
TORSDOF 9
ENDMDL
MODEL 2
REMARK VINA RESULT: -8.511933915      1.204      1.602
REMARK  9 active torsions:
REMARK  status: ('A' for Active; 'I' for Inactive)
REMARK    1  A    between atoms: C1_2  and  C2_4 
REMARK    2  A    between atoms: C2_4  and  O3_5 
REMARK    3  A    between atoms: C2_4  and  C3_7 
REMARK    4  A    between atoms: C3_7  and  O4_8 
REMARK    5  A    between atoms: C7_14  and  O6_15 
REMARK    6  A    between atoms: C7_14  and  C8_17 
REMARK    7  A    between atoms: C8_17  and  C9_19 
REMARK    8  A    between atoms: C9_19  and  C10_20 
REMARK    9  A    between atoms: C10_20  and  C11_21 
ROOT
HETATM    1  C3  UNL     1      11.593  -3.690  -3.715  1.00  0.00     0.192 C 
HETATM    2  C4  UNL     1      10.578  -3.071  -4.674  1.00  0.00     0.168 C 
HETATM    3  O5  UNL     1       9.661  -2.346  -4.359  1.00  0.00    -0.294 OA
HETATM    4  C5  UNL     1      10.886  -3.494  -6.053  1.00  0.00     0.085 C 
HETATM    5  C6  UNL     1      12.249  -4.109  -5.982  1.00  0.00     0.057 C 
HETATM    6  C7  UNL     1      12.780  -3.719  -4.634  1.00  0.00     0.163 C 
ENDROOT
BRANCH   6   7
HETATM    7  O6  UNL     1      13.097  -2.306  -4.787  1.00  0.00    -0.378 OA
ATOM      8  H6  UNL     1      13.351  -2.250  -5.701  1.00  0.00     0.211 HD
ENDBRANCH   6   7
BRANCH   6   9
HETATM    9  C8  UNL     1      13.992  -4.339  -4.199  1.00  0.00     0.187 C 
HETATM   10  O7  UNL     1      13.988  -5.457  -3.624  1.00  0.00    -0.290 OA
BRANCH   9  11
HETATM   11  C9  UNL     1      15.303  -3.705  -4.392  1.00  0.00     0.056 C 
BRANCH  11  12
HETATM   12  C10 UNL     1      16.087  -3.558  -3.348  1.00  0.00     0.040 C 
BRANCH  12  13
HETATM   13  C11 UNL     1      16.157  -2.418  -2.480  1.00  0.00     0.116 A 
HETATM   14  N1  UNL     1      17.190  -1.532  -2.676  1.00  0.00    -0.292 N 
HETATM   15  N2  UNL     1      17.362  -0.456  -1.952  1.00  0.00    -0.251 N 
ATOM     16  H1  UNL     1      17.856  -1.723  -3.425  1.00  0.00     0.187 HD
HETATM   17  C12 UNL     1      16.541  -0.132  -0.957  1.00  0.00     0.341 A 
ATOM     18  H2  UNL     1      18.152   0.155  -2.158  1.00  0.00     0.191 HD
HETATM   19  O8  UNL     1      16.710   0.905  -0.262  1.00  0.00    -0.245 OA
HETATM   20  N3  UNL     1      15.516  -0.948  -0.709  1.00  0.00    -0.272 N 
HETATM   21  C13 UNL     1      15.317  -2.081  -1.456  1.00  0.00     0.277 A 
ATOM     22  H3  UNL     1      14.869  -0.727   0.048  1.00  0.00     0.173 HD
HETATM   23  O9  UNL     1      14.345  -2.818  -1.192  1.00  0.00    -0.266 OA
ENDBRANCH  12  13
ENDBRANCH  11  12
ENDBRANCH   9  11
ENDBRANCH   6   9
BRANCH   1  24
HETATM   24  C2  UNL     1      10.999  -4.946  -3.247  1.00  0.00     0.264 C 
BRANCH  24  25
HETATM   25  C1  UNL     1       9.493  -4.956  -3.200  1.00  0.00     0.206 C 
HETATM   26  O1  UNL     1       8.938  -4.615  -2.140  1.00  0.00    -0.646 OA
HETATM   27  O2  UNL     1       8.711  -5.324  -4.284  1.00  0.00    -0.646 OA
ENDBRANCH  24  25
BRANCH  24  28
HETATM   28  O3  UNL     1      11.578  -5.557  -2.167  1.00  0.00    -0.381 OA
ATOM     29  H3  UNL     1      10.949  -5.981  -1.595  1.00  0.00     0.210 HD
ENDBRANCH  24  28
ENDBRANCH   1  24
BRANCH   1  30
HETATM   30  O4  UNL     1      11.825  -2.783  -2.718  1.00  0.00    -0.376 OA
ATOM     31  H4  UNL     1      11.127  -2.148  -2.608  1.00  0.00     0.211 HD
ENDBRANCH   1  30
TORSDOF 9
ENDMDL
MODEL 3
REMARK VINA RESULT: -8.363278441      1.290      1.586
REMARK  9 active torsions:
REMARK  status: ('A' for Active; 'I' for Inactive)
REMARK    1  A    between atoms: C1_2  and  C2_4 
REMARK    2  A    between atoms: C2_4  and  O3_5 
REMARK    3  A    between atoms: C2_4  and  C3_7 
REMARK    4  A    between atoms: C3_7  and  O4_8 
REMARK    5  A    between atoms: C7_14  and  O6_15 
REMARK    6  A    between atoms: C7_14  and  C8_17 
REMARK    7  A    between atoms: C8_17  and  C9_19 
REMARK    8  A    between atoms: C9_19  and  C10_20 
REMARK    9  A    between atoms: C10_20  and  C11_21 
ROOT
HETATM    1  C3  UNL     1      10.999  -3.605  -3.839  1.00  0.00     0.192 C 
HETATM    2  C4  UNL     1      10.430  -3.157  -5.184  1.00  0.00     0.168 C 
HETATM    3  O5  UNL     1       9.426  -2.500  -5.341  1.00  0.00    -0.294 OA
HETATM    4  C5  UNL     1      11.297  -3.650  -6.270  1.00  0.00     0.085 C 
HETATM    5  C6  UNL     1      12.545  -4.127  -5.594  1.00  0.00     0.057 C 
HETATM    6  C7  UNL     1      12.457  -3.591  -4.195  1.00  0.00     0.163 C 
ENDROOT
BRANCH   6   7
HETATM    7  O6  UNL     1      12.729  -2.169  -4.358  1.00  0.00    -0.378 OA
ATOM      8  H6  UNL     1      13.093  -1.931  -3.513  1.00  0.00     0.211 HD
ENDBRANCH   6   7
BRANCH   6   9
HETATM    9  C8  UNL     1      13.418  -4.060  -3.249  1.00  0.00     0.187 C 
HETATM   10  O7  UNL     1      13.882  -5.227  -3.308  1.00  0.00    -0.290 OA
BRANCH   9  11
HETATM   11  C9  UNL     1      13.912  -3.212  -2.155  1.00  0.00     0.056 C 
BRANCH  11  12
HETATM   12  C10 UNL     1      15.208  -3.141  -1.955  1.00  0.00     0.040 C 
BRANCH  12  13
HETATM   13  C11 UNL     1      15.965  -1.966  -1.629  1.00  0.00     0.116 A 
HETATM   14  N1  UNL     1      16.852  -1.500  -2.570  1.00  0.00    -0.292 N 
HETATM   15  N2  UNL     1      17.598  -0.440  -2.391  1.00  0.00    -0.251 N 
ATOM     16  H1  UNL     1      16.934  -2.007  -3.451  1.00  0.00     0.187 HD
HETATM   17  C12 UNL     1      17.555   0.278  -1.272  1.00  0.00     0.341 A 
ATOM     18  H2  UNL     1      18.233  -0.154  -3.136  1.00  0.00     0.191 HD
HETATM   19  O8  UNL     1      18.275   1.298  -1.105  1.00  0.00    -0.245 OA
HETATM   20  N3  UNL     1      16.715  -0.118  -0.315  1.00  0.00    -0.272 N 
HETATM   21  C13 UNL     1      15.924  -1.226  -0.481  1.00  0.00     0.277 A 
ATOM     22  H3  UNL     1      16.660   0.412   0.555  1.00  0.00     0.173 HD
HETATM   23  O9  UNL     1      15.152  -1.563   0.439  1.00  0.00    -0.266 OA
ENDBRANCH  12  13
ENDBRANCH  11  12
ENDBRANCH   9  11
ENDBRANCH   6   9
BRANCH   1  24
HETATM   24  C2  UNL     1      10.336  -4.873  -3.518  1.00  0.00     0.264 C 
BRANCH  24  25
HETATM   25  C1  UNL     1       8.841  -4.783  -3.354  1.00  0.00     0.206 C 
HETATM   26  O1  UNL     1       8.397  -4.306  -2.294  1.00  0.00    -0.646 OA
HETATM   27  O2  UNL     1       7.952  -5.204  -4.330  1.00  0.00    -0.646 OA
ENDBRANCH  24  25
BRANCH  24  28
HETATM   28  O3  UNL     1      10.934  -5.684  -2.591  1.00  0.00    -0.381 OA
ATOM     29  H3  UNL     1      11.876  -5.574  -2.548  1.00  0.00     0.210 HD
ENDBRANCH  24  28
ENDBRANCH   1  24
BRANCH   1  30
HETATM   30  O4  UNL     1      10.753  -2.609  -2.934  1.00  0.00    -0.376 OA
ATOM     31  H4  UNL     1      10.343  -1.840  -3.313  1.00  0.00     0.211 HD
ENDBRANCH   1  30
TORSDOF 9
ENDMDL
MODEL 4
REMARK VINA RESULT: -8.176954698      1.394      1.971
REMARK  9 active torsions:
REMARK  status: ('A' for Active; 'I' for Inactive)
REMARK    1  A    between atoms: C1_2  and  C2_4 
REMARK    2  A    between atoms: C2_4  and  O3_5 
REMARK    3  A    between atoms: C2_4  and  C3_7 
REMARK    4  A    between atoms: C3_7  and  O4_8 
REMARK    5  A    between atoms: C7_14  and  O6_15 
REMARK    6  A    between atoms: C7_14  and  C8_17 
REMARK    7  A    between atoms: C8_17  and  C9_19 
REMARK    8  A    between atoms: C9_19  and  C10_20 
REMARK    9  A    between atoms: C10_20  and  C11_21 
ROOT
HETATM    1  C3  UNL     1      10.940  -3.328  -4.024  1.00  0.00     0.192 C 
HETATM    2  C4  UNL     1      10.348  -3.175  -5.424  1.00  0.00     0.168 C 
HETATM    3  O5  UNL     1       9.275  -2.679  -5.685  1.00  0.00    -0.294 OA
HETATM    4  C5  UNL     1      11.289  -3.726  -6.416  1.00  0.00     0.085 C 
HETATM    5  C6  UNL     1      12.572  -3.931  -5.672  1.00  0.00     0.057 C 
HETATM    6  C7  UNL     1      12.393  -3.192  -4.379  1.00  0.00     0.163 C 
ENDROOT
BRANCH   6   7
HETATM    7  O6  UNL     1      12.494  -1.793  -4.769  1.00  0.00    -0.378 OA
ATOM      8  H6  UNL     1      13.010  -1.838  -5.566  1.00  0.00     0.211 HD
ENDBRANCH   6   7
BRANCH   6   9
HETATM    9  C8  UNL     1      13.385  -3.382  -3.369  1.00  0.00     0.187 C 
HETATM   10  O7  UNL     1      13.253  -2.892  -2.218  1.00  0.00    -0.290 OA
BRANCH   9  11
HETATM   11  C9  UNL     1      14.611  -4.151  -3.618  1.00  0.00     0.056 C 
BRANCH  11  12
HETATM   12  C10 UNL     1      15.679  -3.875  -2.904  1.00  0.00     0.040 C 
BRANCH  12  13
HETATM   13  C11 UNL     1      16.652  -2.855  -3.172  1.00  0.00     0.116 A 
HETATM   14  N1  UNL     1      17.543  -3.080  -4.195  1.00  0.00    -0.292 N 
HETATM   15  N2  UNL     1      18.474  -2.228  -4.536  1.00  0.00    -0.251 N 
ATOM     16  H1  UNL     1      17.473  -3.956  -4.713  1.00  0.00     0.187 HD
HETATM   17  C12 UNL     1      18.635  -1.063  -3.913  1.00  0.00     0.341 A 
ATOM     18  H2  UNL     1      19.099  -2.464  -5.307  1.00  0.00     0.191 HD
HETATM   19  O8  UNL     1      19.534  -0.246  -4.245  1.00  0.00    -0.245 OA
HETATM   20  N3  UNL     1      17.805  -0.779  -2.909  1.00  0.00    -0.272 N 
HETATM   21  C13 UNL     1      16.821  -1.659  -2.534  1.00  0.00     0.277 A 
ATOM     22  H3  UNL     1      17.903   0.106  -2.411  1.00  0.00     0.173 HD
HETATM   23  O9  UNL     1      16.064  -1.354  -1.589  1.00  0.00    -0.266 OA
ENDBRANCH  12  13
ENDBRANCH  11  12
ENDBRANCH   9  11
ENDBRANCH   6   9
BRANCH   1  24
HETATM   24  C2  UNL     1      10.430  -4.599  -3.502  1.00  0.00     0.264 C 
BRANCH  24  25
HETATM   25  C1  UNL     1       8.936  -4.652  -3.312  1.00  0.00     0.206 C 
HETATM   26  O1  UNL     1       8.459  -4.153  -2.277  1.00  0.00    -0.646 OA
HETATM   27  O2  UNL     1       8.081  -5.227  -4.240  1.00  0.00    -0.646 OA
ENDBRANCH  24  25
BRANCH  24  28
HETATM   28  O3  UNL     1      11.125  -5.192  -2.483  1.00  0.00    -0.381 OA
ATOM     29  H3  UNL     1      11.680  -4.586  -2.006  1.00  0.00     0.210 HD
ENDBRANCH  24  28
ENDBRANCH   1  24
BRANCH   1  30
HETATM   30  O4  UNL     1      10.558  -2.238  -3.293  1.00  0.00    -0.376 OA
ATOM     31  H4  UNL     1      10.956  -1.424  -3.580  1.00  0.00     0.211 HD
ENDBRANCH   1  30
TORSDOF 9
ENDMDL
MODEL 5
REMARK VINA RESULT: -8.119246870      1.444      1.862
REMARK  9 active torsions:
REMARK  status: ('A' for Active; 'I' for Inactive)
REMARK    1  A    between atoms: C1_2  and  C2_4 
REMARK    2  A    between atoms: C2_4  and  O3_5 
REMARK    3  A    between atoms: C2_4  and  C3_7 
REMARK    4  A    between atoms: C3_7  and  O4_8 
REMARK    5  A    between atoms: C7_14  and  O6_15 
REMARK    6  A    between atoms: C7_14  and  C8_17 
REMARK    7  A    between atoms: C8_17  and  C9_19 
REMARK    8  A    between atoms: C9_19  and  C10_20 
REMARK    9  A    between atoms: C10_20  and  C11_21 
ROOT
HETATM    1  C3  UNL     1      12.016  -3.298  -4.887  1.00  0.00     0.192 C 
HETATM    2  C4  UNL     1      12.322  -2.980  -6.349  1.00  0.00     0.168 C 
HETATM    3  O5  UNL     1      11.831  -2.080  -6.993  1.00  0.00    -0.294 OA
HETATM    4  C5  UNL     1      13.314  -3.943  -6.862  1.00  0.00     0.085 C 
HETATM    5  C6  UNL     1      13.843  -4.647  -5.652  1.00  0.00     0.057 C 
HETATM    6  C7  UNL     1      13.361  -3.833  -4.487  1.00  0.00     0.163 C 
ENDROOT
BRANCH   6   7
HETATM    7  O6  UNL     1      14.201  -2.644  -4.533  1.00  0.00    -0.378 OA
ATOM      8  H6  UNL     1      14.595  -2.637  -3.668  1.00  0.00     0.211 HD
ENDBRANCH   6   7
BRANCH   6   9
HETATM    9  C8  UNL     1      13.541  -4.381  -3.181  1.00  0.00     0.187 C 
HETATM   10  O7  UNL     1      13.579  -5.623  -2.989  1.00  0.00    -0.290 OA
BRANCH   9  11
HETATM   11  C9  UNL     1      13.685  -3.529  -1.993  1.00  0.00     0.056 C 
BRANCH  11  12
HETATM   12  C10 UNL     1      14.889  -3.333  -1.506  1.00  0.00     0.040 C 
BRANCH  12  13
HETATM   13  C11 UNL     1      15.525  -2.069  -1.269  1.00  0.00     0.116 A 
HETATM   14  N1  UNL     1      15.204  -1.403  -0.109  1.00  0.00    -0.292 N 
HETATM   15  N2  UNL     1      15.716  -0.246   0.220  1.00  0.00    -0.251 N 
ATOM     16  H1  UNL     1      14.531  -1.834   0.526  1.00  0.00     0.187 HD
HETATM   17  C12 UNL     1      16.598   0.386  -0.549  1.00  0.00     0.341 A 
ATOM     18  H2  UNL     1      15.429   0.187   1.098  1.00  0.00     0.191 HD
HETATM   19  O8  UNL     1      17.088   1.501  -0.228  1.00  0.00    -0.245 OA
HETATM   20  N3  UNL     1      16.956  -0.203  -1.691  1.00  0.00    -0.272 N 
HETATM   21  C13 UNL     1      16.431  -1.416  -2.057  1.00  0.00     0.277 A 
ATOM     22  H3  UNL     1      17.630   0.257  -2.303  1.00  0.00     0.173 HD
HETATM   23  O9  UNL     1      16.792  -1.933  -3.133  1.00  0.00    -0.266 OA
ENDBRANCH  12  13
ENDBRANCH  11  12
ENDBRANCH   9  11
ENDBRANCH   6   9
BRANCH   1  24
HETATM   24  C2  UNL     1      10.849  -4.185  -4.898  1.00  0.00     0.264 C 
BRANCH  24  25
HETATM   25  C1  UNL     1       9.599  -3.580  -5.481  1.00  0.00     0.206 C 
HETATM   26  O1  UNL     1       9.155  -2.539  -4.963  1.00  0.00    -0.646 OA
HETATM   27  O2  UNL     1       8.932  -4.132  -6.564  1.00  0.00    -0.646 OA
ENDBRANCH  24  25
BRANCH  24  28
HETATM   28  O3  UNL     1      10.614  -4.938  -3.779  1.00  0.00    -0.381 OA
ATOM     29  H3  UNL     1      11.022  -4.586  -2.997  1.00  0.00     0.210 HD
ENDBRANCH  24  28
ENDBRANCH   1  24
BRANCH   1  30
HETATM   30  O4  UNL     1      11.801  -2.111  -4.243  1.00  0.00    -0.376 OA
ATOM     31  H4  UNL     1      12.268  -1.377  -4.625  1.00  0.00     0.211 HD
ENDBRANCH   1  30
TORSDOF 9
ENDMDL
