MODEL 1
REMARK VINA RESULT: -7.465022442      0.000      0.000
REMARK  11 active torsions:
REMARK  status: ('A' for Active; 'I' for Inactive)
REMARK    1  A    between atoms: O1_2  and  C2_3 
REMARK    2  A    between atoms: C2_3  and  O2_7 
REMARK    3  A    between atoms: O2_7  and  C3_8 
REMARK    4  A    between atoms: C3_8  and  C4_9 
REMARK    5  A    between atoms: C4_9  and  O3_10 
REMARK    6  A    between atoms: C6_14  and  C7_15 
REMARK    7  A    between atoms: C7_15  and  O4_16 
REMARK    8  A    between atoms: C7_15  and  C8_18 
REMARK    9  A    between atoms: C8_18  and  O5_19 
REMARK   10  A    between atoms: C10_22  and  O6_23 
REMARK   11  A    between atoms: C11_25  and  O7_26 
ROOT
HETATM    1  C3  UNL     1      14.899  -2.482  -2.301  1.00  0.00     0.204 C 
HETATM    2  C5  UNL     1      15.221  -3.426  -1.152  1.00  0.00     0.148 C 
HETATM    3  S1  UNL     1      13.873  -4.635  -1.499  1.00  0.00    -0.129 SA
HETATM    4  C6  UNL     1      12.891  -3.516  -2.546  1.00  0.00     0.221 C 
HETATM    5  O9  UNL     1      13.563  -2.344  -2.425  1.00  0.00    -0.333 OA
ENDROOT
BRANCH   4   6
HETATM    6  C7  UNL     1      11.461  -3.476  -2.153  1.00  0.00     0.219 C 
BRANCH   6   7
HETATM    7  O4  UNL     1      11.171  -4.530  -1.295  1.00  0.00    -0.387 OA
ATOM      8  H4  UNL     1      10.990  -4.200  -0.422  1.00  0.00     0.210 HD
ENDBRANCH   6   7
BRANCH   6   9
HETATM    9  C8  UNL     1      10.448  -3.425  -3.230  1.00  0.00     0.193 C 
HETATM   10  C9  UNL     1      10.751  -2.467  -4.347  1.00  0.00     0.105 C 
HETATM   11  C10 UNL     1       9.548  -2.356  -5.257  1.00  0.00     0.154 C 
HETATM   12  C11 UNL     1       8.602  -3.505  -5.128  1.00  0.00     0.170 C 
HETATM   13  C12 UNL     1       8.301  -3.837  -3.703  1.00  0.00     0.205 C 
HETATM   14  O8  UNL     1       9.154  -3.211  -2.795  1.00  0.00    -0.350 OA
BRANCH   9  15
HETATM   15  O5  UNL     1      10.449  -4.713  -3.828  1.00  0.00    -0.363 OA
ATOM     16  H5  UNL     1      11.073  -4.669  -4.542  1.00  0.00     0.213 HD
ENDBRANCH   9  15
BRANCH  11  17
HETATM   17  O6  UNL     1       8.831  -1.185  -5.002  1.00  0.00    -0.393 OA
ATOM     18  H6  UNL     1       9.105  -0.483  -5.580  1.00  0.00     0.210 HD
ENDBRANCH  11  17
BRANCH  12  19
HETATM   19  O7  UNL     1       7.385  -3.100  -5.722  1.00  0.00    -0.391 OA
ATOM     20  H7  UNL     1       6.687  -3.481  -5.202  1.00  0.00     0.210 HD
ENDBRANCH  12  19
ENDBRANCH   6   9
ENDBRANCH   4   6
BRANCH   1  21
HETATM   21  O2  UNL     1      15.392  -1.200  -1.853  1.00  0.00    -0.276 OA
BRANCH  21  22
HETATM   22  C2  UNL     1      16.450  -1.133  -0.956  1.00  0.00     0.260 C 
HETATM   23  N1  UNL     1      17.636  -1.105  -1.428  1.00  0.00    -0.359 N 
ATOM     24  H12 UNL     1      18.413  -1.056  -0.769  1.00  0.00     0.160 HD
ATOM     25  H11 UNL     1      17.824  -1.130  -2.430  1.00  0.00     0.160 HD
BRANCH  22  26
HETATM   26  O1  UNL     1      16.194  -1.099   0.409  1.00  0.00    -0.322 OA
HETATM   27  C1  UNL     1      16.867  -0.106   1.173  1.00  0.00     0.213 C 
ENDBRANCH  22  26
ENDBRANCH  21  22
ENDBRANCH   1  21
BRANCH   1  28
HETATM   28  C4  UNL     1      15.656  -2.864  -3.546  1.00  0.00     0.234 C 
BRANCH  28  29
HETATM   29  O3  UNL     1      16.829  -3.549  -3.316  1.00  0.00    -0.395 OA
ATOM     30  H3  UNL     1      16.946  -4.324  -3.854  1.00  0.00     0.209 HD
ENDBRANCH  28  29
ENDBRANCH   1  28
TORSDOF 11
ENDMDL
MODEL 2
REMARK VINA RESULT: -7.420841219      2.196      3.336
REMARK  11 active torsions:
REMARK  status: ('A' for Active; 'I' for Inactive)
REMARK    1  A    between atoms: O1_2  and  C2_3 
REMARK    2  A    between atoms: C2_3  and  O2_7 
REMARK    3  A    between atoms: O2_7  and  C3_8 
REMARK    4  A    between atoms: C3_8  and  C4_9 
REMARK    5  A    between atoms: C4_9  and  O3_10 
REMARK    6  A    between atoms: C6_14  and  C7_15 
REMARK    7  A    between atoms: C7_15  and  O4_16 
REMARK    8  A    between atoms: C7_15  and  C8_18 
REMARK    9  A    between atoms: C8_18  and  O5_19 
REMARK   10  A    between atoms: C10_22  and  O6_23 
REMARK   11  A    between atoms: C11_25  and  O7_26 
ROOT
HETATM    1  C3  UNL     1      17.627  -1.636  -3.090  1.00  0.00     0.204 C 
HETATM    2  C5  UNL     1      18.449  -2.891  -3.351  1.00  0.00     0.148 C 
HETATM    3  S1  UNL     1      17.072  -3.891  -4.060  1.00  0.00    -0.129 SA
HETATM    4  C6  UNL     1      15.733  -2.852  -3.398  1.00  0.00     0.221 C 
HETATM    5  O9  UNL     1      16.408  -1.972  -2.619  1.00  0.00    -0.333 OA
ENDROOT
BRANCH   4   6
HETATM    6  C7  UNL     1      14.686  -3.644  -2.708  1.00  0.00     0.219 C 
BRANCH   6   7
HETATM    7  O4  UNL     1      14.854  -4.997  -2.976  1.00  0.00    -0.387 OA
ATOM      8  H4  UNL     1      14.395  -5.233  -3.773  1.00  0.00     0.210 HD
ENDBRANCH   6   7
BRANCH   6   9
HETATM    9  C8  UNL     1      13.272  -3.269  -2.932  1.00  0.00     0.193 C 
HETATM   10  C9  UNL     1      12.262  -4.157  -2.264  1.00  0.00     0.105 C 
HETATM   11  C10 UNL     1      10.874  -3.795  -2.746  1.00  0.00     0.154 C 
HETATM   12  C11 UNL     1      10.794  -2.427  -3.340  1.00  0.00     0.170 C 
HETATM   13  C12 UNL     1      11.901  -2.162  -4.309  1.00  0.00     0.205 C 
HETATM   14  O8  UNL     1      12.921  -3.110  -4.258  1.00  0.00    -0.350 OA
BRANCH   9  15
HETATM   15  O5  UNL     1      13.108  -1.993  -2.332  1.00  0.00    -0.363 OA
ATOM     16  H5  UNL     1      12.326  -1.621  -2.721  1.00  0.00     0.213 HD
ENDBRANCH   9  15
BRANCH  11  17
HETATM   17  O6  UNL     1      10.424  -4.703  -3.708  1.00  0.00    -0.393 OA
ATOM     18  H6  UNL     1      10.113  -5.504  -3.302  1.00  0.00     0.210 HD
ENDBRANCH  11  17
BRANCH  12  19
HETATM   19  O7  UNL     1       9.586  -2.370  -4.071  1.00  0.00    -0.391 OA
ATOM     20  H7  UNL     1       9.814  -2.120  -4.959  1.00  0.00     0.210 HD
ENDBRANCH  12  19
ENDBRANCH   6   9
ENDBRANCH   4   6
BRANCH   1  21
HETATM   21  O2  UNL     1      18.312  -0.986  -1.998  1.00  0.00    -0.276 OA
BRANCH  21  22
HETATM   22  C2  UNL     1      17.621  -0.132  -1.149  1.00  0.00     0.260 C 
HETATM   23  N1  UNL     1      16.928  -0.650  -0.210  1.00  0.00    -0.359 N 
ATOM     24  H12 UNL     1      16.420  -0.023   0.413  1.00  0.00     0.160 HD
ATOM     25  H11 UNL     1      16.871  -1.659  -0.070  1.00  0.00     0.160 HD
BRANCH  22  26
HETATM   26  O1  UNL     1      17.699   1.242  -1.341  1.00  0.00    -0.322 OA
HETATM   27  C1  UNL     1      17.562   2.069  -0.192  1.00  0.00     0.213 C 
ENDBRANCH  22  26
ENDBRANCH  21  22
ENDBRANCH   1  21
BRANCH   1  28
HETATM   28  C4  UNL     1      17.658  -0.710  -4.278  1.00  0.00     0.234 C 
BRANCH  28  29
HETATM   29  O3  UNL     1      18.667   0.227  -4.247  1.00  0.00    -0.395 OA
ATOM     30  H3  UNL     1      18.418   1.086  -4.569  1.00  0.00     0.209 HD
ENDBRANCH  28  29
ENDBRANCH   1  28
TORSDOF 11
ENDMDL
MODEL 3
REMARK VINA RESULT: -7.350822545      2.475      3.282
REMARK  11 active torsions:
REMARK  status: ('A' for Active; 'I' for Inactive)
REMARK    1  A    between atoms: O1_2  and  C2_3 
REMARK    2  A    between atoms: C2_3  and  O2_7 
REMARK    3  A    between atoms: O2_7  and  C3_8 
REMARK    4  A    between atoms: C3_8  and  C4_9 
REMARK    5  A    between atoms: C4_9  and  O3_10 
REMARK    6  A    between atoms: C6_14  and  C7_15 
REMARK    7  A    between atoms: C7_15  and  O4_16 
REMARK    8  A    between atoms: C7_15  and  C8_18 
REMARK    9  A    between atoms: C8_18  and  O5_19 
REMARK   10  A    between atoms: C10_22  and  O6_23 
REMARK   11  A    between atoms: C11_25  and  O7_26 
ROOT
HETATM    1  C3  UNL     1      17.818  -1.557  -3.235  1.00  0.00     0.204 C 
HETATM    2  C5  UNL     1      18.586  -2.851  -3.459  1.00  0.00     0.148 C 
HETATM    3  S1  UNL     1      17.217  -3.757  -4.299  1.00  0.00    -0.129 SA
HETATM    4  C6  UNL     1      15.889  -2.655  -3.720  1.00  0.00     0.221 C 
HETATM    5  O9  UNL     1      16.548  -1.831  -2.870  1.00  0.00    -0.333 OA
ENDROOT
BRANCH   4   6
HETATM    6  C7  UNL     1      14.748  -3.399  -3.134  1.00  0.00     0.219 C 
BRANCH   6   7
HETATM    7  O4  UNL     1      14.999  -4.765  -3.165  1.00  0.00    -0.387 OA
ATOM      8  H4  UNL     1      15.606  -4.971  -3.866  1.00  0.00     0.210 HD
ENDBRANCH   6   7
BRANCH   6   9
HETATM    9  C8  UNL     1      13.397  -3.134  -3.676  1.00  0.00     0.193 C 
HETATM   10  C9  UNL     1      13.197  -3.523  -5.113  1.00  0.00     0.105 C 
HETATM   11  C10 UNL     1      11.859  -3.006  -5.595  1.00  0.00     0.154 C 
HETATM   12  C11 UNL     1      10.913  -2.692  -4.483  1.00  0.00     0.170 C 
HETATM   13  C12 UNL     1      11.557  -1.894  -3.396  1.00  0.00     0.205 C 
HETATM   14  O8  UNL     1      12.946  -1.841  -3.495  1.00  0.00    -0.350 OA
BRANCH   9  15
HETATM   15  O5  UNL     1      12.511  -3.961  -2.935  1.00  0.00    -0.363 OA
ATOM     16  H5  UNL     1      12.011  -4.449  -3.579  1.00  0.00     0.213 HD
ENDBRANCH   9  15
BRANCH  11  17
HETATM   17  O6  UNL     1      12.015  -1.848  -6.361  1.00  0.00    -0.393 OA
ATOM     18  H6  UNL     1      12.817  -1.393  -6.134  1.00  0.00     0.210 HD
ENDBRANCH  11  17
BRANCH  12  19
HETATM   19  O7  UNL     1       9.890  -1.887  -5.033  1.00  0.00    -0.391 OA
ATOM     20  H7  UNL     1       9.916  -1.057  -4.572  1.00  0.00     0.210 HD
ENDBRANCH  12  19
ENDBRANCH   6   9
ENDBRANCH   4   6
BRANCH   1  21
HETATM   21  O2  UNL     1      18.448  -0.968  -2.076  1.00  0.00    -0.276 OA
BRANCH  21  22
HETATM   22  C2  UNL     1      17.721  -0.144  -1.228  1.00  0.00     0.260 C 
HETATM   23  N1  UNL     1      16.994  -0.695  -0.334  1.00  0.00    -0.359 N 
ATOM     24  H12 UNL     1      16.459  -0.090   0.288  1.00  0.00     0.160 HD
ATOM     25  H11 UNL     1      16.935  -1.708  -0.230  1.00  0.00     0.160 HD
BRANCH  22  26
HETATM   26  O1  UNL     1      17.801   1.236  -1.371  1.00  0.00    -0.322 OA
HETATM   27  C1  UNL     1      17.576   2.025  -0.210  1.00  0.00     0.213 C 
ENDBRANCH  22  26
ENDBRANCH  21  22
ENDBRANCH   1  21
BRANCH   1  28
HETATM   28  C4  UNL     1      17.996  -0.611  -4.394  1.00  0.00     0.234 C 
BRANCH  28  29
HETATM   29  O3  UNL     1      19.009   0.308  -4.233  1.00  0.00    -0.395 OA
ATOM     30  H3  UNL     1      18.751   1.107  -3.788  1.00  0.00     0.209 HD
ENDBRANCH  28  29
ENDBRANCH   1  28
TORSDOF 11
ENDMDL
MODEL 4
REMARK VINA RESULT: -7.334569207      2.410      3.882
REMARK  11 active torsions:
REMARK  status: ('A' for Active; 'I' for Inactive)
REMARK    1  A    between atoms: O1_2  and  C2_3 
REMARK    2  A    between atoms: C2_3  and  O2_7 
REMARK    3  A    between atoms: O2_7  and  C3_8 
REMARK    4  A    between atoms: C3_8  and  C4_9 
REMARK    5  A    between atoms: C4_9  and  O3_10 
REMARK    6  A    between atoms: C6_14  and  C7_15 
REMARK    7  A    between atoms: C7_15  and  O4_16 
REMARK    8  A    between atoms: C7_15  and  C8_18 
REMARK    9  A    between atoms: C8_18  and  O5_19 
REMARK   10  A    between atoms: C10_22  and  O6_23 
REMARK   11  A    between atoms: C11_25  and  O7_26 
ROOT
HETATM    1  C3  UNL     1      17.016  -2.610  -3.446  1.00  0.00     0.204 C 
HETATM    2  C5  UNL     1      17.731  -3.519  -4.434  1.00  0.00     0.148 C 
HETATM    3  S1  UNL     1      17.056  -2.732  -5.959  1.00  0.00    -0.129 SA
HETATM    4  C6  UNL     1      15.673  -1.888  -5.130  1.00  0.00     0.221 C 
HETATM    5  O9  UNL     1      15.756  -2.370  -3.866  1.00  0.00    -0.333 OA
ENDROOT
BRANCH   4   6
HETATM    6  C7  UNL     1      14.376  -2.111  -5.815  1.00  0.00     0.219 C 
BRANCH   6   7
HETATM    7  O4  UNL     1      14.049  -1.007  -6.592  1.00  0.00    -0.387 OA
ATOM      8  H4  UNL     1      13.412  -0.466  -6.140  1.00  0.00     0.210 HD
ENDBRANCH   6   7
BRANCH   6   9
HETATM    9  C8  UNL     1      13.212  -2.495  -4.987  1.00  0.00     0.193 C 
HETATM   10  C9  UNL     1      11.969  -2.843  -5.755  1.00  0.00     0.105 C 
HETATM   11  C10 UNL     1      10.811  -3.003  -4.794  1.00  0.00     0.154 C 
HETATM   12  C11 UNL     1      11.242  -3.251  -3.386  1.00  0.00     0.170 C 
HETATM   13  C12 UNL     1      12.316  -2.310  -2.946  1.00  0.00     0.205 C 
HETATM   14  O8  UNL     1      12.887  -1.591  -3.995  1.00  0.00    -0.350 OA
BRANCH   9  15
HETATM   15  O5  UNL     1      13.588  -3.689  -4.316  1.00  0.00    -0.363 OA
ATOM     16  H5  UNL     1      12.875  -3.888  -3.720  1.00  0.00     0.213 HD
ENDBRANCH   9  15
BRANCH  11  17
HETATM   17  O6  UNL     1       9.996  -1.869  -4.797  1.00  0.00    -0.393 OA
ATOM     18  H6  UNL     1       9.336  -1.920  -4.115  1.00  0.00     0.210 HD
ENDBRANCH  11  17
BRANCH  12  19
HETATM   19  O7  UNL     1      10.118  -3.003  -2.566  1.00  0.00    -0.391 OA
ATOM     20  H7  UNL     1      10.444  -2.878  -1.683  1.00  0.00     0.210 HD
ENDBRANCH  12  19
ENDBRANCH   6   9
ENDBRANCH   4   6
BRANCH   1  21
HETATM   21  O2  UNL     1      16.893  -3.413  -2.252  1.00  0.00    -0.276 OA
BRANCH  21  22
HETATM   22  C2  UNL     1      15.652  -3.589  -1.653  1.00  0.00     0.260 C 
HETATM   23  N1  UNL     1      15.223  -2.668  -0.880  1.00  0.00    -0.359 N 
ATOM     24  H12 UNL     1      14.313  -2.798  -0.440  1.00  0.00     0.160 HD
ATOM     25  H11 UNL     1      15.759  -1.820  -0.693  1.00  0.00     0.160 HD
BRANCH  22  26
HETATM   26  O1  UNL     1      14.923  -4.744  -1.906  1.00  0.00    -0.322 OA
HETATM   27  C1  UNL     1      13.862  -5.054  -1.011  1.00  0.00     0.213 C 
ENDBRANCH  22  26
ENDBRANCH  21  22
ENDBRANCH   1  21
BRANCH   1  28
HETATM   28  C4  UNL     1      17.856  -1.404  -3.112  1.00  0.00     0.234 C 
BRANCH  28  29
HETATM   29  O3  UNL     1      17.591  -0.844  -1.881  1.00  0.00    -0.395 OA
ATOM     30  H3  UNL     1      17.922  -1.342  -1.142  1.00  0.00     0.209 HD
ENDBRANCH  28  29
ENDBRANCH   1  28
TORSDOF 11
ENDMDL
MODEL 5
REMARK VINA RESULT: -7.289406125      1.870      2.534
REMARK  11 active torsions:
REMARK  status: ('A' for Active; 'I' for Inactive)
REMARK    1  A    between atoms: O1_2  and  C2_3 
REMARK    2  A    between atoms: C2_3  and  O2_7 
REMARK    3  A    between atoms: O2_7  and  C3_8 
REMARK    4  A    between atoms: C3_8  and  C4_9 
REMARK    5  A    between atoms: C4_9  and  O3_10 
REMARK    6  A    between atoms: C6_14  and  C7_15 
REMARK    7  A    between atoms: C7_15  and  O4_16 
REMARK    8  A    between atoms: C7_15  and  C8_18 
REMARK    9  A    between atoms: C8_18  and  O5_19 
REMARK   10  A    between atoms: C10_22  and  O6_23 
REMARK   11  A    between atoms: C11_25  and  O7_26 
ROOT
HETATM    1  C3  UNL     1      16.816  -1.930  -2.615  1.00  0.00     0.204 C 
HETATM    2  C5  UNL     1      17.131  -3.418  -2.561  1.00  0.00     0.148 C 
HETATM    3  S1  UNL     1      15.524  -3.991  -3.260  1.00  0.00    -0.129 SA
HETATM    4  C6  UNL     1      14.627  -2.438  -2.949  1.00  0.00     0.221 C 
HETATM    5  O9  UNL     1      15.535  -1.715  -2.249  1.00  0.00    -0.333 OA
ENDROOT
BRANCH   4   6
HETATM    6  C7  UNL     1      13.326  -2.658  -2.272  1.00  0.00     0.219 C 
BRANCH   6   7
HETATM    7  O4  UNL     1      13.350  -3.853  -1.563  1.00  0.00    -0.387 OA
ATOM      8  H4  UNL     1      12.644  -4.418  -1.850  1.00  0.00     0.210 HD
ENDBRANCH   6   7
BRANCH   6   9
HETATM    9  C8  UNL     1      12.098  -2.598  -3.095  1.00  0.00     0.193 C 
HETATM   10  C9  UNL     1      10.852  -3.096  -2.420  1.00  0.00     0.105 C 
HETATM   11  C10 UNL     1       9.729  -3.180  -3.432  1.00  0.00     0.154 C 
HETATM   12  C11 UNL     1       9.966  -2.344  -4.646  1.00  0.00     0.170 C 
HETATM   13  C12 UNL     1      11.343  -2.520  -5.198  1.00  0.00     0.205 C 
HETATM   14  O8  UNL     1      12.205  -3.194  -4.336  1.00  0.00    -0.350 OA
BRANCH   9  15
HETATM   15  O5  UNL     1      11.865  -1.219  -3.346  1.00  0.00    -0.363 OA
ATOM     16  H5  UNL     1      11.648  -1.156  -4.269  1.00  0.00     0.213 HD
ENDBRANCH   9  15
BRANCH  11  17
HETATM   17  O6  UNL     1       9.531  -4.497  -3.854  1.00  0.00    -0.393 OA
ATOM     18  H6  UNL     1       8.682  -4.599  -4.268  1.00  0.00     0.210 HD
ENDBRANCH  11  17
BRANCH  12  19
HETATM   19  O7  UNL     1       9.065  -2.798  -5.636  1.00  0.00    -0.391 OA
ATOM     20  H7  UNL     1       8.335  -3.198  -5.179  1.00  0.00     0.210 HD
ENDBRANCH  12  19
ENDBRANCH   6   9
ENDBRANCH   4   6
BRANCH   1  21
HETATM   21  O2  UNL     1      17.632  -1.358  -1.569  1.00  0.00    -0.276 OA
BRANCH  21  22
HETATM   22  C2  UNL     1      17.179  -0.259  -0.852  1.00  0.00     0.260 C 
HETATM   23  N1  UNL     1      16.402  -0.468   0.140  1.00  0.00    -0.359 N 
ATOM     24  H12 UNL     1      16.069   0.340   0.666  1.00  0.00     0.160 HD
ATOM     25  H11 UNL     1      16.111  -1.406   0.414  1.00  0.00     0.160 HD
BRANCH  22  26
HETATM   26  O1  UNL     1      17.575   1.020  -1.226  1.00  0.00    -0.322 OA
HETATM   27  C1  UNL     1      17.538   2.031  -0.228  1.00  0.00     0.213 C 
ENDBRANCH  22  26
ENDBRANCH  21  22
ENDBRANCH   1  21
BRANCH   1  28
HETATM   28  C4  UNL     1      17.251  -1.329  -3.927  1.00  0.00     0.234 C 
BRANCH  28  29
HETATM   29  O3  UNL     1      18.393  -0.562  -3.854  1.00  0.00    -0.395 OA
ATOM     30  H3  UNL     1      19.185  -1.004  -4.140  1.00  0.00     0.209 HD
ENDBRANCH  28  29
ENDBRANCH   1  28
TORSDOF 11
ENDMDL
