MODEL 1
REMARK VINA RESULT: -9.016882657      0.000      0.000
REMARK  7 active torsions:
REMARK  status: ('A' for Active; 'I' for Inactive)
REMARK       I    between atoms: C1_4  and  N3_6 
REMARK       I    between atoms: N3_6  and  C2_8 
REMARK    1  A    between atoms: C2_8  and  C3_10 
REMARK    2  A    between atoms: C3_10  and  O2_11 
REMARK    3  A    between atoms: O2_11  and  C4_12 
REMARK    4  A    between atoms: C4_12  and  C5_14 
REMARK    5  A    between atoms: C5_14  and  N4_15 
REMARK    6  A    between atoms: C5_14  and  C12_28 
REMARK    7  A    between atoms: N4_15  and  C6_17 
ROOT
HETATM    1  C5  UNL     1      11.466  -3.258   6.326  1.00  0.00     0.282 C 
ENDROOT
BRANCH   1   2
HETATM    2  C4  UNL     1      11.753  -3.364   7.797  1.00  0.00     0.292 C 
HETATM    3  O3  UNL     1      10.866  -3.336   8.676  1.00  0.00    -0.262 OA
BRANCH   2   4
HETATM    4  O2  UNL     1      13.060  -3.501   8.201  1.00  0.00    -0.310 OA
BRANCH   4   5
HETATM    5  C3  UNL     1      14.063  -4.090   7.409  1.00  0.00     0.281 C 
BRANCH   5   6
HETATM    6  C2  UNL     1      14.387  -5.474   7.751  1.00  0.00     0.248 C 
HETATM    7  N3  UNL     1      15.510  -6.176   7.288  1.00  0.00    -0.300 N 
HETATM    8  C1  UNL     1      15.806  -7.518   7.629  1.00  0.00     0.188 C 
ATOM      9  H3  UNL     1      16.155  -5.688   6.666  1.00  0.00     0.171 HD
HETATM   10  N1  UNL     1      16.851  -8.110   7.173  1.00  0.00    -0.373 N 
HETATM   11  N2  UNL     1      14.921  -8.239   8.507  1.00  0.00    -0.064 NA
ATOM     12  H12 UNL     1      17.065  -9.077   7.419  1.00  0.00     0.158 HD
ATOM     13  H11 UNL     1      17.478  -7.600   6.551  1.00  0.00     0.158 HD
HETATM   14  O1  UNL     1      13.605  -6.121   8.528  1.00  0.00    -0.271 OA
ENDBRANCH   5   6
ENDBRANCH   4   5
ENDBRANCH   2   4
ENDBRANCH   1   2
BRANCH   1  15
HETATM   15  N4  UNL     1      10.443  -2.306   6.175  1.00  0.00    -0.350 N 
ATOM     16  H4  UNL     1       9.510  -2.514   6.531  1.00  0.00     0.158 HD
BRANCH  15  17
HETATM   17  C6  UNL     1      10.679  -1.082   5.546  1.00  0.00     0.520 C 
HETATM   18  N5  UNL     1      12.012  -0.846   5.030  1.00  0.00    -0.024 N 
HETATM   19  C7  UNL     1      12.269   0.596   5.194  1.00  0.00     0.275 C 
ATOM     20  H52 UNL     1      12.724  -1.436   5.461  1.00  0.00     0.281 HD
ATOM     21  H51 UNL     1      12.140  -1.174   4.073  1.00  0.00     0.281 HD
HETATM   22  C8  UNL     1      10.870   1.100   5.306  1.00  0.00     0.277 C 
HETATM   23  C9  UNL     1      10.701   2.444   5.897  1.00  0.00     0.205 C 
HETATM   24  N6  UNL     1      10.317   0.117   6.261  1.00  0.00     0.148 N 
HETATM   25  O4  UNL     1       9.332   2.740   5.903  1.00  0.00    -0.387 OA
HETATM   26  C10 UNL     1       8.550   1.654   5.566  1.00  0.00     0.198 C 
HETATM   27  C11 UNL     1       8.896   0.381   6.280  1.00  0.00     0.304 C 
ENDBRANCH  15  17
ENDBRANCH   1  15
BRANCH   1  28
HETATM   28  C12 UNL     1      11.180  -4.622   5.877  1.00  0.00     0.206 C 
HETATM   29  O5  UNL     1      10.373  -5.333   6.499  1.00  0.00    -0.646 OA
HETATM   30  O6  UNL     1      11.803  -5.129   4.760  1.00  0.00    -0.646 OA
ENDBRANCH   1  28
TORSDOF 7
ENDMDL
MODEL 2
REMARK VINA RESULT: -8.716929956      0.859      1.643
REMARK  7 active torsions:
REMARK  status: ('A' for Active; 'I' for Inactive)
REMARK       I    between atoms: C1_4  and  N3_6 
REMARK       I    between atoms: N3_6  and  C2_8 
REMARK    1  A    between atoms: C2_8  and  C3_10 
REMARK    2  A    between atoms: C3_10  and  O2_11 
REMARK    3  A    between atoms: O2_11  and  C4_12 
REMARK    4  A    between atoms: C4_12  and  C5_14 
REMARK    5  A    between atoms: C5_14  and  N4_15 
REMARK    6  A    between atoms: C5_14  and  C12_28 
REMARK    7  A    between atoms: N4_15  and  C6_17 
ROOT
HETATM    1  C5  UNL     1      11.640  -3.197   5.827  1.00  0.00     0.282 C 
ENDROOT
BRANCH   1   2
HETATM    2  C4  UNL     1      11.683  -3.298   7.325  1.00  0.00     0.292 C 
HETATM    3  O3  UNL     1      10.662  -3.286   8.046  1.00  0.00    -0.262 OA
BRANCH   2   4
HETATM    4  O2  UNL     1      12.907  -3.410   7.940  1.00  0.00    -0.310 OA
BRANCH   4   5
HETATM    5  C3  UNL     1      14.040  -3.973   7.324  1.00  0.00     0.281 C 
BRANCH   5   6
HETATM    6  C2  UNL     1      14.326  -5.357   7.702  1.00  0.00     0.248 C 
HETATM    7  N3  UNL     1      15.448  -6.089   7.287  1.00  0.00    -0.300 N 
HETATM    8  C1  UNL     1      15.707  -7.430   7.664  1.00  0.00     0.188 C 
ATOM      9  H3  UNL     1      16.120  -5.627   6.674  1.00  0.00     0.171 HD
HETATM   10  N1  UNL     1      16.753  -8.051   7.250  1.00  0.00    -0.373 N 
HETATM   11  N2  UNL     1      14.783  -8.114   8.530  1.00  0.00    -0.064 NA
ATOM     12  H12 UNL     1      16.940  -9.016   7.522  1.00  0.00     0.158 HD
ATOM     13  H11 UNL     1      17.407  -7.566   6.636  1.00  0.00     0.158 HD
HETATM   14  O1  UNL     1      13.510  -5.971   8.470  1.00  0.00    -0.271 OA
ENDBRANCH   5   6
ENDBRANCH   4   5
ENDBRANCH   2   4
ENDBRANCH   1   2
BRANCH   1  15
HETATM   15  N4  UNL     1      10.579  -2.334   5.503  1.00  0.00    -0.350 N 
ATOM     16  H4  UNL     1       9.871  -2.641   4.837  1.00  0.00     0.158 HD
BRANCH  15  17
HETATM   17  C6  UNL     1      10.477  -1.064   6.075  1.00  0.00     0.520 C 
HETATM   18  N5  UNL     1       9.257  -0.755   6.792  1.00  0.00    -0.024 N 
HETATM   19  C7  UNL     1       9.003   0.681   6.574  1.00  0.00     0.275 C 
ATOM     20  H52 UNL     1       8.471  -1.350   6.530  1.00  0.00     0.281 HD
ATOM     21  H51 UNL     1       9.289  -1.015   7.777  1.00  0.00     0.281 HD
HETATM   22  C8  UNL     1      10.371   1.134   6.191  1.00  0.00     0.277 C 
HETATM   23  C9  UNL     1      10.461   2.431   5.487  1.00  0.00     0.205 C 
HETATM   24  N6  UNL     1      10.734   0.074   5.227  1.00  0.00     0.148 N 
HETATM   25  O4  UNL     1      11.814   2.684   5.228  1.00  0.00    -0.387 OA
HETATM   26  C10 UNL     1      12.622   1.599   5.503  1.00  0.00     0.198 C 
HETATM   27  C11 UNL     1      12.135   0.292   4.949  1.00  0.00     0.304 C 
ENDBRANCH  15  17
ENDBRANCH   1  15
BRANCH   1  28
HETATM   28  C12 UNL     1      11.553  -4.574   5.337  1.00  0.00     0.206 C 
HETATM   29  O5  UNL     1      10.791  -5.389   5.885  1.00  0.00    -0.646 OA
HETATM   30  O6  UNL     1      12.315  -4.978   4.266  1.00  0.00    -0.646 OA
ENDBRANCH   1  28
TORSDOF 7
ENDMDL
MODEL 3
REMARK VINA RESULT: -8.675342637      0.914      1.159
REMARK  7 active torsions:
REMARK  status: ('A' for Active; 'I' for Inactive)
REMARK       I    between atoms: C1_4  and  N3_6 
REMARK       I    between atoms: N3_6  and  C2_8 
REMARK    1  A    between atoms: C2_8  and  C3_10 
REMARK    2  A    between atoms: C3_10  and  O2_11 
REMARK    3  A    between atoms: O2_11  and  C4_12 
REMARK    4  A    between atoms: C4_12  and  C5_14 
REMARK    5  A    between atoms: C5_14  and  N4_15 
REMARK    6  A    between atoms: C5_14  and  C12_28 
REMARK    7  A    between atoms: N4_15  and  C6_17 
ROOT
HETATM    1  C5  UNL     1      10.366  -3.468   6.715  1.00  0.00     0.282 C 
ENDROOT
BRANCH   1   2
HETATM    2  C4  UNL     1      11.334  -3.441   7.863  1.00  0.00     0.292 C 
HETATM    3  O3  UNL     1      10.983  -3.468   9.062  1.00  0.00    -0.262 OA
BRANCH   2   4
HETATM    4  O2  UNL     1      12.679  -3.386   7.585  1.00  0.00    -0.310 OA
BRANCH   4   5
HETATM    5  C3  UNL     1      13.328  -4.263   6.695  1.00  0.00     0.281 C 
BRANCH   5   6
HETATM    6  C2  UNL     1      13.826  -5.499   7.299  1.00  0.00     0.248 C 
HETATM    7  N3  UNL     1      15.024  -6.139   6.950  1.00  0.00    -0.300 N 
HETATM    8  C1  UNL     1      15.488  -7.337   7.547  1.00  0.00     0.188 C 
ATOM      9  H3  UNL     1      15.598  -5.715   6.221  1.00  0.00     0.171 HD
HETATM   10  N1  UNL     1      16.596  -7.879   7.185  1.00  0.00    -0.373 N 
HETATM   11  N2  UNL     1      14.708  -7.964   8.581  1.00  0.00    -0.064 NA
ATOM     12  H12 UNL     1      16.930  -8.741   7.614  1.00  0.00     0.158 HD
ATOM     13  H11 UNL     1      17.148  -7.435   6.452  1.00  0.00     0.158 HD
HETATM   14  O1  UNL     1      13.137  -6.062   8.216  1.00  0.00    -0.271 OA
ENDBRANCH   5   6
ENDBRANCH   4   5
ENDBRANCH   2   4
ENDBRANCH   1   2
BRANCH   1  15
HETATM   15  N4  UNL     1       9.728  -2.215   6.686  1.00  0.00    -0.350 N 
ATOM     16  H4  UNL     1       8.901  -2.062   7.263  1.00  0.00     0.158 HD
BRANCH  15  17
HETATM   17  C6  UNL     1      10.205  -1.178   5.884  1.00  0.00     0.520 C 
HETATM   18  N5  UNL     1      11.486  -1.374   5.234  1.00  0.00    -0.024 N 
HETATM   19  C7  UNL     1      12.131  -0.050   5.184  1.00  0.00     0.275 C 
ATOM     20  H52 UNL     1      12.061  -2.088   5.681  1.00  0.00     0.281 HD
ATOM     21  H51 UNL     1      11.412  -1.824   4.322  1.00  0.00     0.281 HD
HETATM   22  C8  UNL     1      10.936   0.830   5.341  1.00  0.00     0.277 C 
HETATM   23  C9  UNL     1      11.196   2.223   5.761  1.00  0.00     0.205 C 
HETATM   24  N6  UNL     1      10.257   0.144   6.461  1.00  0.00     0.148 N 
HETATM   25  O4  UNL     1       9.964   2.884   5.839  1.00  0.00    -0.387 OA
HETATM   26  C10 UNL     1       8.890   2.026   5.713  1.00  0.00     0.198 C 
HETATM   27  C11 UNL     1       8.967   0.789   6.559  1.00  0.00     0.304 C 
ENDBRANCH  15  17
ENDBRANCH   1  15
BRANCH   1  28
HETATM   28  C12 UNL     1       9.519  -4.643   6.935  1.00  0.00     0.206 C 
HETATM   29  O5  UNL     1      10.012  -5.783   6.925  1.00  0.00    -0.646 OA
HETATM   30  O6  UNL     1       8.170  -4.493   7.154  1.00  0.00    -0.646 OA
ENDBRANCH   1  28
TORSDOF 7
ENDMDL
MODEL 4
REMARK VINA RESULT: -8.641404806      0.959      1.537
REMARK  7 active torsions:
REMARK  status: ('A' for Active; 'I' for Inactive)
REMARK       I    between atoms: C1_4  and  N3_6 
REMARK       I    between atoms: N3_6  and  C2_8 
REMARK    1  A    between atoms: C2_8  and  C3_10 
REMARK    2  A    between atoms: C3_10  and  O2_11 
REMARK    3  A    between atoms: O2_11  and  C4_12 
REMARK    4  A    between atoms: C4_12  and  C5_14 
REMARK    5  A    between atoms: C5_14  and  N4_15 
REMARK    6  A    between atoms: C5_14  and  C12_28 
REMARK    7  A    between atoms: N4_15  and  C6_17 
ROOT
HETATM    1  C5  UNL     1       9.906  -3.557   6.152  1.00  0.00     0.282 C 
ENDROOT
BRANCH   1   2
HETATM    2  C4  UNL     1      11.322  -4.035   5.999  1.00  0.00     0.292 C 
HETATM    3  O3  UNL     1      11.772  -4.529   4.943  1.00  0.00    -0.262 OA
BRANCH   2   4
HETATM    4  O2  UNL     1      12.171  -3.925   7.074  1.00  0.00    -0.310 OA
BRANCH   4   5
HETATM    5  C3  UNL     1      13.557  -4.157   6.999  1.00  0.00     0.281 C 
BRANCH   5   6
HETATM    6  C2  UNL     1      13.990  -5.471   7.473  1.00  0.00     0.248 C 
HETATM    7  N3  UNL     1      15.176  -6.115   7.089  1.00  0.00    -0.300 N 
HETATM    8  C1  UNL     1      15.577  -7.390   7.559  1.00  0.00     0.188 C 
ATOM      9  H3  UNL     1      15.788  -5.634   6.430  1.00  0.00     0.171 HD
HETATM   10  N1  UNL     1      16.676  -7.930   7.170  1.00  0.00    -0.373 N 
HETATM   11  N2  UNL     1      14.741  -8.097   8.493  1.00  0.00    -0.064 NA
ATOM     12  H12 UNL     1      16.965  -8.848   7.509  1.00  0.00     0.158 HD
ATOM     13  H11 UNL     1      17.268  -7.429   6.509  1.00  0.00     0.158 HD
HETATM   14  O1  UNL     1      13.252  -6.106   8.301  1.00  0.00    -0.271 OA
ENDBRANCH   5   6
ENDBRANCH   4   5
ENDBRANCH   2   4
ENDBRANCH   1   2
BRANCH   1  15
HETATM   15  N4  UNL     1       9.967  -2.248   6.660  1.00  0.00    -0.350 N 
ATOM     16  H4  UNL     1       9.758  -2.083   7.644  1.00  0.00     0.158 HD
BRANCH  15  17
HETATM   17  C6  UNL     1      10.310  -1.169   5.843  1.00  0.00     0.520 C 
HETATM   18  N5  UNL     1      11.612  -1.202   5.209  1.00  0.00    -0.024 N 
HETATM   19  C7  UNL     1      12.074   0.196   5.141  1.00  0.00     0.275 C 
ATOM     20  H52 UNL     1      12.273  -1.824   5.674  1.00  0.00     0.281 HD
ATOM     21  H51 UNL     1      11.610  -1.673   4.305  1.00  0.00     0.281 HD
HETATM   22  C8  UNL     1      10.771   0.909   5.271  1.00  0.00     0.277 C 
HETATM   23  C9  UNL     1      10.836   2.332   5.668  1.00  0.00     0.205 C 
HETATM   24  N6  UNL     1      10.177   0.157   6.397  1.00  0.00     0.148 N 
HETATM   25  O4  UNL     1       9.526   2.822   5.723  1.00  0.00    -0.387 OA
HETATM   26  C10 UNL     1       8.578   1.825   5.603  1.00  0.00     0.198 C 
HETATM   27  C11 UNL     1       8.811   0.625   6.472  1.00  0.00     0.304 C 
ENDBRANCH  15  17
ENDBRANCH   1  15
BRANCH   1  28
HETATM   28  C12 UNL     1       9.233  -4.562   6.978  1.00  0.00     0.206 C 
HETATM   29  O5  UNL     1       9.634  -5.738   6.987  1.00  0.00    -0.646 OA
HETATM   30  O6  UNL     1       8.150  -4.212   7.749  1.00  0.00    -0.646 OA
ENDBRANCH   1  28
TORSDOF 7
ENDMDL
MODEL 5
REMARK VINA RESULT: -8.565530071      1.008      1.618
REMARK  7 active torsions:
REMARK  status: ('A' for Active; 'I' for Inactive)
REMARK       I    between atoms: C1_4  and  N3_6 
REMARK       I    between atoms: N3_6  and  C2_8 
REMARK    1  A    between atoms: C2_8  and  C3_10 
REMARK    2  A    between atoms: C3_10  and  O2_11 
REMARK    3  A    between atoms: O2_11  and  C4_12 
REMARK    4  A    between atoms: C4_12  and  C5_14 
REMARK    5  A    between atoms: C5_14  and  N4_15 
REMARK    6  A    between atoms: C5_14  and  C12_28 
REMARK    7  A    between atoms: N4_15  and  C6_17 
ROOT
HETATM    1  C5  UNL     1      10.992  -2.947   5.593  1.00  0.00     0.282 C 
ENDROOT
BRANCH   1   2
HETATM    2  C4  UNL     1      11.926  -4.117   5.481  1.00  0.00     0.292 C 
HETATM    3  O3  UNL     1      11.595  -5.220   4.994  1.00  0.00    -0.262 OA
BRANCH   2   4
HETATM    4  O2  UNL     1      13.215  -3.973   5.936  1.00  0.00    -0.310 OA
BRANCH   4   5
HETATM    5  C3  UNL     1      13.587  -4.123   7.285  1.00  0.00     0.281 C 
BRANCH   5   6
HETATM    6  C2  UNL     1      14.010  -5.471   7.664  1.00  0.00     0.248 C 
HETATM    7  N3  UNL     1      15.207  -6.082   7.261  1.00  0.00    -0.300 N 
HETATM    8  C1  UNL     1      15.598  -7.391   7.638  1.00  0.00     0.188 C 
ATOM      9  H3  UNL     1      15.835  -5.551   6.658  1.00  0.00     0.171 HD
HETATM   10  N1  UNL     1      16.707  -7.899   7.236  1.00  0.00    -0.373 N 
HETATM   11  N2  UNL     1      14.739  -8.170   8.490  1.00  0.00    -0.064 NA
ATOM     12  H12 UNL     1      16.990  -8.841   7.508  1.00  0.00     0.158 HD
ATOM     13  H11 UNL     1      17.316  -7.346   6.632  1.00  0.00     0.158 HD
HETATM   14  O1  UNL     1      13.251  -6.170   8.418  1.00  0.00    -0.271 OA
ENDBRANCH   5   6
ENDBRANCH   4   5
ENDBRANCH   2   4
ENDBRANCH   1   2
BRANCH   1  15
HETATM   15  N4  UNL     1      11.786  -1.806   5.801  1.00  0.00    -0.350 N 
ATOM     16  H4  UNL     1      12.615  -1.874   6.391  1.00  0.00     0.158 HD
BRANCH  15  17
HETATM   17  C6  UNL     1      11.462  -0.581   5.216  1.00  0.00     0.520 C 
HETATM   18  N5  UNL     1      12.502   0.093   4.464  1.00  0.00    -0.024 N 
HETATM   19  C7  UNL     1      12.286   1.537   4.664  1.00  0.00     0.275 C 
ATOM     20  H52 UNL     1      13.443  -0.214   4.710  1.00  0.00     0.281 HD
ATOM     21  H51 UNL     1      12.533  -0.181   3.482  1.00  0.00     0.281 HD
HETATM   22  C8  UNL     1      10.854   1.533   5.079  1.00  0.00     0.277 C 
HETATM   23  C9  UNL     1      10.367   2.744   5.774  1.00  0.00     0.205 C 
HETATM   24  N6  UNL     1      10.872   0.429   6.061  1.00  0.00     0.148 N 
HETATM   25  O4  UNL     1       9.011   2.554   6.066  1.00  0.00    -0.387 OA
HETATM   26  C10 UNL     1       8.588   1.262   5.822  1.00  0.00     0.198 C 
HETATM   27  C11 UNL     1       9.481   0.191   6.374  1.00  0.00     0.304 C 
ENDBRANCH  15  17
ENDBRANCH   1  15
BRANCH   1  28
HETATM   28  C12 UNL     1      10.039  -3.298   6.649  1.00  0.00     0.206 C 
HETATM   29  O5  UNL     1       8.944  -3.812   6.362  1.00  0.00    -0.646 OA
HETATM   30  O6  UNL     1      10.347  -3.060   7.967  1.00  0.00    -0.646 OA
ENDBRANCH   1  28
TORSDOF 7
ENDMDL
