MODEL 1
REMARK VINA RESULT: -5.866950475      0.000      0.000
REMARK  5 active torsions:
REMARK  status: ('A' for Active; 'I' for Inactive)
REMARK    1  A    between atoms: O1_1  and  C1_3 
REMARK    2  A    between atoms: C1_3  and  C2_4 
REMARK    3  A    between atoms: C1_3  and  C8_11 
REMARK    4  A    between atoms: C2_4  and  N1_5 
REMARK    5  A    between atoms: C8_11  and  N2_12 
ROOT
HETATM    1  C1  UNL     1      -3.853   2.875  14.684  1.00  0.00     0.184 C 
ENDROOT
BRANCH   1   2
HETATM    2  O1  UNL     1      -2.772   3.642  15.191  1.00  0.00    -0.389 OA
ATOM      3  H1  UNL     1      -3.038   3.900  16.066  1.00  0.00     0.210 HD
ENDBRANCH   1   2
BRANCH   1   4
HETATM    4  C2  UNL     1      -3.937   3.228  13.226  1.00  0.00     0.309 C 
BRANCH   4   5
HETATM    5  N1  UNL     1      -3.400   2.199  12.339  1.00  0.00     0.091 N 
HETATM    6  C3  UNL     1      -3.789   0.927  12.875  1.00  0.00     0.272 C 
HETATM    7  C4  UNL     1      -4.194  -0.151  11.971  1.00  0.00     0.030 C 
HETATM    8  C5  UNL     1      -4.872   0.240  10.698  1.00  0.00     0.003 C 
HETATM    9  C6  UNL     1      -5.264   1.701  10.802  1.00  0.00     0.030 C 
HETATM   10  C7  UNL     1      -3.939   2.438  11.017  1.00  0.00     0.272 C 
ENDBRANCH   4   5
ENDBRANCH   1   4
BRANCH   1  11
HETATM   11  C8  UNL     1      -5.155   3.345  15.297  1.00  0.00     0.091 C 
BRANCH  11  12
HETATM   12  N2  UNL     1      -5.567   2.743  16.489  1.00  0.00    -0.391 N 
HETATM   13  C9  UNL     1      -5.031   1.488  16.862  1.00  0.00     0.122 C 
HETATM   14  C10 UNL     1      -6.179   0.583  17.269  1.00  0.00     0.021 C 
HETATM   15  C11 UNL     1      -7.426   1.338  16.868  1.00  0.00     0.021 C 
HETATM   16  C12 UNL     1      -6.949   2.777  16.798  1.00  0.00     0.122 C 
ENDBRANCH  11  12
ENDBRANCH   1  11
TORSDOF 5
ENDMDL
MODEL 2
REMARK VINA RESULT: -5.816272371      1.077      4.879
REMARK  5 active torsions:
REMARK  status: ('A' for Active; 'I' for Inactive)
REMARK    1  A    between atoms: O1_1  and  C1_3 
REMARK    2  A    between atoms: C1_3  and  C2_4 
REMARK    3  A    between atoms: C1_3  and  C8_11 
REMARK    4  A    between atoms: C2_4  and  N1_5 
REMARK    5  A    between atoms: C8_11  and  N2_12 
ROOT
HETATM    1  C1  UNL     1      -4.021   4.152  14.033  1.00  0.00     0.184 C 
ENDROOT
BRANCH   1   2
HETATM    2  O1  UNL     1      -3.703   5.410  14.605  1.00  0.00    -0.389 OA
ATOM      3  H1  UNL     1      -4.482   5.942  14.489  1.00  0.00     0.210 HD
ENDBRANCH   1   2
BRANCH   1   4
HETATM    4  C2  UNL     1      -3.963   3.174  15.171  1.00  0.00     0.309 C 
BRANCH   4   5
HETATM    5  N1  UNL     1      -5.023   2.170  15.141  1.00  0.00     0.091 N 
HETATM    6  C3  UNL     1      -4.791   1.270  16.232  1.00  0.00     0.272 C 
HETATM    7  C4  UNL     1      -5.923   0.755  17.005  1.00  0.00     0.030 C 
HETATM    8  C5  UNL     1      -7.112   1.647  17.155  1.00  0.00     0.003 C 
HETATM    9  C6  UNL     1      -6.716   3.041  16.709  1.00  0.00     0.030 C 
HETATM   10  C7  UNL     1      -6.288   2.868  15.250  1.00  0.00     0.272 C 
ENDBRANCH   4   5
ENDBRANCH   1   4
BRANCH   1  11
HETATM   11  C8  UNL     1      -2.932   3.729  13.070  1.00  0.00     0.091 C 
BRANCH  11  12
HETATM   12  N2  UNL     1      -3.306   2.971  11.956  1.00  0.00    -0.391 N 
HETATM   13  C9  UNL     1      -4.594   3.139  11.396  1.00  0.00     0.122 C 
HETATM   14  C10 UNL     1      -5.201   1.765  11.184  1.00  0.00     0.021 C 
HETATM   15  C11 UNL     1      -4.262   0.814  11.891  1.00  0.00     0.021 C 
HETATM   16  C12 UNL     1      -2.963   1.597  11.952  1.00  0.00     0.122 C 
ENDBRANCH  11  12
ENDBRANCH   1  11
TORSDOF 5
ENDMDL
MODEL 3
REMARK VINA RESULT: -5.807322510      0.909      1.452
REMARK  5 active torsions:
REMARK  status: ('A' for Active; 'I' for Inactive)
REMARK    1  A    between atoms: O1_1  and  C1_3 
REMARK    2  A    between atoms: C1_3  and  C2_4 
REMARK    3  A    between atoms: C1_3  and  C8_11 
REMARK    4  A    between atoms: C2_4  and  N1_5 
REMARK    5  A    between atoms: C8_11  and  N2_12 
ROOT
HETATM    1  C1  UNL     1      -4.219   3.442  14.193  1.00  0.00     0.184 C 
ENDROOT
BRANCH   1   2
HETATM    2  O1  UNL     1      -3.643   4.739  14.203  1.00  0.00    -0.389 OA
ATOM      3  H1  UNL     1      -3.553   4.966  15.121  1.00  0.00     0.210 HD
ENDBRANCH   1   2
BRANCH   1   4
HETATM    4  C2  UNL     1      -4.520   3.155  12.750  1.00  0.00     0.309 C 
BRANCH   4   5
HETATM    5  N1  UNL     1      -4.862   1.760  12.486  1.00  0.00     0.091 N 
HETATM    6  C3  UNL     1      -5.263   1.671  11.113  1.00  0.00     0.272 C 
HETATM    7  C4  UNL     1      -4.866   0.511  10.312  1.00  0.00     0.030 C 
HETATM    8  C5  UNL     1      -3.557  -0.131  10.639  1.00  0.00     0.003 C 
HETATM    9  C6  UNL     1      -2.789   0.802  11.555  1.00  0.00     0.030 C 
HETATM   10  C7  UNL     1      -3.691   0.960  12.781  1.00  0.00     0.272 C 
ENDBRANCH   4   5
ENDBRANCH   1   4
BRANCH   1  11
HETATM   11  C8  UNL     1      -5.559   3.464  14.897  1.00  0.00     0.091 C 
BRANCH  11  12
HETATM   12  N2  UNL     1      -5.641   2.867  16.159  1.00  0.00    -0.391 N 
HETATM   13  C9  UNL     1      -4.940   1.665  16.411  1.00  0.00     0.122 C 
HETATM   14  C10 UNL     1      -5.891   0.691  17.080  1.00  0.00     0.021 C 
HETATM   15  C11 UNL     1      -7.251   1.342  16.967  1.00  0.00     0.021 C 
HETATM   16  C12 UNL     1      -6.915   2.809  16.776  1.00  0.00     0.122 C 
ENDBRANCH  11  12
ENDBRANCH   1  11
TORSDOF 5
ENDMDL
MODEL 4
REMARK VINA RESULT: -5.788162542      1.254      1.810
REMARK  5 active torsions:
REMARK  status: ('A' for Active; 'I' for Inactive)
REMARK    1  A    between atoms: O1_1  and  C1_3 
REMARK    2  A    between atoms: C1_3  and  C2_4 
REMARK    3  A    between atoms: C1_3  and  C8_11 
REMARK    4  A    between atoms: C2_4  and  N1_5 
REMARK    5  A    between atoms: C8_11  and  N2_12 
ROOT
HETATM    1  C1  UNL     1      -3.991   3.477  13.854  1.00  0.00     0.184 C 
ENDROOT
BRANCH   1   2
HETATM    2  O1  UNL     1      -4.488   4.804  13.792  1.00  0.00    -0.389 OA
ATOM      3  H1  UNL     1      -3.763   5.328  13.473  1.00  0.00     0.210 HD
ENDBRANCH   1   2
BRANCH   1   4
HETATM    4  C2  UNL     1      -4.904   2.672  12.974  1.00  0.00     0.309 C 
BRANCH   4   5
HETATM    5  N1  UNL     1      -4.365   2.417  11.640  1.00  0.00     0.091 N 
HETATM    6  C3  UNL     1      -2.959   2.179  11.787  1.00  0.00     0.272 C 
HETATM    7  C4  UNL     1      -2.307   1.148  10.977  1.00  0.00     0.030 C 
HETATM    8  C5  UNL     1      -3.123  -0.048  10.604  1.00  0.00     0.003 C 
HETATM    9  C6  UNL     1      -4.382  -0.041  11.448  1.00  0.00     0.030 C 
HETATM   10  C7  UNL     1      -5.073   1.278  11.094  1.00  0.00     0.272 C 
ENDBRANCH   4   5
ENDBRANCH   1   4
BRANCH   1  11
HETATM   11  C8  UNL     1      -4.168   2.920  15.250  1.00  0.00     0.091 C 
BRANCH  11  12
HETATM   12  N2  UNL     1      -5.337   2.201  15.521  1.00  0.00    -0.391 N 
HETATM   13  C9  UNL     1      -6.435   2.853  16.128  1.00  0.00     0.122 C 
HETATM   14  C10 UNL     1      -6.925   1.990  17.274  1.00  0.00     0.021 C 
HETATM   15  C11 UNL     1      -5.872   0.916  17.427  1.00  0.00     0.021 C 
HETATM   16  C12 UNL     1      -5.197   0.902  16.067  1.00  0.00     0.122 C 
ENDBRANCH  11  12
ENDBRANCH   1  11
TORSDOF 5
ENDMDL
MODEL 5
REMARK VINA RESULT: -5.679265605      1.065      1.304
REMARK  5 active torsions:
REMARK  status: ('A' for Active; 'I' for Inactive)
REMARK    1  A    between atoms: O1_1  and  C1_3 
REMARK    2  A    between atoms: C1_3  and  C2_4 
REMARK    3  A    between atoms: C1_3  and  C8_11 
REMARK    4  A    between atoms: C2_4  and  N1_5 
REMARK    5  A    between atoms: C8_11  and  N2_12 
ROOT
HETATM    1  C1  UNL     1      -4.093   2.735  13.654  1.00  0.00     0.184 C 
ENDROOT
BRANCH   1   2
HETATM    2  O1  UNL     1      -3.136   3.538  14.325  1.00  0.00    -0.389 OA
ATOM      3  H1  UNL     1      -3.643   4.190  14.795  1.00  0.00     0.210 HD
ENDBRANCH   1   2
BRANCH   1   4
HETATM    4  C2  UNL     1      -4.324   3.415  12.335  1.00  0.00     0.309 C 
BRANCH   4   5
HETATM    5  N1  UNL     1      -3.863   2.642  11.184  1.00  0.00     0.091 N 
HETATM    6  C3  UNL     1      -2.570   2.117  11.512  1.00  0.00     0.272 C 
HETATM    7  C4  UNL     1      -2.208   0.761  11.096  1.00  0.00     0.030 C 
HETATM    8  C5  UNL     1      -3.306  -0.249  11.021  1.00  0.00     0.003 C 
HETATM    9  C6  UNL     1      -4.524   0.326  11.716  1.00  0.00     0.030 C 
HETATM   10  C7  UNL     1      -4.842   1.604  10.936  1.00  0.00     0.272 C 
ENDBRANCH   4   5
ENDBRANCH   1   4
BRANCH   1  11
HETATM   11  C8  UNL     1      -5.419   2.788  14.383  1.00  0.00     0.091 C 
BRANCH  11  12
HETATM   12  N2  UNL     1      -5.429   2.457  15.741  1.00  0.00    -0.391 N 
HETATM   13  C9  UNL     1      -4.941   1.196  16.157  1.00  0.00     0.122 C 
HETATM   14  C10 UNL     1      -5.953   0.586  17.108  1.00  0.00     0.021 C 
HETATM   15  C11 UNL     1      -7.165   1.485  17.011  1.00  0.00     0.021 C 
HETATM   16  C12 UNL     1      -6.585   2.787  16.489  1.00  0.00     0.122 C 
ENDBRANCH  11  12
ENDBRANCH   1  11
TORSDOF 5
ENDMDL
