MODEL 1
REMARK VINA RESULT: -5.652329701      0.000      0.000
REMARK  5 active torsions:
REMARK  status: ('A' for Active; 'I' for Inactive)
REMARK    1  A    between atoms: O1_1  and  C1_3 
REMARK    2  A    between atoms: C1_3  and  C2_4 
REMARK    3  A    between atoms: C2_4  and  C3_5 
REMARK    4  A    between atoms: C3_5  and  N1_6 
REMARK    5  A    between atoms: C6_9  and  N2_10 
ROOT
HETATM    1  N1  UNL     1      -3.914   3.187  12.211  1.00  0.00    -0.412 N 
HETATM    2  C4  UNL     1      -3.127   3.671  13.281  1.00  0.00     0.119 C 
HETATM    3  C5  UNL     1      -3.869   3.433  14.577  1.00  0.00     0.055 C 
HETATM    4  C6  UNL     1      -4.119   1.948  14.797  1.00  0.00     0.226 C 
HETATM    5  C11 UNL     1      -4.244   1.216  13.507  1.00  0.00     0.055 C 
HETATM    6  C12 UNL     1      -4.841   2.153  12.483  1.00  0.00     0.119 C 
ENDROOT
BRANCH   1   7
HETATM    7  C3  UNL     1      -3.357   3.257  10.915  1.00  0.00     0.119 C 
BRANCH   7   8
HETATM    8  C2  UNL     1      -1.874   3.045  10.835  1.00  0.00     0.045 C 
BRANCH   8   9
HETATM    9  C1  UNL     1      -1.628   1.538  10.731  1.00  0.00     0.165 C 
BRANCH   9  10
HETATM   10  O1  UNL     1      -2.643   0.921   9.999  1.00  0.00    -0.401 OA
ATOM     11  H1  UNL     1      -2.594  -0.024  10.086  1.00  0.00     0.209 HD
ENDBRANCH   9  10
ENDBRANCH   8   9
ENDBRANCH   7   8
ENDBRANCH   1   7
BRANCH   4  12
HETATM   12  N2  UNL     1      -5.391   1.882  15.506  1.00  0.00     0.093 N 
HETATM   13  C7  UNL     1      -5.338   1.193  16.752  1.00  0.00     0.273 C 
HETATM   14  C8  UNL     1      -6.390   1.856  17.653  1.00  0.00     0.032 C 
HETATM   15  C9  UNL     1      -6.982   2.942  16.788  1.00  0.00     0.032 C 
HETATM   16  C10 UNL     1      -5.846   3.243  15.837  1.00  0.00     0.273 C 
ENDBRANCH   4  12
TORSDOF 5
ENDMDL
MODEL 2
REMARK VINA RESULT: -5.600789329      2.389      2.977
REMARK  5 active torsions:
REMARK  status: ('A' for Active; 'I' for Inactive)
REMARK    1  A    between atoms: O1_1  and  C1_3 
REMARK    2  A    between atoms: C1_3  and  C2_4 
REMARK    3  A    between atoms: C2_4  and  C3_5 
REMARK    4  A    between atoms: C3_5  and  N1_6 
REMARK    5  A    between atoms: C6_9  and  N2_10 
ROOT
HETATM    1  N1  UNL     1      -3.605   0.950  11.448  1.00  0.00    -0.412 N 
HETATM    2  C4  UNL     1      -2.679   2.001  11.639  1.00  0.00     0.119 C 
HETATM    3  C5  UNL     1      -3.356   3.110  12.413  1.00  0.00     0.055 C 
HETATM    4  C6  UNL     1      -3.815   2.620  13.779  1.00  0.00     0.226 C 
HETATM    5  C11 UNL     1      -4.142   1.168  13.758  1.00  0.00     0.055 C 
HETATM    6  C12 UNL     1      -4.658   0.815  12.382  1.00  0.00     0.119 C 
ENDROOT
BRANCH   1   7
HETATM    7  C3  UNL     1      -3.137  -0.215  10.800  1.00  0.00     0.119 C 
BRANCH   7   8
HETATM    8  C2  UNL     1      -3.728  -1.506  11.282  1.00  0.00     0.045 C 
BRANCH   8   9
HETATM    9  C1  UNL     1      -2.580  -2.502  11.459  1.00  0.00     0.165 C 
BRANCH   9  10
HETATM   10  O1  UNL     1      -3.034  -3.812  11.312  1.00  0.00    -0.401 OA
ATOM     11  H1  UNL     1      -2.932  -4.297  12.122  1.00  0.00     0.209 HD
ENDBRANCH   9  10
ENDBRANCH   8   9
ENDBRANCH   7   8
ENDBRANCH   1   7
BRANCH   4  12
HETATM   12  N2  UNL     1      -5.029   3.376  14.060  1.00  0.00     0.093 N 
HETATM   13  C7  UNL     1      -5.768   2.908  15.185  1.00  0.00     0.273 C 
HETATM   14  C8  UNL     1      -6.450   4.143  15.792  1.00  0.00     0.032 C 
HETATM   15  C9  UNL     1      -6.004   5.281  14.907  1.00  0.00     0.032 C 
HETATM   16  C10 UNL     1      -4.682   4.770  14.380  1.00  0.00     0.273 C 
ENDBRANCH   4  12
TORSDOF 5
ENDMDL
MODEL 3
REMARK VINA RESULT: -5.577811355      2.193      5.727
REMARK  5 active torsions:
REMARK  status: ('A' for Active; 'I' for Inactive)
REMARK    1  A    between atoms: O1_1  and  C1_3 
REMARK    2  A    between atoms: C1_3  and  C2_4 
REMARK    3  A    between atoms: C2_4  and  C3_5 
REMARK    4  A    between atoms: C3_5  and  N1_6 
REMARK    5  A    between atoms: C6_9  and  N2_10 
ROOT
HETATM    1  N1  UNL     1      -4.661   2.627  15.662  1.00  0.00    -0.412 N 
HETATM    2  C4  UNL     1      -5.292   3.597  14.850  1.00  0.00     0.119 C 
HETATM    3  C5  UNL     1      -4.468   3.788  13.594  1.00  0.00     0.055 C 
HETATM    4  C6  UNL     1      -4.369   2.491  12.805  1.00  0.00     0.226 C 
HETATM    5  C11 UNL     1      -4.442   1.301  13.696  1.00  0.00     0.055 C 
HETATM    6  C12 UNL     1      -3.836   1.666  15.031  1.00  0.00     0.119 C 
ENDROOT
BRANCH   1   7
HETATM    7  C3  UNL     1      -5.320   2.257  16.856  1.00  0.00     0.119 C 
BRANCH   7   8
HETATM    8  C2  UNL     1      -6.793   2.537  16.896  1.00  0.00     0.045 C 
BRANCH   8   9
HETATM    9  C1  UNL     1      -7.518   1.190  16.900  1.00  0.00     0.165 C 
BRANCH   9  10
HETATM   10  O1  UNL     1      -6.634   0.151  16.610  1.00  0.00    -0.401 OA
ATOM     11  H1  UNL     1      -6.033   0.008  17.331  1.00  0.00     0.209 HD
ENDBRANCH   9  10
ENDBRANCH   8   9
ENDBRANCH   7   8
ENDBRANCH   1   7
BRANCH   4  12
HETATM   12  N2  UNL     1      -3.055   2.534  12.177  1.00  0.00     0.093 N 
HETATM   13  C7  UNL     1      -2.648   1.308  11.576  1.00  0.00     0.273 C 
HETATM   14  C8  UNL     1      -1.760   1.691  10.382  1.00  0.00     0.032 C 
HETATM   15  C9  UNL     1      -1.747   3.200  10.403  1.00  0.00     0.032 C 
HETATM   16  C10 UNL     1      -3.061   3.517  11.080  1.00  0.00     0.273 C 
ENDBRANCH   4  12
TORSDOF 5
ENDMDL
MODEL 4
REMARK VINA RESULT: -5.498169149      2.330      5.743
REMARK  5 active torsions:
REMARK  status: ('A' for Active; 'I' for Inactive)
REMARK    1  A    between atoms: O1_1  and  C1_3 
REMARK    2  A    between atoms: C1_3  and  C2_4 
REMARK    3  A    between atoms: C2_4  and  C3_5 
REMARK    4  A    between atoms: C3_5  and  N1_6 
REMARK    5  A    between atoms: C6_9  and  N2_10 
ROOT
HETATM    1  N1  UNL     1      -5.225   3.254  15.205  1.00  0.00    -0.412 N 
HETATM    2  C4  UNL     1      -4.955   4.577  14.785  1.00  0.00     0.119 C 
HETATM    3  C5  UNL     1      -3.718   4.566  13.912  1.00  0.00     0.055 C 
HETATM    4  C6  UNL     1      -3.930   3.703  12.677  1.00  0.00     0.226 C 
HETATM    5  C11 UNL     1      -4.891   2.597  12.940  1.00  0.00     0.055 C 
HETATM    6  C12 UNL     1      -4.767   2.192  14.391  1.00  0.00     0.119 C 
ENDROOT
BRANCH   1   7
HETATM    7  C3  UNL     1      -6.389   3.047  15.978  1.00  0.00     0.119 C 
BRANCH   7   8
HETATM    8  C2  UNL     1      -6.196   2.263  17.242  1.00  0.00     0.045 C 
BRANCH   8   9
HETATM    9  C1  UNL     1      -6.939   0.936  17.081  1.00  0.00     0.165 C 
BRANCH   9  10
HETATM   10  O1  UNL     1      -6.043  -0.133  17.064  1.00  0.00    -0.401 OA
ATOM     11  H1  UNL     1      -6.380  -0.863  17.570  1.00  0.00     0.209 HD
ENDBRANCH   9  10
ENDBRANCH   8   9
ENDBRANCH   7   8
ENDBRANCH   1   7
BRANCH   4  12
HETATM   12  N2  UNL     1      -2.620   3.135  12.388  1.00  0.00     0.093 N 
HETATM   13  C7  UNL     1      -2.625   2.122  11.385  1.00  0.00     0.273 C 
HETATM   14  C8  UNL     1      -1.266   2.215  10.676  1.00  0.00     0.032 C 
HETATM   15  C9  UNL     1      -0.564   3.354  11.376  1.00  0.00     0.032 C 
HETATM   16  C10 UNL     1      -1.727   4.184  11.870  1.00  0.00     0.273 C 
ENDBRANCH   4  12
TORSDOF 5
ENDMDL
MODEL 5
REMARK VINA RESULT: -5.456917423      1.773      2.105
REMARK  5 active torsions:
REMARK  status: ('A' for Active; 'I' for Inactive)
REMARK    1  A    between atoms: O1_1  and  C1_3 
REMARK    2  A    between atoms: C1_3  and  C2_4 
REMARK    3  A    between atoms: C2_4  and  C3_5 
REMARK    4  A    between atoms: C3_5  and  N1_6 
REMARK    5  A    between atoms: C6_9  and  N2_10 
ROOT
HETATM    1  N1  UNL     1      -4.232   4.181  12.709  1.00  0.00    -0.412 N 
HETATM    2  C4  UNL     1      -4.938   5.103  13.516  1.00  0.00     0.119 C 
HETATM    3  C5  UNL     1      -5.783   4.333  14.507  1.00  0.00     0.055 C 
HETATM    4  C6  UNL     1      -4.913   3.472  15.411  1.00  0.00     0.226 C 
HETATM    5  C11 UNL     1      -3.665   3.042  14.723  1.00  0.00     0.055 C 
HETATM    6  C12 UNL     1      -3.958   2.902  13.247  1.00  0.00     0.119 C 
ENDROOT
BRANCH   1   7
HETATM    7  C3  UNL     1      -3.329   4.712  11.761  1.00  0.00     0.119 C 
BRANCH   7   8
HETATM    8  C2  UNL     1      -2.262   3.771  11.286  1.00  0.00     0.045 C 
BRANCH   8   9
HETATM    9  C1  UNL     1      -0.912   4.354  11.707  1.00  0.00     0.165 C 
BRANCH   9  10
HETATM   10  O1  UNL     1      -0.756   4.293  13.092  1.00  0.00    -0.401 OA
ATOM     11  H1  UNL     1      -1.039   5.103  13.499  1.00  0.00     0.209 HD
ENDBRANCH   9  10
ENDBRANCH   8   9
ENDBRANCH   7   8
ENDBRANCH   1   7
BRANCH   4  12
HETATM   12  N2  UNL     1      -5.724   2.297  15.702  1.00  0.00     0.093 N 
HETATM   13  C7  UNL     1      -5.030   1.255  16.384  1.00  0.00     0.273 C 
HETATM   14  C8  UNL     1      -6.074   0.548  17.261  1.00  0.00     0.032 C 
HETATM   15  C9  UNL     1      -7.352   1.304  16.992  1.00  0.00     0.032 C 
HETATM   16  C10 UNL     1      -6.834   2.668  16.596  1.00  0.00     0.273 C 
ENDBRANCH   4  12
TORSDOF 5
ENDMDL
