MODEL 1
REMARK VINA RESULT: -8.177895780      0.000      0.000
REMARK  7 active torsions:
REMARK  status: ('A' for Active; 'I' for Inactive)
REMARK    1  A    between atoms: C3_3  and  C4_5 
REMARK    2  A    between atoms: C6_7  and  C7_8 
REMARK    3  A    between atoms: C8_9  and  C9_10 
REMARK    4  A    between atoms: C11_12  and  C12_13 
REMARK    5  A    between atoms: C12_13  and  O2_15 
REMARK    6  A    between atoms: O2_15  and  C14_16 
REMARK    7  A    between atoms: C18_22  and  C19_23 
ROOT
HETATM    1  C1  UNL     1      64.052  36.600   0.577  1.00  0.00     0.021 C 
HETATM    2  C2  UNL     1      64.578  37.536   0.034  1.00  0.00    -0.035 C 
HETATM    3  C3  UNL     1      65.246  38.667  -0.629  1.00  0.00     0.230 C 
HETATM    4  O1  UNL     1      64.501  39.657  -0.772  1.00  0.00    -0.278 OA
ENDROOT
BRANCH   3   5
HETATM    5  C4  UNL     1      66.620  38.570  -1.042  1.00  0.00    -0.003 C 
HETATM    6  C5  UNL     1      67.061  37.194  -1.520  1.00  0.00     0.053 C 
HETATM    7  C6  UNL     1      67.536  39.508  -1.060  1.00  0.00     0.011 C 
BRANCH   7   8
HETATM    8  C7  UNL     1      67.425  40.880  -0.676  1.00  0.00     0.001 C 
HETATM    9  C8  UNL     1      68.190  41.902  -0.804  1.00  0.00     0.006 C 
BRANCH   9  10
HETATM   10  C9  UNL     1      69.491  42.113  -1.387  1.00  0.00    -0.063 C 
HETATM   11  C10 UNL     1      69.670  42.656  -2.737  1.00  0.00     0.048 C 
HETATM   12  C11 UNL     1      70.574  41.791  -0.643  1.00  0.00     0.011 C 
BRANCH  12  13
HETATM   13  C12 UNL     1      71.951  41.939  -1.075  1.00  0.00     0.144 C 
HETATM   14  C13 UNL     1      72.348  43.399  -0.786  1.00  0.00     0.044 C 
BRANCH  13  15
HETATM   15  O2  UNL     1      72.844  41.077  -0.439  1.00  0.00    -0.348 OA
BRANCH  15  16
HETATM   16  C14 UNL     1      72.255  40.101   0.303  1.00  0.00     0.300 C 
HETATM   17  O3  UNL     1      72.303  38.912  -0.503  1.00  0.00    -0.286 OA
HETATM   18  C15 UNL     1      71.823  37.667  -0.195  1.00  0.00     0.261 C 
HETATM   19  O4  UNL     1      71.575  36.932  -1.211  1.00  0.00    -0.265 OA
HETATM   20  C16 UNL     1      71.543  37.030   1.083  1.00  0.00     0.112 C 
HETATM   21  C17 UNL     1      71.659  37.909   2.248  1.00  0.00     0.019 C 
HETATM   22  C18 UNL     1      72.893  38.695   2.477  1.00  0.00     0.022 C 
HETATM   23  C22 UNL     1      72.997  39.873   1.557  1.00  0.00    -0.030 C 
HETATM   24  C23 UNL     1      73.839  40.811   1.900  1.00  0.00     0.020 C 
BRANCH  22  25
HETATM   25  C19 UNL     1      74.170  37.980   2.623  1.00  0.00    -0.014 C 
HETATM   26  C20 UNL     1      74.013  36.869   3.674  1.00  0.00     0.010 C 
HETATM   27  C21 UNL     1      74.846  37.414   1.444  1.00  0.00     0.010 C 
ENDBRANCH  22  25
ENDBRANCH  15  16
ENDBRANCH  13  15
ENDBRANCH  12  13
ENDBRANCH   9  10
ENDBRANCH   7   8
ENDBRANCH   3   5
TORSDOF 7
ENDMDL
MODEL 2
REMARK VINA RESULT: -7.851444574      1.132      1.367
REMARK  7 active torsions:
REMARK  status: ('A' for Active; 'I' for Inactive)
REMARK    1  A    between atoms: C3_3  and  C4_5 
REMARK    2  A    between atoms: C6_7  and  C7_8 
REMARK    3  A    between atoms: C8_9  and  C9_10 
REMARK    4  A    between atoms: C11_12  and  C12_13 
REMARK    5  A    between atoms: C12_13  and  O2_15 
REMARK    6  A    between atoms: O2_15  and  C14_16 
REMARK    7  A    between atoms: C18_22  and  C19_23 
ROOT
HETATM    1  C1  UNL     1      64.035  36.634   0.707  1.00  0.00     0.021 C 
HETATM    2  C2  UNL     1      64.541  37.551   0.114  1.00  0.00    -0.035 C 
HETATM    3  C3  UNL     1      65.184  38.659  -0.611  1.00  0.00     0.230 C 
HETATM    4  O1  UNL     1      64.428  39.639  -0.773  1.00  0.00    -0.278 OA
ENDROOT
BRANCH   3   5
HETATM    5  C4  UNL     1      66.547  38.553  -1.055  1.00  0.00    -0.003 C 
HETATM    6  C5  UNL     1      66.972  37.171  -1.528  1.00  0.00     0.053 C 
HETATM    7  C6  UNL     1      67.464  39.489  -1.106  1.00  0.00     0.011 C 
BRANCH   7   8
HETATM    8  C7  UNL     1      67.366  40.865  -0.736  1.00  0.00     0.001 C 
HETATM    9  C8  UNL     1      68.156  41.871  -0.840  1.00  0.00     0.006 C 
BRANCH   9  10
HETATM   10  C9  UNL     1      69.483  42.052  -1.372  1.00  0.00    -0.063 C 
HETATM   11  C10 UNL     1      69.732  42.711  -2.658  1.00  0.00     0.048 C 
HETATM   12  C11 UNL     1      70.522  41.589  -0.643  1.00  0.00     0.011 C 
BRANCH  12  13
HETATM   13  C12 UNL     1      71.918  41.687  -1.030  1.00  0.00     0.144 C 
HETATM   14  C13 UNL     1      72.342  43.146  -0.777  1.00  0.00     0.044 C 
BRANCH  13  15
HETATM   15  O2  UNL     1      72.765  40.826  -0.332  1.00  0.00    -0.348 OA
BRANCH  15  16
HETATM   16  C14 UNL     1      72.469  39.507  -0.472  1.00  0.00     0.300 C 
HETATM   17  O3  UNL     1      73.558  38.936  -1.215  1.00  0.00    -0.286 OA
HETATM   18  C15 UNL     1      73.712  37.637  -1.619  1.00  0.00     0.261 C 
HETATM   19  O4  UNL     1      74.492  37.485  -2.621  1.00  0.00    -0.265 OA
HETATM   20  C16 UNL     1      73.147  36.396  -1.112  1.00  0.00     0.112 C 
HETATM   21  C17 UNL     1      72.124  36.562  -0.077  1.00  0.00     0.019 C 
HETATM   22  C18 UNL     1      72.400  37.376   1.129  1.00  0.00     0.022 C 
HETATM   23  C22 UNL     1      72.374  38.846   0.843  1.00  0.00    -0.030 C 
HETATM   24  C23 UNL     1      72.253  39.640   1.874  1.00  0.00     0.020 C 
BRANCH  22  25
HETATM   25  C19 UNL     1      73.522  36.991   2.000  1.00  0.00    -0.014 C 
HETATM   26  C20 UNL     1      73.389  35.505   2.373  1.00  0.00     0.010 C 
HETATM   27  C21 UNL     1      74.911  37.243   1.581  1.00  0.00     0.010 C 
ENDBRANCH  22  25
ENDBRANCH  15  16
ENDBRANCH  13  15
ENDBRANCH  12  13
ENDBRANCH   9  10
ENDBRANCH   7   8
ENDBRANCH   3   5
TORSDOF 7
ENDMDL
MODEL 3
REMARK VINA RESULT: -7.715339149      0.951      1.111
REMARK  7 active torsions:
REMARK  status: ('A' for Active; 'I' for Inactive)
REMARK    1  A    between atoms: C3_3  and  C4_5 
REMARK    2  A    between atoms: C6_7  and  C7_8 
REMARK    3  A    between atoms: C8_9  and  C9_10 
REMARK    4  A    between atoms: C11_12  and  C12_13 
REMARK    5  A    between atoms: C12_13  and  O2_15 
REMARK    6  A    between atoms: O2_15  and  C14_16 
REMARK    7  A    between atoms: C18_22  and  C19_23 
ROOT
HETATM    1  C1  UNL     1      64.032  36.638   0.664  1.00  0.00     0.021 C 
HETATM    2  C2  UNL     1      64.549  37.562   0.091  1.00  0.00    -0.035 C 
HETATM    3  C3  UNL     1      65.205  38.678  -0.609  1.00  0.00     0.230 C 
HETATM    4  O1  UNL     1      64.447  39.653  -0.790  1.00  0.00    -0.278 OA
ENDROOT
BRANCH   3   5
HETATM    5  C4  UNL     1      66.582  38.585  -1.013  1.00  0.00    -0.003 C 
HETATM    6  C5  UNL     1      67.018  37.221  -1.530  1.00  0.00     0.053 C 
HETATM    7  C6  UNL     1      67.503  39.517  -0.994  1.00  0.00     0.011 C 
BRANCH   7   8
HETATM    8  C7  UNL     1      67.397  40.878  -0.570  1.00  0.00     0.001 C 
HETATM    9  C8  UNL     1      68.137  41.915  -0.722  1.00  0.00     0.006 C 
BRANCH   9  10
HETATM   10  C9  UNL     1      69.394  42.161  -1.383  1.00  0.00    -0.063 C 
HETATM   11  C10 UNL     1      69.487  42.899  -2.646  1.00  0.00     0.048 C 
HETATM   12  C11 UNL     1      70.516  41.685  -0.799  1.00  0.00     0.011 C 
BRANCH  12  13
HETATM   13  C12 UNL     1      71.858  41.842  -1.328  1.00  0.00     0.144 C 
HETATM   14  C13 UNL     1      72.448  43.100  -0.662  1.00  0.00     0.044 C 
BRANCH  13  15
HETATM   15  O2  UNL     1      72.696  40.752  -1.092  1.00  0.00    -0.348 OA
BRANCH  15  16
HETATM   16  C14 UNL     1      72.582  40.211   0.150  1.00  0.00     0.300 C 
HETATM   17  O3  UNL     1      71.611  39.158   0.033  1.00  0.00    -0.286 OA
HETATM   18  C15 UNL     1      71.146  38.329   1.019  1.00  0.00     0.261 C 
HETATM   19  O4  UNL     1      70.000  37.816   0.778  1.00  0.00    -0.265 OA
HETATM   20  C16 UNL     1      71.724  37.925   2.291  1.00  0.00     0.112 C 
HETATM   21  C17 UNL     1      72.953  38.628   2.661  1.00  0.00     0.019 C 
HETATM   22  C18 UNL     1      74.098  38.684   1.725  1.00  0.00     0.022 C 
HETATM   23  C22 UNL     1      73.868  39.644   0.598  1.00  0.00    -0.030 C 
HETATM   24  C23 UNL     1      74.924  40.028  -0.069  1.00  0.00     0.020 C 
BRANCH  22  25
HETATM   25  C19 UNL     1      74.704  37.421   1.274  1.00  0.00    -0.014 C 
HETATM   26  C20 UNL     1      75.057  36.561   2.498  1.00  0.00     0.010 C 
HETATM   27  C21 UNL     1      74.011  36.571   0.292  1.00  0.00     0.010 C 
ENDBRANCH  22  25
ENDBRANCH  15  16
ENDBRANCH  13  15
ENDBRANCH  12  13
ENDBRANCH   9  10
ENDBRANCH   7   8
ENDBRANCH   3   5
TORSDOF 7
ENDMDL
MODEL 4
REMARK VINA RESULT: -7.572912386      1.822      2.822
REMARK  7 active torsions:
REMARK  status: ('A' for Active; 'I' for Inactive)
REMARK    1  A    between atoms: C3_3  and  C4_5 
REMARK    2  A    between atoms: C6_7  and  C7_8 
REMARK    3  A    between atoms: C8_9  and  C9_10 
REMARK    4  A    between atoms: C11_12  and  C12_13 
REMARK    5  A    between atoms: C12_13  and  O2_15 
REMARK    6  A    between atoms: O2_15  and  C14_16 
REMARK    7  A    between atoms: C18_22  and  C19_23 
ROOT
HETATM    1  C1  UNL     1      64.008  36.645   0.725  1.00  0.00     0.021 C 
HETATM    2  C2  UNL     1      64.535  37.526   0.097  1.00  0.00    -0.035 C 
HETATM    3  C3  UNL     1      65.202  38.588  -0.673  1.00  0.00     0.230 C 
HETATM    4  O1  UNL     1      64.518  39.628  -0.763  1.00  0.00    -0.278 OA
ENDROOT
BRANCH   3   5
HETATM    5  C4  UNL     1      66.509  38.378  -1.235  1.00  0.00    -0.003 C 
HETATM    6  C5  UNL     1      66.734  37.012  -1.867  1.00  0.00     0.053 C 
HETATM    7  C6  UNL     1      67.524  39.206  -1.273  1.00  0.00     0.011 C 
BRANCH   7   8
HETATM    8  C7  UNL     1      67.616  40.541  -0.770  1.00  0.00     0.001 C 
HETATM    9  C8  UNL     1      68.590  41.275  -0.371  1.00  0.00     0.006 C 
BRANCH   9  10
HETATM   10  C9  UNL     1      70.012  41.075  -0.254  1.00  0.00    -0.063 C 
HETATM   11  C10 UNL     1      70.987  42.027  -0.795  1.00  0.00     0.048 C 
HETATM   12  C11 UNL     1      70.441  39.961   0.381  1.00  0.00     0.011 C 
BRANCH  12  13
HETATM   13  C12 UNL     1      71.833  39.607   0.585  1.00  0.00     0.144 C 
HETATM   14  C13 UNL     1      72.070  39.616   2.108  1.00  0.00     0.044 C 
BRANCH  13  15
HETATM   15  O2  UNL     1      72.187  38.362   0.065  1.00  0.00    -0.348 OA
BRANCH  15  16
HETATM   16  C14 UNL     1      72.905  37.579   0.912  1.00  0.00     0.300 C 
HETATM   17  O3  UNL     1      72.207  36.324   0.974  1.00  0.00    -0.286 OA
HETATM   18  C15 UNL     1      72.534  35.215   1.709  1.00  0.00     0.261 C 
HETATM   19  O4  UNL     1      71.550  34.434   1.950  1.00  0.00    -0.265 OA
HETATM   20  C16 UNL     1      73.801  34.765   2.264  1.00  0.00     0.112 C 
HETATM   21  C17 UNL     1      74.901  35.723   2.146  1.00  0.00     0.019 C 
HETATM   22  C18 UNL     1      75.249  36.309   0.831  1.00  0.00     0.022 C 
HETATM   23  C22 UNL     1      74.269  37.355   0.396  1.00  0.00    -0.030 C 
HETATM   24  C23 UNL     1      74.660  38.167  -0.550  1.00  0.00     0.020 C 
BRANCH  22  25
HETATM   25  C19 UNL     1      75.634  35.407  -0.265  1.00  0.00    -0.014 C 
HETATM   26  C20 UNL     1      76.594  34.334   0.274  1.00  0.00     0.010 C 
HETATM   27  C21 UNL     1      74.605  34.744  -1.082  1.00  0.00     0.010 C 
ENDBRANCH  22  25
ENDBRANCH  15  16
ENDBRANCH  13  15
ENDBRANCH  12  13
ENDBRANCH   9  10
ENDBRANCH   7   8
ENDBRANCH   3   5
TORSDOF 7
ENDMDL
MODEL 5
REMARK VINA RESULT: -7.476009550      1.405      2.225
REMARK  7 active torsions:
REMARK  status: ('A' for Active; 'I' for Inactive)
REMARK    1  A    between atoms: C3_3  and  C4_5 
REMARK    2  A    between atoms: C6_7  and  C7_8 
REMARK    3  A    between atoms: C8_9  and  C9_10 
REMARK    4  A    between atoms: C11_12  and  C12_13 
REMARK    5  A    between atoms: C12_13  and  O2_15 
REMARK    6  A    between atoms: O2_15  and  C14_16 
REMARK    7  A    between atoms: C18_22  and  C19_23 
ROOT
HETATM    1  C1  UNL     1      64.047  36.641   0.671  1.00  0.00     0.021 C 
HETATM    2  C2  UNL     1      64.564  37.562   0.093  1.00  0.00    -0.035 C 
HETATM    3  C3  UNL     1      65.222  38.674  -0.611  1.00  0.00     0.230 C 
HETATM    4  O1  UNL     1      64.465  39.648  -0.796  1.00  0.00    -0.278 OA
ENDROOT
BRANCH   3   5
HETATM    5  C4  UNL     1      66.599  38.577  -1.014  1.00  0.00    -0.003 C 
HETATM    6  C5  UNL     1      67.007  37.243  -1.621  1.00  0.00     0.053 C 
HETATM    7  C6  UNL     1      67.540  39.485  -0.928  1.00  0.00     0.011 C 
BRANCH   7   8
HETATM    8  C7  UNL     1      67.463  40.815  -0.412  1.00  0.00     0.001 C 
HETATM    9  C8  UNL     1      68.173  41.872  -0.570  1.00  0.00     0.006 C 
BRANCH   9  10
HETATM   10  C9  UNL     1      69.356  42.178  -1.334  1.00  0.00    -0.063 C 
HETATM   11  C10 UNL     1      69.359  43.166  -2.416  1.00  0.00     0.048 C 
HETATM   12  C11 UNL     1      70.494  41.519  -1.023  1.00  0.00     0.011 C 
BRANCH  12  13
HETATM   13  C12 UNL     1      71.770  41.705  -1.689  1.00  0.00     0.144 C 
HETATM   14  C13 UNL     1      72.626  42.589  -0.761  1.00  0.00     0.044 C 
BRANCH  13  15
HETATM   15  O2  UNL     1      72.450  40.518  -1.961  1.00  0.00    -0.348 OA
BRANCH  15  16
HETATM   16  C14 UNL     1      73.178  40.033  -0.921  1.00  0.00     0.300 C 
HETATM   17  O3  UNL     1      72.236  39.782   0.135  1.00  0.00    -0.286 OA
HETATM   18  C15 UNL     1      72.490  39.300   1.392  1.00  0.00     0.261 C 
HETATM   19  O4  UNL     1      71.598  39.596   2.259  1.00  0.00    -0.265 OA
HETATM   20  C16 UNL     1      73.593  38.511   1.918  1.00  0.00     0.112 C 
HETATM   21  C17 UNL     1      74.703  38.305   0.986  1.00  0.00     0.019 C 
HETATM   22  C18 UNL     1      74.456  37.759  -0.368  1.00  0.00     0.022 C 
HETATM   23  C22 UNL     1      73.849  38.772  -1.290  1.00  0.00    -0.030 C 
HETATM   24  C23 UNL     1      73.917  38.515  -2.569  1.00  0.00     0.020 C 
BRANCH  22  25
HETATM   25  C19 UNL     1      73.827  36.435  -0.492  1.00  0.00    -0.014 C 
HETATM   26  C20 UNL     1      74.586  35.427   0.385  1.00  0.00     0.010 C 
HETATM   27  C21 UNL     1      72.384  36.270  -0.249  1.00  0.00     0.010 C 
ENDBRANCH  22  25
ENDBRANCH  15  16
ENDBRANCH  13  15
ENDBRANCH  12  13
ENDBRANCH   9  10
ENDBRANCH   7   8
ENDBRANCH   3   5
TORSDOF 7
ENDMDL
