MODEL 1
REMARK VINA RESULT: -5.151743058      0.000      0.000
REMARK  7 active torsions:
REMARK  status: ('A' for Active; 'I' for Inactive)
REMARK    1  A    between atoms: C2_2  and  C4_4 
REMARK    2  A    between atoms: C4_4  and  C5_5 
REMARK    3  A    between atoms: C5_5  and  C6_6 
REMARK    4  A    between atoms: C6_6  and  N1_7 
REMARK    5  A    between atoms: N1_7  and  C7_9 
REMARK    6  A    between atoms: C7_9  and  C8_10 
REMARK    7  A    between atoms: C8_10  and  C9_11 
ROOT
HETATM    1  N1  UNL     1       7.694 -24.822  -3.185  1.00  0.00    -0.421 N 
ATOM      2  H1  UNL     1       8.687 -24.768  -3.413  1.00  0.00     0.153 HD
ENDROOT
BRANCH   1   3
HETATM    3  C6  UNL     1       7.248 -24.733  -1.817  1.00  0.00     0.113 C 
BRANCH   3   4
HETATM    4  C5  UNL     1       7.480 -23.379  -1.285  1.00  0.00     0.019 C 
BRANCH   4   5
HETATM    5  C4  UNL     1       6.357 -22.578  -0.765  1.00  0.00     0.005 C 
BRANCH   5   6
HETATM    6  C2  UNL     1       6.428 -22.130   0.663  1.00  0.00    -0.023 C 
HETATM    7  C1  UNL     1       7.049 -23.096   1.622  1.00  0.00     0.009 C 
HETATM    8  C3  UNL     1       5.020 -21.807   1.144  1.00  0.00     0.009 C 
ENDBRANCH   5   6
ENDBRANCH   4   5
ENDBRANCH   3   4
ENDBRANCH   1   3
BRANCH   1   9
HETATM    9  C7  UNL     1       6.726 -24.984  -4.202  1.00  0.00     0.114 C 
BRANCH   9  10
HETATM   10  C8  UNL     1       6.837 -23.844  -5.181  1.00  0.00     0.024 C 
BRANCH  10  11
HETATM   11  C9  UNL     1       6.190 -22.580  -4.697  1.00  0.00    -0.013 A 
HETATM   12  C10 UNL     1       6.954 -21.356  -4.421  1.00  0.00     0.005 A 
HETATM   13  C11 UNL     1       6.224 -21.466  -5.762  1.00  0.00     0.005 A 
ENDBRANCH  10  11
ENDBRANCH   9  10
ENDBRANCH   1   9
TORSDOF 7
ENDMDL
MODEL 2
REMARK VINA RESULT: -5.139983172      1.760      3.376
REMARK  7 active torsions:
REMARK  status: ('A' for Active; 'I' for Inactive)
REMARK    1  A    between atoms: C2_2  and  C4_4 
REMARK    2  A    between atoms: C4_4  and  C5_5 
REMARK    3  A    between atoms: C5_5  and  C6_6 
REMARK    4  A    between atoms: C6_6  and  N1_7 
REMARK    5  A    between atoms: N1_7  and  C7_9 
REMARK    6  A    between atoms: C7_9  and  C8_10 
REMARK    7  A    between atoms: C8_10  and  C9_11 
ROOT
HETATM    1  N1  UNL     1       7.700 -21.051  -2.502  1.00  0.00    -0.421 N 
ATOM      2  H1  UNL     1       8.512 -21.423  -2.010  1.00  0.00     0.153 HD
ENDROOT
BRANCH   1   3
HETATM    3  C6  UNL     1       7.023 -19.872  -2.022  1.00  0.00     0.113 C 
BRANCH   3   4
HETATM    4  C5  UNL     1       6.595 -20.056  -0.624  1.00  0.00     0.019 C 
BRANCH   4   5
HETATM    5  C4  UNL     1       7.105 -21.188   0.171  1.00  0.00     0.005 C 
BRANCH   5   6
HETATM    6  C2  UNL     1       6.118 -22.226   0.608  1.00  0.00    -0.023 C 
HETATM    7  C1  UNL     1       4.860 -21.712   1.235  1.00  0.00     0.009 C 
HETATM    8  C3  UNL     1       6.801 -23.165   1.594  1.00  0.00     0.009 C 
ENDBRANCH   5   6
ENDBRANCH   4   5
ENDBRANCH   3   4
ENDBRANCH   1   3
BRANCH   1   9
HETATM    9  C7  UNL     1       7.214 -21.680  -3.672  1.00  0.00     0.114 C 
BRANCH   9  10
HETATM   10  C8  UNL     1       6.735 -23.068  -3.328  1.00  0.00     0.024 C 
BRANCH  10  11
HETATM   11  C9  UNL     1       7.641 -23.790  -2.376  1.00  0.00    -0.013 A 
HETATM   12  C10 UNL     1       7.234 -25.013  -1.672  1.00  0.00     0.005 A 
HETATM   13  C11 UNL     1       8.094 -25.156  -2.930  1.00  0.00     0.005 A 
ENDBRANCH  10  11
ENDBRANCH   9  10
ENDBRANCH   1   9
TORSDOF 7
ENDMDL
MODEL 3
REMARK VINA RESULT: -5.101485275      1.811      3.281
REMARK  7 active torsions:
REMARK  status: ('A' for Active; 'I' for Inactive)
REMARK    1  A    between atoms: C2_2  and  C4_4 
REMARK    2  A    between atoms: C4_4  and  C5_5 
REMARK    3  A    between atoms: C5_5  and  C6_6 
REMARK    4  A    between atoms: C6_6  and  N1_7 
REMARK    5  A    between atoms: N1_7  and  C7_9 
REMARK    6  A    between atoms: C7_9  and  C8_10 
REMARK    7  A    between atoms: C8_10  and  C9_11 
ROOT
HETATM    1  N1  UNL     1       7.666 -21.037  -2.392  1.00  0.00    -0.421 N 
ATOM      2  H1  UNL     1       8.492 -21.401  -1.917  1.00  0.00     0.153 HD
ENDROOT
BRANCH   1   3
HETATM    3  C6  UNL     1       6.963 -19.891  -1.871  1.00  0.00     0.113 C 
BRANCH   3   4
HETATM    4  C5  UNL     1       6.657 -20.078  -0.442  1.00  0.00     0.019 C 
BRANCH   4   5
HETATM    5  C4  UNL     1       7.420 -21.048   0.364  1.00  0.00     0.005 C 
BRANCH   5   6
HETATM    6  C2  UNL     1       6.673 -21.817   1.411  1.00  0.00    -0.023 C 
HETATM    7  C1  UNL     1       7.211 -23.175   1.736  1.00  0.00     0.009 C 
HETATM    8  C3  UNL     1       5.224 -21.963   0.967  1.00  0.00     0.009 C 
ENDBRANCH   5   6
ENDBRANCH   4   5
ENDBRANCH   3   4
ENDBRANCH   1   3
BRANCH   1   9
HETATM    9  C7  UNL     1       7.186 -21.645  -3.575  1.00  0.00     0.114 C 
BRANCH   9  10
HETATM   10  C8  UNL     1       6.735 -23.049  -3.266  1.00  0.00     0.024 C 
BRANCH  10  11
HETATM   11  C9  UNL     1       7.557 -23.717  -2.203  1.00  0.00    -0.013 A 
HETATM   12  C10 UNL     1       7.131 -24.953  -1.535  1.00  0.00     0.005 A 
HETATM   13  C11 UNL     1       8.140 -25.062  -2.682  1.00  0.00     0.005 A 
ENDBRANCH  10  11
ENDBRANCH   9  10
ENDBRANCH   1   9
TORSDOF 7
ENDMDL
MODEL 4
REMARK VINA RESULT: -5.060745182      1.481      2.910
REMARK  7 active torsions:
REMARK  status: ('A' for Active; 'I' for Inactive)
REMARK    1  A    between atoms: C2_2  and  C4_4 
REMARK    2  A    between atoms: C4_4  and  C5_5 
REMARK    3  A    between atoms: C5_5  and  C6_6 
REMARK    4  A    between atoms: C6_6  and  N1_7 
REMARK    5  A    between atoms: N1_7  and  C7_9 
REMARK    6  A    between atoms: C7_9  and  C8_10 
REMARK    7  A    between atoms: C8_10  and  C9_11 
ROOT
HETATM    1  N1  UNL     1       7.041 -21.651  -3.995  1.00  0.00    -0.421 N 
ATOM      2  H1  UNL     1       6.210 -21.158  -4.321  1.00  0.00     0.153 HD
ENDROOT
BRANCH   1   3
HETATM    3  C6  UNL     1       7.752 -21.204  -2.823  1.00  0.00     0.113 C 
BRANCH   3   4
HETATM    4  C5  UNL     1       6.927 -21.390  -1.617  1.00  0.00     0.019 C 
BRANCH   4   5
HETATM    5  C4  UNL     1       7.484 -22.058  -0.427  1.00  0.00     0.005 C 
BRANCH   5   6
HETATM    6  C2  UNL     1       6.519 -22.706   0.519  1.00  0.00    -0.023 C 
HETATM    7  C1  UNL     1       5.327 -21.886   0.902  1.00  0.00     0.009 C 
HETATM    8  C3  UNL     1       7.267 -23.097   1.787  1.00  0.00     0.009 C 
ENDBRANCH   5   6
ENDBRANCH   4   5
ENDBRANCH   3   4
ENDBRANCH   1   3
BRANCH   1   9
HETATM    9  C7  UNL     1       7.522 -22.789  -4.683  1.00  0.00     0.114 C 
BRANCH   9  10
HETATM   10  C8  UNL     1       6.578 -23.943  -4.458  1.00  0.00     0.024 C 
BRANCH  10  11
HETATM   11  C9  UNL     1       7.221 -25.111  -3.770  1.00  0.00    -0.013 A 
HETATM   12  C10 UNL     1       8.297 -24.952  -2.782  1.00  0.00     0.005 A 
HETATM   13  C11 UNL     1       6.870 -25.165  -2.270  1.00  0.00     0.005 A 
ENDBRANCH  10  11
ENDBRANCH   9  10
ENDBRANCH   1   9
TORSDOF 7
ENDMDL
MODEL 5
REMARK VINA RESULT: -5.030458111      2.231      5.431
REMARK  7 active torsions:
REMARK  status: ('A' for Active; 'I' for Inactive)
REMARK    1  A    between atoms: C2_2  and  C4_4 
REMARK    2  A    between atoms: C4_4  and  C5_5 
REMARK    3  A    between atoms: C5_5  and  C6_6 
REMARK    4  A    between atoms: C6_6  and  N1_7 
REMARK    5  A    between atoms: N1_7  and  C7_9 
REMARK    6  A    between atoms: C7_9  and  C8_10 
REMARK    7  A    between atoms: C8_10  and  C9_11 
ROOT
HETATM    1  N1  UNL     1       8.411 -20.089  -0.906  1.00  0.00    -0.421 N 
ATOM      2  H1  UNL     1       9.348 -20.259  -1.273  1.00  0.00     0.153 HD
ENDROOT
BRANCH   1   3
HETATM    3  C6  UNL     1       7.269 -20.071  -1.785  1.00  0.00     0.113 C 
BRANCH   3   4
HETATM    4  C5  UNL     1       7.267 -21.260  -2.655  1.00  0.00     0.019 C 
BRANCH   4   5
HETATM    5  C4  UNL     1       7.661 -22.576  -2.122  1.00  0.00     0.005 C 
BRANCH   5   6
HETATM    6  C2  UNL     1       6.726 -23.724  -2.351  1.00  0.00    -0.023 C 
HETATM    7  C1  UNL     1       7.081 -25.006  -1.667  1.00  0.00     0.009 C 
HETATM    8  C3  UNL     1       6.630 -23.984  -3.849  1.00  0.00     0.009 C 
ENDBRANCH   5   6
ENDBRANCH   4   5
ENDBRANCH   3   4
ENDBRANCH   1   3
BRANCH   1   9
HETATM    9  C7  UNL     1       8.206 -19.867   0.474  1.00  0.00     0.114 C 
BRANCH   9  10
HETATM   10  C8  UNL     1       8.456 -21.148   1.228  1.00  0.00     0.024 C 
BRANCH  10  11
HETATM   11  C9  UNL     1       7.220 -21.714   1.864  1.00  0.00    -0.013 A 
HETATM   12  C10 UNL     1       6.074 -22.188   1.078  1.00  0.00     0.005 A 
HETATM   13  C11 UNL     1       7.072 -23.225   1.598  1.00  0.00     0.005 A 
ENDBRANCH  10  11
ENDBRANCH   9  10
ENDBRANCH   1   9
TORSDOF 7
ENDMDL
