MODEL 1
REMARK VINA RESULT: -5.233185342      0.000      0.000
REMARK  6 active torsions:
REMARK  status: ('A' for Active; 'I' for Inactive)
REMARK    1  A    between atoms: C2_2  and  C3_3 
REMARK    2  A    between atoms: C3_3  and  C4_4 
REMARK    3  A    between atoms: C4_4  and  C5_5 
REMARK    4  A    between atoms: C5_5  and  N1_6 
REMARK    5  A    between atoms: N1_6  and  C6_9 
REMARK    6  A    between atoms: C6_9  and  C7_10 
ROOT
HETATM    1  N1  UNL     1       8.178 -19.874  -1.802  1.00  0.00    -0.071 N 
ATOM      2  H11 UNL     1       8.809 -19.123  -2.083  1.00  0.00     0.277 HD
ATOM      3  H12 UNL     1       8.853 -20.629  -1.684  1.00  0.00     0.277 HD
ENDROOT
BRANCH   1   4
HETATM    4  C5  UNL     1       7.253 -20.180  -2.854  1.00  0.00     0.233 C 
BRANCH   4   5
HETATM    5  C4  UNL     1       7.540 -21.506  -3.489  1.00  0.00     0.031 C 
BRANCH   5   6
HETATM    6  C3  UNL     1       6.778 -22.653  -2.889  1.00  0.00     0.028 C 
BRANCH   6   7
HETATM    7  C2  UNL     1       7.622 -23.612  -2.141  1.00  0.00    -0.037 C 
HETATM    8  C1  UNL     1       7.115 -24.710  -1.575  1.00  0.00     0.007 C 
ENDBRANCH   6   7
ENDBRANCH   5   6
ENDBRANCH   4   5
ENDBRANCH   1   4
BRANCH   1   9
HETATM    9  C6  UNL     1       7.544 -19.561  -0.554  1.00  0.00     0.270 C 
BRANCH   9  10
HETATM   10  C7  UNL     1       7.089 -20.729   0.200  1.00  0.00    -0.033 A 
HETATM   11  C8  UNL     1       7.997 -21.536   0.855  1.00  0.00     0.009 A 
HETATM   12  C9  UNL     1       7.584 -22.654   1.581  1.00  0.00     0.001 A 
HETATM   13  C10 UNL     1       6.234 -22.956   1.642  1.00  0.00     0.000 A 
HETATM   14  C11 UNL     1       5.313 -22.163   0.996  1.00  0.00     0.001 A 
HETATM   15  C12 UNL     1       5.757 -21.066   0.288  1.00  0.00     0.009 A 
ENDBRANCH   9  10
ENDBRANCH   1   9
TORSDOF 6
ENDMDL
MODEL 2
REMARK VINA RESULT: -5.227585810      1.626      1.881
REMARK  6 active torsions:
REMARK  status: ('A' for Active; 'I' for Inactive)
REMARK    1  A    between atoms: C2_2  and  C3_3 
REMARK    2  A    between atoms: C3_3  and  C4_4 
REMARK    3  A    between atoms: C4_4  and  C5_5 
REMARK    4  A    between atoms: C5_5  and  N1_6 
REMARK    5  A    between atoms: N1_6  and  C6_9 
REMARK    6  A    between atoms: C6_9  and  C7_10 
ROOT
HETATM    1  N1  UNL     1       7.003 -21.535  -3.074  1.00  0.00    -0.071 N 
ATOM      2  H11 UNL     1       6.610 -22.431  -2.785  1.00  0.00     0.277 HD
ATOM      3  H12 UNL     1       6.141 -21.010  -3.222  1.00  0.00     0.277 HD
ENDROOT
BRANCH   1   4
HETATM    4  C5  UNL     1       7.730 -21.673  -4.304  1.00  0.00     0.233 C 
BRANCH   4   5
HETATM    5  C4  UNL     1       7.744 -23.087  -4.795  1.00  0.00     0.031 C 
BRANCH   5   6
HETATM    6  C3  UNL     1       6.660 -23.950  -4.217  1.00  0.00     0.028 C 
BRANCH   6   7
HETATM    7  C2  UNL     1       7.152 -25.194  -3.583  1.00  0.00    -0.037 C 
HETATM    8  C1  UNL     1       8.379 -25.288  -3.065  1.00  0.00     0.007 C 
ENDBRANCH   6   7
ENDBRANCH   5   6
ENDBRANCH   4   5
ENDBRANCH   1   4
BRANCH   1   9
HETATM    9  C6  UNL     1       7.775 -20.956  -2.013  1.00  0.00     0.270 C 
BRANCH   9  10
HETATM   10  C7  UNL     1       7.619 -21.623  -0.721  1.00  0.00    -0.033 A 
HETATM   11  C8  UNL     1       8.053 -21.012   0.438  1.00  0.00     0.009 A 
HETATM   12  C9  UNL     1       7.912 -21.630   1.681  1.00  0.00     0.001 A 
HETATM   13  C10 UNL     1       7.325 -22.882   1.748  1.00  0.00     0.000 A 
HETATM   14  C11 UNL     1       6.885 -23.507   0.603  1.00  0.00     0.001 A 
HETATM   15  C12 UNL     1       7.041 -22.866  -0.608  1.00  0.00     0.009 A 
ENDBRANCH   9  10
ENDBRANCH   1   9
TORSDOF 6
ENDMDL
MODEL 3
REMARK VINA RESULT: -5.227305040      1.628      2.045
REMARK  6 active torsions:
REMARK  status: ('A' for Active; 'I' for Inactive)
REMARK    1  A    between atoms: C2_2  and  C3_3 
REMARK    2  A    between atoms: C3_3  and  C4_4 
REMARK    3  A    between atoms: C4_4  and  C5_5 
REMARK    4  A    between atoms: C5_5  and  N1_6 
REMARK    5  A    between atoms: N1_6  and  C6_9 
REMARK    6  A    between atoms: C6_9  and  C7_10 
ROOT
HETATM    1  N1  UNL     1       7.007 -21.547  -3.074  1.00  0.00    -0.071 N 
ATOM      2  H11 UNL     1       6.623 -22.447  -2.786  1.00  0.00     0.277 HD
ATOM      3  H12 UNL     1       6.140 -21.029  -3.218  1.00  0.00     0.277 HD
ENDROOT
BRANCH   1   4
HETATM    4  C5  UNL     1       7.731 -21.674  -4.306  1.00  0.00     0.233 C 
BRANCH   4   5
HETATM    5  C4  UNL     1       7.746 -23.085  -4.807  1.00  0.00     0.031 C 
BRANCH   5   6
HETATM    6  C3  UNL     1       6.663 -23.953  -4.236  1.00  0.00     0.028 C 
BRANCH   6   7
HETATM    7  C2  UNL     1       7.155 -25.203  -3.615  1.00  0.00    -0.037 C 
HETATM    8  C1  UNL     1       8.373 -25.294  -3.074  1.00  0.00     0.007 C 
ENDBRANCH   6   7
ENDBRANCH   5   6
ENDBRANCH   4   5
ENDBRANCH   1   4
BRANCH   1   9
HETATM    9  C6  UNL     1       7.777 -20.963  -2.014  1.00  0.00     0.270 C 
BRANCH   9  10
HETATM   10  C7  UNL     1       7.618 -21.625  -0.719  1.00  0.00    -0.033 A 
HETATM   11  C8  UNL     1       7.034 -22.872  -0.638  1.00  0.00     0.009 A 
HETATM   12  C9  UNL     1       6.874 -23.522   0.586  1.00  0.00     0.001 A 
HETATM   13  C10 UNL     1       7.313 -22.897   1.742  1.00  0.00     0.000 A 
HETATM   14  C11 UNL     1       7.900 -21.653   1.681  1.00  0.00     0.001 A 
HETATM   15  C12 UNL     1       8.041 -21.041   0.454  1.00  0.00     0.009 A 
ENDBRANCH   9  10
ENDBRANCH   1   9
TORSDOF 6
ENDMDL
MODEL 4
REMARK VINA RESULT: -5.202962985      2.181      3.408
REMARK  6 active torsions:
REMARK  status: ('A' for Active; 'I' for Inactive)
REMARK    1  A    between atoms: C2_2  and  C3_3 
REMARK    2  A    between atoms: C3_3  and  C4_4 
REMARK    3  A    between atoms: C4_4  and  C5_5 
REMARK    4  A    between atoms: C5_5  and  N1_6 
REMARK    5  A    between atoms: N1_6  and  C6_9 
REMARK    6  A    between atoms: C6_9  and  C7_10 
ROOT
HETATM    1  N1  UNL     1       7.695 -24.298  -2.528  1.00  0.00    -0.071 N 
ATOM      2  H11 UNL     1       8.582 -24.213  -2.031  1.00  0.00     0.277 HD
ATOM      3  H12 UNL     1       7.468 -25.268  -2.307  1.00  0.00     0.277 HD
ENDROOT
BRANCH   1   4
HETATM    4  C5  UNL     1       7.886 -24.132  -3.940  1.00  0.00     0.233 C 
BRANCH   4   5
HETATM    5  C4  UNL     1       6.593 -24.190  -4.694  1.00  0.00     0.031 C 
BRANCH   5   6
HETATM    6  C3  UNL     1       6.564 -23.341  -5.932  1.00  0.00     0.028 C 
BRANCH   6   7
HETATM    7  C2  UNL     1       5.829 -22.066  -5.771  1.00  0.00    -0.037 C 
HETATM    8  C1  UNL     1       6.429 -20.950  -5.348  1.00  0.00     0.007 C 
ENDBRANCH   6   7
ENDBRANCH   5   6
ENDBRANCH   4   5
ENDBRANCH   1   4
BRANCH   1   9
HETATM    9  C6  UNL     1       6.717 -23.408  -1.972  1.00  0.00     0.270 C 
BRANCH   9  10
HETATM   10  C7  UNL     1       7.119 -22.781  -0.713  1.00  0.00    -0.033 A 
HETATM   11  C8  UNL     1       6.926 -23.435   0.486  1.00  0.00     0.009 A 
HETATM   12  C9  UNL     1       7.304 -22.856   1.699  1.00  0.00     0.001 A 
HETATM   13  C10 UNL     1       7.884 -21.598   1.692  1.00  0.00     0.000 A 
HETATM   14  C11 UNL     1       8.085 -20.930   0.505  1.00  0.00     0.001 A 
HETATM   15  C12 UNL     1       7.699 -21.534  -0.674  1.00  0.00     0.009 A 
ENDBRANCH   9  10
ENDBRANCH   1   9
TORSDOF 6
ENDMDL
MODEL 5
REMARK VINA RESULT: -5.200339386      2.184      3.396
REMARK  6 active torsions:
REMARK  status: ('A' for Active; 'I' for Inactive)
REMARK    1  A    between atoms: C2_2  and  C3_3 
REMARK    2  A    between atoms: C3_3  and  C4_4 
REMARK    3  A    between atoms: C4_4  and  C5_5 
REMARK    4  A    between atoms: C5_5  and  N1_6 
REMARK    5  A    between atoms: N1_6  and  C6_9 
REMARK    6  A    between atoms: C6_9  and  C7_10 
ROOT
HETATM    1  N1  UNL     1       7.678 -24.297  -2.520  1.00  0.00    -0.071 N 
ATOM      2  H11 UNL     1       8.563 -24.225  -2.016  1.00  0.00     0.277 HD
ATOM      3  H12 UNL     1       7.440 -25.266  -2.308  1.00  0.00     0.277 HD
ENDROOT
BRANCH   1   4
HETATM    4  C5  UNL     1       7.882 -24.122  -3.930  1.00  0.00     0.233 C 
BRANCH   4   5
HETATM    5  C4  UNL     1       6.599 -24.198  -4.698  1.00  0.00     0.031 C 
BRANCH   5   6
HETATM    6  C3  UNL     1       6.573 -23.350  -5.937  1.00  0.00     0.028 C 
BRANCH   6   7
HETATM    7  C2  UNL     1       5.835 -22.077  -5.782  1.00  0.00    -0.037 C 
HETATM    8  C1  UNL     1       6.432 -20.957  -5.367  1.00  0.00     0.007 C 
ENDBRANCH   6   7
ENDBRANCH   5   6
ENDBRANCH   4   5
ENDBRANCH   1   4
BRANCH   1   9
HETATM    9  C6  UNL     1       6.705 -23.402  -1.966  1.00  0.00     0.270 C 
BRANCH   9  10
HETATM   10  C7  UNL     1       7.092 -22.808  -0.686  1.00  0.00    -0.033 A 
HETATM   11  C8  UNL     1       7.651 -21.547  -0.641  1.00  0.00     0.009 A 
HETATM   12  C9  UNL     1       8.026 -20.961   0.569  1.00  0.00     0.001 A 
HETATM   13  C10 UNL     1       7.832 -21.665   1.746  1.00  0.00     0.000 A 
HETATM   14  C11 UNL     1       7.275 -22.924   1.721  1.00  0.00     0.001 A 
HETATM   15  C12 UNL     1       6.917 -23.471   0.507  1.00  0.00     0.009 A 
ENDBRANCH   9  10
ENDBRANCH   1   9
TORSDOF 6
ENDMDL
