MODEL 1
REMARK VINA RESULT: -8.922281071      0.000      0.000
REMARK  13 active torsions:
REMARK  status: ('A' for Active; 'I' for Inactive)
REMARK    1  A    between atoms: C2_3  and  C3_4 
REMARK    2  A    between atoms: N3_9  and  C6_11 
REMARK    3  A    between atoms: C6_11  and  C7_12 
REMARK    4  A    between atoms: C7_12  and  C8_13 
REMARK    5  A    between atoms: C8_13  and  N4_14 
REMARK       I    between atoms: N4_14  and  C9_16 
REMARK    6  A    between atoms: C10_21  and  S1_22 
REMARK    7  A    between atoms: S1_22  and  C11_23 
REMARK    8  A    between atoms: C11_23  and  C12_24 
REMARK    9  A    between atoms: C12_24  and  N7_25 
REMARK   10  A    between atoms: C17_35  and  O1_36 
REMARK   11  A    between atoms: O1_36  and  C18_37 
REMARK   12  A    between atoms: C18_37  and  C19_38 
REMARK   13  A    between atoms: C19_38  and  C20_39 
ROOT
HETATM    1  C3  UNL     1      46.903  18.909 -10.566  1.00  0.00     0.025 A 
HETATM    2  C4  UNL     1      46.868  19.000 -11.957  1.00  0.00     0.105 A 
HETATM    3  N2  UNL     1      47.871  19.508 -12.686  1.00  0.00    -0.351 N 
ATOM      4  H2  UNL     1      47.773  19.540 -13.701  1.00  0.00     0.166 HD
HETATM    5  C5  UNL     1      49.000  19.975 -12.129  1.00  0.00     0.118 A 
HETATM    6  N3  UNL     1      49.978  20.443 -12.864  1.00  0.00    -0.375 N 
ATOM      7  H3  UNL     1      50.827  20.793 -12.421  1.00  0.00     0.161 HD
HETATM    8  C10 UNL     1      49.080  19.910 -10.770  1.00  0.00     0.045 A 
HETATM    9  C13 UNL     1      48.039  19.380  -9.985  1.00  0.00     0.039 A 
ENDROOT
BRANCH   1  10
HETATM   10  C2  UNL     1      45.740  18.349  -9.869  1.00  0.00     0.120 A 
HETATM   11  N1  UNL     1      45.639  17.514  -8.834  1.00  0.00    -0.335 N 
HETATM   12  C1  UNL     1      46.696  16.908  -8.087  1.00  0.00     0.158 C 
HETATM   13  C26 UNL     1      44.314  17.280  -8.562  1.00  0.00     0.065 A 
HETATM   14  C14 UNL     1      43.572  17.998  -9.465  1.00  0.00     0.061 A 
HETATM   15  C25 UNL     1      43.680  16.513  -7.616  1.00  0.00     0.068 A 
HETATM   16  N8  UNL     1      44.445  18.627 -10.235  1.00  0.00    -0.340 N 
HETATM   17  C15 UNL     1      42.180  17.935  -9.404  1.00  0.00     0.035 A 
ATOM     18  H8  UNL     1      44.188  19.244 -11.005  1.00  0.00     0.167 HD
HETATM   19  C16 UNL     1      41.520  17.176  -8.469  1.00  0.00     0.039 A 
HETATM   20  C17 UNL     1      42.281  16.460  -7.567  1.00  0.00     0.071 A 
BRANCH  20  21
HETATM   21  O1  UNL     1      41.689  15.677  -6.600  1.00  0.00    -0.351 OA
BRANCH  21  22
HETATM   22  C18 UNL     1      41.928  14.312  -6.409  1.00  0.00     0.176 C 
BRANCH  22  23
HETATM   23  C19 UNL     1      41.630  13.491  -7.635  1.00  0.00     0.031 C 
BRANCH  23  24
HETATM   24  C20 UNL     1      42.819  12.687  -8.104  1.00  0.00    -0.009 C 
HETATM   25  C21 UNL     1      43.321  13.331  -9.403  1.00  0.00     0.032 C 
HETATM   26  C22 UNL     1      44.298  12.340 -10.000  1.00  0.00     0.232 C 
HETATM   27  N9  UNL     1      45.264  11.887  -9.021  1.00  0.00    -0.075 N 
HETATM   28  C23 UNL     1      45.295  12.752  -7.856  1.00  0.00     0.232 C 
ATOM     29  H92 UNL     1      45.100  10.915  -8.759  1.00  0.00     0.277 HD
ATOM     30  H91 UNL     1      46.191  11.786  -9.433  1.00  0.00     0.277 HD
HETATM   31  C24 UNL     1      43.961  12.761  -7.130  1.00  0.00     0.032 C 
ENDBRANCH  23  24
ENDBRANCH  22  23
ENDBRANCH  21  22
ENDBRANCH  20  21
ENDBRANCH   1  10
BRANCH   8  32
HETATM   32  S1  UNL     1      50.508  20.500  -9.897  1.00  0.00    -0.124 SA
BRANCH  32  33
HETATM   33  C11 UNL     1      50.307  20.512  -8.129  1.00  0.00     0.106 C 
BRANCH  33  34
HETATM   34  C12 UNL     1      50.997  19.448  -7.364  1.00  0.00     0.240 C 
BRANCH  34  35
HETATM   35  N7  UNL     1      51.229  19.806  -5.984  1.00  0.00    -0.079 N 
ATOM     36  H73 UNL     1      52.228  19.892  -5.793  1.00  0.00     0.274 HD
ATOM     37  H72 UNL     1      50.942  20.768  -5.803  1.00  0.00     0.274 HD
ATOM     38  H71 UNL     1      50.787  19.165  -5.326  1.00  0.00     0.274 HD
ENDBRANCH  34  35
ENDBRANCH  33  34
ENDBRANCH  32  33
ENDBRANCH   8  32
BRANCH   6  39
HETATM   39  C6  UNL     1      49.853  20.462 -14.294  1.00  0.00     0.123 C 
BRANCH  39  40
HETATM   40  C7  UNL     1      49.934  21.813 -14.920  1.00  0.00     0.039 C 
BRANCH  40  41
HETATM   41  C8  UNL     1      51.296  22.398 -15.014  1.00  0.00     0.123 C 
BRANCH  41  42
HETATM   42  N4  UNL     1      51.513  23.638 -14.334  1.00  0.00    -0.365 N 
HETATM   43  C9  UNL     1      52.125  23.708 -13.038  1.00  0.00     0.181 C 
HETATM   44  N5  UNL     1      52.351  24.828 -12.458  1.00  0.00    -0.374 N 
HETATM   45  N6  UNL     1      52.482  22.504 -12.377  1.00  0.00    -0.064 NA
ATOM     46  H52 UNL     1      52.094  25.693 -12.933  1.00  0.00     0.158 HD
ATOM     47  H51 UNL     1      52.785  24.878 -11.537  1.00  0.00     0.158 HD
ATOM     48  H4  UNL     1      51.222  24.504 -14.787  1.00  0.00     0.162 HD
ENDBRANCH  41  42
ENDBRANCH  40  41
ENDBRANCH  39  40
ENDBRANCH   6  39
TORSDOF 13
ENDMDL
MODEL 2
REMARK VINA RESULT: -8.678735997      3.004      3.786
REMARK  13 active torsions:
REMARK  status: ('A' for Active; 'I' for Inactive)
REMARK    1  A    between atoms: C2_3  and  C3_4 
REMARK    2  A    between atoms: N3_9  and  C6_11 
REMARK    3  A    between atoms: C6_11  and  C7_12 
REMARK    4  A    between atoms: C7_12  and  C8_13 
REMARK    5  A    between atoms: C8_13  and  N4_14 
REMARK       I    between atoms: N4_14  and  C9_16 
REMARK    6  A    between atoms: C10_21  and  S1_22 
REMARK    7  A    between atoms: S1_22  and  C11_23 
REMARK    8  A    between atoms: C11_23  and  C12_24 
REMARK    9  A    between atoms: C12_24  and  N7_25 
REMARK   10  A    between atoms: C17_35  and  O1_36 
REMARK   11  A    between atoms: O1_36  and  C18_37 
REMARK   12  A    between atoms: C18_37  and  C19_38 
REMARK   13  A    between atoms: C19_38  and  C20_39 
ROOT
HETATM    1  C3  UNL     1      47.507  19.661 -10.799  1.00  0.00     0.025 A 
HETATM    2  C4  UNL     1      48.073  20.313 -11.895  1.00  0.00     0.105 A 
HETATM    3  N2  UNL     1      49.290  20.873 -11.869  1.00  0.00    -0.351 N 
ATOM      4  H2  UNL     1      49.638  21.331 -12.711  1.00  0.00     0.166 HD
HETATM    5  C5  UNL     1      50.069  20.852 -10.775  1.00  0.00     0.118 A 
HETATM    6  N3  UNL     1      51.265  21.384 -10.782  1.00  0.00    -0.375 N 
ATOM      7  H3  UNL     1      51.840  21.357  -9.940  1.00  0.00     0.161 HD
HETATM    8  C10 UNL     1      49.557  20.228  -9.676  1.00  0.00     0.045 A 
HETATM    9  C13 UNL     1      48.282  19.633  -9.681  1.00  0.00     0.039 A 
ENDROOT
BRANCH   1  10
HETATM   10  C2  UNL     1      46.160  19.098 -10.936  1.00  0.00     0.120 A 
HETATM   11  N1  UNL     1      45.731  17.909 -11.361  1.00  0.00    -0.335 N 
HETATM   12  C1  UNL     1      46.514  16.806 -11.823  1.00  0.00     0.158 C 
HETATM   13  C26 UNL     1      44.360  17.872 -11.312  1.00  0.00     0.065 A 
HETATM   14  C14 UNL     1      43.929  19.085 -10.839  1.00  0.00     0.061 A 
HETATM   15  C25 UNL     1      43.444  16.900 -11.631  1.00  0.00     0.068 A 
HETATM   16  N8  UNL     1      45.021  19.800 -10.622  1.00  0.00    -0.340 N 
HETATM   17  C15 UNL     1      42.560  19.310 -10.690  1.00  0.00     0.035 A 
ATOM     18  H8  UNL     1      45.018  20.755 -10.266  1.00  0.00     0.167 HD
HETATM   19  C16 UNL     1      41.622  18.356 -11.002  1.00  0.00     0.039 A 
HETATM   20  C17 UNL     1      42.072  17.141 -11.476  1.00  0.00     0.071 A 
BRANCH  20  21
HETATM   21  O1  UNL     1      41.190  16.136 -11.810  1.00  0.00    -0.351 OA
BRANCH  21  22
HETATM   22  C18 UNL     1      40.940  14.994 -11.042  1.00  0.00     0.176 C 
BRANCH  22  23
HETATM   23  C19 UNL     1      41.574  13.755 -11.616  1.00  0.00     0.031 C 
BRANCH  23  24
HETATM   24  C20 UNL     1      41.504  13.705 -13.123  1.00  0.00    -0.009 C 
HETATM   25  C21 UNL     1      42.941  13.571 -13.642  1.00  0.00     0.032 C 
HETATM   26  C22 UNL     1      42.865  13.830 -15.132  1.00  0.00     0.232 C 
HETATM   27  N9  UNL     1      41.817  13.051 -15.757  1.00  0.00    -0.075 N 
HETATM   28  C23 UNL     1      41.369  11.968 -14.900  1.00  0.00     0.232 C 
ATOM     29  H92 UNL     1      41.037  13.642 -16.047  1.00  0.00     0.277 HD
ATOM     30  H91 UNL     1      42.105  12.707 -16.672  1.00  0.00     0.277 HD
HETATM   31  C24 UNL     1      40.768  12.488 -13.607  1.00  0.00     0.032 C 
ENDBRANCH  23  24
ENDBRANCH  22  23
ENDBRANCH  21  22
ENDBRANCH  20  21
ENDBRANCH   1  10
BRANCH   8  32
HETATM   32  S1  UNL     1      50.469  20.134  -8.157  1.00  0.00    -0.124 SA
BRANCH  32  33
HETATM   33  C11 UNL     1      50.617  18.479  -7.517  1.00  0.00     0.106 C 
BRANCH  33  34
HETATM   34  C12 UNL     1      51.445  18.297  -6.303  1.00  0.00     0.240 C 
BRANCH  34  35
HETATM   35  N7  UNL     1      51.565  19.503  -5.516  1.00  0.00    -0.079 N 
ATOM     36  H73 UNL     1      52.478  19.936  -5.651  1.00  0.00     0.274 HD
ATOM     37  H72 UNL     1      50.972  20.244  -5.892  1.00  0.00     0.274 HD
ATOM     38  H71 UNL     1      51.375  19.353  -4.526  1.00  0.00     0.274 HD
ENDBRANCH  34  35
ENDBRANCH  33  34
ENDBRANCH  32  33
ENDBRANCH   8  32
BRANCH   6  39
HETATM   39  C6  UNL     1      51.767  22.003 -11.976  1.00  0.00     0.123 C 
BRANCH  39  40
HETATM   40  C7  UNL     1      51.302  23.401 -12.208  1.00  0.00     0.039 C 
BRANCH  40  41
HETATM   41  C8  UNL     1      50.763  23.682 -13.563  1.00  0.00     0.123 C 
BRANCH  41  42
HETATM   42  N4  UNL     1      49.399  24.108 -13.638  1.00  0.00    -0.365 N 
HETATM   43  C9  UNL     1      48.368  23.291 -14.212  1.00  0.00     0.181 C 
HETATM   44  N5  UNL     1      47.143  23.667 -14.235  1.00  0.00    -0.374 N 
HETATM   45  N6  UNL     1      48.715  22.036 -14.775  1.00  0.00    -0.064 NA
ATOM     46  H52 UNL     1      46.894  24.569 -13.829  1.00  0.00     0.158 HD
ATOM     47  H51 UNL     1      46.410  23.087 -14.642  1.00  0.00     0.158 HD
ATOM     48  H4  UNL     1      49.150  25.026 -13.269  1.00  0.00     0.162 HD
ENDBRANCH  41  42
ENDBRANCH  40  41
ENDBRANCH  39  40
ENDBRANCH   6  39
TORSDOF 13
ENDMDL
MODEL 3
REMARK VINA RESULT: -8.636172792      4.927      7.957
REMARK  13 active torsions:
REMARK  status: ('A' for Active; 'I' for Inactive)
REMARK    1  A    between atoms: C2_3  and  C3_4 
REMARK    2  A    between atoms: N3_9  and  C6_11 
REMARK    3  A    between atoms: C6_11  and  C7_12 
REMARK    4  A    between atoms: C7_12  and  C8_13 
REMARK    5  A    between atoms: C8_13  and  N4_14 
REMARK       I    between atoms: N4_14  and  C9_16 
REMARK    6  A    between atoms: C10_21  and  S1_22 
REMARK    7  A    between atoms: S1_22  and  C11_23 
REMARK    8  A    between atoms: C11_23  and  C12_24 
REMARK    9  A    between atoms: C12_24  and  N7_25 
REMARK   10  A    between atoms: C17_35  and  O1_36 
REMARK   11  A    between atoms: O1_36  and  C18_37 
REMARK   12  A    between atoms: C18_37  and  C19_38 
REMARK   13  A    between atoms: C19_38  and  C20_39 
ROOT
HETATM    1  C3  UNL     1      49.399  19.724 -10.157  1.00  0.00     0.025 A 
HETATM    2  C4  UNL     1      50.169  20.532 -10.994  1.00  0.00     0.105 A 
HETATM    3  N2  UNL     1      49.678  21.140 -12.082  1.00  0.00    -0.351 N 
ATOM      4  H2  UNL     1      50.302  21.717 -12.646  1.00  0.00     0.166 HD
HETATM    5  C5  UNL     1      48.394  21.017 -12.458  1.00  0.00     0.118 A 
HETATM    6  N3  UNL     1      47.931  21.643 -13.511  1.00  0.00    -0.375 N 
ATOM      7  H3  UNL     1      46.953  21.536 -13.778  1.00  0.00     0.161 HD
HETATM    8  C10 UNL     1      47.603  20.234 -11.671  1.00  0.00     0.045 A 
HETATM    9  C13 UNL     1      48.097  19.587 -10.523  1.00  0.00     0.039 A 
ENDROOT
BRANCH   1  10
HETATM   10  C2  UNL     1      50.046  19.095  -9.000  1.00  0.00     0.120 A 
HETATM   11  N1  UNL     1      50.185  17.818  -8.643  1.00  0.00    -0.335 N 
HETATM   12  C1  UNL     1      49.714  16.656  -9.330  1.00  0.00     0.158 C 
HETATM   13  C26 UNL     1      50.867  17.746  -7.454  1.00  0.00     0.065 A 
HETATM   14  C14 UNL     1      51.157  19.028  -7.064  1.00  0.00     0.061 A 
HETATM   15  C25 UNL     1      51.265  16.689  -6.672  1.00  0.00     0.068 A 
HETATM   16  N8  UNL     1      50.657  19.816  -8.002  1.00  0.00    -0.340 N 
HETATM   17  C15 UNL     1      51.856  19.236  -5.875  1.00  0.00     0.035 A 
ATOM     18  H8  UNL     1      50.718  20.833  -7.987  1.00  0.00     0.167 HD
HETATM   19  C16 UNL     1      52.266  18.198  -5.074  1.00  0.00     0.039 A 
HETATM   20  C17 UNL     1      51.966  16.914  -5.480  1.00  0.00     0.071 A 
BRANCH  20  21
HETATM   21  O1  UNL     1      52.344  15.822  -4.729  1.00  0.00    -0.351 OA
BRANCH  21  22
HETATM   22  C18 UNL     1      53.383  15.808  -3.792  1.00  0.00     0.176 C 
BRANCH  22  23
HETATM   23  C19 UNL     1      52.897  15.576  -2.386  1.00  0.00     0.031 C 
BRANCH  23  24
HETATM   24  C20 UNL     1      53.181  16.741  -1.468  1.00  0.00    -0.009 C 
HETATM   25  C21 UNL     1      54.040  17.740  -2.253  1.00  0.00     0.032 C 
HETATM   26  C22 UNL     1      54.555  18.729  -1.229  1.00  0.00     0.232 C 
HETATM   27  N9  UNL     1      53.490  19.229  -0.386  1.00  0.00    -0.075 N 
HETATM   28  C23 UNL     1      52.182  18.962  -0.958  1.00  0.00     0.232 C 
ATOM     29  H92 UNL     1      53.563  18.861   0.563  1.00  0.00     0.277 HD
ATOM     30  H91 UNL     1      53.611  20.221  -0.182  1.00  0.00     0.277 HD
HETATM   31  C24 UNL     1      51.923  17.473  -1.092  1.00  0.00     0.032 C 
ENDBRANCH  23  24
ENDBRANCH  22  23
ENDBRANCH  21  22
ENDBRANCH  20  21
ENDBRANCH   1  10
BRANCH   8  32
HETATM   32  S1  UNL     1      45.890  19.973 -12.051  1.00  0.00    -0.124 SA
BRANCH  32  33
HETATM   33  C11 UNL     1      45.618  18.721 -13.288  1.00  0.00     0.106 C 
BRANCH  33  34
HETATM   34  C12 UNL     1      46.780  18.330 -14.118  1.00  0.00     0.240 C 
BRANCH  34  35
HETATM   35  N7  UNL     1      46.577  18.580 -15.526  1.00  0.00    -0.079 N 
ATOM     36  H73 UNL     1      46.047  17.824 -15.958  1.00  0.00     0.274 HD
ATOM     37  H72 UNL     1      45.920  19.347 -15.669  1.00  0.00     0.274 HD
ATOM     38  H71 UNL     1      47.447  18.749 -16.030  1.00  0.00     0.274 HD
ENDBRANCH  34  35
ENDBRANCH  33  34
ENDBRANCH  32  33
ENDBRANCH   8  32
BRANCH   6  39
HETATM   39  C6  UNL     1      48.802  22.479 -14.288  1.00  0.00     0.123 C 
BRANCH  39  40
HETATM   40  C7  UNL     1      49.853  21.755 -15.060  1.00  0.00     0.039 C 
BRANCH  40  41
HETATM   41  C8  UNL     1      51.202  22.375 -15.047  1.00  0.00     0.123 C 
BRANCH  41  42
HETATM   42  N4  UNL     1      51.340  23.602 -14.323  1.00  0.00    -0.365 N 
HETATM   43  C9  UNL     1      52.034  23.682 -13.070  1.00  0.00     0.181 C 
HETATM   44  N5  UNL     1      52.187  24.794 -12.452  1.00  0.00    -0.374 N 
HETATM   45  N6  UNL     1      52.560  22.496 -12.494  1.00  0.00    -0.064 NA
ATOM     46  H52 UNL     1      51.809  25.646 -12.866  1.00  0.00     0.158 HD
ATOM     47  H51 UNL     1      52.679  24.852 -11.562  1.00  0.00     0.158 HD
ATOM     48  H4  UNL     1      50.930  24.451 -14.713  1.00  0.00     0.162 HD
ENDBRANCH  41  42
ENDBRANCH  40  41
ENDBRANCH  39  40
ENDBRANCH   6  39
TORSDOF 13
ENDMDL
MODEL 4
REMARK VINA RESULT: -8.541219973      4.732      7.876
REMARK  13 active torsions:
REMARK  status: ('A' for Active; 'I' for Inactive)
REMARK    1  A    between atoms: C2_3  and  C3_4 
REMARK    2  A    between atoms: N3_9  and  C6_11 
REMARK    3  A    between atoms: C6_11  and  C7_12 
REMARK    4  A    between atoms: C7_12  and  C8_13 
REMARK    5  A    between atoms: C8_13  and  N4_14 
REMARK       I    between atoms: N4_14  and  C9_16 
REMARK    6  A    between atoms: C10_21  and  S1_22 
REMARK    7  A    between atoms: S1_22  and  C11_23 
REMARK    8  A    between atoms: C11_23  and  C12_24 
REMARK    9  A    between atoms: C12_24  and  N7_25 
REMARK   10  A    between atoms: C17_35  and  O1_36 
REMARK   11  A    between atoms: O1_36  and  C18_37 
REMARK   12  A    between atoms: C18_37  and  C19_38 
REMARK   13  A    between atoms: C19_38  and  C20_39 
ROOT
HETATM    1  C3  UNL     1      49.574  19.245 -10.595  1.00  0.00     0.025 A 
HETATM    2  C4  UNL     1      50.264  20.281 -11.225  1.00  0.00     0.105 A 
HETATM    3  N2  UNL     1      49.852  20.851 -12.365  1.00  0.00    -0.351 N 
ATOM      4  H2  UNL     1      50.409  21.605 -12.767  1.00  0.00     0.166 HD
HETATM    5  C5  UNL     1      48.733  20.465 -13.000  1.00  0.00     0.118 A 
HETATM    6  N3  UNL     1      48.337  21.055 -14.099  1.00  0.00    -0.375 N 
ATOM      7  H3  UNL     1      47.483  20.746 -14.565  1.00  0.00     0.161 HD
HETATM    8  C10 UNL     1      48.025  19.453 -12.422  1.00  0.00     0.045 A 
HETATM    9  C13 UNL     1      48.439  18.841 -11.224  1.00  0.00     0.039 A 
ENDROOT
BRANCH   1  10
HETATM   10  C2  UNL     1      50.127  18.686  -9.356  1.00  0.00     0.120 A 
HETATM   11  N1  UNL     1      50.154  17.443  -8.875  1.00  0.00    -0.335 N 
HETATM   12  C1  UNL     1      49.620  16.258  -9.471  1.00  0.00     0.158 C 
HETATM   13  C26 UNL     1      50.782  17.437  -7.655  1.00  0.00     0.065 A 
HETATM   14  C14 UNL     1      51.155  18.726  -7.375  1.00  0.00     0.061 A 
HETATM   15  C25 UNL     1      51.068  16.435  -6.761  1.00  0.00     0.068 A 
HETATM   16  N8  UNL     1      50.753  19.453  -8.404  1.00  0.00    -0.340 N 
HETATM   17  C15 UNL     1      51.823  18.997  -6.180  1.00  0.00     0.035 A 
ATOM     18  H8  UNL     1      50.891  20.461  -8.482  1.00  0.00     0.167 HD
HETATM   19  C16 UNL     1      52.121  18.014  -5.267  1.00  0.00     0.039 A 
HETATM   20  C17 UNL     1      51.738  16.722  -5.564  1.00  0.00     0.071 A 
BRANCH  20  21
HETATM   21  O1  UNL     1      52.003  15.684  -4.698  1.00  0.00    -0.351 OA
BRANCH  21  22
HETATM   22  C18 UNL     1      53.225  15.460  -4.056  1.00  0.00     0.176 C 
BRANCH  22  23
HETATM   23  C19 UNL     1      53.175  15.764  -2.583  1.00  0.00     0.031 C 
BRANCH  23  24
HETATM   24  C20 UNL     1      53.031  17.239  -2.294  1.00  0.00    -0.009 C 
HETATM   25  C21 UNL     1      52.427  17.372  -0.890  1.00  0.00     0.032 C 
HETATM   26  C22 UNL     1      52.017  18.824  -0.757  1.00  0.00     0.232 C 
HETATM   27  N9  UNL     1      53.085  19.719  -1.150  1.00  0.00    -0.075 N 
HETATM   28  C23 UNL     1      54.365  19.037  -1.206  1.00  0.00     0.232 C 
ATOM     29  H92 UNL     1      52.873  20.185  -2.033  1.00  0.00     0.277 HD
ATOM     30  H91 UNL     1      53.126  20.538  -0.544  1.00  0.00     0.277 HD
HETATM   31  C24 UNL     1      54.365  17.930  -2.245  1.00  0.00     0.032 C 
ENDBRANCH  23  24
ENDBRANCH  22  23
ENDBRANCH  21  22
ENDBRANCH  20  21
ENDBRANCH   1  10
BRANCH   8  32
HETATM   32  S1  UNL     1      46.533  18.832 -13.154  1.00  0.00    -0.124 SA
BRANCH  32  33
HETATM   33  C11 UNL     1      45.053  19.545 -12.467  1.00  0.00     0.106 C 
BRANCH  33  34
HETATM   34  C12 UNL     1      45.012  21.020 -12.337  1.00  0.00     0.240 C 
BRANCH  34  35
HETATM   35  N7  UNL     1      44.980  21.697 -13.612  1.00  0.00    -0.079 N 
ATOM     36  H73 UNL     1      44.247  21.314 -14.210  1.00  0.00     0.274 HD
ATOM     37  H72 UNL     1      44.629  22.650 -13.510  1.00  0.00     0.274 HD
ATOM     38  H71 UNL     1      45.880  21.690 -14.090  1.00  0.00     0.274 HD
ENDBRANCH  34  35
ENDBRANCH  33  34
ENDBRANCH  32  33
ENDBRANCH   8  32
BRANCH   6  39
HETATM   39  C6  UNL     1      49.104  22.136 -14.649  1.00  0.00     0.123 C 
BRANCH  39  40
HETATM   40  C7  UNL     1      50.297  21.726 -15.445  1.00  0.00     0.039 C 
BRANCH  40  41
HETATM   41  C8  UNL     1      51.557  22.447 -15.133  1.00  0.00     0.123 C 
BRANCH  41  42
HETATM   42  N4  UNL     1      51.444  23.626 -14.331  1.00  0.00    -0.365 N 
HETATM   43  C9  UNL     1      51.975  23.706 -13.000  1.00  0.00     0.181 C 
HETATM   44  N5  UNL     1      51.903  24.782 -12.308  1.00  0.00    -0.374 N 
HETATM   45  N6  UNL     1      52.592  22.561 -12.433  1.00  0.00    -0.064 NA
ATOM     46  H52 UNL     1      51.460  25.605 -12.717  1.00  0.00     0.158 HD
ATOM     47  H51 UNL     1      52.281  24.840 -11.363  1.00  0.00     0.158 HD
ATOM     48  H4  UNL     1      50.966  24.440 -14.719  1.00  0.00     0.162 HD
ENDBRANCH  41  42
ENDBRANCH  40  41
ENDBRANCH  39  40
ENDBRANCH   6  39
TORSDOF 13
ENDMDL
MODEL 5
REMARK VINA RESULT: -8.451886153      2.343      3.311
REMARK  13 active torsions:
REMARK  status: ('A' for Active; 'I' for Inactive)
REMARK    1  A    between atoms: C2_3  and  C3_4 
REMARK    2  A    between atoms: N3_9  and  C6_11 
REMARK    3  A    between atoms: C6_11  and  C7_12 
REMARK    4  A    between atoms: C7_12  and  C8_13 
REMARK    5  A    between atoms: C8_13  and  N4_14 
REMARK       I    between atoms: N4_14  and  C9_16 
REMARK    6  A    between atoms: C10_21  and  S1_22 
REMARK    7  A    between atoms: S1_22  and  C11_23 
REMARK    8  A    between atoms: C11_23  and  C12_24 
REMARK    9  A    between atoms: C12_24  and  N7_25 
REMARK   10  A    between atoms: C17_35  and  O1_36 
REMARK   11  A    between atoms: O1_36  and  C18_37 
REMARK   12  A    between atoms: C18_37  and  C19_38 
REMARK   13  A    between atoms: C19_38  and  C20_39 
ROOT
HETATM    1  C3  UNL     1      48.134  18.828 -11.019  1.00  0.00     0.025 A 
HETATM    2  C4  UNL     1      48.664  19.513 -12.112  1.00  0.00     0.105 A 
HETATM    3  N2  UNL     1      49.699  20.359 -12.017  1.00  0.00    -0.351 N 
ATOM      4  H2  UNL     1      50.033  20.823 -12.861  1.00  0.00     0.166 HD
HETATM    5  C5  UNL     1      50.311  20.620 -10.850  1.00  0.00     0.118 A 
HETATM    6  N3  UNL     1      51.337  21.431 -10.786  1.00  0.00    -0.375 N 
ATOM      7  H3  UNL     1      51.788  21.614  -9.890  1.00  0.00     0.161 HD
HETATM    8  C10 UNL     1      49.825  19.975  -9.751  1.00  0.00     0.045 A 
HETATM    9  C13 UNL     1      48.741  19.081  -9.829  1.00  0.00     0.039 A 
ENDROOT
BRANCH   1  10
HETATM   10  C2  UNL     1      46.989  17.937 -11.237  1.00  0.00     0.120 A 
HETATM   11  N1  UNL     1      46.725  16.704 -10.803  1.00  0.00    -0.335 N 
HETATM   12  C1  UNL     1      47.533  15.876  -9.964  1.00  0.00     0.158 C 
HETATM   13  C26 UNL     1      45.514  16.292 -11.302  1.00  0.00     0.065 A 
HETATM   14  C14 UNL     1      45.015  17.311 -12.072  1.00  0.00     0.061 A 
HETATM   15  C25 UNL     1      44.796  15.131 -11.159  1.00  0.00     0.068 A 
HETATM   16  N8  UNL     1      45.913  18.282 -12.019  1.00  0.00    -0.340 N 
HETATM   17  C15 UNL     1      43.779  17.147 -12.699  1.00  0.00     0.035 A 
ATOM     18  H8  UNL     1      45.817  19.176 -12.499  1.00  0.00     0.167 HD
HETATM   19  C16 UNL     1      43.040  15.996 -12.574  1.00  0.00     0.039 A 
HETATM   20  C17 UNL     1      43.557  14.981 -11.795  1.00  0.00     0.071 A 
BRANCH  20  21
HETATM   21  O1  UNL     1      42.873  13.797 -11.623  1.00  0.00    -0.351 OA
BRANCH  21  22
HETATM   22  C18 UNL     1      42.334  13.344 -10.414  1.00  0.00     0.176 C 
BRANCH  22  23
HETATM   23  C19 UNL     1      41.057  14.049 -10.044  1.00  0.00     0.031 C 
BRANCH  23  24
HETATM   24  C20 UNL     1      41.129  14.724  -8.695  1.00  0.00    -0.009 C 
HETATM   25  C21 UNL     1      41.879  13.775  -7.751  1.00  0.00     0.032 C 
HETATM   26  C22 UNL     1      41.669  14.332  -6.359  1.00  0.00     0.232 C 
HETATM   27  N9  UNL     1      41.954  15.750  -6.302  1.00  0.00    -0.075 N 
HETATM   28  C23 UNL     1      42.713  16.192  -7.459  1.00  0.00     0.232 C 
ATOM     29  H92 UNL     1      41.101  16.297  -6.186  1.00  0.00     0.277 HD
ATOM     30  H91 UNL     1      42.423  16.001  -5.432  1.00  0.00     0.277 HD
HETATM   31  C24 UNL     1      41.938  15.989  -8.748  1.00  0.00     0.032 C 
ENDBRANCH  23  24
ENDBRANCH  22  23
ENDBRANCH  21  22
ENDBRANCH  20  21
ENDBRANCH   1  10
BRANCH   8  32
HETATM   32  S1  UNL     1      50.529  20.229  -8.143  1.00  0.00    -0.124 SA
BRANCH  32  33
HETATM   33  C11 UNL     1      50.708  18.731  -7.198  1.00  0.00     0.106 C 
BRANCH  33  34
HETATM   34  C12 UNL     1      51.911  18.612  -6.343  1.00  0.00     0.240 C 
BRANCH  34  35
HETATM   35  N7  UNL     1      51.860  19.464  -5.177  1.00  0.00    -0.079 N 
ATOM     36  H73 UNL     1      51.975  20.444  -5.437  1.00  0.00     0.274 HD
ATOM     37  H72 UNL     1      50.915  19.503  -4.795  1.00  0.00     0.274 HD
ATOM     38  H71 UNL     1      52.532  19.197  -4.459  1.00  0.00     0.274 HD
ENDBRANCH  34  35
ENDBRANCH  33  34
ENDBRANCH  32  33
ENDBRANCH   8  32
BRANCH   6  39
HETATM   39  C6  UNL     1      51.827  22.061 -11.979  1.00  0.00     0.123 C 
BRANCH  39  40
HETATM   40  C7  UNL     1      51.285  23.425 -12.244  1.00  0.00     0.039 C 
BRANCH  40  41
HETATM   41  C8  UNL     1      50.723  23.642 -13.601  1.00  0.00     0.123 C 
BRANCH  41  42
HETATM   42  N4  UNL     1      49.361  24.074 -13.673  1.00  0.00    -0.365 N 
HETATM   43  C9  UNL     1      48.307  23.226 -14.151  1.00  0.00     0.181 C 
HETATM   44  N5  UNL     1      47.086  23.612 -14.171  1.00  0.00    -0.374 N 
HETATM   45  N6  UNL     1      48.628  21.926 -14.622  1.00  0.00    -0.064 NA
ATOM     46  H52 UNL     1      46.856  24.546 -13.833  1.00  0.00     0.158 HD
ATOM     47  H51 UNL     1      46.337  23.009 -14.511  1.00  0.00     0.158 HD
ATOM     48  H4  UNL     1      49.131  25.022 -13.373  1.00  0.00     0.162 HD
ENDBRANCH  41  42
ENDBRANCH  40  41
ENDBRANCH  39  40
ENDBRANCH   6  39
TORSDOF 13
ENDMDL
