MODEL 1
REMARK VINA RESULT: -9.735563301      0.000      0.000
REMARK  17 active torsions:
REMARK  status: ('A' for Active; 'I' for Inactive)
REMARK    1  A    between atoms: C2_2  and  C3_3 
REMARK    2  A    between atoms: C3_3  and  C4_4 
REMARK    3  A    between atoms: C4_4  and  N1_5 
REMARK    4  A    between atoms: N1_5  and  C5_6 
REMARK    5  A    between atoms: N1_5  and  C8_9 
REMARK    6  A    between atoms: C5_6  and  C6_7 
REMARK    7  A    between atoms: C8_9  and  C9_10 
REMARK    8  A    between atoms: C9_10  and  N2_11 
REMARK    9  A    between atoms: N2_11  and  C10_12 
REMARK   10  A    between atoms: N2_11  and  C16_25 
REMARK   11  A    between atoms: C10_12  and  C11_13 
REMARK   12  A    between atoms: C11_13  and  N3_14 
REMARK       I    between atoms: N3_14  and  C12_16 
REMARK   13  A    between atoms: C12_16  and  C13_18 
REMARK   14  A    between atoms: C16_25  and  O2_26 
REMARK   15  A    between atoms: C16_25  and  C17_28 
REMARK   16  A    between atoms: C24_38  and  N7_39 
REMARK   17  A    between atoms: C25_44  and  N9_45 
ROOT
HETATM    1  N2  UNL     1      49.522  18.178  -8.060  1.00  0.00    -0.358 N 
ENDROOT
BRANCH   1   2
HETATM    2  C9  UNL     1      48.517  17.532  -9.006  1.00  0.00     0.155 C 
BRANCH   2   3
HETATM    3  C8  UNL     1      47.244  17.283  -8.364  1.00  0.00     0.292 C 
BRANCH   3   4
HETATM    4  N1  UNL     1      46.001  17.674  -8.972  1.00  0.00     0.090 N 
BRANCH   4   5
HETATM    5  C4  UNL     1      46.361  18.471 -10.120  1.00  0.00     0.272 C 
BRANCH   5   6
HETATM    6  C3  UNL     1      45.901  19.839 -10.275  1.00  0.00     0.030 C 
BRANCH   6   7
HETATM    7  C2  UNL     1      45.228  20.369 -11.457  1.00  0.00    -0.003 C 
HETATM    8  C1  UNL     1      46.124  21.114 -12.422  1.00  0.00     0.005 C 
ENDBRANCH   6   7
ENDBRANCH   5   6
ENDBRANCH   4   5
BRANCH   4   9
HETATM    9  C5  UNL     1      44.993  16.744  -9.166  1.00  0.00     0.272 C 
BRANCH   9  10
HETATM   10  C6  UNL     1      43.655  17.023  -8.485  1.00  0.00     0.026 C 
HETATM   11  C7  UNL     1      42.745  17.805  -9.409  1.00  0.00     0.007 C 
ENDBRANCH   9  10
ENDBRANCH   4   9
ENDBRANCH   3   4
ENDBRANCH   2   3
ENDBRANCH   1   2
BRANCH   1  12
HETATM   12  C10 UNL     1      49.782  17.547  -6.816  1.00  0.00     0.144 C 
BRANCH  12  13
HETATM   13  C11 UNL     1      51.190  17.115  -6.554  1.00  0.00     0.143 C 
BRANCH  13  14
HETATM   14  N3  UNL     1      51.549  17.434  -5.191  1.00  0.00    -0.353 N 
HETATM   15  C12 UNL     1      52.272  18.556  -4.770  1.00  0.00     0.285 C 
HETATM   16  O1  UNL     1      52.675  19.421  -5.587  1.00  0.00    -0.264 OA
ATOM     17  H3  UNL     1      51.248  16.780  -4.469  1.00  0.00     0.162 HD
BRANCH  15  18
HETATM   18  C13 UNL     1      52.600  18.793  -3.371  1.00  0.00     0.174 A 
HETATM   19  N4  UNL     1      53.771  19.200  -2.860  1.00  0.00    -0.346 N 
HETATM   20  C14 UNL     1      53.671  19.289  -1.520  1.00  0.00     0.107 A 
ATOM     21  H4  UNL     1      54.609  19.410  -3.403  1.00  0.00     0.167 HD
HETATM   22  C15 UNL     1      52.388  18.924  -1.181  1.00  0.00     0.107 A 
HETATM   23  N5  UNL     1      51.760  18.627  -2.331  1.00  0.00    -0.346 N 
ATOM     24  H5  UNL     1      50.789  18.320  -2.406  1.00  0.00     0.167 HD
ENDBRANCH  15  18
ENDBRANCH  13  14
ENDBRANCH  12  13
ENDBRANCH   1  12
BRANCH   1  25
HETATM   25  C16 UNL     1      50.050  19.366  -8.540  1.00  0.00     0.148 C 
BRANCH  25  26
HETATM   26  O2  UNL     1      50.478  20.202  -7.574  1.00  0.00    -0.346 OA
ATOM     27  H2  UNL     1      50.820  19.760  -6.805  1.00  0.00     0.219 HD
ENDBRANCH  25  26
BRANCH  25  28
HETATM   28  C17 UNL     1      50.261  19.947  -9.833  1.00  0.00     0.017 A 
HETATM   29  C18 UNL     1      49.562  19.450 -10.955  1.00  0.00     0.017 A 
HETATM   30  C19 UNL     1      49.722  19.991 -12.210  1.00  0.00     0.016 A 
HETATM   31  C20 UNL     1      50.576  21.043 -12.417  1.00  0.00     0.016 A 
HETATM   32  C21 UNL     1      51.283  21.569 -11.364  1.00  0.00     0.090 A 
HETATM   33  C26 UNL     1      50.955  21.801 -13.529  1.00  0.00     0.073 A 
HETATM   34  C22 UNL     1      51.106  21.001 -10.090  1.00  0.00     0.054 A 
HETATM   35  O3  UNL     1      52.031  22.558 -11.777  1.00  0.00    -0.291 OA
HETATM   36  C23 UNL     1      51.873  22.741 -13.075  1.00  0.00     0.178 A 
HETATM   37  N6  UNL     1      52.400  23.607 -13.950  1.00  0.00    -0.169 N 
HETATM   38  C24 UNL     1      52.049  23.568 -15.241  1.00  0.00     0.679 A 
ATOM     39  H6  UNL     1      53.075  24.302 -13.630  1.00  0.00     0.186 HD
HETATM   40  N8  UNL     1      51.176  22.679 -15.701  1.00  0.00    -0.176 N 
HETATM   41  C25 UNL     1      50.595  21.760 -14.856  1.00  0.00     0.130 A 
ATOM     42  H8  UNL     1      50.933  22.677 -16.691  1.00  0.00     0.186 HD
BRANCH  38  43
HETATM   43  N7  UNL     1      52.579  24.427 -16.077  1.00  0.00    -0.234 N 
ATOM     44  H72 UNL     1      53.419  24.934 -15.797  1.00  0.00     0.174 HD
ATOM     45  H71 UNL     1      52.144  24.571 -16.988  1.00  0.00     0.174 HD
ENDBRANCH  38  43
BRANCH  41  46
HETATM   46  N9  UNL     1      49.779  20.942 -15.305  1.00  0.00    -0.384 N 
ATOM     47  H92 UNL     1      50.022  19.972 -15.504  1.00  0.00     0.157 HD
ATOM     48  H91 UNL     1      48.819  21.234 -15.487  1.00  0.00     0.157 HD
ENDBRANCH  41  46
ENDBRANCH  25  28
ENDBRANCH   1  25
TORSDOF 17
ENDMDL
MODEL 2
REMARK VINA RESULT: -9.558446067      0.511      1.752
REMARK  17 active torsions:
REMARK  status: ('A' for Active; 'I' for Inactive)
REMARK    1  A    between atoms: C2_2  and  C3_3 
REMARK    2  A    between atoms: C3_3  and  C4_4 
REMARK    3  A    between atoms: C4_4  and  N1_5 
REMARK    4  A    between atoms: N1_5  and  C5_6 
REMARK    5  A    between atoms: N1_5  and  C8_9 
REMARK    6  A    between atoms: C5_6  and  C6_7 
REMARK    7  A    between atoms: C8_9  and  C9_10 
REMARK    8  A    between atoms: C9_10  and  N2_11 
REMARK    9  A    between atoms: N2_11  and  C10_12 
REMARK   10  A    between atoms: N2_11  and  C16_25 
REMARK   11  A    between atoms: C10_12  and  C11_13 
REMARK   12  A    between atoms: C11_13  and  N3_14 
REMARK       I    between atoms: N3_14  and  C12_16 
REMARK   13  A    between atoms: C12_16  and  C13_18 
REMARK   14  A    between atoms: C16_25  and  O2_26 
REMARK   15  A    between atoms: C16_25  and  C17_28 
REMARK   16  A    between atoms: C24_38  and  N7_39 
REMARK   17  A    between atoms: C25_44  and  N9_45 
ROOT
HETATM    1  N2  UNL     1      49.528  18.202  -8.085  1.00  0.00    -0.358 N 
ENDROOT
BRANCH   1   2
HETATM    2  C9  UNL     1      48.593  17.495  -9.061  1.00  0.00     0.155 C 
BRANCH   2   3
HETATM    3  C8  UNL     1      47.205  17.619  -8.674  1.00  0.00     0.292 C 
BRANCH   3   4
HETATM    4  N1  UNL     1      46.141  17.534  -9.638  1.00  0.00     0.090 N 
BRANCH   4   5
HETATM    5  C4  UNL     1      44.921  17.472  -8.869  1.00  0.00     0.272 C 
BRANCH   5   6
HETATM    6  C3  UNL     1      43.628  17.288  -9.501  1.00  0.00     0.030 C 
BRANCH   6   7
HETATM    7  C2  UNL     1      42.623  18.332  -9.675  1.00  0.00    -0.003 C 
HETATM    8  C1  UNL     1      42.275  18.650 -11.113  1.00  0.00     0.005 C 
ENDBRANCH   6   7
ENDBRANCH   5   6
ENDBRANCH   4   5
BRANCH   4   9
HETATM    9  C5  UNL     1      46.126  18.373 -10.741  1.00  0.00     0.272 C 
BRANCH   9  10
HETATM   10  C6  UNL     1      45.987  19.869 -10.468  1.00  0.00     0.026 C 
HETATM   11  C7  UNL     1      45.833  20.631 -11.768  1.00  0.00     0.007 C 
ENDBRANCH   9  10
ENDBRANCH   4   9
ENDBRANCH   3   4
ENDBRANCH   2   3
ENDBRANCH   1   2
BRANCH   1  12
HETATM   12  C10 UNL     1      49.746  17.615  -6.813  1.00  0.00     0.144 C 
BRANCH  12  13
HETATM   13  C11 UNL     1      51.115  17.079  -6.538  1.00  0.00     0.143 C 
BRANCH  13  14
HETATM   14  N3  UNL     1      51.522  17.451  -5.202  1.00  0.00    -0.353 N 
HETATM   15  C12 UNL     1      52.612  18.263  -4.868  1.00  0.00     0.285 C 
HETATM   16  O1  UNL     1      53.351  18.763  -5.751  1.00  0.00    -0.264 OA
ATOM     17  H3  UNL     1      50.962  17.087  -4.430  1.00  0.00     0.162 HD
BRANCH  15  18
HETATM   18  C13 UNL     1      52.957  18.578  -3.488  1.00  0.00     0.174 A 
HETATM   19  N4  UNL     1      52.148  18.573  -2.418  1.00  0.00    -0.346 N 
HETATM   20  C14 UNL     1      52.847  18.932  -1.325  1.00  0.00     0.107 A 
ATOM     21  H4  UNL     1      51.156  18.335  -2.431  1.00  0.00     0.167 HD
HETATM   22  C15 UNL     1      54.142  19.168  -1.727  1.00  0.00     0.107 A 
HETATM   23  N5  UNL     1      54.177  18.945  -3.052  1.00  0.00    -0.346 N 
ATOM     24  H5  UNL     1      55.005  19.039  -3.639  1.00  0.00     0.167 HD
ENDBRANCH  15  18
ENDBRANCH  13  14
ENDBRANCH  12  13
ENDBRANCH   1  12
BRANCH   1  25
HETATM   25  C16 UNL     1      50.038  19.394  -8.574  1.00  0.00     0.148 C 
BRANCH  25  26
HETATM   26  O2  UNL     1      50.443  20.248  -7.613  1.00  0.00    -0.346 OA
ATOM     27  H2  UNL     1      50.520  21.149  -7.906  1.00  0.00     0.219 HD
ENDBRANCH  25  26
BRANCH  25  28
HETATM   28  C17 UNL     1      50.250  19.965  -9.871  1.00  0.00     0.017 A 
HETATM   29  C18 UNL     1      49.550  19.461 -10.989  1.00  0.00     0.017 A 
HETATM   30  C19 UNL     1      49.711  19.992 -12.249  1.00  0.00     0.016 A 
HETATM   31  C20 UNL     1      50.566  21.043 -12.464  1.00  0.00     0.016 A 
HETATM   32  C21 UNL     1      51.274  21.575 -11.414  1.00  0.00     0.090 A 
HETATM   33  C26 UNL     1      50.946  21.792 -13.580  1.00  0.00     0.073 A 
HETATM   34  C22 UNL     1      51.096  21.017 -10.136  1.00  0.00     0.054 A 
HETATM   35  O3  UNL     1      52.023  22.560 -11.834  1.00  0.00    -0.291 OA
HETATM   36  C23 UNL     1      51.865  22.734 -13.134  1.00  0.00     0.178 A 
HETATM   37  N6  UNL     1      52.393  23.592 -14.015  1.00  0.00    -0.169 N 
HETATM   38  C24 UNL     1      52.042  23.544 -15.305  1.00  0.00     0.679 A 
ATOM     39  H6  UNL     1      53.068  24.289 -13.700  1.00  0.00     0.186 HD
HETATM   40  N8  UNL     1      51.168  22.653 -15.759  1.00  0.00    -0.176 N 
HETATM   41  C25 UNL     1      50.586  21.742 -14.907  1.00  0.00     0.130 A 
ATOM     42  H8  UNL     1      50.925  22.644 -16.749  1.00  0.00     0.186 HD
BRANCH  38  43
HETATM   43  N7  UNL     1      52.573  24.396 -16.148  1.00  0.00    -0.234 N 
ATOM     44  H72 UNL     1      52.437  25.395 -15.991  1.00  0.00     0.174 HD
ATOM     45  H71 UNL     1      53.109  24.047 -16.942  1.00  0.00     0.174 HD
ENDBRANCH  38  43
BRANCH  41  46
HETATM   46  N9  UNL     1      49.768  20.921 -15.351  1.00  0.00    -0.384 N 
ATOM     47  H92 UNL     1      49.784  19.933 -15.097  1.00  0.00     0.157 HD
ATOM     48  H91 UNL     1      49.042  21.230 -15.995  1.00  0.00     0.157 HD
ENDBRANCH  41  46
ENDBRANCH  25  28
ENDBRANCH   1  25
TORSDOF 17
ENDMDL
MODEL 3
REMARK VINA RESULT: -9.456216259      0.947      1.399
REMARK  17 active torsions:
REMARK  status: ('A' for Active; 'I' for Inactive)
REMARK    1  A    between atoms: C2_2  and  C3_3 
REMARK    2  A    between atoms: C3_3  and  C4_4 
REMARK    3  A    between atoms: C4_4  and  N1_5 
REMARK    4  A    between atoms: N1_5  and  C5_6 
REMARK    5  A    between atoms: N1_5  and  C8_9 
REMARK    6  A    between atoms: C5_6  and  C6_7 
REMARK    7  A    between atoms: C8_9  and  C9_10 
REMARK    8  A    between atoms: C9_10  and  N2_11 
REMARK    9  A    between atoms: N2_11  and  C10_12 
REMARK   10  A    between atoms: N2_11  and  C16_25 
REMARK   11  A    between atoms: C10_12  and  C11_13 
REMARK   12  A    between atoms: C11_13  and  N3_14 
REMARK       I    between atoms: N3_14  and  C12_16 
REMARK   13  A    between atoms: C12_16  and  C13_18 
REMARK   14  A    between atoms: C16_25  and  O2_26 
REMARK   15  A    between atoms: C16_25  and  C17_28 
REMARK   16  A    between atoms: C24_38  and  N7_39 
REMARK   17  A    between atoms: C25_44  and  N9_45 
ROOT
HETATM    1  N2  UNL     1      49.512  18.144  -8.135  1.00  0.00    -0.358 N 
ENDROOT
BRANCH   1   2
HETATM    2  C9  UNL     1      48.575  17.439  -9.108  1.00  0.00     0.155 C 
BRANCH   2   3
HETATM    3  C8  UNL     1      47.185  17.745  -8.847  1.00  0.00     0.292 C 
BRANCH   3   4
HETATM    4  N1  UNL     1      46.227  17.874  -9.911  1.00  0.00     0.090 N 
BRANCH   4   5
HETATM    5  C4  UNL     1      46.234  19.271 -10.275  1.00  0.00     0.272 C 
BRANCH   5   6
HETATM    6  C3  UNL     1      45.010  19.982 -10.598  1.00  0.00     0.030 C 
BRANCH   6   7
HETATM    7  C2  UNL     1      44.634  20.444 -11.930  1.00  0.00    -0.003 C 
HETATM    8  C1  UNL     1      45.700  21.234 -12.657  1.00  0.00     0.005 C 
ENDBRANCH   6   7
ENDBRANCH   5   6
ENDBRANCH   4   5
BRANCH   4   9
HETATM    9  C5  UNL     1      46.218  16.970 -10.961  1.00  0.00     0.272 C 
BRANCH   9  10
HETATM   10  C6  UNL     1      46.778  17.456 -12.296  1.00  0.00     0.026 C 
HETATM   11  C7  UNL     1      47.889  16.540 -12.768  1.00  0.00     0.007 C 
ENDBRANCH   9  10
ENDBRANCH   4   9
ENDBRANCH   3   4
ENDBRANCH   2   3
ENDBRANCH   1   2
BRANCH   1  12
HETATM   12  C10 UNL     1      49.766  17.536  -6.879  1.00  0.00     0.144 C 
BRANCH  12  13
HETATM   13  C11 UNL     1      51.191  17.219  -6.554  1.00  0.00     0.143 C 
BRANCH  13  14
HETATM   14  N3  UNL     1      51.470  17.588  -5.185  1.00  0.00    -0.353 N 
HETATM   15  C12 UNL     1      52.606  18.265  -4.728  1.00  0.00     0.285 C 
HETATM   16  O1  UNL     1      53.511  18.632  -5.517  1.00  0.00    -0.264 OA
ATOM     17  H3  UNL     1      50.773  17.330  -4.486  1.00  0.00     0.162 HD
BRANCH  15  18
HETATM   18  C13 UNL     1      52.810  18.587  -3.322  1.00  0.00     0.174 A 
HETATM   19  N4  UNL     1      53.954  18.942  -2.719  1.00  0.00    -0.346 N 
HETATM   20  C14 UNL     1      53.726  19.145  -1.408  1.00  0.00     0.107 A 
ATOM     21  H4  UNL     1      54.857  19.042  -3.182  1.00  0.00     0.167 HD
HETATM   22  C15 UNL     1      52.389  18.909  -1.183  1.00  0.00     0.107 A 
HETATM   23  N5  UNL     1      51.857  18.570  -2.370  1.00  0.00    -0.346 N 
ATOM     24  H5  UNL     1      50.877  18.334  -2.526  1.00  0.00     0.167 HD
ENDBRANCH  15  18
ENDBRANCH  13  14
ENDBRANCH  12  13
ENDBRANCH   1  12
BRANCH   1  25
HETATM   25  C16 UNL     1      49.988  19.358  -8.606  1.00  0.00     0.148 C 
BRANCH  25  26
HETATM   26  O2  UNL     1      50.328  20.225  -7.632  1.00  0.00    -0.346 OA
ATOM     27  H2  UNL     1      50.736  21.022  -7.952  1.00  0.00     0.219 HD
ENDBRANCH  25  26
BRANCH  25  28
HETATM   28  C17 UNL     1      50.216  19.940  -9.895  1.00  0.00     0.017 A 
HETATM   29  C18 UNL     1      49.543  19.434 -11.029  1.00  0.00     0.017 A 
HETATM   30  C19 UNL     1      49.719  19.976 -12.283  1.00  0.00     0.016 A 
HETATM   31  C20 UNL     1      50.564  21.039 -12.475  1.00  0.00     0.016 A 
HETATM   32  C21 UNL     1      51.245  21.574 -11.410  1.00  0.00     0.090 A 
HETATM   33  C26 UNL     1      50.953  21.800 -13.580  1.00  0.00     0.073 A 
HETATM   34  C22 UNL     1      51.051  21.005 -10.138  1.00  0.00     0.054 A 
HETATM   35  O3  UNL     1      51.988  22.572 -11.809  1.00  0.00    -0.291 OA
HETATM   36  C23 UNL     1      51.851  22.752 -13.111  1.00  0.00     0.178 A 
HETATM   37  N6  UNL     1      52.384  23.624 -13.976  1.00  0.00    -0.169 N 
HETATM   38  C24 UNL     1      52.057  23.579 -15.274  1.00  0.00     0.679 A 
ATOM     39  H6  UNL     1      53.043  24.327 -13.645  1.00  0.00     0.186 HD
HETATM   40  N8  UNL     1      51.203  22.679 -15.749  1.00  0.00    -0.176 N 
HETATM   41  C25 UNL     1      50.619  21.754 -14.913  1.00  0.00     0.130 A 
ATOM     42  H8  UNL     1      50.979  22.673 -16.743  1.00  0.00     0.186 HD
BRANCH  38  43
HETATM   43  N7  UNL     1      52.591  24.444 -16.101  1.00  0.00    -0.234 N 
ATOM     44  H72 UNL     1      52.411  25.438 -15.959  1.00  0.00     0.174 HD
ATOM     45  H71 UNL     1      53.174  24.108 -16.867  1.00  0.00     0.174 HD
ENDBRANCH  38  43
BRANCH  41  46
HETATM   46  N9  UNL     1      49.821  20.925 -15.377  1.00  0.00    -0.384 N 
ATOM     47  H92 UNL     1      49.379  21.034 -16.289  1.00  0.00     0.157 HD
ATOM     48  H91 UNL     1      49.589  20.092 -14.837  1.00  0.00     0.157 HD
ENDBRANCH  41  46
ENDBRANCH  25  28
ENDBRANCH   1  25
TORSDOF 17
ENDMDL
MODEL 4
REMARK VINA RESULT: -9.444437957      1.592      2.699
REMARK  17 active torsions:
REMARK  status: ('A' for Active; 'I' for Inactive)
REMARK    1  A    between atoms: C2_2  and  C3_3 
REMARK    2  A    between atoms: C3_3  and  C4_4 
REMARK    3  A    between atoms: C4_4  and  N1_5 
REMARK    4  A    between atoms: N1_5  and  C5_6 
REMARK    5  A    between atoms: N1_5  and  C8_9 
REMARK    6  A    between atoms: C5_6  and  C6_7 
REMARK    7  A    between atoms: C8_9  and  C9_10 
REMARK    8  A    between atoms: C9_10  and  N2_11 
REMARK    9  A    between atoms: N2_11  and  C10_12 
REMARK   10  A    between atoms: N2_11  and  C16_25 
REMARK   11  A    between atoms: C10_12  and  C11_13 
REMARK   12  A    between atoms: C11_13  and  N3_14 
REMARK       I    between atoms: N3_14  and  C12_16 
REMARK   13  A    between atoms: C12_16  and  C13_18 
REMARK   14  A    between atoms: C16_25  and  O2_26 
REMARK   15  A    between atoms: C16_25  and  C17_28 
REMARK   16  A    between atoms: C24_38  and  N7_39 
REMARK   17  A    between atoms: C25_44  and  N9_45 
ROOT
HETATM    1  N2  UNL     1      49.944  17.939  -7.855  1.00  0.00    -0.358 N 
ENDROOT
BRANCH   1   2
HETATM    2  C9  UNL     1      49.145  16.935  -7.031  1.00  0.00     0.155 C 
BRANCH   2   3
HETATM    3  C8  UNL     1      49.337  15.577  -7.490  1.00  0.00     0.292 C 
BRANCH   3   4
HETATM    4  N1  UNL     1      48.267  14.821  -8.083  1.00  0.00     0.090 N 
BRANCH   4   5
HETATM    5  C4  UNL     1      47.056  15.312  -7.470  1.00  0.00     0.272 C 
BRANCH   5   6
HETATM    6  C3  UNL     1      45.865  15.593  -8.251  1.00  0.00     0.030 C 
BRANCH   6   7
HETATM    7  C2  UNL     1      44.878  16.622  -7.937  1.00  0.00    -0.003 C 
HETATM    8  C1  UNL     1      44.533  17.547  -9.083  1.00  0.00     0.005 C 
ENDBRANCH   6   7
ENDBRANCH   5   6
ENDBRANCH   4   5
BRANCH   4   9
HETATM    9  C5  UNL     1      48.222  14.625  -9.454  1.00  0.00     0.272 C 
BRANCH   9  10
HETATM   10  C6  UNL     1      49.435  15.090 -10.257  1.00  0.00     0.026 C 
HETATM   11  C7  UNL     1      49.067  15.268 -11.715  1.00  0.00     0.007 C 
ENDBRANCH   9  10
ENDBRANCH   4   9
ENDBRANCH   3   4
ENDBRANCH   2   3
ENDBRANCH   1   2
BRANCH   1  12
HETATM   12  C10 UNL     1      51.286  18.204  -7.481  1.00  0.00     0.144 C 
BRANCH  12  13
HETATM   13  C11 UNL     1      51.558  19.511  -6.807  1.00  0.00     0.143 C 
BRANCH  13  14
HETATM   14  N3  UNL     1      51.643  19.312  -5.378  1.00  0.00    -0.353 N 
HETATM   15  C12 UNL     1      52.760  18.845  -4.675  1.00  0.00     0.285 C 
HETATM   16  O1  UNL     1      53.832  18.559  -5.264  1.00  0.00    -0.264 OA
ATOM     17  H3  UNL     1      50.811  19.532  -4.830  1.00  0.00     0.162 HD
BRANCH  15  18
HETATM   18  C13 UNL     1      52.752  18.662  -3.230  1.00  0.00     0.174 A 
HETATM   19  N4  UNL     1      51.689  18.613  -2.415  1.00  0.00    -0.346 N 
HETATM   20  C14 UNL     1      52.104  18.442  -1.145  1.00  0.00     0.107 A 
ATOM     21  H4  UNL     1      50.716  18.693  -2.710  1.00  0.00     0.167 HD
HETATM   22  C15 UNL     1      53.479  18.381  -1.169  1.00  0.00     0.107 A 
HETATM   23  N5  UNL     1      53.844  18.520  -2.455  1.00  0.00    -0.346 N 
ATOM     24  H5  UNL     1      54.807  18.517  -2.793  1.00  0.00     0.167 HD
ENDBRANCH  15  18
ENDBRANCH  13  14
ENDBRANCH  12  13
ENDBRANCH   1  12
BRANCH   1  25
HETATM   25  C16 UNL     1      49.217  18.515  -8.884  1.00  0.00     0.148 C 
BRANCH  25  26
HETATM   26  O2  UNL     1      47.882  18.417  -8.730  1.00  0.00    -0.346 OA
ATOM     27  H2  UNL     1      47.544  18.901  -7.984  1.00  0.00     0.219 HD
ENDBRANCH  25  26
BRANCH  25  28
HETATM   28  C17 UNL     1      49.529  19.204 -10.101  1.00  0.00     0.017 A 
HETATM   29  C18 UNL     1      48.864  18.860 -11.299  1.00  0.00     0.017 A 
HETATM   30  C19 UNL     1      49.121  19.508 -12.486  1.00  0.00     0.016 A 
HETATM   31  C20 UNL     1      50.041  20.523 -12.547  1.00  0.00     0.016 A 
HETATM   32  C21 UNL     1      50.719  20.901 -11.414  1.00  0.00     0.090 A 
HETATM   33  C26 UNL     1      50.520  21.360 -13.558  1.00  0.00     0.073 A 
HETATM   34  C22 UNL     1      50.442  20.225 -10.212  1.00  0.00     0.054 A 
HETATM   35  O3  UNL     1      51.541  21.879 -11.690  1.00  0.00    -0.291 OA
HETATM   36  C23 UNL     1      51.463  22.196 -12.970  1.00  0.00     0.178 A 
HETATM   37  N6  UNL     1      52.083  23.108 -13.728  1.00  0.00    -0.169 N 
HETATM   38  C24 UNL     1      51.800  23.214 -15.032  1.00  0.00     0.679 A 
ATOM     39  H6  UNL     1      52.776  23.727 -13.309  1.00  0.00     0.186 HD
HETATM   40  N8  UNL     1      50.905  22.428 -15.620  1.00  0.00    -0.176 N 
HETATM   41  C25 UNL     1      50.230  21.469 -14.898  1.00  0.00     0.130 A 
ATOM     42  H8  UNL     1      50.716  22.536 -16.616  1.00  0.00     0.186 HD
BRANCH  38  43
HETATM   43  N7  UNL     1      52.421  24.116 -15.753  1.00  0.00    -0.234 N 
ATOM     44  H72 UNL     1      52.451  25.079 -15.418  1.00  0.00     0.174 HD
ATOM     45  H71 UNL     1      52.859  23.840 -16.631  1.00  0.00     0.174 HD
ENDBRANCH  38  43
BRANCH  41  46
HETATM   46  N9  UNL     1      49.396  20.747 -15.465  1.00  0.00    -0.384 N 
ATOM     47  H92 UNL     1      49.072  20.920 -16.417  1.00  0.00     0.157 HD
ATOM     48  H91 UNL     1      49.008  19.942 -14.975  1.00  0.00     0.157 HD
ENDBRANCH  41  46
ENDBRANCH  25  28
ENDBRANCH   1  25
TORSDOF 17
ENDMDL
MODEL 5
REMARK VINA RESULT: -9.351696722      1.550      2.097
REMARK  17 active torsions:
REMARK  status: ('A' for Active; 'I' for Inactive)
REMARK    1  A    between atoms: C2_2  and  C3_3 
REMARK    2  A    between atoms: C3_3  and  C4_4 
REMARK    3  A    between atoms: C4_4  and  N1_5 
REMARK    4  A    between atoms: N1_5  and  C5_6 
REMARK    5  A    between atoms: N1_5  and  C8_9 
REMARK    6  A    between atoms: C5_6  and  C6_7 
REMARK    7  A    between atoms: C8_9  and  C9_10 
REMARK    8  A    between atoms: C9_10  and  N2_11 
REMARK    9  A    between atoms: N2_11  and  C10_12 
REMARK   10  A    between atoms: N2_11  and  C16_25 
REMARK   11  A    between atoms: C10_12  and  C11_13 
REMARK   12  A    between atoms: C11_13  and  N3_14 
REMARK       I    between atoms: N3_14  and  C12_16 
REMARK   13  A    between atoms: C12_16  and  C13_18 
REMARK   14  A    between atoms: C16_25  and  O2_26 
REMARK   15  A    between atoms: C16_25  and  C17_28 
REMARK   16  A    between atoms: C24_38  and  N7_39 
REMARK   17  A    between atoms: C25_44  and  N9_45 
ROOT
HETATM    1  N2  UNL     1      49.307  18.183  -8.114  1.00  0.00    -0.358 N 
ENDROOT
BRANCH   1   2
HETATM    2  C9  UNL     1      47.913  17.979  -8.698  1.00  0.00     0.155 C 
BRANCH   2   3
HETATM    3  C8  UNL     1      47.827  16.777  -9.497  1.00  0.00     0.292 C 
BRANCH   3   4
HETATM    4  N1  UNL     1      47.362  16.804 -10.858  1.00  0.00     0.090 N 
BRANCH   4   5
HETATM    5  C4  UNL     1      48.093  15.764 -11.541  1.00  0.00     0.272 C 
BRANCH   5   6
HETATM    6  C3  UNL     1      49.010  16.061 -12.626  1.00  0.00     0.030 C 
BRANCH   6   7
HETATM    7  C2  UNL     1      48.659  16.771 -13.852  1.00  0.00    -0.003 C 
HETATM    8  C1  UNL     1      49.446  16.358 -15.077  1.00  0.00     0.005 C 
ENDBRANCH   6   7
ENDBRANCH   5   6
ENDBRANCH   4   5
BRANCH   4   9
HETATM    9  C5  UNL     1      46.007  16.882 -11.134  1.00  0.00     0.272 C 
BRANCH   9  10
HETATM   10  C6  UNL     1      45.559  17.989 -12.086  1.00  0.00     0.026 C 
HETATM   11  C7  UNL     1      44.963  17.395 -13.345  1.00  0.00     0.007 C 
ENDBRANCH   9  10
ENDBRANCH   4   9
ENDBRANCH   3   4
ENDBRANCH   2   3
ENDBRANCH   1   2
BRANCH   1  12
HETATM   12  C10 UNL     1      49.786  17.243  -7.167  1.00  0.00     0.144 C 
BRANCH  12  13
HETATM   13  C11 UNL     1      51.246  17.286  -6.846  1.00  0.00     0.143 C 
BRANCH  13  14
HETATM   14  N3  UNL     1      51.427  17.643  -5.457  1.00  0.00    -0.353 N 
HETATM   15  C12 UNL     1      52.528  18.315  -4.914  1.00  0.00     0.285 C 
HETATM   16  O1  UNL     1      53.488  18.687  -5.634  1.00  0.00    -0.264 OA
ATOM     17  H3  UNL     1      50.682  17.380  -4.811  1.00  0.00     0.162 HD
BRANCH  15  18
HETATM   18  C13 UNL     1      52.632  18.625  -3.495  1.00  0.00     0.174 A 
HETATM   19  N4  UNL     1      53.691  19.120  -2.838  1.00  0.00    -0.346 N 
HETATM   20  C14 UNL     1      53.388  19.255  -1.533  1.00  0.00     0.107 A 
ATOM     21  H4  UNL     1      54.588  19.357  -3.262  1.00  0.00     0.167 HD
HETATM   22  C15 UNL     1      52.090  18.829  -1.369  1.00  0.00     0.107 A 
HETATM   23  N5  UNL     1      51.656  18.450  -2.583  1.00  0.00    -0.346 N 
ATOM     24  H5  UNL     1      50.725  18.085  -2.784  1.00  0.00     0.167 HD
ENDBRANCH  15  18
ENDBRANCH  13  14
ENDBRANCH  12  13
ENDBRANCH   1  12
BRANCH   1  25
HETATM   25  C16 UNL     1      49.939  19.326  -8.575  1.00  0.00     0.148 C 
BRANCH  25  26
HETATM   26  O2  UNL     1      50.466  20.090  -7.598  1.00  0.00    -0.346 OA
ATOM     27  H2  UNL     1      51.262  20.544  -7.851  1.00  0.00     0.219 HD
ENDBRANCH  25  26
BRANCH  25  28
HETATM   28  C17 UNL     1      50.181  19.919  -9.857  1.00  0.00     0.017 A 
HETATM   29  C18 UNL     1      49.517  19.426 -11.002  1.00  0.00     0.017 A 
HETATM   30  C19 UNL     1      49.707  19.978 -12.248  1.00  0.00     0.016 A 
HETATM   31  C20 UNL     1      50.558  21.039 -12.424  1.00  0.00     0.016 A 
HETATM   32  C21 UNL     1      51.231  21.562 -11.347  1.00  0.00     0.090 A 
HETATM   33  C26 UNL     1      50.961  21.809 -13.518  1.00  0.00     0.073 A 
HETATM   34  C22 UNL     1      51.024  20.982 -10.083  1.00  0.00     0.054 A 
HETATM   35  O3  UNL     1      51.983  22.560 -11.731  1.00  0.00    -0.291 OA
HETATM   36  C23 UNL     1      51.858  22.752 -13.032  1.00  0.00     0.178 A 
HETATM   37  N6  UNL     1      52.403  23.629 -13.885  1.00  0.00    -0.169 N 
HETATM   38  C24 UNL     1      52.087  23.597 -15.186  1.00  0.00     0.679 A 
ATOM     39  H6  UNL     1      53.062  24.326 -13.541  1.00  0.00     0.186 HD
HETATM   40  N8  UNL     1      51.234  22.705 -15.677  1.00  0.00    -0.176 N 
HETATM   41  C25 UNL     1      50.638  21.776 -14.855  1.00  0.00     0.130 A 
ATOM     42  H8  UNL     1      51.018  22.710 -16.673  1.00  0.00     0.186 HD
BRANCH  38  43
HETATM   43  N7  UNL     1      52.633  24.467 -16.001  1.00  0.00    -0.234 N 
ATOM     44  H72 UNL     1      53.272  25.165 -15.620  1.00  0.00     0.174 HD
ATOM     45  H71 UNL     1      52.409  24.430 -16.994  1.00  0.00     0.174 HD
ENDBRANCH  38  43
BRANCH  41  46
HETATM   46  N9  UNL     1      49.841  20.955 -15.333  1.00  0.00    -0.384 N 
ATOM     47  H92 UNL     1      50.085  20.330 -16.101  1.00  0.00     0.157 HD
ATOM     48  H91 UNL     1      48.897  20.886 -14.953  1.00  0.00     0.157 HD
ENDBRANCH  41  46
ENDBRANCH  25  28
ENDBRANCH   1  25
TORSDOF 17
ENDMDL
