MODEL 1
REMARK VINA RESULT: -5.270786507      0.000      0.000
REMARK  1 active torsions:
REMARK  status: ('A' for Active; 'I' for Inactive)
REMARK    1  A    between atoms: O1_1  and  C1_3 
ROOT
HETATM    1  C1  UNL     1      37.101  34.182 -10.066  1.00  0.00     0.183 C 
HETATM    2  C2  UNL     1      37.511  33.409 -11.323  1.00  0.00     0.267 C 
HETATM    3  N1  UNL     1      36.360  32.512 -11.458  1.00  0.00    -0.070 N 
ATOM      4  H11 UNL     1      36.504  31.753 -12.124  1.00  0.00     0.277 HD
ATOM      5  H12 UNL     1      35.561  32.933 -11.932  1.00  0.00     0.277 HD
HETATM    6  C3  UNL     1      36.072  32.063 -10.112  1.00  0.00     0.276 C 
HETATM    7  C4  UNL     1      36.673  33.051  -9.166  1.00  0.00     0.149 C 
HETATM    8  C5  UNL     1      37.932  32.515  -8.493  1.00  0.00     0.075 C 
HETATM    9  C6  UNL     1      37.691  33.055  -7.075  1.00  0.00     0.213 C 
HETATM   10  O2  UNL     1      36.282  32.929  -7.028  1.00  0.00    -0.240 OA
HETATM   11  O3  UNL     1      35.854  33.436  -8.140  1.00  0.00    -0.225 OA
ENDROOT
BRANCH   1  12
HETATM   12  O1  UNL     1      38.205  34.867  -9.599  1.00  0.00    -0.391 OA
ATOM     13  H1  UNL     1      38.829  34.950 -10.311  1.00  0.00     0.210 HD
ENDBRANCH   1  12
TORSDOF 1
ENDMDL
MODEL 2
REMARK VINA RESULT: -5.254470358      1.730      1.960
REMARK  1 active torsions:
REMARK  status: ('A' for Active; 'I' for Inactive)
REMARK    1  A    between atoms: O1_1  and  C1_3 
ROOT
HETATM    1  C1  UNL     1      35.754  33.422  -9.205  1.00  0.00     0.183 C 
HETATM    2  C2  UNL     1      35.539  32.145 -10.022  1.00  0.00     0.267 C 
HETATM    3  N1  UNL     1      35.223  31.202  -8.944  1.00  0.00    -0.070 N 
ATOM      4  H11 UNL     1      35.238  30.225  -9.235  1.00  0.00     0.277 HD
ATOM      5  H12 UNL     1      34.247  31.223  -8.650  1.00  0.00     0.277 HD
HETATM    6  C3  UNL     1      36.160  31.513  -7.886  1.00  0.00     0.276 C 
HETATM    7  C4  UNL     1      36.648  32.908  -8.106  1.00  0.00     0.149 C 
HETATM    8  C5  UNL     1      38.076  32.944  -8.640  1.00  0.00     0.075 C 
HETATM    9  C6  UNL     1      38.607  34.128  -7.818  1.00  0.00     0.213 C 
HETATM   10  O2  UNL     1      37.888  33.904  -6.620  1.00  0.00    -0.240 OA
HETATM   11  O3  UNL     1      36.664  33.695  -6.987  1.00  0.00    -0.225 OA
ENDROOT
BRANCH   1  12
HETATM   12  O1  UNL     1      36.363  34.359 -10.016  1.00  0.00    -0.391 OA
ATOM     13  H1  UNL     1      37.188  34.610  -9.616  1.00  0.00     0.210 HD
ENDBRANCH   1  12
TORSDOF 1
ENDMDL
MODEL 3
REMARK VINA RESULT: -5.248351524      2.519      3.284
REMARK  1 active torsions:
REMARK  status: ('A' for Active; 'I' for Inactive)
REMARK    1  A    between atoms: O1_1  and  C1_3 
ROOT
HETATM    1  C1  UNL     1      38.021  34.750  -6.324  1.00  0.00     0.183 C 
HETATM    2  C2  UNL     1      39.273  35.220  -7.070  1.00  0.00     0.267 C 
HETATM    3  N1  UNL     1      38.782  35.170  -8.451  1.00  0.00    -0.070 N 
ATOM      4  H11 UNL     1      39.517  35.251  -9.153  1.00  0.00     0.277 HD
ATOM      5  H12 UNL     1      38.258  35.998  -8.732  1.00  0.00     0.277 HD
HETATM    6  C3  UNL     1      38.024  33.940  -8.536  1.00  0.00     0.276 C 
HETATM    7  C4  UNL     1      37.635  33.549  -7.148  1.00  0.00     0.149 C 
HETATM    8  C5  UNL     1      38.452  32.370  -6.629  1.00  0.00     0.075 C 
HETATM    9  C6  UNL     1      37.332  31.601  -5.914  1.00  0.00     0.213 C 
HETATM   10  O2  UNL     1      36.265  31.893  -6.797  1.00  0.00    -0.240 OA
HETATM   11  O3  UNL     1      36.328  33.170  -7.002  1.00  0.00    -0.225 OA
ENDROOT
BRANCH   1  12
HETATM   12  O1  UNL     1      38.380  34.436  -5.029  1.00  0.00    -0.391 OA
ATOM     13  H1  UNL     1      39.249  34.051  -5.044  1.00  0.00     0.210 HD
ENDBRANCH   1  12
TORSDOF 1
ENDMDL
MODEL 4
REMARK VINA RESULT: -5.180980518      1.458      1.627
REMARK  1 active torsions:
REMARK  status: ('A' for Active; 'I' for Inactive)
REMARK    1  A    between atoms: O1_1  and  C1_3 
ROOT
HETATM    1  C1  UNL     1      38.035  34.215  -8.385  1.00  0.00     0.183 C 
HETATM    2  C2  UNL     1      38.099  34.250  -9.915  1.00  0.00     0.267 C 
HETATM    3  N1  UNL     1      36.669  34.328 -10.229  1.00  0.00    -0.070 N 
ATOM      4  H11 UNL     1      36.453  34.159 -11.211  1.00  0.00     0.277 HD
ATOM      5  H12 UNL     1      36.288  35.273 -10.186  1.00  0.00     0.277 HD
HETATM    6  C3  UNL     1      36.033  33.398  -9.320  1.00  0.00     0.276 C 
HETATM    7  C4  UNL     1      36.961  33.179  -8.171  1.00  0.00     0.149 C 
HETATM    8  C5  UNL     1      37.640  31.814  -8.227  1.00  0.00     0.075 C 
HETATM    9  C6  UNL     1      37.572  31.453  -6.736  1.00  0.00     0.213 C 
HETATM   10  O2  UNL     1      36.326  32.047  -6.423  1.00  0.00    -0.240 OA
HETATM   11  O3  UNL     1      36.372  33.235  -6.936  1.00  0.00    -0.225 OA
ENDROOT
BRANCH   1  12
HETATM   12  O1  UNL     1      39.272  33.831  -7.907  1.00  0.00    -0.391 OA
ATOM     13  H1  UNL     1      39.787  34.614  -7.749  1.00  0.00     0.210 HD
ENDBRANCH   1  12
TORSDOF 1
ENDMDL
MODEL 5
REMARK VINA RESULT: -5.028488098      3.330      4.002
REMARK  1 active torsions:
REMARK  status: ('A' for Active; 'I' for Inactive)
REMARK    1  A    between atoms: O1_1  and  C1_3 
ROOT
HETATM    1  C1  UNL     1      39.333  32.815  -6.580  1.00  0.00     0.183 C 
HETATM    2  C2  UNL     1      39.682  34.178  -7.184  1.00  0.00     0.267 C 
HETATM    3  N1  UNL     1      39.157  35.063  -6.140  1.00  0.00    -0.070 N 
ATOM      4  H11 UNL     1      39.097  36.042  -6.420  1.00  0.00     0.277 HD
ATOM      5  H12 UNL     1      39.797  35.204  -5.358  1.00  0.00     0.277 HD
HETATM    6  C3  UNL     1      37.887  34.484  -5.759  1.00  0.00     0.276 C 
HETATM    7  C4  UNL     1      37.902  33.047  -6.167  1.00  0.00     0.149 C 
HETATM    8  C5  UNL     1      37.036  32.785  -7.394  1.00  0.00     0.075 C 
HETATM    9  C6  UNL     1      36.408  31.452  -6.962  1.00  0.00     0.213 C 
HETATM   10  O2  UNL     1      36.298  31.701  -5.573  1.00  0.00    -0.240 OA
HETATM   11  O3  UNL     1      37.449  32.174  -5.216  1.00  0.00    -0.225 OA
ENDROOT
BRANCH   1  12
HETATM   12  O1  UNL     1      39.473  31.856  -7.562  1.00  0.00    -0.391 OA
ATOM     13  H1  UNL     1      39.810  32.277  -8.345  1.00  0.00     0.210 HD
ENDBRANCH   1  12
TORSDOF 1
ENDMDL
