MODEL 1
REMARK VINA RESULT: -6.078260597      0.000      0.000
REMARK  5 active torsions:
REMARK  status: ('A' for Active; 'I' for Inactive)
REMARK    1  A    between atoms: C2_4  and  C3_5 
REMARK    2  A    between atoms: C3_5  and  N2_6 
REMARK    3  A    between atoms: N2_6  and  C4_9 
REMARK    4  A    between atoms: C4_9  and  C5_10 
REMARK    5  A    between atoms: C5_10  and  C6_11 
ROOT
HETATM    1  N2  UNL     1      -8.837  15.955   5.497  1.00  0.00    -0.068 N 
ATOM      2  H21 UNL     1      -8.440  16.633   6.146  1.00  0.00     0.277 HD
ATOM      3  H22 UNL     1      -9.296  16.592   4.845  1.00  0.00     0.277 HD
ENDROOT
BRANCH   1   4
HETATM    4  C3  UNL     1      -9.809  15.121   6.162  1.00  0.00     0.309 C 
BRANCH   4   5
HETATM    5  C2  UNL     1      -9.908  15.581   7.584  1.00  0.00     0.122 A 
HETATM    6  N1  UNL     1      -9.032  15.378   8.581  1.00  0.00    -0.339 N 
HETATM    7  C1  UNL     1      -9.527  15.968   9.681  1.00  0.00     0.198 A 
ATOM      8  H1  UNL     1      -8.152  14.867   8.516  1.00  0.00     0.168 HD
HETATM    9  N5  UNL     1     -10.709  16.546   9.390  1.00  0.00    -0.295 N 
HETATM   10  N4  UNL     1     -10.918  16.296   8.110  1.00  0.00    -0.287 N 
ATOM     11  H5  UNL     1     -11.314  17.067  10.025  1.00  0.00     0.187 HD
ATOM     12  H4  UNL     1     -11.739  16.605   7.589  1.00  0.00     0.188 HD
ENDBRANCH   4   5
ENDBRANCH   1   4
BRANCH   1  13
HETATM   13  C4  UNL     1      -7.799  15.216   4.838  1.00  0.00     0.235 C 
BRANCH  13  14
HETATM   14  C5  UNL     1      -6.504  15.949   5.017  1.00  0.00     0.061 C 
BRANCH  14  15
HETATM   15  C6  UNL     1      -5.672  15.364   6.166  1.00  0.00     0.148 C 
HETATM   16  C7  UNL     1      -4.313  16.047   6.051  1.00  0.00     0.264 C 
HETATM   17  N3  UNL     1      -3.403  15.596   7.053  1.00  0.00    -0.071 N 
HETATM   18  C8  UNL     1      -4.118  15.171   8.222  1.00  0.00     0.258 C 
ATOM     19  H32 UNL     1      -2.782  14.867   6.702  1.00  0.00     0.277 HD
ATOM     20  H31 UNL     1      -2.699  16.300   7.272  1.00  0.00     0.277 HD
HETATM   21  C9  UNL     1      -5.410  15.932   8.391  1.00  0.00     0.195 C 
HETATM   22  O1  UNL     1      -6.294  15.624   7.370  1.00  0.00    -0.383 OA
ENDBRANCH  14  15
ENDBRANCH  13  14
ENDBRANCH   1  13
TORSDOF 5
ENDMDL
MODEL 2
REMARK VINA RESULT: -5.640454145      4.142      5.051
REMARK  5 active torsions:
REMARK  status: ('A' for Active; 'I' for Inactive)
REMARK    1  A    between atoms: C2_4  and  C3_5 
REMARK    2  A    between atoms: C3_5  and  N2_6 
REMARK    3  A    between atoms: N2_6  and  C4_9 
REMARK    4  A    between atoms: C4_9  and  C5_10 
REMARK    5  A    between atoms: C5_10  and  C6_11 
ROOT
HETATM    1  N2  UNL     1      -4.751  16.372   4.562  1.00  0.00    -0.068 N 
ATOM      2  H21 UNL     1      -5.430  16.193   5.301  1.00  0.00     0.277 HD
ATOM      3  H22 UNL     1      -5.247  17.100   4.047  1.00  0.00     0.277 HD
ENDROOT
BRANCH   1   4
HETATM    4  C3  UNL     1      -4.571  15.200   3.740  1.00  0.00     0.309 C 
BRANCH   4   5
HETATM    5  C2  UNL     1      -5.793  15.047   2.888  1.00  0.00     0.122 A 
HETATM    6  N1  UNL     1      -6.370  13.910   2.468  1.00  0.00    -0.339 N 
HETATM    7  C1  UNL     1      -7.440  14.249   1.731  1.00  0.00     0.198 A 
ATOM      8  H1  UNL     1      -6.053  12.962   2.670  1.00  0.00     0.168 HD
HETATM    9  N5  UNL     1      -7.548  15.590   1.681  1.00  0.00    -0.295 N 
HETATM   10  N4  UNL     1      -6.535  16.052   2.392  1.00  0.00    -0.287 N 
ATOM     11  H5  UNL     1      -8.262  16.134   1.196  1.00  0.00     0.187 HD
ATOM     12  H4  UNL     1      -6.341  17.042   2.543  1.00  0.00     0.188 HD
ENDBRANCH   4   5
ENDBRANCH   1   4
BRANCH   1  13
HETATM   13  C4  UNL     1      -3.528  16.884   5.111  1.00  0.00     0.235 C 
BRANCH  13  14
HETATM   14  C5  UNL     1      -3.787  17.327   6.520  1.00  0.00     0.061 C 
BRANCH  14  15
HETATM   15  C6  UNL     1      -4.416  16.210   7.363  1.00  0.00     0.148 C 
HETATM   16  C7  UNL     1      -3.243  15.329   7.781  1.00  0.00     0.264 C 
HETATM   17  N3  UNL     1      -3.666  14.218   8.570  1.00  0.00    -0.071 N 
HETATM   18  C8  UNL     1      -4.870  14.540   9.283  1.00  0.00     0.258 C 
ATOM     19  H32 UNL     1      -3.771  13.372   8.010  1.00  0.00     0.277 HD
ATOM     20  H31 UNL     1      -2.929  13.894   9.196  1.00  0.00     0.277 HD
HETATM   21  C9  UNL     1      -4.949  16.013   9.602  1.00  0.00     0.195 C 
HETATM   22  O1  UNL     1      -5.079  16.757   8.442  1.00  0.00    -0.383 OA
ENDBRANCH  14  15
ENDBRANCH  13  14
ENDBRANCH   1  13
TORSDOF 5
ENDMDL
MODEL 3
REMARK VINA RESULT: -5.506508746      2.838      5.213
REMARK  5 active torsions:
REMARK  status: ('A' for Active; 'I' for Inactive)
REMARK    1  A    between atoms: C2_4  and  C3_5 
REMARK    2  A    between atoms: C3_5  and  N2_6 
REMARK    3  A    between atoms: N2_6  and  C4_9 
REMARK    4  A    between atoms: C4_9  and  C5_10 
REMARK    5  A    between atoms: C5_10  and  C6_11 
ROOT
HETATM    1  N2  UNL     1      -4.548  17.001   5.343  1.00  0.00    -0.068 N 
ATOM      2  H21 UNL     1      -5.542  16.780   5.384  1.00  0.00     0.277 HD
ATOM      3  H22 UNL     1      -4.595  17.912   4.885  1.00  0.00     0.277 HD
ENDROOT
BRANCH   1   4
HETATM    4  C3  UNL     1      -3.848  16.050   4.514  1.00  0.00     0.309 C 
BRANCH   4   5
HETATM    5  C2  UNL     1      -4.872  15.273   3.746  1.00  0.00     0.122 A 
HETATM    6  N1  UNL     1      -5.446  14.106   4.081  1.00  0.00    -0.339 N 
HETATM    7  C1  UNL     1      -6.303  13.781   3.099  1.00  0.00     0.198 A 
ATOM      8  H1  UNL     1      -5.263  13.565   4.926  1.00  0.00     0.168 HD
HETATM    9  N5  UNL     1      -6.279  14.731   2.146  1.00  0.00    -0.295 N 
HETATM   10  N4  UNL     1      -5.401  15.627   2.562  1.00  0.00    -0.287 N 
ATOM     11  H5  UNL     1      -6.825  14.755   1.284  1.00  0.00     0.187 HD
ATOM     12  H4  UNL     1      -5.157  16.475   2.051  1.00  0.00     0.188 HD
ENDBRANCH   4   5
ENDBRANCH   1   4
BRANCH   1  13
HETATM   13  C4  UNL     1      -4.002  17.125   6.664  1.00  0.00     0.235 C 
BRANCH  13  14
HETATM   14  C5  UNL     1      -3.682  15.754   7.178  1.00  0.00     0.061 C 
BRANCH  14  15
HETATM   15  C6  UNL     1      -4.888  15.112   7.877  1.00  0.00     0.148 C 
HETATM   16  C7  UNL     1      -5.189  16.031   9.057  1.00  0.00     0.264 C 
HETATM   17  N3  UNL     1      -6.292  15.560   9.831  1.00  0.00    -0.071 N 
HETATM   18  C8  UNL     1      -7.190  14.798   9.010  1.00  0.00     0.258 C 
ATOM     19  H32 UNL     1      -5.985  15.033  10.648  1.00  0.00     0.277 HD
ATOM     20  H31 UNL     1      -6.770  16.321  10.313  1.00  0.00     0.277 HD
HETATM   21  C9  UNL     1      -7.174  15.275   7.579  1.00  0.00     0.195 C 
HETATM   22  O1  UNL     1      -5.944  15.021   6.994  1.00  0.00    -0.383 OA
ENDBRANCH  14  15
ENDBRANCH  13  14
ENDBRANCH   1  13
TORSDOF 5
ENDMDL
MODEL 4
REMARK VINA RESULT: -5.505714426      2.684      3.957
REMARK  5 active torsions:
REMARK  status: ('A' for Active; 'I' for Inactive)
REMARK    1  A    between atoms: C2_4  and  C3_5 
REMARK    2  A    between atoms: C3_5  and  N2_6 
REMARK    3  A    between atoms: N2_6  and  C4_9 
REMARK    4  A    between atoms: C4_9  and  C5_10 
REMARK    5  A    between atoms: C5_10  and  C6_11 
ROOT
HETATM    1  N2  UNL     1      -8.740  15.908   5.557  1.00  0.00    -0.068 N 
ATOM      2  H21 UNL     1      -8.515  16.723   6.127  1.00  0.00     0.277 HD
ATOM      3  H22 UNL     1      -9.045  16.375   4.703  1.00  0.00     0.277 HD
ENDROOT
BRANCH   1   4
HETATM    4  C3  UNL     1      -9.827  15.161   6.144  1.00  0.00     0.309 C 
BRANCH   4   5
HETATM    5  C2  UNL     1      -9.937  15.569   7.581  1.00  0.00     0.122 A 
HETATM    6  N1  UNL     1      -9.133  15.227   8.600  1.00  0.00    -0.339 N 
HETATM    7  C1  UNL     1      -9.609  15.822   9.707  1.00  0.00     0.198 A 
ATOM      8  H1  UNL     1      -8.312  14.625   8.545  1.00  0.00     0.168 HD
HETATM    9  N5  UNL     1     -10.706  16.539   9.399  1.00  0.00    -0.295 N 
HETATM   10  N4  UNL     1     -10.885  16.368   8.101  1.00  0.00    -0.287 N 
ATOM     11  H5  UNL     1     -11.278  17.096  10.033  1.00  0.00     0.187 HD
ATOM     12  H4  UNL     1     -11.644  16.788   7.563  1.00  0.00     0.188 HD
ENDBRANCH   4   5
ENDBRANCH   1   4
BRANCH   1  13
HETATM   13  C4  UNL     1      -7.566  15.119   5.314  1.00  0.00     0.235 C 
BRANCH  13  14
HETATM   14  C5  UNL     1      -6.843  15.693   4.133  1.00  0.00     0.061 C 
BRANCH  14  15
HETATM   15  C6  UNL     1      -7.283  15.032   2.819  1.00  0.00     0.148 C 
HETATM   16  C7  UNL     1      -6.338  13.848   2.643  1.00  0.00     0.264 C 
HETATM   17  N3  UNL     1      -6.607  13.125   1.442  1.00  0.00    -0.071 N 
HETATM   18  C8  UNL     1      -7.990  13.256   1.080  1.00  0.00     0.258 C 
ATOM     19  H32 UNL     1      -5.988  13.406   0.683  1.00  0.00     0.277 HD
ATOM     20  H31 UNL     1      -6.324  12.149   1.515  1.00  0.00     0.277 HD
HETATM   21  C9  UNL     1      -8.868  13.434   2.294  1.00  0.00     0.195 C 
HETATM   22  O1  UNL     1      -8.604  14.646   2.912  1.00  0.00    -0.383 OA
ENDBRANCH  14  15
ENDBRANCH  13  14
ENDBRANCH   1  13
TORSDOF 5
ENDMDL
MODEL 5
REMARK VINA RESULT: -5.482555604      1.551      2.399
REMARK  5 active torsions:
REMARK  status: ('A' for Active; 'I' for Inactive)
REMARK    1  A    between atoms: C2_4  and  C3_5 
REMARK    2  A    between atoms: C3_5  and  N2_6 
REMARK    3  A    between atoms: N2_6  and  C4_9 
REMARK    4  A    between atoms: C4_9  and  C5_10 
REMARK    5  A    between atoms: C5_10  and  C6_11 
ROOT
HETATM    1  N2  UNL     1      -6.074  16.496   4.693  1.00  0.00    -0.068 N 
ATOM      2  H21 UNL     1      -6.254  17.039   5.536  1.00  0.00     0.277 HD
ATOM      3  H22 UNL     1      -6.136  17.237   3.995  1.00  0.00     0.277 HD
ENDROOT
BRANCH   1   4
HETATM    4  C3  UNL     1      -7.112  15.515   4.488  1.00  0.00     0.309 C 
BRANCH   4   5
HETATM    5  C2  UNL     1      -8.016  15.550   5.681  1.00  0.00     0.122 A 
HETATM    6  N1  UNL     1      -7.902  14.856   6.824  1.00  0.00    -0.339 N 
HETATM    7  C1  UNL     1      -8.933  15.204   7.612  1.00  0.00     0.198 A 
ATOM      8  H1  UNL     1      -7.168  14.186   7.053  1.00  0.00     0.168 HD
HETATM    9  N5  UNL     1      -9.699  16.113   6.980  1.00  0.00    -0.295 N 
HETATM   10  N4  UNL     1      -9.121  16.306   5.808  1.00  0.00    -0.287 N 
ATOM     11  H5  UNL     1     -10.547  16.558   7.331  1.00  0.00     0.187 HD
ATOM     12  H4  UNL     1      -9.468  16.945   5.092  1.00  0.00     0.188 HD
ENDBRANCH   4   5
ENDBRANCH   1   4
BRANCH   1  13
HETATM   13  C4  UNL     1      -4.752  15.938   4.723  1.00  0.00     0.235 C 
BRANCH  13  14
HETATM   14  C5  UNL     1      -4.049  16.443   5.947  1.00  0.00     0.061 C 
BRANCH  14  15
HETATM   15  C6  UNL     1      -4.361  15.583   7.179  1.00  0.00     0.148 C 
HETATM   16  C7  UNL     1      -3.053  15.534   7.962  1.00  0.00     0.264 C 
HETATM   17  N3  UNL     1      -3.170  14.748   9.147  1.00  0.00    -0.071 N 
HETATM   18  C8  UNL     1      -4.524  14.763   9.624  1.00  0.00     0.258 C 
ATOM     19  H32 UNL     1      -2.827  13.798   9.009  1.00  0.00     0.277 HD
ATOM     20  H31 UNL     1      -2.510  15.044   9.866  1.00  0.00     0.277 HD
HETATM   21  C9  UNL     1      -5.224  16.052   9.270  1.00  0.00     0.195 C 
HETATM   22  O1  UNL     1      -5.388  16.157   7.899  1.00  0.00    -0.383 OA
ENDBRANCH  14  15
ENDBRANCH  13  14
ENDBRANCH   1  13
TORSDOF 5
ENDMDL
