MODEL 1
REMARK VINA RESULT: -6.509743695      0.000      0.000
REMARK  6 active torsions:
REMARK  status: ('A' for Active; 'I' for Inactive)
REMARK    1  A    between atoms: C2_2  and  C3_3 
REMARK    2  A    between atoms: C3_3  and  C4_4 
REMARK    3  A    between atoms: C4_4  and  C5_5 
REMARK    4  A    between atoms: C13_15  and  O3_16 
REMARK    5  A    between atoms: C17_21  and  C18_22 
REMARK    6  A    between atoms: C18_22  and  O4_25 
ROOT
HETATM    1  C5  UNL     1      57.111  12.138  56.606  1.00  0.00     0.093 C 
HETATM    2  C6  UNL     1      56.037  11.255  56.105  1.00  0.00     0.264 C 
HETATM    3  O1  UNL     1      55.052  11.459  55.345  1.00  0.00    -0.265 OA
HETATM    4  O2  UNL     1      56.231   9.950  56.634  1.00  0.00    -0.309 OA
HETATM    5  C7  UNL     1      56.825  10.270  57.911  1.00  0.00     0.076 C 
HETATM    6  C8  UNL     1      55.769  10.921  58.693  1.00  0.00     0.047 C 
HETATM    7  C9  UNL     1      57.930  11.150  57.383  1.00  0.00     0.045 C 
HETATM    8  C10 UNL     1      58.917  11.594  58.346  1.00  0.00    -0.014 C 
HETATM    9  C11 UNL     1      58.786  13.066  58.775  1.00  0.00     0.018 C 
HETATM   10  C12 UNL     1      60.293  11.572  57.641  1.00  0.00     0.018 C 
HETATM   11  C13 UNL     1      59.050  10.806  59.611  1.00  0.00     0.135 C 
HETATM   12  C14 UNL     1      58.362   9.480  59.668  1.00  0.00    -0.010 C 
HETATM   13  C15 UNL     1      57.578   9.477  60.996  1.00  0.00     0.018 C 
HETATM   14  C16 UNL     1      59.364   8.324  59.843  1.00  0.00     0.020 C 
HETATM   15  C17 UNL     1      58.920   7.051  59.255  1.00  0.00     0.020 C 
HETATM   16  C21 UNL     1      57.459   6.779  59.238  1.00  0.00     0.008 C 
HETATM   17  C22 UNL     1      56.603   7.967  58.896  1.00  0.00     0.009 C 
HETATM   18  C23 UNL     1      57.502   9.100  58.522  1.00  0.00     0.032 C 
ENDROOT
BRANCH  15  19
HETATM   19  C18 UNL     1      59.633   5.878  59.892  1.00  0.00     0.054 C 
HETATM   20  C19 UNL     1      59.229   5.649  61.331  1.00  0.00     0.045 C 
HETATM   21  C20 UNL     1      59.378   4.586  59.150  1.00  0.00     0.045 C 
BRANCH  19  22
HETATM   22  O4  UNL     1      61.020   6.066  59.905  1.00  0.00    -0.390 OA
ATOM     23  H4  UNL     1      61.451   5.530  59.250  1.00  0.00     0.210 HD
ENDBRANCH  19  22
ENDBRANCH  15  19
BRANCH  11  24
HETATM   24  O3  UNL     1      58.790  11.598  60.763  1.00  0.00    -0.394 OA
ATOM     25  H3  UNL     1      59.525  11.605  61.364  1.00  0.00     0.210 HD
ENDBRANCH  11  24
BRANCH   1  26
HETATM   26  C4  UNL     1      57.825  12.763  55.475  1.00  0.00     0.015 C 
BRANCH  26  27
HETATM   27  C3  UNL     1      56.904  13.582  54.621  1.00  0.00     0.001 C 
BRANCH  27  28
HETATM   28  C2  UNL     1      57.321  13.579  53.165  1.00  0.00    -0.005 C 
HETATM   29  C1  UNL     1      56.606  12.455  52.424  1.00  0.00     0.005 C 
ENDBRANCH  27  28
ENDBRANCH  26  27
ENDBRANCH   1  26
TORSDOF 6
ENDMDL
MODEL 2
REMARK VINA RESULT: -6.466819283      3.966      7.219
REMARK  6 active torsions:
REMARK  status: ('A' for Active; 'I' for Inactive)
REMARK    1  A    between atoms: C2_2  and  C3_3 
REMARK    2  A    between atoms: C3_3  and  C4_4 
REMARK    3  A    between atoms: C4_4  and  C5_5 
REMARK    4  A    between atoms: C13_15  and  O3_16 
REMARK    5  A    between atoms: C17_21  and  C18_22 
REMARK    6  A    between atoms: C18_22  and  O4_25 
ROOT
HETATM    1  C5  UNL     1      56.466  11.755  56.294  1.00  0.00     0.093 C 
HETATM    2  C6  UNL     1      57.721  12.323  56.830  1.00  0.00     0.264 C 
HETATM    3  O1  UNL     1      58.935  12.055  56.622  1.00  0.00    -0.265 OA
HETATM    4  O2  UNL     1      57.400  13.361  57.748  1.00  0.00    -0.309 OA
HETATM    5  C7  UNL     1      56.154  12.862  58.282  1.00  0.00     0.076 C 
HETATM    6  C8  UNL     1      56.499  11.665  59.056  1.00  0.00     0.047 C 
HETATM    7  C9  UNL     1      55.461  12.647  56.959  1.00  0.00     0.045 C 
HETATM    8  C10 UNL     1      54.061  12.281  57.016  1.00  0.00    -0.014 C 
HETATM    9  C11 UNL     1      53.767  10.801  56.711  1.00  0.00     0.018 C 
HETATM   10  C12 UNL     1      53.344  13.011  55.856  1.00  0.00     0.018 C 
HETATM   11  C13 UNL     1      53.315  12.599  58.274  1.00  0.00     0.135 C 
HETATM   12  C14 UNL     1      53.984  13.505  59.257  1.00  0.00    -0.010 C 
HETATM   13  C15 UNL     1      53.865  12.795  60.621  1.00  0.00     0.018 C 
HETATM   14  C16 UNL     1      53.190  14.808  59.463  1.00  0.00     0.020 C 
HETATM   15  C17 UNL     1      54.023  15.966  59.824  1.00  0.00     0.020 C 
HETATM   16  C21 UNL     1      55.251  15.704  60.618  1.00  0.00     0.008 C 
HETATM   17  C22 UNL     1      56.017  14.479  60.203  1.00  0.00     0.009 C 
HETATM   18  C23 UNL     1      55.378  13.920  58.974  1.00  0.00     0.032 C 
ENDROOT
BRANCH  15  19
HETATM   19  C18 UNL     1      53.203  17.032  60.519  1.00  0.00     0.054 C 
HETATM   20  C19 UNL     1      51.790  16.587  60.822  1.00  0.00     0.045 C 
HETATM   21  C20 UNL     1      53.822  17.461  61.829  1.00  0.00     0.045 C 
BRANCH  19  22
HETATM   22  O4  UNL     1      53.085  18.184  59.734  1.00  0.00    -0.390 OA
ATOM     23  H4  UNL     1      52.566  18.850  60.168  1.00  0.00     0.210 HD
ENDBRANCH  19  22
ENDBRANCH  15  19
BRANCH  11  24
HETATM   24  O3  UNL     1      52.786  11.431  58.890  1.00  0.00    -0.394 OA
ATOM     25  H3  UNL     1      52.241  11.639  59.639  1.00  0.00     0.210 HD
ENDBRANCH  11  24
BRANCH   1  26
HETATM   26  C4  UNL     1      56.463  11.829  54.819  1.00  0.00     0.015 C 
BRANCH  26  27
HETATM   27  C3  UNL     1      56.704  13.227  54.333  1.00  0.00     0.001 C 
BRANCH  27  28
HETATM   28  C2  UNL     1      57.443  13.252  53.012  1.00  0.00    -0.005 C 
HETATM   29  C1  UNL     1      56.658  12.471  51.964  1.00  0.00     0.005 C 
ENDBRANCH  27  28
ENDBRANCH  26  27
ENDBRANCH   1  26
TORSDOF 6
ENDMDL
MODEL 3
REMARK VINA RESULT: -6.225816981      2.607      3.960
REMARK  6 active torsions:
REMARK  status: ('A' for Active; 'I' for Inactive)
REMARK    1  A    between atoms: C2_2  and  C3_3 
REMARK    2  A    between atoms: C3_3  and  C4_4 
REMARK    3  A    between atoms: C4_4  and  C5_5 
REMARK    4  A    between atoms: C13_15  and  O3_16 
REMARK    5  A    between atoms: C17_21  and  C18_22 
REMARK    6  A    between atoms: C18_22  and  O4_25 
ROOT
HETATM    1  C5  UNL     1      54.139  13.070  57.304  1.00  0.00     0.093 C 
HETATM    2  C6  UNL     1      53.613  12.954  58.680  1.00  0.00     0.264 C 
HETATM    3  O1  UNL     1      52.644  13.502  59.271  1.00  0.00    -0.265 OA
HETATM    4  O2  UNL     1      54.415  12.027  59.401  1.00  0.00    -0.309 OA
HETATM    5  C7  UNL     1      55.698  12.249  58.776  1.00  0.00     0.076 C 
HETATM    6  C8  UNL     1      56.107  13.602  59.170  1.00  0.00     0.047 C 
HETATM    7  C9  UNL     1      55.243  12.056  57.351  1.00  0.00     0.045 C 
HETATM    8  C10 UNL     1      56.280  12.036  56.340  1.00  0.00    -0.014 C 
HETATM    9  C11 UNL     1      56.378  13.314  55.488  1.00  0.00     0.018 C 
HETATM   10  C12 UNL     1      55.887  10.966  55.296  1.00  0.00     0.018 C 
HETATM   11  C13 UNL     1      57.675  11.732  56.789  1.00  0.00     0.135 C 
HETATM   12  C14 UNL     1      57.850  11.208  58.178  1.00  0.00    -0.010 C 
HETATM   13  C15 UNL     1      58.965  12.066  58.807  1.00  0.00     0.018 C 
HETATM   14  C16 UNL     1      58.447   9.788  58.181  1.00  0.00     0.020 C 
HETATM   15  C17 UNL     1      58.041   8.970  59.334  1.00  0.00     0.020 C 
HETATM   16  C21 UNL     1      57.782   9.676  60.616  1.00  0.00     0.008 C 
HETATM   17  C22 UNL     1      57.048  10.981  60.477  1.00  0.00     0.009 C 
HETATM   18  C23 UNL     1      56.650  11.144  59.046  1.00  0.00     0.032 C 
ENDROOT
BRANCH  15  19
HETATM   19  C18 UNL     1      59.026   7.847  59.579  1.00  0.00     0.054 C 
HETATM   20  C19 UNL     1      58.646   6.563  58.877  1.00  0.00     0.045 C 
HETATM   21  C20 UNL     1      60.422   8.205  59.122  1.00  0.00     0.045 C 
BRANCH  19  22
HETATM   22  O4  UNL     1      59.118   7.531  60.939  1.00  0.00    -0.390 OA
ATOM     23  H4  UNL     1      58.832   6.642  61.110  1.00  0.00     0.210 HD
ENDBRANCH  19  22
ENDBRANCH  15  19
BRANCH  11  24
HETATM   24  O3  UNL     1      58.573  12.796  56.498  1.00  0.00    -0.394 OA
ATOM     25  H3  UNL     1      58.220  13.640  56.753  1.00  0.00     0.210 HD
ENDBRANCH  11  24
BRANCH   1  26
HETATM   26  C4  UNL     1      53.076  12.766  56.325  1.00  0.00     0.015 C 
BRANCH  26  27
HETATM   27  C3  UNL     1      52.544  11.374  56.498  1.00  0.00     0.001 C 
BRANCH  27  28
HETATM   28  C2  UNL     1      51.030  11.338  56.498  1.00  0.00    -0.005 C 
HETATM   29  C1  UNL     1      50.546   9.941  56.123  1.00  0.00     0.005 C 
ENDBRANCH  27  28
ENDBRANCH  26  27
ENDBRANCH   1  26
TORSDOF 6
ENDMDL
MODEL 4
REMARK VINA RESULT: -6.173085407      2.590      6.704
REMARK  6 active torsions:
REMARK  status: ('A' for Active; 'I' for Inactive)
REMARK    1  A    between atoms: C2_2  and  C3_3 
REMARK    2  A    between atoms: C3_3  and  C4_4 
REMARK    3  A    between atoms: C4_4  and  C5_5 
REMARK    4  A    between atoms: C13_15  and  O3_16 
REMARK    5  A    between atoms: C17_21  and  C18_22 
REMARK    6  A    between atoms: C18_22  and  O4_25 
ROOT
HETATM    1  C5  UNL     1      57.020  11.444  59.867  1.00  0.00     0.093 C 
HETATM    2  C6  UNL     1      57.659  12.776  59.909  1.00  0.00     0.264 C 
HETATM    3  O1  UNL     1      58.043  13.508  60.861  1.00  0.00    -0.265 OA
HETATM    4  O2  UNL     1      57.833  13.243  58.577  1.00  0.00    -0.309 OA
HETATM    5  C7  UNL     1      56.688  12.642  57.936  1.00  0.00     0.076 C 
HETATM    6  C8  UNL     1      55.512  13.314  58.501  1.00  0.00     0.047 C 
HETATM    7  C9  UNL     1      56.950  11.226  58.385  1.00  0.00     0.045 C 
HETATM    8  C10 UNL     1      56.094  10.202  57.822  1.00  0.00    -0.014 C 
HETATM    9  C11 UNL     1      55.022   9.655  58.782  1.00  0.00     0.018 C 
HETATM   10  C12 UNL     1      56.973   8.958  57.558  1.00  0.00     0.018 C 
HETATM   11  C13 UNL     1      55.379  10.524  56.547  1.00  0.00     0.135 C 
HETATM   12  C14 UNL     1      55.808  11.753  55.813  1.00  0.00    -0.010 C 
HETATM   13  C15 UNL     1      54.509  12.521  55.497  1.00  0.00     0.018 C 
HETATM   14  C16 UNL     1      56.372  11.417  54.419  1.00  0.00     0.020 C 
HETATM   15  C17 UNL     1      57.383  12.371  53.937  1.00  0.00     0.020 C 
HETATM   16  C21 UNL     1      57.250  13.786  54.369  1.00  0.00     0.008 C 
HETATM   17  C22 UNL     1      56.844  13.968  55.805  1.00  0.00     0.009 C 
HETATM   18  C23 UNL     1      56.817  12.625  56.459  1.00  0.00     0.032 C 
ENDROOT
BRANCH  15  19
HETATM   19  C18 UNL     1      57.499  12.324  52.428  1.00  0.00     0.054 C 
HETATM   20  C19 UNL     1      56.164  12.438  51.728  1.00  0.00     0.045 C 
HETATM   21  C20 UNL     1      58.377  13.431  51.891  1.00  0.00     0.045 C 
BRANCH  19  22
HETATM   22  O4  UNL     1      58.062  11.118  51.993  1.00  0.00    -0.390 OA
ATOM     23  H4  UNL     1      58.101  11.075  51.046  1.00  0.00     0.210 HD
ENDBRANCH  19  22
ENDBRANCH  15  19
BRANCH  11  24
HETATM   24  O3  UNL     1      53.966  10.449  56.694  1.00  0.00    -0.394 OA
ATOM     25  H3  UNL     1      53.619   9.622  56.381  1.00  0.00     0.210 HD
ENDBRANCH  11  24
BRANCH   1  26
HETATM   26  C4  UNL     1      57.850  10.458  60.588  1.00  0.00     0.015 C 
BRANCH  26  27
HETATM   27  C3  UNL     1      59.315  10.709  60.382  1.00  0.00     0.001 C 
BRANCH  27  28
HETATM   28  C2  UNL     1      59.958   9.648  59.514  1.00  0.00    -0.005 C 
HETATM   29  C1  UNL     1      60.440  10.270  58.208  1.00  0.00     0.005 C 
ENDBRANCH  27  28
ENDBRANCH  26  27
ENDBRANCH   1  26
TORSDOF 6
ENDMDL
MODEL 5
REMARK VINA RESULT: -6.108224124      8.771     11.333
REMARK  6 active torsions:
REMARK  status: ('A' for Active; 'I' for Inactive)
REMARK    1  A    between atoms: C2_2  and  C3_3 
REMARK    2  A    between atoms: C3_3  and  C4_4 
REMARK    3  A    between atoms: C4_4  and  C5_5 
REMARK    4  A    between atoms: C13_15  and  O3_16 
REMARK    5  A    between atoms: C17_21  and  C18_22 
REMARK    6  A    between atoms: C18_22  and  O4_25 
ROOT
HETATM    1  C5  UNL     1      67.511  18.359  56.422  1.00  0.00     0.093 C 
HETATM    2  C6  UNL     1      66.755  19.590  56.735  1.00  0.00     0.264 C 
HETATM    3  O1  UNL     1      66.792  20.756  56.259  1.00  0.00    -0.265 OA
HETATM    4  O2  UNL     1      65.838  19.310  57.785  1.00  0.00    -0.309 OA
HETATM    5  C7  UNL     1      66.576  18.309  58.519  1.00  0.00     0.076 C 
HETATM    6  C8  UNL     1      67.730  19.006  59.100  1.00  0.00     0.047 C 
HETATM    7  C9  UNL     1      66.846  17.390  57.353  1.00  0.00     0.045 C 
HETATM    8  C10 UNL     1      67.458  16.115  57.666  1.00  0.00    -0.014 C 
HETATM    9  C11 UNL     1      68.950  16.008  57.301  1.00  0.00     0.018 C 
HETATM   10  C12 UNL     1      66.812  15.054  56.746  1.00  0.00     0.018 C 
HETATM   11  C13 UNL     1      67.341  15.619  59.073  1.00  0.00     0.135 C 
HETATM   12  C14 UNL     1      66.380  16.329  59.972  1.00  0.00    -0.010 C 
HETATM   13  C15 UNL     1      67.166  16.627  61.264  1.00  0.00     0.018 C 
HETATM   14  C16 UNL     1      65.250  15.396  60.448  1.00  0.00     0.020 C 
HETATM   15  C17 UNL     1      63.982  16.086  60.728  1.00  0.00     0.020 C 
HETATM   16  C21 UNL     1      64.059  17.484  61.227  1.00  0.00     0.008 C 
HETATM   17  C22 UNL     1      65.107  18.332  60.559  1.00  0.00     0.009 C 
HETATM   18  C23 UNL     1      65.709  17.540  59.444  1.00  0.00     0.032 C 
ENDROOT
BRANCH  15  19
HETATM   19  C18 UNL     1      63.115  15.274  61.667  1.00  0.00     0.054 C 
HETATM   20  C19 UNL     1      63.904  14.278  62.486  1.00  0.00     0.045 C 
HETATM   21  C20 UNL     1      62.358  16.148  62.640  1.00  0.00     0.045 C 
BRANCH  19  22
HETATM   22  O4  UNL     1      62.159  14.529  60.967  1.00  0.00    -0.390 OA
ATOM     23  H4  UNL     1      62.458  13.643  60.805  1.00  0.00     0.210 HD
ENDBRANCH  19  22
ENDBRANCH  15  19
BRANCH  11  24
HETATM   24  O3  UNL     1      68.613  15.435  59.682  1.00  0.00    -0.394 OA
ATOM     25  H3  UNL     1      68.944  14.554  59.557  1.00  0.00     0.210 HD
ENDBRANCH  11  24
BRANCH   1  26
HETATM   26  C4  UNL     1      67.366  18.023  54.991  1.00  0.00     0.015 C 
BRANCH  26  27
HETATM   27  C3  UNL     1      65.943  17.711  54.635  1.00  0.00     0.001 C 
BRANCH  27  28
HETATM   28  C2  UNL     1      65.797  17.280  53.191  1.00  0.00    -0.005 C 
HETATM   29  C1  UNL     1      65.166  18.404  52.377  1.00  0.00     0.005 C 
ENDBRANCH  27  28
ENDBRANCH  26  27
ENDBRANCH   1  26
TORSDOF 6
ENDMDL
