MODEL 1
REMARK VINA RESULT: -7.137447366      0.000      0.000
REMARK  3 active torsions:
REMARK  status: ('A' for Active; 'I' for Inactive)
REMARK    1  A    between atoms: N1_2  and  C2_3 
REMARK    2  A    between atoms: N1_2  and  C7_9 
REMARK    3  A    between atoms: C12_16  and  O4_17 
ROOT
HETATM    1  C7  UNL     1      15.079  35.665  73.604  1.00  0.00     0.008 C 
HETATM    2  C8  UNL     1      15.611  34.344  73.987  1.00  0.00     0.079 C 
HETATM    3  C9  UNL     1      15.419  33.956  75.423  1.00  0.00     0.181 C 
HETATM    4  O2  UNL     1      15.198  35.002  76.323  1.00  0.00    -0.348 OA
HETATM    5  C10 UNL     1      15.088  36.331  76.012  1.00  0.00     0.107 A 
HETATM    6  C11 UNL     1      15.027  37.469  76.743  1.00  0.00     0.182 A 
HETATM    7  O3  UNL     1      14.923  38.484  75.901  1.00  0.00    -0.297 OA
HETATM    8  C12 UNL     1      14.915  38.057  74.665  1.00  0.00     0.197 A 
HETATM    9  C13 UNL     1      15.018  36.678  74.680  1.00  0.00     0.075 A 
ENDROOT
BRANCH   1  10
HETATM   10  N1  UNL     1      13.989  35.736  72.699  1.00  0.00    -0.285 NA
HETATM   11  C1  UNL     1      14.222  34.746  71.640  1.00  0.00     0.117 C 
BRANCH  10  12
HETATM   12  C2  UNL     1      12.661  35.648  73.177  1.00  0.00     0.066 C 
HETATM   13  C3  UNL     1      12.052  34.340  72.631  1.00  0.00     0.046 C 
HETATM   14  C4  UNL     1      10.857  34.017  73.496  1.00  0.00     0.169 C 
HETATM   15  O1  UNL     1      10.054  35.104  73.618  1.00  0.00    -0.391 OA
HETATM   16  C5  UNL     1      10.254  36.159  72.778  1.00  0.00     0.169 C 
HETATM   17  C6  UNL     1      11.676  36.692  72.813  1.00  0.00     0.046 C 
ENDBRANCH  10  12
ENDBRANCH   1  10
BRANCH   8  18
HETATM   18  O4  UNL     1      14.818  38.885  73.539  1.00  0.00    -0.340 OA
ATOM     19  H4  UNL     1      14.115  38.845  72.901  1.00  0.00     0.220 HD
ENDBRANCH   8  18
TORSDOF 3
ENDMDL
MODEL 2
REMARK VINA RESULT: -6.789215201      3.047      4.590
REMARK  3 active torsions:
REMARK  status: ('A' for Active; 'I' for Inactive)
REMARK    1  A    between atoms: N1_2  and  C2_3 
REMARK    2  A    between atoms: N1_2  and  C7_9 
REMARK    3  A    between atoms: C12_16  and  O4_17 
ROOT
HETATM    1  C7  UNL     1      16.157  33.376  73.727  1.00  0.00     0.008 C 
HETATM    2  C8  UNL     1      15.710  33.292  75.129  1.00  0.00     0.079 C 
HETATM    3  C9  UNL     1      16.797  33.304  76.162  1.00  0.00     0.181 C 
HETATM    4  O2  UNL     1      18.071  32.935  75.724  1.00  0.00    -0.348 OA
HETATM    5  C10 UNL     1      18.429  32.619  74.440  1.00  0.00     0.107 A 
HETATM    6  C11 UNL     1      19.545  32.108  73.870  1.00  0.00     0.182 A 
HETATM    7  O3  UNL     1      19.327  32.012  72.569  1.00  0.00    -0.297 OA
HETATM    8  C12 UNL     1      18.125  32.434  72.273  1.00  0.00     0.197 A 
HETATM    9  C13 UNL     1      17.505  32.838  73.441  1.00  0.00     0.075 A 
ENDROOT
BRANCH   1  10
HETATM   10  N1  UNL     1      15.838  34.532  72.967  1.00  0.00    -0.285 NA
HETATM   11  C1  UNL     1      15.268  34.083  71.691  1.00  0.00     0.117 C 
BRANCH  10  12
HETATM   12  C2  UNL     1      15.045  35.557  73.532  1.00  0.00     0.066 C 
HETATM   13  C3  UNL     1      13.611  35.393  72.988  1.00  0.00     0.046 C 
HETATM   14  C4  UNL     1      12.697  36.150  73.923  1.00  0.00     0.169 C 
HETATM   15  O1  UNL     1      13.170  37.404  74.133  1.00  0.00    -0.391 OA
HETATM   16  C5  UNL     1      14.154  37.875  73.315  1.00  0.00     0.169 C 
HETATM   17  C6  UNL     1      15.377  36.976  73.269  1.00  0.00     0.046 C 
ENDBRANCH  10  12
ENDBRANCH   1  10
BRANCH   8  18
HETATM   18  O4  UNL     1      17.589  32.461  70.979  1.00  0.00    -0.340 OA
ATOM     19  H4  UNL     1      18.052  32.774  70.211  1.00  0.00     0.220 HD
ENDBRANCH   8  18
TORSDOF 3
ENDMDL
MODEL 3
REMARK VINA RESULT: -6.706030417      2.251      4.499
REMARK  3 active torsions:
REMARK  status: ('A' for Active; 'I' for Inactive)
REMARK    1  A    between atoms: N1_2  and  C2_3 
REMARK    2  A    between atoms: N1_2  and  C7_9 
REMARK    3  A    between atoms: C12_16  and  O4_17 
ROOT
HETATM    1  C7  UNL     1      14.820  34.101  74.122  1.00  0.00     0.008 C 
HETATM    2  C8  UNL     1      14.511  33.699  75.506  1.00  0.00     0.079 C 
HETATM    3  C9  UNL     1      15.694  33.461  76.396  1.00  0.00     0.181 C 
HETATM    4  O2  UNL     1      16.905  33.190  75.755  1.00  0.00    -0.348 OA
HETATM    5  C10 UNL     1      17.124  33.177  74.403  1.00  0.00     0.107 A 
HETATM    6  C11 UNL     1      18.161  32.800  73.619  1.00  0.00     0.182 A 
HETATM    7  O3  UNL     1      17.812  33.010  72.360  1.00  0.00    -0.297 OA
HETATM    8  C12 UNL     1      16.602  33.502  72.294  1.00  0.00     0.197 A 
HETATM    9  C13 UNL     1      16.114  33.630  73.582  1.00  0.00     0.075 A 
ENDROOT
BRANCH   1  10
HETATM   10  N1  UNL     1      14.467  35.405  73.684  1.00  0.00    -0.285 NA
HETATM   11  C1  UNL     1      13.002  35.473  73.623  1.00  0.00     0.117 C 
BRANCH  10  12
HETATM   12  C2  UNL     1      14.990  36.541  74.342  1.00  0.00     0.066 C 
HETATM   13  C3  UNL     1      13.998  36.935  75.456  1.00  0.00     0.046 C 
HETATM   14  C4  UNL     1      14.754  37.808  76.429  1.00  0.00     0.169 C 
HETATM   15  O1  UNL     1      15.410  38.795  75.769  1.00  0.00    -0.391 OA
HETATM   16  C5  UNL     1      15.089  39.030  74.464  1.00  0.00     0.169 C 
HETATM   17  C6  UNL     1      15.209  37.795  73.586  1.00  0.00     0.046 C 
ENDBRANCH  10  12
ENDBRANCH   1  10
BRANCH   8  18
HETATM   18  O4  UNL     1      15.943  33.832  71.104  1.00  0.00    -0.340 OA
ATOM     19  H4  UNL     1      15.569  34.685  70.914  1.00  0.00     0.220 HD
ENDBRANCH   8  18
TORSDOF 3
ENDMDL
MODEL 4
REMARK VINA RESULT: -6.700964307      1.315      2.106
REMARK  3 active torsions:
REMARK  status: ('A' for Active; 'I' for Inactive)
REMARK    1  A    between atoms: N1_2  and  C2_3 
REMARK    2  A    between atoms: N1_2  and  C7_9 
REMARK    3  A    between atoms: C12_16  and  O4_17 
ROOT
HETATM    1  C7  UNL     1      14.617  36.016  73.898  1.00  0.00     0.008 C 
HETATM    2  C8  UNL     1      15.231  35.016  73.005  1.00  0.00     0.079 C 
HETATM    3  C9  UNL     1      15.529  33.683  73.626  1.00  0.00     0.181 C 
HETATM    4  O2  UNL     1      15.636  33.660  75.018  1.00  0.00    -0.348 OA
HETATM    5  C10 UNL     1      15.442  34.717  75.866  1.00  0.00     0.107 A 
HETATM    6  C11 UNL     1      15.644  34.914  77.190  1.00  0.00     0.182 A 
HETATM    7  O3  UNL     1      15.275  36.152  77.475  1.00  0.00    -0.297 OA
HETATM    8  C12 UNL     1      14.847  36.763  76.400  1.00  0.00     0.197 A 
HETATM    9  C13 UNL     1      14.933  35.883  75.337  1.00  0.00     0.075 A 
ENDROOT
BRANCH   1  10
HETATM   10  N1  UNL     1      13.287  36.442  73.648  1.00  0.00    -0.285 NA
HETATM   11  C1  UNL     1      13.355  37.677  72.856  1.00  0.00     0.117 C 
BRANCH  10  12
HETATM   12  C2  UNL     1      12.347  35.545  73.091  1.00  0.00     0.066 C 
HETATM   13  C3  UNL     1      11.023  36.315  72.899  1.00  0.00     0.046 C 
HETATM   14  C4  UNL     1      10.202  35.533  71.900  1.00  0.00     0.169 C 
HETATM   15  O1  UNL     1      10.145  34.225  72.255  1.00  0.00    -0.391 OA
HETATM   16  C5  UNL     1      10.545  33.873  73.510  1.00  0.00     0.169 C 
HETATM   17  C6  UNL     1      11.957  34.327  73.838  1.00  0.00     0.046 C 
ENDBRANCH  10  12
ENDBRANCH   1  10
BRANCH   8  18
HETATM   18  O4  UNL     1      14.386  38.085  76.368  1.00  0.00    -0.340 OA
ATOM     19  H4  UNL     1      13.567  38.360  75.974  1.00  0.00     0.220 HD
ENDBRANCH   8  18
TORSDOF 3
ENDMDL
MODEL 5
REMARK VINA RESULT: -6.542826738      1.023      1.240
REMARK  3 active torsions:
REMARK  status: ('A' for Active; 'I' for Inactive)
REMARK    1  A    between atoms: N1_2  and  C2_3 
REMARK    2  A    between atoms: N1_2  and  C7_9 
REMARK    3  A    between atoms: C12_16  and  O4_17 
ROOT
HETATM    1  C7  UNL     1      15.156  35.512  74.165  1.00  0.00     0.008 C 
HETATM    2  C8  UNL     1      15.451  34.699  75.360  1.00  0.00     0.079 C 
HETATM    3  C9  UNL     1      15.076  35.315  76.675  1.00  0.00     0.181 C 
HETATM    4  O2  UNL     1      14.933  36.704  76.690  1.00  0.00    -0.348 OA
HETATM    5  C10 UNL     1      15.048  37.544  75.615  1.00  0.00     0.107 A 
HETATM    6  C11 UNL     1      15.091  38.889  75.469  1.00  0.00     0.182 A 
HETATM    7  O3  UNL     1      15.214  39.151  74.178  1.00  0.00    -0.297 OA
HETATM    8  C12 UNL     1      15.254  38.043  73.486  1.00  0.00     0.197 A 
HETATM    9  C13 UNL     1      15.150  36.978  74.363  1.00  0.00     0.075 A 
ENDROOT
BRANCH   1  10
HETATM   10  N1  UNL     1      14.173  35.061  73.246  1.00  0.00    -0.285 NA
HETATM   11  C1  UNL     1      14.488  33.669  72.904  1.00  0.00     0.117 C 
BRANCH  10  12
HETATM   12  C2  UNL     1      12.800  35.201  73.550  1.00  0.00     0.066 C 
HETATM   13  C3  UNL     1      12.086  33.910  73.095  1.00  0.00     0.046 C 
HETATM   14  C4  UNL     1      10.766  33.857  73.826  1.00  0.00     0.169 C 
HETATM   15  O1  UNL     1      10.109  35.038  73.704  1.00  0.00    -0.391 OA
HETATM   16  C5  UNL     1      10.547  35.933  72.772  1.00  0.00     0.169 C 
HETATM   17  C6  UNL     1      12.014  36.292  72.930  1.00  0.00     0.046 C 
ENDBRANCH  10  12
ENDBRANCH   1  10
BRANCH   8  18
HETATM   18  O4  UNL     1      15.380  37.980  72.093  1.00  0.00    -0.340 OA
ATOM     19  H4  UNL     1      15.247  37.195  71.575  1.00  0.00     0.220 HD
ENDBRANCH   8  18
TORSDOF 3
ENDMDL
