MODEL 1
REMARK VINA RESULT: -6.913948536      0.000      0.000
REMARK  7 active torsions:
REMARK  status: ('A' for Active; 'I' for Inactive)
REMARK    1  A    between atoms: C3_3  and  C4_4 
REMARK    2  A    between atoms: C4_4  and  C5_5 
REMARK    3  A    between atoms: C5_5  and  C6_6 
REMARK    4  A    between atoms: C6_6  and  C7_7 
REMARK    5  A    between atoms: C7_7  and  C8_8 
REMARK    6  A    between atoms: C8_8  and  C9_9 
REMARK    7  A    between atoms: C9_9  and  N1_10 
ROOT
HETATM    1  C1  UNL     1      39.304  24.144  26.342  1.00  0.00     0.112 C 
HETATM    2  C2  UNL     1      39.024  22.984  25.480  1.00  0.00    -0.111 C 
HETATM    3  C3  UNL     1      38.806  22.032  24.754  1.00  0.00    -0.104 C 
ENDROOT
BRANCH   3   4
HETATM    4  C4  UNL     1      38.553  20.900  23.869  1.00  0.00     0.132 C 
BRANCH   4   5
HETATM    5  C5  UNL     1      38.087  21.317  22.514  1.00  0.00     0.071 C 
HETATM    6  C17 UNL     1      36.705  21.906  22.542  1.00  0.00     0.041 C 
HETATM    7  C18 UNL     1      36.837  23.177  21.759  1.00  0.00     0.029 C 
HETATM    8  C19 UNL     1      38.179  23.058  21.109  1.00  0.00     0.169 C 
HETATM    9  O1  UNL     1      38.924  22.335  22.011  1.00  0.00    -0.379 OA
BRANCH   5  10
HETATM   10  C6  UNL     1      38.185  20.179  21.521  1.00  0.00     0.039 C 
BRANCH  10  11
HETATM   11  C7  UNL     1      38.346  18.850  22.211  1.00  0.00     0.004 C 
BRANCH  11  12
HETATM   12  C8  UNL     1      39.181  17.859  21.460  1.00  0.00     0.020 C 
BRANCH  12  13
HETATM   13  C9  UNL     1      38.375  16.915  20.685  1.00  0.00     0.124 C 
BRANCH  13  14
HETATM   14  N1  UNL     1      38.358  15.543  21.053  1.00  0.00    -0.367 N 
HETATM   15  C10 UNL     1      38.178  15.059  22.413  1.00  0.00     0.161 C 
HETATM   16  C11 UNL     1      37.428  13.746  22.481  1.00  0.00     0.227 C 
HETATM   17  C12 UNL     1      38.309  12.656  22.961  1.00  0.00     0.003 C 
HETATM   18  N2  UNL     1      36.903  13.335  21.219  1.00  0.00    -0.055 N 
HETATM   19  C13 UNL     1      39.018  11.973  22.091  1.00  0.00    -0.026 C 
HETATM   20  C14 UNL     1      39.004  12.224  20.615  1.00  0.00     0.068 C 
HETATM   21  C15 UNL     1      37.933  13.218  20.218  1.00  0.00     0.256 C 
HETATM   22  C16 UNL     1      38.562  14.553  20.071  1.00  0.00     0.104 C 
HETATM   23  N3  UNL     1      39.303  14.758  19.035  1.00  0.00    -0.387 N 
ATOM     24  H32 UNL     1      39.735  15.677  18.934  1.00  0.00     0.157 HD
ATOM     25  H31 UNL     1      39.450  14.041  18.323  1.00  0.00     0.157 HD
ATOM     26  H22 UNL     1      36.370  12.469  21.304  1.00  0.00     0.279 HD
ATOM     27  H21 UNL     1      36.155  13.955  20.909  1.00  0.00     0.279 HD
ENDBRANCH  13  14
ENDBRANCH  12  13
ENDBRANCH  11  12
ENDBRANCH  10  11
ENDBRANCH   5  10
ENDBRANCH   4   5
ENDBRANCH   3   4
TORSDOF 7
ENDMDL
MODEL 2
REMARK VINA RESULT: -6.913626788      3.253      4.351
REMARK  7 active torsions:
REMARK  status: ('A' for Active; 'I' for Inactive)
REMARK    1  A    between atoms: C3_3  and  C4_4 
REMARK    2  A    between atoms: C4_4  and  C5_5 
REMARK    3  A    between atoms: C5_5  and  C6_6 
REMARK    4  A    between atoms: C6_6  and  C7_7 
REMARK    5  A    between atoms: C7_7  and  C8_8 
REMARK    6  A    between atoms: C8_8  and  C9_9 
REMARK    7  A    between atoms: C9_9  and  N1_10 
ROOT
HETATM    1  C1  UNL     1      40.695  25.802  26.310  1.00  0.00     0.112 C 
HETATM    2  C2  UNL     1      39.832  24.685  25.894  1.00  0.00    -0.111 C 
HETATM    3  C3  UNL     1      39.104  23.769  25.560  1.00  0.00    -0.104 C 
ENDROOT
BRANCH   3   4
HETATM    4  C4  UNL     1      38.218  22.675  25.175  1.00  0.00     0.132 C 
BRANCH   4   5
HETATM    5  C5  UNL     1      38.079  22.536  23.696  1.00  0.00     0.071 C 
HETATM    6  C17 UNL     1      36.656  22.690  23.238  1.00  0.00     0.041 C 
HETATM    7  C18 UNL     1      36.744  23.666  22.104  1.00  0.00     0.029 C 
HETATM    8  C19 UNL     1      38.209  23.752  21.820  1.00  0.00     0.169 C 
HETATM    9  O1  UNL     1      38.799  23.561  23.047  1.00  0.00    -0.379 OA
BRANCH   5  10
HETATM   10  C6  UNL     1      38.682  21.238  23.204  1.00  0.00     0.039 C 
BRANCH  10  11
HETATM   11  C7  UNL     1      37.907  20.043  23.692  1.00  0.00     0.004 C 
BRANCH  11  12
HETATM   12  C8  UNL     1      37.887  18.886  22.740  1.00  0.00     0.020 C 
BRANCH  12  13
HETATM   13  C9  UNL     1      37.734  19.305  21.346  1.00  0.00     0.124 C 
BRANCH  13  14
HETATM   14  N1  UNL     1      38.750  18.988  20.406  1.00  0.00    -0.367 N 
HETATM   15  C10 UNL     1      39.544  17.770  20.433  1.00  0.00     0.161 C 
HETATM   16  C11 UNL     1      39.923  17.278  19.052  1.00  0.00     0.227 C 
HETATM   17  C12 UNL     1      41.383  17.386  18.832  1.00  0.00     0.003 C 
HETATM   18  N2  UNL     1      39.287  18.009  18.003  1.00  0.00    -0.055 N 
HETATM   19  C13 UNL     1      41.879  18.502  18.349  1.00  0.00    -0.026 C 
HETATM   20  C14 UNL     1      41.058  19.704  17.999  1.00  0.00     0.068 C 
HETATM   21  C15 UNL     1      39.573  19.419  18.078  1.00  0.00     0.256 C 
HETATM   22  C16 UNL     1      39.068  19.905  19.384  1.00  0.00     0.104 C 
HETATM   23  N3  UNL     1      38.952  21.180  19.547  1.00  0.00    -0.387 N 
ATOM     24  H32 UNL     1      38.605  21.515  20.446  1.00  0.00     0.157 HD
ATOM     25  H31 UNL     1      39.182  21.845  18.807  1.00  0.00     0.157 HD
ATOM     26  H22 UNL     1      39.530  17.629  17.088  1.00  0.00     0.279 HD
ATOM     27  H21 UNL     1      38.282  17.835  17.988  1.00  0.00     0.279 HD
ENDBRANCH  13  14
ENDBRANCH  12  13
ENDBRANCH  11  12
ENDBRANCH  10  11
ENDBRANCH   5  10
ENDBRANCH   4   5
ENDBRANCH   3   4
TORSDOF 7
ENDMDL
MODEL 3
REMARK VINA RESULT: -6.675064627      2.732      4.011
REMARK  7 active torsions:
REMARK  status: ('A' for Active; 'I' for Inactive)
REMARK    1  A    between atoms: C3_3  and  C4_4 
REMARK    2  A    between atoms: C4_4  and  C5_5 
REMARK    3  A    between atoms: C5_5  and  C6_6 
REMARK    4  A    between atoms: C6_6  and  C7_7 
REMARK    5  A    between atoms: C7_7  and  C8_8 
REMARK    6  A    between atoms: C8_8  and  C9_9 
REMARK    7  A    between atoms: C9_9  and  N1_10 
ROOT
HETATM    1  C1  UNL     1      40.857  25.863  26.332  1.00  0.00     0.112 C 
HETATM    2  C2  UNL     1      39.898  24.801  25.989  1.00  0.00    -0.111 C 
HETATM    3  C3  UNL     1      39.090  23.935  25.708  1.00  0.00    -0.104 C 
ENDROOT
BRANCH   3   4
HETATM    4  C4  UNL     1      38.107  22.908  25.381  1.00  0.00     0.132 C 
BRANCH   4   5
HETATM    5  C5  UNL     1      38.091  22.564  23.929  1.00  0.00     0.071 C 
HETATM    6  C17 UNL     1      36.720  22.690  23.326  1.00  0.00     0.041 C 
HETATM    7  C18 UNL     1      36.945  23.492  22.080  1.00  0.00     0.029 C 
HETATM    8  C19 UNL     1      38.432  23.496  21.922  1.00  0.00     0.169 C 
HETATM    9  O1  UNL     1      38.905  23.465  23.213  1.00  0.00    -0.379 OA
BRANCH   5  10
HETATM   10  C6  UNL     1      38.682  21.193  23.680  1.00  0.00     0.039 C 
BRANCH  10  11
HETATM   11  C7  UNL     1      37.630  20.116  23.725  1.00  0.00     0.004 C 
BRANCH  11  12
HETATM   12  C8  UNL     1      37.458  19.364  22.440  1.00  0.00     0.020 C 
BRANCH  12  13
HETATM   13  C9  UNL     1      38.598  18.500  22.135  1.00  0.00     0.124 C 
BRANCH  13  14
HETATM   14  N1  UNL     1      38.994  18.316  20.784  1.00  0.00    -0.367 N 
HETATM   15  C10 UNL     1      38.795  19.296  19.728  1.00  0.00     0.161 C 
HETATM   16  C11 UNL     1      39.900  19.285  18.693  1.00  0.00     0.227 C 
HETATM   17  C12 UNL     1      39.395  18.815  17.382  1.00  0.00     0.003 C 
HETATM   18  N2  UNL     1      40.993  18.439  19.048  1.00  0.00    -0.055 N 
HETATM   19  C13 UNL     1      39.407  17.529  17.114  1.00  0.00    -0.026 C 
HETATM   20  C14 UNL     1      39.903  16.478  18.059  1.00  0.00     0.068 C 
HETATM   21  C15 UNL     1      40.571  17.081  19.277  1.00  0.00     0.256 C 
HETATM   22  C16 UNL     1      39.591  17.102  20.389  1.00  0.00     0.104 C 
HETATM   23  N3  UNL     1      39.301  15.979  20.956  1.00  0.00    -0.387 N 
ATOM     24  H32 UNL     1      38.626  15.994  21.721  1.00  0.00     0.157 HD
ATOM     25  H31 UNL     1      39.733  15.100  20.671  1.00  0.00     0.157 HD
ATOM     26  H22 UNL     1      41.737  18.484  18.352  1.00  0.00     0.279 HD
ATOM     27  H21 UNL     1      41.501  18.808  19.851  1.00  0.00     0.279 HD
ENDBRANCH  13  14
ENDBRANCH  12  13
ENDBRANCH  11  12
ENDBRANCH  10  11
ENDBRANCH   5  10
ENDBRANCH   4   5
ENDBRANCH   3   4
TORSDOF 7
ENDMDL
MODEL 4
REMARK VINA RESULT: -6.657348966      1.048      1.209
REMARK  7 active torsions:
REMARK  status: ('A' for Active; 'I' for Inactive)
REMARK    1  A    between atoms: C3_3  and  C4_4 
REMARK    2  A    between atoms: C4_4  and  C5_5 
REMARK    3  A    between atoms: C5_5  and  C6_6 
REMARK    4  A    between atoms: C6_6  and  C7_7 
REMARK    5  A    between atoms: C7_7  and  C8_8 
REMARK    6  A    between atoms: C8_8  and  C9_9 
REMARK    7  A    between atoms: C9_9  and  N1_10 
ROOT
HETATM    1  C1  UNL     1      40.017  25.127  26.147  1.00  0.00     0.112 C 
HETATM    2  C2  UNL     1      39.481  23.878  25.584  1.00  0.00    -0.111 C 
HETATM    3  C3  UNL     1      39.055  22.837  25.120  1.00  0.00    -0.104 C 
ENDROOT
BRANCH   3   4
HETATM    4  C4  UNL     1      38.563  21.583  24.558  1.00  0.00     0.132 C 
BRANCH   4   5
HETATM    5  C5  UNL     1      37.833  21.771  23.270  1.00  0.00     0.071 C 
HETATM    6  C17 UNL     1      36.749  22.807  23.374  1.00  0.00     0.041 C 
HETATM    7  C18 UNL     1      36.978  23.691  22.187  1.00  0.00     0.029 C 
HETATM    8  C19 UNL     1      37.962  22.929  21.358  1.00  0.00     0.169 C 
HETATM    9  O1  UNL     1      38.720  22.247  22.282  1.00  0.00    -0.379 OA
BRANCH   5  10
HETATM   10  C6  UNL     1      37.298  20.458  22.741  1.00  0.00     0.039 C 
BRANCH  10  11
HETATM   11  C7  UNL     1      38.366  19.397  22.702  1.00  0.00     0.004 C 
BRANCH  11  12
HETATM   12  C8  UNL     1      38.405  18.604  21.431  1.00  0.00     0.020 C 
BRANCH  12  13
HETATM   13  C9  UNL     1      39.320  17.464  21.506  1.00  0.00     0.124 C 
BRANCH  13  14
HETATM   14  N1  UNL     1      38.840  16.162  21.204  1.00  0.00    -0.367 N 
HETATM   15  C10 UNL     1      38.144  15.303  22.147  1.00  0.00     0.161 C 
HETATM   16  C11 UNL     1      37.095  14.429  21.492  1.00  0.00     0.227 C 
HETATM   17  C12 UNL     1      37.478  13.000  21.556  1.00  0.00     0.003 C 
HETATM   18  N2  UNL     1      36.884  14.744  20.116  1.00  0.00    -0.055 N 
HETATM   19  C13 UNL     1      38.214  12.489  20.595  1.00  0.00    -0.026 C 
HETATM   20  C14 UNL     1      38.707  13.263  19.413  1.00  0.00     0.068 C 
HETATM   21  C15 UNL     1      38.099  14.648  19.348  1.00  0.00     0.256 C 
HETATM   22  C16 UNL     1      39.065  15.614  19.925  1.00  0.00     0.104 C 
HETATM   23  N3  UNL     1      40.109  15.911  19.226  1.00  0.00    -0.387 N 
ATOM     24  H32 UNL     1      40.774  16.575  19.623  1.00  0.00     0.157 HD
ATOM     25  H31 UNL     1      40.272  15.514  18.300  1.00  0.00     0.157 HD
ATOM     26  H22 UNL     1      36.145  14.167  19.714  1.00  0.00     0.279 HD
ATOM     27  H21 UNL     1      36.449  15.660  20.008  1.00  0.00     0.279 HD
ENDBRANCH  13  14
ENDBRANCH  12  13
ENDBRANCH  11  12
ENDBRANCH  10  11
ENDBRANCH   5  10
ENDBRANCH   4   5
ENDBRANCH   3   4
TORSDOF 7
ENDMDL
MODEL 5
REMARK VINA RESULT: -6.634849035      4.037      5.878
REMARK  7 active torsions:
REMARK  status: ('A' for Active; 'I' for Inactive)
REMARK    1  A    between atoms: C3_3  and  C4_4 
REMARK    2  A    between atoms: C4_4  and  C5_5 
REMARK    3  A    between atoms: C5_5  and  C6_6 
REMARK    4  A    between atoms: C6_6  and  C7_7 
REMARK    5  A    between atoms: C7_7  and  C8_8 
REMARK    6  A    between atoms: C8_8  and  C9_9 
REMARK    7  A    between atoms: C9_9  and  N1_10 
ROOT
HETATM    1  C1  UNL     1      40.972  26.036  26.297  1.00  0.00     0.112 C 
HETATM    2  C2  UNL     1      39.982  24.986  26.006  1.00  0.00    -0.111 C 
HETATM    3  C3  UNL     1      39.150  24.132  25.765  1.00  0.00    -0.104 C 
ENDROOT
BRANCH   3   4
HETATM    4  C4  UNL     1      38.138  23.120  25.481  1.00  0.00     0.132 C 
BRANCH   4   5
HETATM    5  C5  UNL     1      38.141  22.681  24.055  1.00  0.00     0.071 C 
HETATM    6  C17 UNL     1      36.766  22.692  23.450  1.00  0.00     0.041 C 
HETATM    7  C18 UNL     1      36.946  23.421  22.154  1.00  0.00     0.029 C 
HETATM    8  C19 UNL     1      38.430  23.498  21.990  1.00  0.00     0.169 C 
HETATM    9  O1  UNL     1      38.904  23.578  23.278  1.00  0.00    -0.379 OA
BRANCH   5  10
HETATM   10  C6  UNL     1      38.808  21.332  23.893  1.00  0.00     0.039 C 
BRANCH  10  11
HETATM   11  C7  UNL     1      37.811  20.255  23.555  1.00  0.00     0.004 C 
BRANCH  11  12
HETATM   12  C8  UNL     1      38.331  19.198  22.629  1.00  0.00     0.020 C 
BRANCH  12  13
HETATM   13  C9  UNL     1      37.525  19.066  21.414  1.00  0.00     0.124 C 
BRANCH  13  14
HETATM   14  N1  UNL     1      37.594  20.073  20.417  1.00  0.00    -0.367 N 
HETATM   15  C10 UNL     1      38.832  20.639  19.904  1.00  0.00     0.161 C 
HETATM   16  C11 UNL     1      38.748  21.021  18.441  1.00  0.00     0.227 C 
HETATM   17  C12 UNL     1      38.832  22.490  18.270  1.00  0.00     0.003 C 
HETATM   18  N2  UNL     1      37.536  20.596  17.820  1.00  0.00    -0.055 N 
HETATM   19  C13 UNL     1      37.731  23.205  18.311  1.00  0.00    -0.026 C 
HETATM   20  C14 UNL     1      36.365  22.631  18.526  1.00  0.00     0.068 C 
HETATM   21  C15 UNL     1      36.373  21.118  18.493  1.00  0.00     0.256 C 
HETATM   22  C16 UNL     1      36.406  20.616  19.888  1.00  0.00     0.104 C 
HETATM   23  N3  UNL     1      35.326  20.713  20.587  1.00  0.00    -0.387 N 
ATOM     24  H32 UNL     1      35.349  20.368  21.547  1.00  0.00     0.157 HD
ATOM     25  H31 UNL     1      34.465  21.105  20.204  1.00  0.00     0.157 HD
ATOM     26  H22 UNL     1      37.526  20.832  16.828  1.00  0.00     0.279 HD
ATOM     27  H21 UNL     1      37.495  19.580  17.744  1.00  0.00     0.279 HD
ENDBRANCH  13  14
ENDBRANCH  12  13
ENDBRANCH  11  12
ENDBRANCH  10  11
ENDBRANCH   5  10
ENDBRANCH   4   5
ENDBRANCH   3   4
TORSDOF 7
ENDMDL
