MODEL 1
REMARK VINA RESULT: -7.859371175      0.000      0.000
REMARK  8 active torsions:
REMARK  status: ('A' for Active; 'I' for Inactive)
REMARK    1  A    between atoms: C2_2  and  C4_4 
REMARK    2  A    between atoms: C4_4  and  C5_5 
REMARK    3  A    between atoms: C5_5  and  N1_6 
REMARK    4  A    between atoms: C5_5  and  C18_22 
REMARK       I    between atoms: N1_6  and  C6_8 
REMARK       I    between atoms: C6_8  and  N2_10 
REMARK       I    between atoms: C18_22  and  N3_24 
REMARK    5  A    between atoms: N3_24  and  C19_26 
REMARK    6  A    between atoms: C19_26  and  C20_27 
REMARK       I    between atoms: C20_27  and  N4_29 
REMARK    7  A    between atoms: N4_29  and  C21_31 
REMARK    8  A    between atoms: C21_31  and  C23_33 
ROOT
HETATM    1  C5  UNL     1      37.638 -19.965  26.033  1.00  0.00     0.178 C 
ENDROOT
BRANCH   1   2
HETATM    2  C4  UNL     1      38.369 -19.152  25.017  1.00  0.00     0.038 C 
BRANCH   2   3
HETATM    3  C2  UNL     1      37.597 -18.275  24.141  1.00  0.00    -0.020 C 
HETATM    4  C1  UNL     1      36.452 -18.847  23.396  1.00  0.00     0.009 C 
HETATM    5  C3  UNL     1      38.566 -17.716  23.083  1.00  0.00     0.009 C 
ENDBRANCH   2   3
ENDBRANCH   1   2
BRANCH   1   6
HETATM    6  N1  UNL     1      37.898 -21.389  25.756  1.00  0.00    -0.330 N 
HETATM    7  C6  UNL     1      36.776 -22.193  25.439  1.00  0.00     0.319 C 
HETATM    8  O1  UNL     1      35.605 -21.648  25.408  1.00  0.00    -0.247 OA
HETATM    9  N2  UNL     1      36.851 -23.577  25.146  1.00  0.00    -0.334 N 
HETATM   10  C7  UNL     1      35.587 -24.257  24.811  1.00  0.00     0.127 C 
HETATM   11  C17 UNL     1      38.108 -24.244  25.175  1.00  0.00     0.127 C 
HETATM   12  C8  UNL     1      35.138 -23.963  23.406  1.00  0.00     0.020 C 
HETATM   13  C9  UNL     1      35.749 -24.843  22.365  1.00  0.00     0.002 C 
HETATM   14  C10 UNL     1      35.379 -26.276  22.446  1.00  0.00     0.000 C 
HETATM   15  C11 UNL     1      36.368 -27.152  21.749  1.00  0.00     0.000 C 
HETATM   16  C12 UNL     1      37.763 -27.084  22.268  1.00  0.00     0.000 C 
HETATM   17  C13 UNL     1      37.892 -27.384  23.740  1.00  0.00     0.000 C 
HETATM   18  C14 UNL     1      39.193 -26.857  24.308  1.00  0.00     0.000 C 
HETATM   19  C15 UNL     1      39.105 -26.466  25.753  1.00  0.00     0.002 C 
HETATM   20  C16 UNL     1      38.023 -25.460  26.055  1.00  0.00     0.020 C 
ATOM     21  H1  UNL     1      38.841 -21.777  25.791  1.00  0.00     0.165 HD
ENDBRANCH   1   6
BRANCH   1  22
HETATM   22  C18 UNL     1      37.873 -19.616  27.422  1.00  0.00     0.240 C 
HETATM   23  O2  UNL     1      37.959 -20.516  28.289  1.00  0.00    -0.271 OA
HETATM   24  N3  UNL     1      38.012 -18.272  27.843  1.00  0.00    -0.351 N 
ATOM     25  H3  UNL     1      37.944 -17.541  27.135  1.00  0.00     0.163 HD
BRANCH  24  26
HETATM   26  C19 UNL     1      38.243 -17.869  29.198  1.00  0.00     0.225 C 
BRANCH  26  27
HETATM   27  C20 UNL     1      37.725 -16.522  29.532  1.00  0.00     0.236 C 
HETATM   28  O3  UNL     1      38.013 -15.928  30.606  1.00  0.00    -0.272 OA
HETATM   29  N4  UNL     1      36.869 -15.904  28.574  1.00  0.00    -0.347 N 
ATOM     30  H4  UNL     1      36.632 -16.375  27.701  1.00  0.00     0.163 HD
BRANCH  29  31
HETATM   31  C21 UNL     1      36.348 -14.589  28.875  1.00  0.00     0.169 C 
HETATM   32  C22 UNL     1      36.277 -13.786  27.581  1.00  0.00     0.042 C 
BRANCH  31  33
HETATM   33  C23 UNL     1      34.990 -14.678  29.460  1.00  0.00     0.253 C 
HETATM   34  N5  UNL     1      34.346 -13.521  29.965  1.00  0.00    -0.060 NA
HETATM   35  O4  UNL     1      34.403 -15.792  29.509  1.00  0.00    -0.275 OA
ENDBRANCH  31  33
ENDBRANCH  29  31
ENDBRANCH  26  27
ENDBRANCH  24  26
ENDBRANCH   1  22
TORSDOF 8
ENDMDL
MODEL 2
REMARK VINA RESULT: -7.769841927      1.988      2.601
REMARK  8 active torsions:
REMARK  status: ('A' for Active; 'I' for Inactive)
REMARK    1  A    between atoms: C2_2  and  C4_4 
REMARK    2  A    between atoms: C4_4  and  C5_5 
REMARK    3  A    between atoms: C5_5  and  N1_6 
REMARK    4  A    between atoms: C5_5  and  C18_22 
REMARK       I    between atoms: N1_6  and  C6_8 
REMARK       I    between atoms: C6_8  and  N2_10 
REMARK       I    between atoms: C18_22  and  N3_24 
REMARK    5  A    between atoms: N3_24  and  C19_26 
REMARK    6  A    between atoms: C19_26  and  C20_27 
REMARK       I    between atoms: C20_27  and  N4_29 
REMARK    7  A    between atoms: N4_29  and  C21_31 
REMARK    8  A    between atoms: C21_31  and  C23_33 
ROOT
HETATM    1  C5  UNL     1      37.936 -18.987  23.674  1.00  0.00     0.178 C 
ENDROOT
BRANCH   1   2
HETATM    2  C4  UNL     1      37.865 -18.994  22.183  1.00  0.00     0.038 C 
BRANCH   2   3
HETATM    3  C2  UNL     1      36.549 -18.943  21.550  1.00  0.00    -0.020 C 
HETATM    4  C1  UNL     1      35.398 -18.459  22.346  1.00  0.00     0.009 C 
HETATM    5  C3  UNL     1      36.199 -20.375  21.108  1.00  0.00     0.009 C 
ENDBRANCH   2   3
ENDBRANCH   1   2
BRANCH   1   6
HETATM    6  N1  UNL     1      38.379 -20.321  24.119  1.00  0.00    -0.330 N 
HETATM    7  C6  UNL     1      37.376 -21.200  24.596  1.00  0.00     0.319 C 
HETATM    8  O1  UNL     1      36.149 -20.796  24.615  1.00  0.00    -0.247 OA
HETATM    9  N2  UNL     1      37.629 -22.514  25.059  1.00  0.00    -0.334 N 
HETATM   10  C7  UNL     1      36.465 -23.304  25.496  1.00  0.00     0.127 C 
HETATM   11  C17 UNL     1      38.961 -23.018  25.077  1.00  0.00     0.127 C 
HETATM   12  C8  UNL     1      35.674 -23.843  24.335  1.00  0.00     0.020 C 
HETATM   13  C9  UNL     1      36.189 -25.132  23.782  1.00  0.00     0.002 C 
HETATM   14  C10 UNL     1      36.107 -26.295  24.697  1.00  0.00     0.000 C 
HETATM   15  C11 UNL     1      37.060 -27.379  24.314  1.00  0.00     0.000 C 
HETATM   16  C12 UNL     1      38.499 -26.997  24.306  1.00  0.00     0.000 C 
HETATM   17  C13 UNL     1      38.998 -26.435  25.614  1.00  0.00     0.000 C 
HETATM   18  C14 UNL     1      40.276 -25.645  25.433  1.00  0.00     0.000 C 
HETATM   19  C15 UNL     1      40.439 -24.527  26.420  1.00  0.00     0.002 C 
HETATM   20  C16 UNL     1      39.287 -23.553  26.444  1.00  0.00     0.020 C 
ATOM     21  H1  UNL     1      39.360 -20.598  24.085  1.00  0.00     0.165 HD
ENDBRANCH   1   6
BRANCH   1  22
HETATM   22  C18 UNL     1      38.711 -17.916  24.273  1.00  0.00     0.240 C 
HETATM   23  O2  UNL     1      39.955 -18.020  24.369  1.00  0.00    -0.271 OA
HETATM   24  N3  UNL     1      38.103 -16.736  24.763  1.00  0.00    -0.351 N 
ATOM     25  H3  UNL     1      37.090 -16.653  24.682  1.00  0.00     0.163 HD
BRANCH  24  26
HETATM   26  C19 UNL     1      38.816 -15.649  25.366  1.00  0.00     0.225 C 
BRANCH  26  27
HETATM   27  C20 UNL     1      38.499 -15.428  26.796  1.00  0.00     0.236 C 
HETATM   28  O3  UNL     1      39.354 -15.565  27.712  1.00  0.00    -0.272 OA
HETATM   29  N4  UNL     1      37.162 -15.044  27.109  1.00  0.00    -0.347 N 
ATOM     30  H4  UNL     1      36.464 -14.928  26.374  1.00  0.00     0.163 HD
BRANCH  29  31
HETATM   31  C21 UNL     1      36.825 -14.823  28.498  1.00  0.00     0.169 C 
HETATM   32  C22 UNL     1      35.917 -13.602  28.590  1.00  0.00     0.042 C 
BRANCH  31  33
HETATM   33  C23 UNL     1      36.114 -15.994  29.063  1.00  0.00     0.253 C 
HETATM   34  N5  UNL     1      36.786 -17.229  29.236  1.00  0.00    -0.060 NA
HETATM   35  O4  UNL     1      34.903 -15.889  29.393  1.00  0.00    -0.275 OA
ENDBRANCH  31  33
ENDBRANCH  29  31
ENDBRANCH  26  27
ENDBRANCH  24  26
ENDBRANCH   1  22
TORSDOF 8
ENDMDL
MODEL 3
REMARK VINA RESULT: -7.633253423      1.577      2.174
REMARK  8 active torsions:
REMARK  status: ('A' for Active; 'I' for Inactive)
REMARK    1  A    between atoms: C2_2  and  C4_4 
REMARK    2  A    between atoms: C4_4  and  C5_5 
REMARK    3  A    between atoms: C5_5  and  N1_6 
REMARK    4  A    between atoms: C5_5  and  C18_22 
REMARK       I    between atoms: N1_6  and  C6_8 
REMARK       I    between atoms: C6_8  and  N2_10 
REMARK       I    between atoms: C18_22  and  N3_24 
REMARK    5  A    between atoms: N3_24  and  C19_26 
REMARK    6  A    between atoms: C19_26  and  C20_27 
REMARK       I    between atoms: C20_27  and  N4_29 
REMARK    7  A    between atoms: N4_29  and  C21_31 
REMARK    8  A    between atoms: C21_31  and  C23_33 
ROOT
HETATM    1  C5  UNL     1      37.148 -19.480  23.767  1.00  0.00     0.178 C 
ENDROOT
BRANCH   1   2
HETATM    2  C4  UNL     1      37.539 -19.157  22.363  1.00  0.00     0.038 C 
BRANCH   2   3
HETATM    3  C2  UNL     1      36.484 -18.844  21.402  1.00  0.00    -0.020 C 
HETATM    4  C1  UNL     1      35.141 -18.490  21.916  1.00  0.00     0.009 C 
HETATM    5  C3  UNL     1      36.294 -20.086  20.512  1.00  0.00     0.009 C 
ENDBRANCH   2   3
ENDBRANCH   1   2
BRANCH   1   6
HETATM    6  N1  UNL     1      37.520 -20.881  24.036  1.00  0.00    -0.330 N 
HETATM    7  C6  UNL     1      36.458 -21.804  24.203  1.00  0.00     0.319 C 
HETATM    8  O1  UNL     1      35.242 -21.378  24.112  1.00  0.00    -0.247 OA
HETATM    9  N2  UNL     1      36.641 -23.183  24.466  1.00  0.00    -0.334 N 
HETATM   10  C7  UNL     1      35.425 -24.006  24.585  1.00  0.00     0.127 C 
HETATM   11  C17 UNL     1      37.955 -23.716  24.592  1.00  0.00     0.127 C 
HETATM   12  C8  UNL     1      34.816 -24.321  23.246  1.00  0.00     0.020 C 
HETATM   13  C9  UNL     1      35.409 -25.509  22.562  1.00  0.00     0.002 C 
HETATM   14  C10 UNL     1      35.192 -26.809  23.241  1.00  0.00     0.000 C 
HETATM   15  C11 UNL     1      36.192 -27.835  22.821  1.00  0.00     0.000 C 
HETATM   16  C12 UNL     1      37.616 -27.493  23.090  1.00  0.00     0.000 C 
HETATM   17  C13 UNL     1      37.914 -27.174  24.534  1.00  0.00     0.000 C 
HETATM   18  C14 UNL     1      39.205 -26.396  24.681  1.00  0.00     0.000 C 
HETATM   19  C15 UNL     1      39.218 -25.467  25.858  1.00  0.00     0.002 C 
HETATM   20  C16 UNL     1      38.076 -24.483  25.880  1.00  0.00     0.020 C 
ATOM     21  H1  UNL     1      38.496 -21.172  24.099  1.00  0.00     0.165 HD
ENDBRANCH   1   6
BRANCH   1  22
HETATM   22  C18 UNL     1      37.628 -18.571  24.791  1.00  0.00     0.240 C 
HETATM   23  O2  UNL     1      37.040 -17.484  24.991  1.00  0.00    -0.271 OA
HETATM   24  N3  UNL     1      38.760 -18.871  25.587  1.00  0.00    -0.351 N 
ATOM     25  H3  UNL     1      39.237 -19.757  25.422  1.00  0.00     0.163 HD
BRANCH  24  26
HETATM   26  C19 UNL     1      39.281 -18.012  26.608  1.00  0.00     0.225 C 
BRANCH  26  27
HETATM   27  C20 UNL     1      38.444 -17.935  27.828  1.00  0.00     0.236 C 
HETATM   28  O3  UNL     1      38.367 -18.877  28.661  1.00  0.00    -0.272 OA
HETATM   29  N4  UNL     1      37.713 -16.729  28.033  1.00  0.00    -0.347 N 
ATOM     30  H4  UNL     1      37.771 -15.960  27.366  1.00  0.00     0.163 HD
BRANCH  29  31
HETATM   31  C21 UNL     1      36.886 -16.627  29.216  1.00  0.00     0.169 C 
HETATM   32  C22 UNL     1      37.773 -16.257  30.399  1.00  0.00     0.042 C 
BRANCH  31  33
HETATM   33  C23 UNL     1      35.848 -15.583  29.049  1.00  0.00     0.253 C 
HETATM   34  N5  UNL     1      36.152 -14.364  28.395  1.00  0.00    -0.060 NA
HETATM   35  O4  UNL     1      34.685 -15.782  29.491  1.00  0.00    -0.275 OA
ENDBRANCH  31  33
ENDBRANCH  29  31
ENDBRANCH  26  27
ENDBRANCH  24  26
ENDBRANCH   1  22
TORSDOF 8
ENDMDL
MODEL 4
REMARK VINA RESULT: -7.584012614      4.275      6.211
REMARK  8 active torsions:
REMARK  status: ('A' for Active; 'I' for Inactive)
REMARK    1  A    between atoms: C2_2  and  C4_4 
REMARK    2  A    between atoms: C4_4  and  C5_5 
REMARK    3  A    between atoms: C5_5  and  N1_6 
REMARK    4  A    between atoms: C5_5  and  C18_22 
REMARK       I    between atoms: N1_6  and  C6_8 
REMARK       I    between atoms: C6_8  and  N2_10 
REMARK       I    between atoms: C18_22  and  N3_24 
REMARK    5  A    between atoms: N3_24  and  C19_26 
REMARK    6  A    between atoms: C19_26  and  C20_27 
REMARK       I    between atoms: C20_27  and  N4_29 
REMARK    7  A    between atoms: N4_29  and  C21_31 
REMARK    8  A    between atoms: C21_31  and  C23_33 
ROOT
HETATM    1  C5  UNL     1      38.529 -20.472  26.685  1.00  0.00     0.178 C 
ENDROOT
BRANCH   1   2
HETATM    2  C4  UNL     1      38.143 -21.446  25.622  1.00  0.00     0.038 C 
BRANCH   2   3
HETATM    3  C2  UNL     1      36.883 -22.172  25.768  1.00  0.00    -0.020 C 
HETATM    4  C1  UNL     1      36.853 -23.613  25.429  1.00  0.00     0.009 C 
HETATM    5  C3  UNL     1      35.853 -21.489  24.850  1.00  0.00     0.009 C 
ENDBRANCH   2   3
ENDBRANCH   1   2
BRANCH   1   6
HETATM    6  N1  UNL     1      39.944 -20.702  27.028  1.00  0.00    -0.330 N 
HETATM    7  C6  UNL     1      40.210 -21.273  28.296  1.00  0.00     0.319 C 
HETATM    8  O1  UNL     1      39.218 -21.558  29.073  1.00  0.00    -0.247 OA
HETATM    9  N2  UNL     1      41.510 -21.560  28.779  1.00  0.00    -0.334 N 
HETATM   10  C7  UNL     1      41.604 -22.179  30.113  1.00  0.00     0.127 C 
HETATM   11  C17 UNL     1      42.649 -21.258  27.980  1.00  0.00     0.127 C 
HETATM   12  C8  UNL     1      41.269 -23.645  30.086  1.00  0.00     0.020 C 
HETATM   13  C9  UNL     1      42.414 -24.534  29.724  1.00  0.00     0.002 C 
HETATM   14  C10 UNL     1      43.534 -24.556  30.695  1.00  0.00     0.000 C 
HETATM   15  C11 UNL     1      44.808 -25.024  30.071  1.00  0.00     0.000 C 
HETATM   16  C12 UNL     1      45.303 -24.206  28.930  1.00  0.00     0.000 C 
HETATM   17  C13 UNL     1      45.500 -22.746  29.254  1.00  0.00     0.000 C 
HETATM   18  C14 UNL     1      45.539 -21.894  28.003  1.00  0.00     0.000 C 
HETATM   19  C15 UNL     1      45.024 -20.501  28.207  1.00  0.00     0.002 C 
HETATM   20  C16 UNL     1      43.627 -20.435  28.772  1.00  0.00     0.020 C 
ATOM     21  H1  UNL     1      40.696 -20.462  26.382  1.00  0.00     0.165 HD
ENDBRANCH   1   6
BRANCH   1  22
HETATM   22  C18 UNL     1      38.244 -19.077  26.409  1.00  0.00     0.240 C 
HETATM   23  O2  UNL     1      37.072 -18.644  26.504  1.00  0.00    -0.271 OA
HETATM   24  N3  UNL     1      39.259 -18.167  26.027  1.00  0.00    -0.351 N 
ATOM     25  H3  UNL     1      40.212 -18.521  25.951  1.00  0.00     0.163 HD
BRANCH  24  26
HETATM   26  C19 UNL     1      39.037 -16.781  25.739  1.00  0.00     0.225 C 
BRANCH  26  27
HETATM   27  C20 UNL     1      38.656 -15.965  26.915  1.00  0.00     0.236 C 
HETATM   28  O3  UNL     1      39.444 -15.743  27.874  1.00  0.00    -0.272 OA
HETATM   29  N4  UNL     1      37.337 -15.425  26.926  1.00  0.00    -0.347 N 
ATOM     30  H4  UNL     1      36.693 -15.597  26.154  1.00  0.00     0.163 HD
BRANCH  29  31
HETATM   31  C21 UNL     1      36.938 -14.625  28.063  1.00  0.00     0.169 C 
HETATM   32  C22 UNL     1      36.332 -13.323  27.554  1.00  0.00     0.042 C 
BRANCH  31  33
HETATM   33  C23 UNL     1      35.931 -15.336  28.885  1.00  0.00     0.253 C 
HETATM   34  N5  UNL     1      34.843 -14.632  29.457  1.00  0.00    -0.060 NA
HETATM   35  O4  UNL     1      36.043 -16.576  29.074  1.00  0.00    -0.275 OA
ENDBRANCH  31  33
ENDBRANCH  29  31
ENDBRANCH  26  27
ENDBRANCH  24  26
ENDBRANCH   1  22
TORSDOF 8
ENDMDL
MODEL 5
REMARK VINA RESULT: -7.552576259      0.970      1.027
REMARK  8 active torsions:
REMARK  status: ('A' for Active; 'I' for Inactive)
REMARK    1  A    between atoms: C2_2  and  C4_4 
REMARK    2  A    between atoms: C4_4  and  C5_5 
REMARK    3  A    between atoms: C5_5  and  N1_6 
REMARK    4  A    between atoms: C5_5  and  C18_22 
REMARK       I    between atoms: N1_6  and  C6_8 
REMARK       I    between atoms: C6_8  and  N2_10 
REMARK       I    between atoms: C18_22  and  N3_24 
REMARK    5  A    between atoms: N3_24  and  C19_26 
REMARK    6  A    between atoms: C19_26  and  C20_27 
REMARK       I    between atoms: C20_27  and  N4_29 
REMARK    7  A    between atoms: N4_29  and  C21_31 
REMARK    8  A    between atoms: C21_31  and  C23_33 
ROOT
HETATM    1  C5  UNL     1      37.421 -20.775  25.824  1.00  0.00     0.178 C 
ENDROOT
BRANCH   1   2
HETATM    2  C4  UNL     1      37.831 -19.802  24.769  1.00  0.00     0.038 C 
BRANCH   2   3
HETATM    3  C2  UNL     1      36.940 -18.682  24.473  1.00  0.00    -0.020 C 
HETATM    4  C1  UNL     1      36.370 -18.572  23.110  1.00  0.00     0.009 C 
HETATM    5  C3  UNL     1      37.736 -17.387  24.715  1.00  0.00     0.009 C 
ENDBRANCH   2   3
ENDBRANCH   1   2
BRANCH   1   6
HETATM    6  N1  UNL     1      37.802 -22.126  25.375  1.00  0.00    -0.330 N 
HETATM    7  C6  UNL     1      36.754 -23.066  25.216  1.00  0.00     0.319 C 
HETATM    8  O1  UNL     1      35.542 -22.697  25.467  1.00  0.00    -0.247 OA
HETATM    9  N2  UNL     1      36.947 -24.403  24.792  1.00  0.00    -0.334 N 
HETATM   10  C7  UNL     1      35.742 -25.239  24.654  1.00  0.00     0.127 C 
HETATM   11  C17 UNL     1      38.259 -24.879  24.511  1.00  0.00     0.127 C 
HETATM   12  C8  UNL     1      34.974 -24.930  23.398  1.00  0.00     0.020 C 
HETATM   13  C9  UNL     1      35.465 -25.646  22.182  1.00  0.00     0.002 C 
HETATM   14  C10 UNL     1      35.311 -27.121  22.207  1.00  0.00     0.000 C 
HETATM   15  C11 UNL     1      36.239 -27.798  21.253  1.00  0.00     0.000 C 
HETATM   16  C12 UNL     1      37.690 -27.557  21.488  1.00  0.00     0.000 C 
HETATM   17  C13 UNL     1      38.162 -27.924  22.873  1.00  0.00     0.000 C 
HETATM   18  C14 UNL     1      39.472 -27.247  23.216  1.00  0.00     0.000 C 
HETATM   19  C15 UNL     1      39.638 -26.962  24.679  1.00  0.00     0.002 C 
HETATM   20  C16 UNL     1      38.520 -26.146  25.279  1.00  0.00     0.020 C 
ATOM     21  H1  UNL     1      38.775 -22.373  25.188  1.00  0.00     0.165 HD
ENDBRANCH   1   6
BRANCH   1  22
HETATM   22  C18 UNL     1      37.877 -20.488  27.171  1.00  0.00     0.240 C 
HETATM   23  O2  UNL     1      38.524 -21.347  27.812  1.00  0.00    -0.271 OA
HETATM   24  N3  UNL     1      37.612 -19.249  27.803  1.00  0.00    -0.351 N 
ATOM     25  H3  UNL     1      37.085 -18.551  27.279  1.00  0.00     0.163 HD
BRANCH  24  26
HETATM   26  C19 UNL     1      38.033 -18.911  29.130  1.00  0.00     0.225 C 
BRANCH  26  27
HETATM   27  C20 UNL     1      37.867 -17.482  29.480  1.00  0.00     0.236 C 
HETATM   28  O3  UNL     1      38.198 -17.011  30.601  1.00  0.00    -0.272 OA
HETATM   29  N4  UNL     1      37.306 -16.634  28.480  1.00  0.00    -0.347 N 
ATOM     30  H4  UNL     1      37.037 -17.005  27.568  1.00  0.00     0.163 HD
BRANCH  29  31
HETATM   31  C21 UNL     1      37.131 -15.233  28.794  1.00  0.00     0.169 C 
HETATM   32  C22 UNL     1      37.572 -14.406  27.593  1.00  0.00     0.042 C 
BRANCH  31  33
HETATM   33  C23 UNL     1      35.712 -14.930  29.092  1.00  0.00     0.253 C 
HETATM   34  N5  UNL     1      35.224 -13.604  28.995  1.00  0.00    -0.060 NA
HETATM   35  O4  UNL     1      34.933 -15.860  29.433  1.00  0.00    -0.275 OA
ENDBRANCH  31  33
ENDBRANCH  29  31
ENDBRANCH  26  27
ENDBRANCH  24  26
ENDBRANCH   1  22
TORSDOF 8
ENDMDL
