MODEL 1
REMARK VINA RESULT: -9.917396021      0.000      0.000
REMARK  5 active torsions:
REMARK  status: ('A' for Active; 'I' for Inactive)
REMARK    1  A    between atoms: C2_2  and  O1_3 
REMARK    2  A    between atoms: C2_2  and  C9_10 
REMARK    3  A    between atoms: C2_2  and  C28_36 
REMARK    4  A    between atoms: O1_3  and  C3_4 
REMARK       I    between atoms: C9_10  and  N1_12 
REMARK    5  A    between atoms: N1_12  and  C10_14 
ROOT
HETATM    1  C10 UNL     1      37.046   3.946  52.465  1.00  0.00     0.081 C 
HETATM    2  C11 UNL     1      36.680   3.300  53.561  1.00  0.00     0.113 C 
HETATM    3  C12 UNL     1      37.277   1.951  53.556  1.00  0.00     0.288 C 
HETATM    4  O3  UNL     1      37.159   1.046  54.408  1.00  0.00    -0.260 OA
HETATM    5  O4  UNL     1      37.969   1.934  52.425  1.00  0.00    -0.273 OA
HETATM    6  C13 UNL     1      37.817   3.064  51.582  1.00  0.00     0.225 C 
HETATM    7  O5  UNL     1      39.089   3.434  51.268  1.00  0.00    -0.342 OA
HETATM    8  C14 UNL     1      39.792   2.586  50.481  1.00  0.00     0.142 C 
HETATM    9  C15 UNL     1      39.672   1.090  50.803  1.00  0.00     0.034 C 
HETATM   10  C16 UNL     1      38.357   0.481  50.461  1.00  0.00     0.009 C 
HETATM   11  C17 UNL     1      37.664   1.500  49.559  1.00  0.00     0.005 C 
HETATM   12  C18 UNL     1      38.669   1.735  48.530  1.00  0.00     0.009 C 
HETATM   13  C19 UNL     1      38.519   2.109  47.160  1.00  0.00     0.013 C 
HETATM   14  C20 UNL     1      40.010   2.311  46.805  1.00  0.00     0.079 C 
HETATM   15  C21 UNL     1      40.723   2.490  48.132  1.00  0.00     0.138 C 
HETATM   16  O6  UNL     1      41.893   2.368  48.376  1.00  0.00    -0.297 OA
HETATM   17  C22 UNL     1      39.580   2.853  49.042  1.00  0.00     0.051 C 
HETATM   18  C23 UNL     1      39.188   4.214  48.645  1.00  0.00     0.020 C 
HETATM   19  C24 UNL     1      37.813   4.655  48.799  1.00  0.00     0.002 C 
HETATM   20  C25 UNL     1      36.803   3.800  49.407  1.00  0.00     0.015 C 
HETATM   21  C26 UNL     1      37.121   2.688  50.309  1.00  0.00     0.023 C 
HETATM   22  C27 UNL     1      35.722   2.210  50.786  1.00  0.00     0.022 C 
ENDROOT
BRANCH   1  23
HETATM   23  N1  UNL     1      36.599   5.281  52.265  1.00  0.00    -0.323 N 
HETATM   24  C9  UNL     1      35.328   5.780  51.970  1.00  0.00     0.266 C 
HETATM   25  O2  UNL     1      34.391   4.968  51.835  1.00  0.00    -0.269 OA
ATOM     26  H1  UNL     1      37.327   5.992  52.351  1.00  0.00     0.169 HD
BRANCH  24  27
HETATM   27  C2  UNL     1      34.988   7.196  51.807  1.00  0.00     0.236 C 
HETATM   28  C1  UNL     1      33.475   7.397  52.027  1.00  0.00     0.066 C 
BRANCH  27  29
HETATM   29  O1  UNL     1      35.306   7.810  50.656  1.00  0.00    -0.357 OA
BRANCH  29  30
HETATM   30  C3  UNL     1      34.474   7.941  49.611  1.00  0.00     0.123 C 
HETATM   31  C4  UNL     1      34.995   7.140  48.443  1.00  0.00     0.032 C 
HETATM   32  C5  UNL     1      34.244   7.406  47.152  1.00  0.00     0.002 C 
HETATM   33  C6  UNL     1      34.297   8.883  46.829  1.00  0.00     0.000 C 
HETATM   34  C7  UNL     1      33.554   9.562  47.983  1.00  0.00     0.002 C 
HETATM   35  C8  UNL     1      34.463   9.453  49.175  1.00  0.00     0.032 C 
ENDBRANCH  29  30
ENDBRANCH  27  29
BRANCH  27  36
HETATM   36  C28 UNL     1      35.610   8.097  52.900  1.00  0.00     0.427 C 
HETATM   37  F1  UNL     1      35.580   7.535  54.135  1.00  0.00    -0.167 F 
HETATM   38  F2  UNL     1      36.875   8.495  52.513  1.00  0.00    -0.167 F 
HETATM   39  F3  UNL     1      34.836   9.247  52.943  1.00  0.00    -0.167 F 
ENDBRANCH  27  36
ENDBRANCH  24  27
ENDBRANCH   1  23
TORSDOF 5
ENDMDL
MODEL 2
REMARK VINA RESULT: -9.287149407      1.284      1.463
REMARK  5 active torsions:
REMARK  status: ('A' for Active; 'I' for Inactive)
REMARK    1  A    between atoms: C2_2  and  O1_3 
REMARK    2  A    between atoms: C2_2  and  C9_10 
REMARK    3  A    between atoms: C2_2  and  C28_36 
REMARK    4  A    between atoms: O1_3  and  C3_4 
REMARK       I    between atoms: C9_10  and  N1_12 
REMARK    5  A    between atoms: N1_12  and  C10_14 
ROOT
HETATM    1  C10 UNL     1      35.605   4.433  52.813  1.00  0.00     0.081 C 
HETATM    2  C11 UNL     1      35.264   3.905  53.979  1.00  0.00     0.113 C 
HETATM    3  C12 UNL     1      36.173   2.787  54.295  1.00  0.00     0.288 C 
HETATM    4  O3  UNL     1      36.167   2.041  55.296  1.00  0.00    -0.260 OA
HETATM    5  O4  UNL     1      36.997   2.768  53.256  1.00  0.00    -0.273 OA
HETATM    6  C13 UNL     1      36.686   3.657  52.195  1.00  0.00     0.225 C 
HETATM    7  O5  UNL     1      37.857   4.299  51.928  1.00  0.00    -0.342 OA
HETATM    8  C14 UNL     1      38.850   3.553  51.392  1.00  0.00     0.142 C 
HETATM    9  C15 UNL     1      39.064   2.157  51.992  1.00  0.00     0.034 C 
HETATM   10  C16 UNL     1      38.002   1.166  51.662  1.00  0.00     0.009 C 
HETATM   11  C17 UNL     1      37.209   1.792  50.518  1.00  0.00     0.005 C 
HETATM   12  C18 UNL     1      38.256   2.114  49.557  1.00  0.00     0.009 C 
HETATM   13  C19 UNL     1      38.209   2.198  48.132  1.00  0.00     0.013 C 
HETATM   14  C20 UNL     1      39.637   2.733  47.878  1.00  0.00     0.079 C 
HETATM   15  C21 UNL     1      40.092   3.319  49.201  1.00  0.00     0.138 C 
HETATM   16  O6  UNL     1      41.210   3.561  49.568  1.00  0.00    -0.297 OA
HETATM   17  C22 UNL     1      38.779   3.507  49.915  1.00  0.00     0.051 C 
HETATM   18  C23 UNL     1      38.120   4.623  49.223  1.00  0.00     0.020 C 
HETATM   19  C24 UNL     1      36.670   4.695  49.163  1.00  0.00     0.002 C 
HETATM   20  C25 UNL     1      35.832   3.714  49.835  1.00  0.00     0.015 C 
HETATM   21  C26 UNL     1      36.288   2.897  50.965  1.00  0.00     0.023 C 
HETATM   22  C27 UNL     1      35.001   2.146  51.401  1.00  0.00     0.022 C 
ENDROOT
BRANCH   1  23
HETATM   23  N1  UNL     1      34.872   5.543  52.313  1.00  0.00    -0.323 N 
HETATM   24  C9  UNL     1      35.285   6.843  52.007  1.00  0.00     0.266 C 
HETATM   25  O2  UNL     1      36.482   7.142  52.196  1.00  0.00    -0.269 OA
ATOM     26  H1  UNL     1      33.881   5.361  52.150  1.00  0.00     0.169 HD
BRANCH  24  27
HETATM   27  C2  UNL     1      34.428   7.903  51.471  1.00  0.00     0.236 C 
HETATM   28  C1  UNL     1      33.000   7.362  51.259  1.00  0.00     0.066 C 
BRANCH  27  29
HETATM   29  O1  UNL     1      34.793   8.517  50.334  1.00  0.00    -0.357 OA
BRANCH  29  30
HETATM   30  C3  UNL     1      34.181   8.347  49.151  1.00  0.00     0.123 C 
HETATM   31  C4  UNL     1      35.078   7.566  48.223  1.00  0.00     0.032 C 
HETATM   32  C5  UNL     1      34.568   7.519  46.795  1.00  0.00     0.002 C 
HETATM   33  C6  UNL     1      34.388   8.928  46.274  1.00  0.00     0.000 C 
HETATM   34  C7  UNL     1      33.306   9.540  47.167  1.00  0.00     0.002 C 
HETATM   35  C8  UNL     1      33.956   9.764  48.504  1.00  0.00     0.032 C 
ENDBRANCH  29  30
ENDBRANCH  27  29
BRANCH  27  36
HETATM   36  C28 UNL     1      34.204   9.063  52.471  1.00  0.00     0.427 C 
HETATM   37  F1  UNL     1      34.856   8.886  53.648  1.00  0.00    -0.167 F 
HETATM   38  F2  UNL     1      34.497  10.268  51.861  1.00  0.00    -0.167 F 
HETATM   39  F3  UNL     1      32.844   9.084  52.743  1.00  0.00    -0.167 F 
ENDBRANCH  27  36
ENDBRANCH  24  27
ENDBRANCH   1  23
TORSDOF 5
ENDMDL
MODEL 3
REMARK VINA RESULT: -9.192677766      1.658      3.922
REMARK  5 active torsions:
REMARK  status: ('A' for Active; 'I' for Inactive)
REMARK    1  A    between atoms: C2_2  and  O1_3 
REMARK    2  A    between atoms: C2_2  and  C9_10 
REMARK    3  A    between atoms: C2_2  and  C28_36 
REMARK    4  A    between atoms: O1_3  and  C3_4 
REMARK       I    between atoms: C9_10  and  N1_12 
REMARK    5  A    between atoms: N1_12  and  C10_14 
ROOT
HETATM    1  C10 UNL     1      37.853   4.872  49.575  1.00  0.00     0.081 C 
HETATM    2  C11 UNL     1      38.303   5.078  48.347  1.00  0.00     0.113 C 
HETATM    3  C12 UNL     1      38.896   3.832  47.827  1.00  0.00     0.288 C 
HETATM    4  O3  UNL     1      39.430   3.630  46.716  1.00  0.00    -0.260 OA
HETATM    5  O4  UNL     1      38.724   2.978  48.827  1.00  0.00    -0.273 OA
HETATM    6  C13 UNL     1      38.200   3.520  50.029  1.00  0.00     0.225 C 
HETATM    7  O5  UNL     1      37.181   2.684  50.369  1.00  0.00    -0.342 OA
HETATM    8  C14 UNL     1      37.525   1.431  50.749  1.00  0.00     0.142 C 
HETATM    9  C15 UNL     1      38.613   0.734  49.920  1.00  0.00     0.034 C 
HETATM   10  C16 UNL     1      39.986   1.279  50.107  1.00  0.00     0.009 C 
HETATM   11  C17 UNL     1      39.907   2.149  51.359  1.00  0.00     0.005 C 
HETATM   12  C18 UNL     1      39.326   1.235  52.334  1.00  0.00     0.009 C 
HETATM   13  C19 UNL     1      39.471   1.182  53.753  1.00  0.00     0.013 C 
HETATM   14  C20 UNL     1      38.442   0.070  54.057  1.00  0.00     0.079 C 
HETATM   15  C21 UNL     1      37.541   0.007  52.839  1.00  0.00     0.138 C 
HETATM   16  O6  UNL     1      36.815  -0.884  52.490  1.00  0.00    -0.297 OA
HETATM   17  C22 UNL     1      37.805   1.344  52.199  1.00  0.00     0.051 C 
HETATM   18  C23 UNL     1      37.165   2.329  53.083  1.00  0.00     0.020 C 
HETATM   19  C24 UNL     1      37.700   3.675  53.191  1.00  0.00     0.002 C 
HETATM   20  C25 UNL     1      38.831   4.110  52.386  1.00  0.00     0.015 C 
HETATM   21  C26 UNL     1      39.221   3.470  51.124  1.00  0.00     0.023 C 
HETATM   22  C27 UNL     1      40.362   4.385  50.602  1.00  0.00     0.022 C 
ENDROOT
BRANCH   1  23
HETATM   23  N1  UNL     1      37.221   5.938  50.271  1.00  0.00    -0.323 N 
HETATM   24  C9  UNL     1      35.989   5.992  50.927  1.00  0.00     0.266 C 
HETATM   25  O2  UNL     1      35.273   4.970  50.926  1.00  0.00    -0.269 OA
ATOM     26  H1  UNL     1      37.756   6.807  50.296  1.00  0.00     0.169 HD
BRANCH  24  27
HETATM   27  C2  UNL     1      35.452   7.157  51.634  1.00  0.00     0.236 C 
HETATM   28  C1  UNL     1      34.083   6.809  52.251  1.00  0.00     0.066 C 
BRANCH  27  29
HETATM   29  O1  UNL     1      35.303   8.310  50.962  1.00  0.00    -0.357 OA
BRANCH  29  30
HETATM   30  C3  UNL     1      34.118   8.852  50.640  1.00  0.00     0.123 C 
HETATM   31  C4  UNL     1      34.114   9.238  49.181  1.00  0.00     0.032 C 
HETATM   32  C5  UNL     1      32.904  10.060  48.781  1.00  0.00     0.002 C 
HETATM   33  C6  UNL     1      32.827  11.301  49.642  1.00  0.00     0.000 C 
HETATM   34  C7  UNL     1      32.622  10.777  51.066  1.00  0.00     0.002 C 
HETATM   35  C8  UNL     1      33.937  10.175  51.475  1.00  0.00     0.032 C 
ENDBRANCH  29  30
ENDBRANCH  27  29
BRANCH  27  36
HETATM   36  C28 UNL     1      36.290   7.551  52.875  1.00  0.00     0.427 C 
HETATM   37  F1  UNL     1      36.806   6.480  53.531  1.00  0.00    -0.167 F 
HETATM   38  F2  UNL     1      37.245   8.484  52.518  1.00  0.00    -0.167 F 
HETATM   39  F3  UNL     1      35.421   8.195  53.742  1.00  0.00    -0.167 F 
ENDBRANCH  27  36
ENDBRANCH  24  27
ENDBRANCH   1  23
TORSDOF 5
ENDMDL
MODEL 4
REMARK VINA RESULT: -9.147891126      3.032      7.137
REMARK  5 active torsions:
REMARK  status: ('A' for Active; 'I' for Inactive)
REMARK    1  A    between atoms: C2_2  and  O1_3 
REMARK    2  A    between atoms: C2_2  and  C9_10 
REMARK    3  A    between atoms: C2_2  and  C28_36 
REMARK    4  A    between atoms: O1_3  and  C3_4 
REMARK       I    between atoms: C9_10  and  N1_12 
REMARK    5  A    between atoms: N1_12  and  C10_14 
ROOT
HETATM    1  C10 UNL     1      37.189   3.855  51.577  1.00  0.00     0.081 C 
HETATM    2  C11 UNL     1      37.675   2.988  50.701  1.00  0.00     0.113 C 
HETATM    3  C12 UNL     1      37.384   3.459  49.333  1.00  0.00     0.288 C 
HETATM    4  O3  UNL     1      37.672   2.915  48.247  1.00  0.00    -0.260 OA
HETATM    5  O4  UNL     1      36.743   4.602  49.540  1.00  0.00    -0.273 OA
HETATM    6  C13 UNL     1      36.439   4.913  50.890  1.00  0.00     0.225 C 
HETATM    7  O5  UNL     1      36.862   6.198  51.051  1.00  0.00    -0.342 OA
HETATM    8  C14 UNL     1      36.176   7.151  50.379  1.00  0.00     0.142 C 
HETATM    9  C15 UNL     1      35.795   6.831  48.927  1.00  0.00     0.034 C 
HETATM   10  C16 UNL     1      34.724   5.807  48.775  1.00  0.00     0.009 C 
HETATM   11  C17 UNL     1      34.102   5.665  50.162  1.00  0.00     0.005 C 
HETATM   12  C18 UNL     1      33.775   7.045  50.496  1.00  0.00     0.009 C 
HETATM   13  C19 UNL     1      32.741   7.575  51.327  1.00  0.00     0.013 C 
HETATM   14  C20 UNL     1      33.155   9.065  51.299  1.00  0.00     0.079 C 
HETATM   15  C21 UNL     1      34.607   9.075  50.864  1.00  0.00     0.138 C 
HETATM   16  O6  UNL     1      35.247   9.985  50.412  1.00  0.00    -0.297 OA
HETATM   17  C22 UNL     1      35.017   7.654  51.149  1.00  0.00     0.051 C 
HETATM   18  C23 UNL     1      35.070   7.553  52.615  1.00  0.00     0.020 C 
HETATM   19  C24 UNL     1      34.796   6.288  53.274  1.00  0.00     0.002 C 
HETATM   20  C25 UNL     1      34.531   5.077  52.512  1.00  0.00     0.015 C 
HETATM   21  C26 UNL     1      34.959   4.884  51.122  1.00  0.00     0.023 C 
HETATM   22  C27 UNL     1      34.575   3.407  50.836  1.00  0.00     0.022 C 
ENDROOT
BRANCH   1  23
HETATM   23  N1  UNL     1      37.369   3.613  52.966  1.00  0.00    -0.323 N 
HETATM   24  C9  UNL     1      36.900   2.575  53.776  1.00  0.00     0.266 C 
HETATM   25  O2  UNL     1      36.189   1.692  53.254  1.00  0.00    -0.269 OA
ATOM     26  H1  UNL     1      37.934   4.311  53.451  1.00  0.00     0.169 HD
BRANCH  24  27
HETATM   27  C2  UNL     1      37.175   2.424  55.207  1.00  0.00     0.236 C 
HETATM   28  C1  UNL     1      36.981   0.952  55.623  1.00  0.00     0.066 C 
BRANCH  27  29
HETATM   29  O1  UNL     1      36.489   3.178  56.082  1.00  0.00    -0.357 OA
BRANCH  29  30
HETATM   30  C3  UNL     1      35.331   2.811  56.654  1.00  0.00     0.123 C 
HETATM   31  C4  UNL     1      34.175   3.260  55.796  1.00  0.00     0.032 C 
HETATM   32  C5  UNL     1      32.827   3.089  56.469  1.00  0.00     0.002 C 
HETATM   33  C6  UNL     1      32.817   3.841  57.783  1.00  0.00     0.000 C 
HETATM   34  C7  UNL     1      33.887   3.154  58.635  1.00  0.00     0.002 C 
HETATM   35  C8  UNL     1      35.207   3.555  58.036  1.00  0.00     0.032 C 
ENDBRANCH  29  30
ENDBRANCH  27  29
BRANCH  27  36
HETATM   36  C28 UNL     1      38.658   2.683  55.569  1.00  0.00     0.427 C 
HETATM   37  F1  UNL     1      39.526   2.055  54.736  1.00  0.00    -0.167 F 
HETATM   38  F2  UNL     1      38.884   4.043  55.668  1.00  0.00    -0.167 F 
HETATM   39  F3  UNL     1      38.844   2.163  56.841  1.00  0.00    -0.167 F 
ENDBRANCH  27  36
ENDBRANCH  24  27
ENDBRANCH   1  23
TORSDOF 5
ENDMDL
MODEL 5
REMARK VINA RESULT: -8.923437334      3.676      7.439
REMARK  5 active torsions:
REMARK  status: ('A' for Active; 'I' for Inactive)
REMARK    1  A    between atoms: C2_2  and  O1_3 
REMARK    2  A    between atoms: C2_2  and  C9_10 
REMARK    3  A    between atoms: C2_2  and  C28_36 
REMARK    4  A    between atoms: O1_3  and  C3_4 
REMARK       I    between atoms: C9_10  and  N1_12 
REMARK    5  A    between atoms: N1_12  and  C10_14 
ROOT
HETATM    1  C10 UNL     1      37.286   2.392  52.356  1.00  0.00     0.081 C 
HETATM    2  C11 UNL     1      37.789   1.554  51.463  1.00  0.00     0.113 C 
HETATM    3  C12 UNL     1      37.802   2.201  50.137  1.00  0.00     0.288 C 
HETATM    4  O3  UNL     1      38.192   1.731  49.048  1.00  0.00    -0.260 OA
HETATM    5  O4  UNL     1      37.299   3.402  50.385  1.00  0.00    -0.273 OA
HETATM    6  C13 UNL     1      36.816   3.618  51.702  1.00  0.00     0.225 C 
HETATM    7  O5  UNL     1      37.378   4.798  52.086  1.00  0.00    -0.342 OA
HETATM    8  C14 UNL     1      36.954   5.910  51.441  1.00  0.00     0.142 C 
HETATM    9  C15 UNL     1      36.784   5.803  49.920  1.00  0.00     0.034 C 
HETATM   10  C16 UNL     1      35.623   4.980  49.478  1.00  0.00     0.009 C 
HETATM   11  C17 UNL     1      34.762   4.796  50.726  1.00  0.00     0.005 C 
HETATM   12  C18 UNL     1      34.576   6.170  51.177  1.00  0.00     0.009 C 
HETATM   13  C19 UNL     1      33.500   6.768  51.900  1.00  0.00     0.013 C 
HETATM   14  C20 UNL     1      34.113   8.169  52.123  1.00  0.00     0.079 C 
HETATM   15  C21 UNL     1      35.606   7.996  51.920  1.00  0.00     0.138 C 
HETATM   16  O6  UNL     1      36.433   8.837  51.688  1.00  0.00    -0.297 OA
HETATM   17  C22 UNL     1      35.762   6.507  52.083  1.00  0.00     0.051 C 
HETATM   18  C23 UNL     1      35.551   6.252  53.515  1.00  0.00     0.020 C 
HETATM   19  C24 UNL     1      34.998   4.985  53.961  1.00  0.00     0.002 C 
HETATM   20  C25 UNL     1      34.701   3.913  53.021  1.00  0.00     0.015 C 
HETATM   21  C26 UNL     1      35.328   3.797  51.700  1.00  0.00     0.023 C 
HETATM   22  C27 UNL     1      34.798   2.435  51.175  1.00  0.00     0.022 C 
ENDROOT
BRANCH   1  23
HETATM   23  N1  UNL     1      37.193   1.985  53.715  1.00  0.00    -0.323 N 
HETATM   24  C9  UNL     1      37.661   2.596  54.882  1.00  0.00     0.266 C 
HETATM   25  O2  UNL     1      38.282   3.673  54.777  1.00  0.00    -0.269 OA
ATOM     26  H1  UNL     1      36.704   1.101  53.863  1.00  0.00     0.169 HD
BRANCH  24  27
HETATM   27  C2  UNL     1      37.480   2.081  56.241  1.00  0.00     0.236 C 
HETATM   28  C1  UNL     1      36.380   1.000  56.248  1.00  0.00     0.066 C 
BRANCH  27  29
HETATM   29  O1  UNL     1      37.194   2.945  57.228  1.00  0.00    -0.357 OA
BRANCH  29  30
HETATM   30  C3  UNL     1      36.079   2.899  57.976  1.00  0.00     0.123 C 
HETATM   31  C4  UNL     1      35.096   3.933  57.486  1.00  0.00     0.032 C 
HETATM   32  C5  UNL     1      33.903   4.110  58.407  1.00  0.00     0.002 C 
HETATM   33  C6  UNL     1      34.384   4.472  59.796  1.00  0.00     0.000 C 
HETATM   34  C7  UNL     1      35.192   3.257  60.259  1.00  0.00     0.002 C 
HETATM   35  C8  UNL     1      36.462   3.280  59.455  1.00  0.00     0.032 C 
ENDBRANCH  29  30
ENDBRANCH  27  29
BRANCH  27  36
HETATM   36  C28 UNL     1      38.714   1.307  56.764  1.00  0.00     0.427 C 
HETATM   37  F1  UNL     1      39.887   1.945  56.517  1.00  0.00    -0.167 F 
HETATM   38  F2  UNL     1      38.537   0.990  58.098  1.00  0.00    -0.167 F 
HETATM   39  F3  UNL     1      38.738   0.103  56.077  1.00  0.00    -0.167 F 
ENDBRANCH  27  36
ENDBRANCH  24  27
ENDBRANCH   1  23
TORSDOF 5
ENDMDL
