MODEL 1
REMARK VINA RESULT: -8.579853936      0.000      0.000
REMARK  9 active torsions:
REMARK  status: ('A' for Active; 'I' for Inactive)
REMARK    1  A    between atoms: C2_4  and  N2_5 
REMARK    2  A    between atoms: C2_4  and  C8_16 
REMARK    3  A    between atoms: N2_5  and  N3_7 
REMARK       I    between atoms: N3_7  and  C3_9 
REMARK    4  A    between atoms: C3_9  and  C4_11 
REMARK    5  A    between atoms: C8_16  and  N4_17 
REMARK    6  A    between atoms: C8_16  and  C13_26 
REMARK       I    between atoms: N4_17  and  C9_19 
REMARK       I    between atoms: C9_19  and  N5_21 
REMARK    7  A    between atoms: N5_21  and  C10_23 
REMARK    8  A    between atoms: N8_30  and  C14_31 
REMARK    9  A    between atoms: C15_37  and  N11_38 
ROOT
HETATM    1  C8  UNL     1      -7.156 -86.834  92.382  1.00  0.00     0.225 C 
ENDROOT
BRANCH   1   2
HETATM    2  C2  UNL     1      -8.208 -85.879  91.863  1.00  0.00     0.122 C 
HETATM    3  N1  UNL     1      -7.944 -85.320  90.749  1.00  0.00    -0.381 N 
HETATM    4  C1  UNL     1      -8.831 -84.405  90.122  1.00  0.00     0.147 C 
ATOM      5  H1  UNL     1      -7.059 -85.538  90.288  1.00  0.00     0.160 HD
BRANCH   2   6
HETATM    6  N2  UNL     1      -9.397 -85.660  92.599  1.00  0.00    -0.284 N 
ATOM      7  H2  UNL     1      -9.377 -84.971  93.351  1.00  0.00     0.188 HD
BRANCH   6   8
HETATM    8  N3  UNL     1     -10.586 -86.328  92.357  1.00  0.00    -0.263 N 
HETATM    9  C3  UNL     1     -11.538 -86.461  93.387  1.00  0.00     0.293 C 
HETATM   10  O1  UNL     1     -11.300 -85.974  94.510  1.00  0.00    -0.264 OA
ATOM     11  H3  UNL     1     -10.772 -86.723  91.435  1.00  0.00     0.190 HD
BRANCH   9  12
HETATM   12  C4  UNL     1     -12.782 -87.169  93.121  1.00  0.00     0.144 A 
HETATM   13  C5  UNL     1     -12.967 -88.531  92.947  1.00  0.00     0.045 A 
HETATM   14  C6  UNL     1     -14.301 -88.769  92.716  1.00  0.00     0.027 A 
HETATM   15  C7  UNL     1     -14.892 -87.497  92.762  1.00  0.00     0.143 A 
HETATM   16  O2  UNL     1     -13.961 -86.609  92.999  1.00  0.00    -0.317 OA
ENDBRANCH   9  12
ENDBRANCH   6   8
ENDBRANCH   2   6
ENDBRANCH   1   2
BRANCH   1  17
HETATM   17  N4  UNL     1      -7.267 -88.015  91.549  1.00  0.00    -0.325 N 
HETATM   18  C9  UNL     1      -8.220 -89.029  91.697  1.00  0.00     0.317 C 
HETATM   19  O3  UNL     1      -9.064 -88.959  92.610  1.00  0.00    -0.247 OA
HETATM   20  N5  UNL     1      -8.243 -90.144  90.819  1.00  0.00    -0.339 N 
ATOM     21  H5  UNL     1      -7.556 -90.198  90.067  1.00  0.00     0.164 HD
ATOM     22  H4  UNL     1      -6.593 -88.115  90.790  1.00  0.00     0.165 HD
BRANCH  20  23
HETATM   23  C10 UNL     1      -9.226 -91.217  90.962  1.00  0.00     0.078 C 
HETATM   24  C11 UNL     1      -8.520 -92.506  90.711  1.00  0.00     0.032 C 
HETATM   25  C12 UNL     1     -10.336 -91.041  89.949  1.00  0.00     0.032 C 
ENDBRANCH  20  23
ENDBRANCH   1  17
BRANCH   1  26
HETATM   26  C13 UNL     1      -5.805 -86.234  92.208  1.00  0.00     0.141 A 
HETATM   27  N6  UNL     1      -5.429 -84.963  92.465  1.00  0.00    -0.268 N 
HETATM   28  N7  UNL     1      -4.138 -84.851  92.171  1.00  0.00     0.004 NA
ATOM     29  H6  UNL     1      -6.029 -84.220  92.823  1.00  0.00     0.185 HD
HETATM   30  N8  UNL     1      -3.670 -86.007  91.733  1.00  0.00    -0.156 N 
HETATM   31  N12 UNL     1      -4.690 -86.834  91.760  1.00  0.00    -0.264 N 
ATOM     32  H12 UNL     1      -4.641 -87.813  91.477  1.00  0.00     0.190 HD
BRANCH  30  33
HETATM   33  C14 UNL     1      -2.315 -86.275  91.314  1.00  0.00     0.210 A 
HETATM   34  N9  UNL     1      -1.793 -86.094  90.089  1.00  0.00    -0.219 N 
HETATM   35  O4  UNL     1      -0.537 -86.450  90.112  1.00  0.00    -0.153 OA
ATOM     36  H9  UNL     1      -2.294 -85.737  89.275  1.00  0.00     0.198 HD
HETATM   37  N10 UNL     1      -0.218 -86.858  91.306  1.00  0.00    -0.222 N 
HETATM   38  C15 UNL     1      -1.295 -86.768  92.097  1.00  0.00     0.170 A 
ATOM     39  H10 UNL     1       0.702 -87.193  91.593  1.00  0.00     0.198 HD
BRANCH  38  40
HETATM   40  N11 UNL     1      -1.371 -87.086  93.366  1.00  0.00    -0.381 N 
ATOM     41 2H11 UNL     1      -1.630 -86.472  94.138  1.00  0.00     0.157 HD
ATOM     42 1H11 UNL     1      -1.178 -88.001  93.775  1.00  0.00     0.157 HD
ENDBRANCH  38  40
ENDBRANCH  30  33
ENDBRANCH   1  26
TORSDOF 9
ENDMDL
MODEL 2
REMARK VINA RESULT: -8.541801819      0.606      1.066
REMARK  9 active torsions:
REMARK  status: ('A' for Active; 'I' for Inactive)
REMARK    1  A    between atoms: C2_4  and  N2_5 
REMARK    2  A    between atoms: C2_4  and  C8_16 
REMARK    3  A    between atoms: N2_5  and  N3_7 
REMARK       I    between atoms: N3_7  and  C3_9 
REMARK    4  A    between atoms: C3_9  and  C4_11 
REMARK    5  A    between atoms: C8_16  and  N4_17 
REMARK    6  A    between atoms: C8_16  and  C13_26 
REMARK       I    between atoms: N4_17  and  C9_19 
REMARK       I    between atoms: C9_19  and  N5_21 
REMARK    7  A    between atoms: N5_21  and  C10_23 
REMARK    8  A    between atoms: N8_30  and  C14_31 
REMARK    9  A    between atoms: C15_37  and  N11_38 
ROOT
HETATM    1  C8  UNL     1      -7.223 -86.858  92.441  1.00  0.00     0.225 C 
ENDROOT
BRANCH   1   2
HETATM    2  C2  UNL     1      -8.228 -85.873  91.886  1.00  0.00     0.122 C 
HETATM    3  N1  UNL     1      -7.914 -85.331  90.776  1.00  0.00    -0.381 N 
HETATM    4  C1  UNL     1      -8.753 -84.391  90.119  1.00  0.00     0.147 C 
ATOM      5  H1  UNL     1      -7.025 -85.582  90.342  1.00  0.00     0.160 HD
BRANCH   2   6
HETATM    6  N2  UNL     1      -9.428 -85.608  92.588  1.00  0.00    -0.284 N 
ATOM      7  H2  UNL     1      -9.413 -84.892  93.315  1.00  0.00     0.188 HD
BRANCH   6   8
HETATM    8  N3  UNL     1     -10.623 -86.266  92.344  1.00  0.00    -0.263 N 
HETATM    9  C3  UNL     1     -11.562 -86.422  93.382  1.00  0.00     0.293 C 
HETATM   10  O1  UNL     1     -11.308 -85.966  94.514  1.00  0.00    -0.264 OA
ATOM     11  H3  UNL     1     -10.822 -86.635  91.414  1.00  0.00     0.190 HD
BRANCH   9  12
HETATM   12  C4  UNL     1     -12.812 -87.119  93.114  1.00  0.00     0.144 A 
HETATM   13  C5  UNL     1     -13.010 -88.480  92.946  1.00  0.00     0.045 A 
HETATM   14  C6  UNL     1     -14.346 -88.705  92.710  1.00  0.00     0.027 A 
HETATM   15  C7  UNL     1     -14.924 -87.428  92.746  1.00  0.00     0.143 A 
HETATM   16  O2  UNL     1     -13.985 -86.548  92.984  1.00  0.00    -0.317 OA
ENDBRANCH   9  12
ENDBRANCH   6   8
ENDBRANCH   2   6
ENDBRANCH   1   2
BRANCH   1  17
HETATM   17  N4  UNL     1      -7.306 -88.017  91.574  1.00  0.00    -0.325 N 
HETATM   18  C9  UNL     1      -8.278 -89.021  91.648  1.00  0.00     0.317 C 
HETATM   19  O3  UNL     1      -9.165 -88.963  92.519  1.00  0.00    -0.247 OA
HETATM   20  N5  UNL     1      -8.269 -90.114  90.742  1.00  0.00    -0.339 N 
ATOM     21  H5  UNL     1      -7.545 -90.159  90.025  1.00  0.00     0.164 HD
ATOM     22  H4  UNL     1      -6.596 -88.107  90.847  1.00  0.00     0.165 HD
BRANCH  20  23
HETATM   23  C10 UNL     1      -9.270 -91.177  90.808  1.00  0.00     0.078 C 
HETATM   24  C11 UNL     1      -8.567 -92.470  90.568  1.00  0.00     0.032 C 
HETATM   25  C12 UNL     1     -10.323 -90.966  89.741  1.00  0.00     0.032 C 
ENDBRANCH  20  23
ENDBRANCH   1  17
BRANCH   1  26
HETATM   26  C13 UNL     1      -5.855 -86.278  92.358  1.00  0.00     0.141 A 
HETATM   27  N6  UNL     1      -5.518 -84.977  92.233  1.00  0.00    -0.268 N 
HETATM   28  N7  UNL     1      -4.192 -84.900  92.197  1.00  0.00     0.004 NA
ATOM     29  H6  UNL     1      -6.166 -84.191  92.175  1.00  0.00     0.185 HD
HETATM   30  N8  UNL     1      -3.663 -86.108  92.296  1.00  0.00    -0.156 N 
HETATM   31  N12 UNL     1      -4.681 -86.931  92.393  1.00  0.00    -0.264 N 
ATOM     32  H12 UNL     1      -4.592 -87.944  92.483  1.00  0.00     0.190 HD
BRANCH  30  33
HETATM   33  C14 UNL     1      -2.256 -86.426  92.291  1.00  0.00     0.210 A 
HETATM   34  N9  UNL     1      -1.509 -86.820  93.337  1.00  0.00    -0.219 N 
HETATM   35  O4  UNL     1      -0.285 -87.012  92.929  1.00  0.00    -0.153 OA
ATOM     36  H9  UNL     1      -1.844 -86.948  94.292  1.00  0.00     0.198 HD
HETATM   37  N10 UNL     1      -0.201 -86.757  91.655  1.00  0.00    -0.222 N 
HETATM   38  C15 UNL     1      -1.408 -86.387  91.207  1.00  0.00     0.170 A 
ATOM     39  H10 UNL     1       0.646 -86.827  91.090  1.00  0.00     0.198 HD
BRANCH  38  40
HETATM   40  N11 UNL     1      -1.725 -86.051  89.981  1.00  0.00    -0.381 N 
ATOM     41 2H11 UNL     1      -2.011 -85.129  89.652  1.00  0.00     0.157 HD
ATOM     42 1H11 UNL     1      -1.734 -86.666  89.167  1.00  0.00     0.157 HD
ENDBRANCH  38  40
ENDBRANCH  30  33
ENDBRANCH   1  26
TORSDOF 9
ENDMDL
MODEL 3
REMARK VINA RESULT: -8.496000290      2.690      8.621
REMARK  9 active torsions:
REMARK  status: ('A' for Active; 'I' for Inactive)
REMARK    1  A    between atoms: C2_4  and  N2_5 
REMARK    2  A    between atoms: C2_4  and  C8_16 
REMARK    3  A    between atoms: N2_5  and  N3_7 
REMARK       I    between atoms: N3_7  and  C3_9 
REMARK    4  A    between atoms: C3_9  and  C4_11 
REMARK    5  A    between atoms: C8_16  and  N4_17 
REMARK    6  A    between atoms: C8_16  and  C13_26 
REMARK       I    between atoms: N4_17  and  C9_19 
REMARK       I    between atoms: C9_19  and  N5_21 
REMARK    7  A    between atoms: N5_21  and  C10_23 
REMARK    8  A    between atoms: N8_30  and  C14_31 
REMARK    9  A    between atoms: C15_37  and  N11_38 
ROOT
HETATM    1  C8  UNL     1      -8.195 -88.670  92.027  1.00  0.00     0.225 C 
ENDROOT
BRANCH   1   2
HETATM    2  C2  UNL     1      -7.412 -87.381  91.916  1.00  0.00     0.122 C 
HETATM    3  N1  UNL     1      -8.095 -86.342  91.641  1.00  0.00    -0.381 N 
HETATM    4  C1  UNL     1      -7.512 -85.053  91.511  1.00  0.00     0.147 C 
ATOM      5  H1  UNL     1      -9.103 -86.439  91.508  1.00  0.00     0.160 HD
BRANCH   2   6
HETATM    6  N2  UNL     1      -6.011 -87.379  92.122  1.00  0.00    -0.284 N 
ATOM      7  H2  UNL     1      -5.664 -87.235  93.071  1.00  0.00     0.188 HD
BRANCH   6   8
HETATM    8  N3  UNL     1      -5.085 -87.560  91.108  1.00  0.00    -0.263 N 
HETATM    9  C3  UNL     1      -4.031 -86.638  90.948  1.00  0.00     0.293 C 
HETATM   10  O1  UNL     1      -3.942 -85.666  91.723  1.00  0.00    -0.264 OA
ATOM     11  H3  UNL     1      -5.165 -88.359  90.479  1.00  0.00     0.190 HD
BRANCH   9  12
HETATM   12  C4  UNL     1      -3.066 -86.838  89.875  1.00  0.00     0.144 A 
HETATM   13  C5  UNL     1      -2.183 -85.914  89.341  1.00  0.00     0.045 A 
HETATM   14  C6  UNL     1      -1.456 -86.524  88.346  1.00  0.00     0.027 A 
HETATM   15  C7  UNL     1      -1.945 -87.839  88.317  1.00  0.00     0.143 A 
HETATM   16  O2  UNL     1      -2.877 -87.961  89.226  1.00  0.00    -0.317 OA
ENDBRANCH   9  12
ENDBRANCH   6   8
ENDBRANCH   2   6
ENDBRANCH   1   2
BRANCH   1  17
HETATM   17  N4  UNL     1      -7.362 -89.556  92.816  1.00  0.00    -0.325 N 
HETATM   18  C9  UNL     1      -7.100 -90.900  92.526  1.00  0.00     0.317 C 
HETATM   19  O3  UNL     1      -7.606 -91.427  91.517  1.00  0.00    -0.247 OA
HETATM   20  N5  UNL     1      -6.263 -91.679  93.366  1.00  0.00    -0.339 N 
ATOM     21  H5  UNL     1      -5.844 -91.246  94.189  1.00  0.00     0.164 HD
ATOM     22  H4  UNL     1      -6.931 -89.167  93.655  1.00  0.00     0.165 HD
BRANCH  20  23
HETATM   23  C10 UNL     1      -5.983 -93.086  93.084  1.00  0.00     0.078 C 
HETATM   24  C11 UNL     1      -7.080 -93.891  93.695  1.00  0.00     0.032 C 
HETATM   25  C12 UNL     1      -4.659 -93.485  93.698  1.00  0.00     0.032 C 
ENDBRANCH  20  23
ENDBRANCH   1  17
BRANCH   1  26
HETATM   26  C13 UNL     1      -9.471 -88.420  92.750  1.00  0.00     0.141 A 
HETATM   27  N6  UNL     1      -9.703 -88.532  94.076  1.00  0.00    -0.268 N 
HETATM   28  N7  UNL     1     -10.975 -88.218  94.297  1.00  0.00     0.004 NA
ATOM     29  H6  UNL     1      -9.021 -88.810  94.783  1.00  0.00     0.185 HD
HETATM   30  N8  UNL     1     -11.570 -87.907  93.159  1.00  0.00    -0.156 N 
HETATM   31  N12 UNL     1     -10.649 -88.034  92.232  1.00  0.00    -0.264 N 
ATOM     32  H12 UNL     1     -10.808 -87.859  91.240  1.00  0.00     0.190 HD
BRANCH  30  33
HETATM   33  C14 UNL     1     -12.950 -87.516  92.998  1.00  0.00     0.210 A 
HETATM   34  N9  UNL     1     -13.454 -86.271  93.061  1.00  0.00    -0.219 N 
HETATM   35  O4  UNL     1     -14.742 -86.331  92.861  1.00  0.00    -0.153 OA
ATOM     36  H9  UNL     1     -12.919 -85.421  93.237  1.00  0.00     0.198 HD
HETATM   37  N10 UNL     1     -15.101 -87.567  92.670  1.00  0.00    -0.222 N 
HETATM   38  C15 UNL     1     -14.016 -88.349  92.744  1.00  0.00     0.170 A 
ATOM     39  H10 UNL     1     -16.054 -87.888  92.493  1.00  0.00     0.198 HD
BRANCH  38  40
HETATM   40  N11 UNL     1     -13.972 -89.651  92.606  1.00  0.00    -0.381 N 
ATOM     41 2H11 UNL     1     -13.146 -90.246  92.657  1.00  0.00     0.157 HD
ATOM     42 1H11 UNL     1     -14.763 -90.269  92.424  1.00  0.00     0.157 HD
ENDBRANCH  38  40
ENDBRANCH  30  33
ENDBRANCH   1  26
TORSDOF 9
ENDMDL
MODEL 4
REMARK VINA RESULT: -8.296423118      1.418      1.638
REMARK  9 active torsions:
REMARK  status: ('A' for Active; 'I' for Inactive)
REMARK    1  A    between atoms: C2_4  and  N2_5 
REMARK    2  A    between atoms: C2_4  and  C8_16 
REMARK    3  A    between atoms: N2_5  and  N3_7 
REMARK       I    between atoms: N3_7  and  C3_9 
REMARK    4  A    between atoms: C3_9  and  C4_11 
REMARK    5  A    between atoms: C8_16  and  N4_17 
REMARK    6  A    between atoms: C8_16  and  C13_26 
REMARK       I    between atoms: N4_17  and  C9_19 
REMARK       I    between atoms: C9_19  and  N5_21 
REMARK    7  A    between atoms: N5_21  and  C10_23 
REMARK    8  A    between atoms: N8_30  and  C14_31 
REMARK    9  A    between atoms: C15_37  and  N11_38 
ROOT
HETATM    1  C8  UNL     1      -7.098 -86.879  92.955  1.00  0.00     0.225 C 
ENDROOT
BRANCH   1   2
HETATM    2  C2  UNL     1      -8.252 -86.160  92.293  1.00  0.00     0.122 C 
HETATM    3  N1  UNL     1      -7.994 -85.623  91.167  1.00  0.00    -0.381 N 
HETATM    4  C1  UNL     1      -8.971 -84.919  90.413  1.00  0.00     0.147 C 
ATOM      5  H1  UNL     1      -7.048 -85.701  90.792  1.00  0.00     0.160 HD
BRANCH   2   6
HETATM    6  N2  UNL     1      -9.521 -86.122  92.919  1.00  0.00    -0.284 N 
ATOM      7  H2  UNL     1      -9.747 -85.313  93.499  1.00  0.00     0.188 HD
BRANCH   6   8
HETATM    8  N3  UNL     1     -10.474 -87.119  92.789  1.00  0.00    -0.263 N 
HETATM    9  C3  UNL     1     -11.816 -86.854  93.126  1.00  0.00     0.293 C 
HETATM   10  O1  UNL     1     -12.134 -85.722  93.538  1.00  0.00    -0.264 OA
ATOM     11  H3  UNL     1     -10.204 -88.043  92.450  1.00  0.00     0.190 HD
BRANCH   9  12
HETATM   12  C4  UNL     1     -12.807 -87.912  92.989  1.00  0.00     0.144 A 
HETATM   13  C5  UNL     1     -14.159 -87.783  92.713  1.00  0.00     0.045 A 
HETATM   14  C6  UNL     1     -14.721 -89.038  92.673  1.00  0.00     0.027 A 
HETATM   15  C7  UNL     1     -13.652 -89.906  92.936  1.00  0.00     0.143 A 
HETATM   16  O2  UNL     1     -12.567 -89.196  93.111  1.00  0.00    -0.317 OA
ENDBRANCH   9  12
ENDBRANCH   6   8
ENDBRANCH   2   6
ENDBRANCH   1   2
BRANCH   1  17
HETATM   17  N4  UNL     1      -7.136 -88.229  92.428  1.00  0.00    -0.325 N 
HETATM   18  C9  UNL     1      -7.051 -89.402  93.187  1.00  0.00     0.317 C 
HETATM   19  O3  UNL     1      -6.927 -89.332  94.424  1.00  0.00    -0.247 OA
HETATM   20  N5  UNL     1      -7.104 -90.678  92.568  1.00  0.00    -0.339 N 
ATOM     21  H5  UNL     1      -7.211 -90.734  91.555  1.00  0.00     0.164 HD
ATOM     22  H4  UNL     1      -7.232 -88.333  91.418  1.00  0.00     0.165 HD
BRANCH  20  23
HETATM   23  C10 UNL     1      -7.009 -91.914  93.343  1.00  0.00     0.078 C 
HETATM   24  C11 UNL     1      -5.653 -92.488  93.104  1.00  0.00     0.032 C 
HETATM   25  C12 UNL     1      -8.064 -92.896  92.883  1.00  0.00     0.032 C 
ENDBRANCH  20  23
ENDBRANCH   1  17
BRANCH   1  26
HETATM   26  C13 UNL     1      -5.815 -86.234  92.564  1.00  0.00     0.141 A 
HETATM   27  N6  UNL     1      -5.525 -84.915  92.557  1.00  0.00    -0.268 N 
HETATM   28  N7  UNL     1      -4.271 -84.774  92.141  1.00  0.00     0.004 NA
ATOM     29  H6  UNL     1      -6.158 -84.159  92.824  1.00  0.00     0.185 HD
HETATM   30  N8  UNL     1      -3.744 -85.958  91.880  1.00  0.00    -0.156 N 
HETATM   31  N12 UNL     1      -4.689 -86.831  92.141  1.00  0.00    -0.264 N 
ATOM     32  H12 UNL     1      -4.581 -87.840  92.035  1.00  0.00     0.190 HD
BRANCH  30  33
HETATM   33  C14 UNL     1      -2.404 -86.208  91.406  1.00  0.00     0.210 A 
HETATM   34  N9  UNL     1      -1.941 -86.043  90.154  1.00  0.00    -0.219 N 
HETATM   35  O4  UNL     1      -0.679 -86.374  90.128  1.00  0.00    -0.153 OA
ATOM     36  H9  UNL     1      -2.486 -85.713  89.358  1.00  0.00     0.198 HD
HETATM   37  N10 UNL     1      -0.298 -86.751  91.314  1.00  0.00    -0.222 N 
HETATM   38  C15 UNL     1      -1.340 -86.665  92.151  1.00  0.00     0.170 A 
ATOM     39  H10 UNL     1       0.641 -87.062  91.565  1.00  0.00     0.198 HD
BRANCH  38  40
HETATM   40  N11 UNL     1      -1.351 -86.958  93.428  1.00  0.00    -0.381 N 
ATOM     41 2H11 UNL     1      -1.823 -87.745  93.873  1.00  0.00     0.157 HD
ATOM     42 1H11 UNL     1      -0.888 -86.438  94.174  1.00  0.00     0.157 HD
ENDBRANCH  38  40
ENDBRANCH  30  33
ENDBRANCH   1  26
TORSDOF 9
ENDMDL
MODEL 5
REMARK VINA RESULT: -8.221973158      2.586      8.634
REMARK  9 active torsions:
REMARK  status: ('A' for Active; 'I' for Inactive)
REMARK    1  A    between atoms: C2_4  and  N2_5 
REMARK    2  A    between atoms: C2_4  and  C8_16 
REMARK    3  A    between atoms: N2_5  and  N3_7 
REMARK       I    between atoms: N3_7  and  C3_9 
REMARK    4  A    between atoms: C3_9  and  C4_11 
REMARK    5  A    between atoms: C8_16  and  N4_17 
REMARK    6  A    between atoms: C8_16  and  C13_26 
REMARK       I    between atoms: N4_17  and  C9_19 
REMARK       I    between atoms: C9_19  and  N5_21 
REMARK    7  A    between atoms: N5_21  and  C10_23 
REMARK    8  A    between atoms: N8_30  and  C14_31 
REMARK    9  A    between atoms: C15_37  and  N11_38 
ROOT
HETATM    1  C8  UNL     1      -8.140 -88.481  92.017  1.00  0.00     0.225 C 
ENDROOT
BRANCH   1   2
HETATM    2  C2  UNL     1      -7.394 -87.166  92.013  1.00  0.00     0.122 C 
HETATM    3  N1  UNL     1      -8.024 -86.175  91.518  1.00  0.00    -0.381 N 
HETATM    4  C1  UNL     1      -7.467 -84.871  91.449  1.00  0.00     0.147 C 
ATOM      5  H1  UNL     1      -8.967 -86.325  91.158  1.00  0.00     0.160 HD
BRANCH   2   6
HETATM    6  N2  UNL     1      -6.084 -87.089  92.544  1.00  0.00    -0.284 N 
ATOM      7  H2  UNL     1      -5.979 -86.945  93.548  1.00  0.00     0.188 HD
BRANCH   6   8
HETATM    8  N3  UNL     1      -4.935 -87.197  91.776  1.00  0.00    -0.263 N 
HETATM    9  C3  UNL     1      -4.035 -86.116  91.704  1.00  0.00     0.293 C 
HETATM   10  O1  UNL     1      -4.281 -85.069  92.335  1.00  0.00    -0.264 OA
ATOM     11  H3  UNL     1      -4.742 -88.058  91.265  1.00  0.00     0.190 HD
BRANCH   9  12
HETATM   12  C4  UNL     1      -2.834 -86.241  90.891  1.00  0.00     0.144 A 
HETATM   13  C5  UNL     1      -2.737 -86.236  89.509  1.00  0.00     0.045 A 
HETATM   14  C6  UNL     1      -1.414 -86.381  89.160  1.00  0.00     0.027 A 
HETATM   15  C7  UNL     1      -0.740 -86.471  90.387  1.00  0.00     0.143 A 
HETATM   16  O2  UNL     1      -1.616 -86.383  91.355  1.00  0.00    -0.317 OA
ENDBRANCH   9  12
ENDBRANCH   6   8
ENDBRANCH   2   6
ENDBRANCH   1   2
BRANCH   1  17
HETATM   17  N4  UNL     1      -7.326 -89.380  92.812  1.00  0.00    -0.325 N 
HETATM   18  C9  UNL     1      -7.097 -90.732  92.534  1.00  0.00     0.317 C 
HETATM   19  O3  UNL     1      -7.619 -91.256  91.532  1.00  0.00    -0.247 OA
HETATM   20  N5  UNL     1      -6.276 -91.523  93.379  1.00  0.00    -0.339 N 
ATOM     21  H5  UNL     1      -5.845 -91.092  94.197  1.00  0.00     0.164 HD
ATOM     22  H4  UNL     1      -6.883 -88.993  93.645  1.00  0.00     0.165 HD
BRANCH  20  23
HETATM   23  C10 UNL     1      -6.031 -92.939  93.110  1.00  0.00     0.078 C 
HETATM   24  C11 UNL     1      -7.129 -93.714  93.757  1.00  0.00     0.032 C 
HETATM   25  C12 UNL     1      -4.701 -93.356  93.698  1.00  0.00     0.032 C 
ENDBRANCH  20  23
ENDBRANCH   1  17
BRANCH   1  26
HETATM   26  C13 UNL     1      -9.463 -88.305  92.674  1.00  0.00     0.141 A 
HETATM   27  N6  UNL     1      -9.708 -88.024  93.972  1.00  0.00    -0.268 N 
HETATM   28  N7  UNL     1     -11.025 -87.953  94.133  1.00  0.00     0.004 NA
ATOM     29  H6  UNL     1      -9.006 -87.891  94.700  1.00  0.00     0.185 HD
HETATM   30  N8  UNL     1     -11.637 -88.177  92.983  1.00  0.00    -0.156 N 
HETATM   31  N12 UNL     1     -10.680 -88.389  92.110  1.00  0.00    -0.264 N 
ATOM     32  H12 UNL     1     -10.840 -88.592  91.123  1.00  0.00     0.190 HD
BRANCH  30  33
HETATM   33  C14 UNL     1     -13.063 -88.185  92.764  1.00  0.00     0.210 A 
HETATM   34  N9  UNL     1     -13.847 -89.257  92.553  1.00  0.00    -0.219 N 
HETATM   35  O4  UNL     1     -15.078 -88.852  92.400  1.00  0.00    -0.153 OA
ATOM     36  H9  UNL     1     -13.531 -90.227  92.518  1.00  0.00     0.198 HD
HETATM   37  N10 UNL     1     -15.131 -87.556  92.502  1.00  0.00    -0.222 N 
HETATM   38  C15 UNL     1     -13.896 -87.089  92.731  1.00  0.00     0.170 A 
ATOM     39  H10 UNL     1     -15.974 -86.987  92.420  1.00  0.00     0.198 HD
BRANCH  38  40
HETATM   40  N11 UNL     1     -13.544 -85.837  92.890  1.00  0.00    -0.381 N 
ATOM     41 2H11 UNL     1     -14.154 -85.020  92.870  1.00  0.00     0.157 HD
ATOM     42 1H11 UNL     1     -12.599 -85.489  93.058  1.00  0.00     0.157 HD
ENDBRANCH  38  40
ENDBRANCH  30  33
ENDBRANCH   1  26
TORSDOF 9
ENDMDL
