MODEL 1
REMARK VINA RESULT: -8.798758375      0.000      0.000
REMARK  6 active torsions:
REMARK  status: ('A' for Active; 'I' for Inactive)
REMARK    1  A    between atoms: N1_1  and  C1_4 
REMARK    2  A    between atoms: C3_9  and  C4_10 
REMARK    3  A    between atoms: C4_10  and  N4_11 
REMARK    4  A    between atoms: C5_14  and  C6_15 
REMARK    5  A    between atoms: C6_15  and  C7_16 
REMARK    6  A    between atoms: N7_19  and  N8_20 
ROOT
HETATM    1  C1  UNL     1     -39.956  -5.361  25.674  1.00  0.00     0.678 A 
HETATM    2  N2  UNL     1     -39.696  -4.807  24.473  1.00  0.00    -0.178 N 
ATOM      3  H2  UNL     1     -39.190  -3.923  24.423  1.00  0.00     0.185 HD
HETATM    4  C2  UNL     1     -40.094  -5.406  23.351  1.00  0.00     0.147 A 
HETATM    5  N3  UNL     1     -39.805  -4.800  22.112  1.00  0.00    -0.081 NA
HETATM    6  C3  UNL     1     -40.792  -6.634  23.436  1.00  0.00     0.067 A 
HETATM    7  C9  UNL     1     -41.056  -7.199  24.656  1.00  0.00     0.129 A 
HETATM    8  N9  UNL     1     -41.683  -8.301  24.799  1.00  0.00    -0.384 N 
ATOM      9  H91 UNL     1     -41.879  -8.721  25.707  1.00  0.00     0.157 HD
ATOM     10  H92 UNL     1     -42.008  -8.800  23.971  1.00  0.00     0.157 HD
HETATM   11  N10 UNL     1     -40.620  -6.528  25.768  1.00  0.00    -0.176 N 
ATOM     12  H10 UNL     1     -40.802  -6.923  26.691  1.00  0.00     0.186 HD
ENDROOT
BRANCH   6  13
HETATM   13  C4  UNL     1     -41.183  -7.206  22.156  1.00  0.00     0.140 C 
BRANCH  13  14
HETATM   14  N4  UNL     1     -42.454  -7.776  21.977  1.00  0.00    -0.213 N 
HETATM   15  N5  UNL     1     -42.816  -9.016  22.262  1.00  0.00    -0.277 N 
HETATM   16  C5  UNL     1     -44.114  -9.238  22.009  1.00  0.00     0.131 A 
ATOM     17  H5  UNL     1     -42.181  -9.722  22.633  1.00  0.00     0.189 HD
HETATM   18  N7  UNL     1     -44.574  -8.046  21.533  1.00  0.00    -0.196 N 
HETATM   19  C8  UNL     1     -43.568  -7.147  21.510  1.00  0.00     0.367 A 
HETATM   20  O2  UNL     1     -43.679  -5.955  21.121  1.00  0.00    -0.243 OA
BRANCH  16  21
HETATM   21  C6  UNL     1     -44.925 -10.469  22.180  1.00  0.00     0.179 C 
BRANCH  21  22
HETATM   22  C7  UNL     1     -44.709 -11.092  23.495  1.00  0.00     0.238 C 
HETATM   23  N6  UNL     1     -44.261 -10.322  24.595  1.00  0.00    -0.062 NA
HETATM   24  O1  UNL     1     -44.919 -12.320  23.662  1.00  0.00    -0.276 OA
ENDBRANCH  21  22
ENDBRANCH  16  21
BRANCH  18  25
HETATM   25  N8  UNL     1     -45.892  -7.817  21.137  1.00  0.00    -0.333 N 
ATOM     26  H82 UNL     1     -46.247  -7.845  20.181  1.00  0.00     0.177 HD
ATOM     27  H81 UNL     1     -46.651  -7.594  21.779  1.00  0.00     0.177 HD
ENDBRANCH  18  25
ENDBRANCH  13  14
ENDBRANCH   6  13
BRANCH   1  28
HETATM   28  N1  UNL     1     -39.554  -4.750  26.747  1.00  0.00    -0.234 N 
ATOM     29  H12 UNL     1     -39.116  -3.832  26.681  1.00  0.00     0.174 HD
ATOM     30  H11 UNL     1     -39.687  -5.204  27.651  1.00  0.00     0.174 HD
ENDBRANCH   1  28
TORSDOF 6
ENDMDL
MODEL 2
REMARK VINA RESULT: -8.759607977      0.215      1.818
REMARK  6 active torsions:
REMARK  status: ('A' for Active; 'I' for Inactive)
REMARK    1  A    between atoms: N1_1  and  C1_4 
REMARK    2  A    between atoms: C3_9  and  C4_10 
REMARK    3  A    between atoms: C4_10  and  N4_11 
REMARK    4  A    between atoms: C5_14  and  C6_15 
REMARK    5  A    between atoms: C6_15  and  C7_16 
REMARK    6  A    between atoms: N7_19  and  N8_20 
ROOT
HETATM    1  C1  UNL     1     -40.050  -5.297  25.493  1.00  0.00     0.678 A 
HETATM    2  N2  UNL     1     -40.588  -6.529  25.604  1.00  0.00    -0.178 N 
ATOM      3  H2  UNL     1     -40.749  -6.929  26.528  1.00  0.00     0.185 HD
HETATM    4  C2  UNL     1     -40.909  -7.227  24.515  1.00  0.00     0.147 A 
HETATM    5  N3  UNL     1     -41.469  -8.512  24.666  1.00  0.00    -0.081 NA
HETATM    6  C3  UNL     1     -40.680  -6.658  23.239  1.00  0.00     0.067 A 
HETATM    7  C9  UNL     1     -40.136  -5.406  23.126  1.00  0.00     0.129 A 
HETATM    8  N9  UNL     1     -39.904  -4.840  22.006  1.00  0.00    -0.384 N 
ATOM      9  H91 UNL     1     -39.498  -3.909  21.921  1.00  0.00     0.157 HD
ATOM     10  H92 UNL     1     -40.132  -5.332  21.142  1.00  0.00     0.157 HD
HETATM   11  N10 UNL     1     -39.828  -4.746  24.286  1.00  0.00    -0.176 N 
ATOM     12  H10 UNL     1     -39.420  -3.812  24.234  1.00  0.00     0.186 HD
ENDROOT
BRANCH   6  13
HETATM   13  C4  UNL     1     -41.064  -7.500  22.116  1.00  0.00     0.140 C 
BRANCH  13  14
HETATM   14  N4  UNL     1     -42.388  -7.944  21.965  1.00  0.00    -0.213 N 
HETATM   15  N5  UNL     1     -42.851  -9.161  22.199  1.00  0.00    -0.277 N 
HETATM   16  C5  UNL     1     -44.172  -9.252  21.993  1.00  0.00     0.131 A 
ATOM     17  H5  UNL     1     -42.268  -9.941  22.502  1.00  0.00     0.189 HD
HETATM   18  N7  UNL     1     -44.540  -7.998  21.603  1.00  0.00    -0.196 N 
HETATM   19  C8  UNL     1     -43.457  -7.192  21.583  1.00  0.00     0.367 A 
HETATM   20  O2  UNL     1     -43.474  -5.975  21.263  1.00  0.00    -0.243 OA
BRANCH  16  21
HETATM   21  C6  UNL     1     -45.085 -10.413  22.135  1.00  0.00     0.179 C 
BRANCH  21  22
HETATM   22  C7  UNL     1     -44.859 -11.139  23.394  1.00  0.00     0.238 C 
HETATM   23  N6  UNL     1     -44.345 -10.473  24.531  1.00  0.00    -0.062 NA
HETATM   24  O1  UNL     1     -45.121 -12.367  23.478  1.00  0.00    -0.276 OA
ENDBRANCH  21  22
ENDBRANCH  16  21
BRANCH  18  25
HETATM   25  N8  UNL     1     -45.846  -7.630  21.279  1.00  0.00    -0.333 N 
ATOM     26  H82 UNL     1     -46.221  -7.504  20.339  1.00  0.00     0.177 HD
ATOM     27  H81 UNL     1     -46.575  -7.446  21.968  1.00  0.00     0.177 HD
ENDBRANCH  18  25
ENDBRANCH  13  14
ENDBRANCH   6  13
BRANCH   1  28
HETATM   28  N1  UNL     1     -39.749  -4.646  26.575  1.00  0.00    -0.234 N 
ATOM     29  H12 UNL     1     -39.988  -5.029  27.489  1.00  0.00     0.174 HD
ATOM     30  H11 UNL     1     -39.270  -3.749  26.492  1.00  0.00     0.174 HD
ENDBRANCH   1  28
TORSDOF 6
ENDMDL
MODEL 3
REMARK VINA RESULT: -7.914715228      1.655      2.648
REMARK  6 active torsions:
REMARK  status: ('A' for Active; 'I' for Inactive)
REMARK    1  A    between atoms: N1_1  and  C1_4 
REMARK    2  A    between atoms: C3_9  and  C4_10 
REMARK    3  A    between atoms: C4_10  and  N4_11 
REMARK    4  A    between atoms: C5_14  and  C6_15 
REMARK    5  A    between atoms: C6_15  and  C7_16 
REMARK    6  A    between atoms: N7_19  and  N8_20 
ROOT
HETATM    1  C1  UNL     1     -40.504  -5.209  24.089  1.00  0.00     0.678 A 
HETATM    2  N2  UNL     1     -40.897  -5.764  25.252  1.00  0.00    -0.178 N 
ATOM      3  H2  UNL     1     -40.940  -5.193  26.097  1.00  0.00     0.185 HD
HETATM    4  C2  UNL     1     -41.229  -7.054  25.308  1.00  0.00     0.147 A 
HETATM    5  N3  UNL     1     -41.635  -7.603  26.541  1.00  0.00    -0.081 NA
HETATM    6  C3  UNL     1     -41.167  -7.833  24.129  1.00  0.00     0.067 A 
HETATM    7  C9  UNL     1     -40.769  -7.269  22.945  1.00  0.00     0.129 A 
HETATM    8  N9  UNL     1     -40.690  -7.918  21.850  1.00  0.00    -0.384 N 
ATOM      9  H91 UNL     1     -40.394  -7.499  20.969  1.00  0.00     0.157 HD
ATOM     10  H92 UNL     1     -40.934  -8.908  21.838  1.00  0.00     0.157 HD
HETATM   11  N10 UNL     1     -40.440  -5.939  22.961  1.00  0.00    -0.176 N 
ATOM     12  H10 UNL     1     -40.140  -5.491  22.095  1.00  0.00     0.186 HD
ENDROOT
BRANCH   6  13
HETATM   13  C4  UNL     1     -41.548  -9.228  24.295  1.00  0.00     0.140 C 
BRANCH  13  14
HETATM   14  N4  UNL     1     -42.744  -9.720  23.747  1.00  0.00    -0.213 N 
HETATM   15  N5  UNL     1     -43.335 -10.868  24.031  1.00  0.00    -0.277 N 
HETATM   16  C5  UNL     1     -44.486 -11.028  23.361  1.00  0.00     0.131 A 
ATOM     17  H5  UNL     1     -42.959 -11.555  24.684  1.00  0.00     0.189 HD
HETATM   18  N7  UNL     1     -44.602  -9.892  22.615  1.00  0.00    -0.196 N 
HETATM   19  C8  UNL     1     -43.542  -9.087  22.843  1.00  0.00     0.367 A 
HETATM   20  O2  UNL     1     -43.363  -7.967  22.301  1.00  0.00    -0.243 OA
BRANCH  16  21
HETATM   21  C6  UNL     1     -45.456 -12.151  23.379  1.00  0.00     0.179 C 
BRANCH  21  22
HETATM   22  C7  UNL     1     -46.434 -12.015  24.469  1.00  0.00     0.238 C 
HETATM   23  N6  UNL     1     -46.008 -11.889  25.812  1.00  0.00    -0.062 NA
HETATM   24  O1  UNL     1     -47.668 -12.009  24.223  1.00  0.00    -0.276 OA
ENDBRANCH  21  22
ENDBRANCH  16  21
BRANCH  18  25
HETATM   25  N8  UNL     1     -45.666  -9.628  21.752  1.00  0.00    -0.333 N 
ATOM     26  H82 UNL     1     -46.369  -8.898  21.869  1.00  0.00     0.177 HD
ATOM     27  H81 UNL     1     -45.852 -10.150  20.897  1.00  0.00     0.177 HD
ENDBRANCH  18  25
ENDBRANCH  13  14
ENDBRANCH   6  13
BRANCH   1  28
HETATM   28  N1  UNL     1     -40.187  -3.950  24.071  1.00  0.00    -0.234 N 
ATOM     29  H12 UNL     1     -39.210  -3.665  24.136  1.00  0.00     0.174 HD
ATOM     30  H11 UNL     1     -40.931  -3.256  23.990  1.00  0.00     0.174 HD
ENDBRANCH   1  28
TORSDOF 6
ENDMDL
MODEL 4
REMARK VINA RESULT: -7.644519337      2.451      5.854
REMARK  6 active torsions:
REMARK  status: ('A' for Active; 'I' for Inactive)
REMARK    1  A    between atoms: N1_1  and  C1_4 
REMARK    2  A    between atoms: C3_9  and  C4_10 
REMARK    3  A    between atoms: C4_10  and  N4_11 
REMARK    4  A    between atoms: C5_14  and  C6_15 
REMARK    5  A    between atoms: C6_15  and  C7_16 
REMARK    6  A    between atoms: N7_19  and  N8_20 
ROOT
HETATM    1  C1  UNL     1     -44.714 -10.701  23.701  1.00  0.00     0.678 A 
HETATM    2  N2  UNL     1     -43.504 -10.735  24.293  1.00  0.00    -0.178 N 
ATOM      3  H2  UNL     1     -43.320 -11.416  25.030  1.00  0.00     0.185 HD
HETATM    4  C2  UNL     1     -42.546  -9.885  23.923  1.00  0.00     0.147 A 
HETATM    5  N3  UNL     1     -41.291  -9.947  24.562  1.00  0.00    -0.081 NA
HETATM    6  C3  UNL     1     -42.815  -8.947  22.898  1.00  0.00     0.067 A 
HETATM    7  C9  UNL     1     -44.045  -8.913  22.295  1.00  0.00     0.129 A 
HETATM    8  N9  UNL     1     -44.350  -8.091  21.368  1.00  0.00    -0.384 N 
ATOM      9  H91 UNL     1     -45.265  -8.065  20.919  1.00  0.00     0.157 HD
ATOM     10  H92 UNL     1     -43.651  -7.420  21.047  1.00  0.00     0.157 HD
HETATM   11  N10 UNL     1     -44.983  -9.814  22.726  1.00  0.00    -0.176 N 
ATOM     12  H10 UNL     1     -45.908  -9.812  22.297  1.00  0.00     0.186 HD
ENDROOT
BRANCH   6  13
HETATM   13  C4  UNL     1     -41.705  -8.065  22.568  1.00  0.00     0.140 C 
BRANCH  13  14
HETATM   14  N4  UNL     1     -41.250  -7.104  23.485  1.00  0.00    -0.213 N 
HETATM   15  N5  UNL     1     -40.994  -7.287  24.769  1.00  0.00    -0.277 N 
HETATM   16  C5  UNL     1     -40.537  -6.175  25.362  1.00  0.00     0.131 A 
ATOM     17  H5  UNL     1     -41.129  -8.175  25.254  1.00  0.00     0.189 HD
HETATM   18  N7  UNL     1     -40.514  -5.246  24.364  1.00  0.00    -0.196 N 
HETATM   19  C8  UNL     1     -40.948  -5.803  23.213  1.00  0.00     0.367 A 
HETATM   20  O2  UNL     1     -41.043  -5.199  22.114  1.00  0.00    -0.243 OA
BRANCH  16  21
HETATM   21  C6  UNL     1     -40.132  -5.939  26.770  1.00  0.00     0.179 C 
BRANCH  21  22
HETATM   22  C7  UNL     1     -40.269  -7.150  27.592  1.00  0.00     0.238 C 
HETATM   23  N6  UNL     1     -41.523  -7.789  27.736  1.00  0.00    -0.062 NA
HETATM   24  O1  UNL     1     -39.270  -7.638  28.181  1.00  0.00    -0.276 OA
ENDBRANCH  21  22
ENDBRANCH  16  21
BRANCH  18  25
HETATM   25  N8  UNL     1     -40.101  -3.925  24.534  1.00  0.00    -0.333 N 
ATOM     26  H82 UNL     1     -40.376  -3.300  25.292  1.00  0.00     0.177 HD
ATOM     27  H81 UNL     1     -39.465  -3.439  23.902  1.00  0.00     0.177 HD
ENDBRANCH  18  25
ENDBRANCH  13  14
ENDBRANCH   6  13
BRANCH   1  28
HETATM   28  N1  UNL     1     -45.624 -11.543  24.087  1.00  0.00    -0.234 N 
ATOM     29  H12 UNL     1     -46.026 -12.204  23.423  1.00  0.00     0.174 HD
ATOM     30  H11 UNL     1     -45.926 -11.529  25.062  1.00  0.00     0.174 HD
ENDBRANCH   1  28
TORSDOF 6
ENDMDL
MODEL 5
REMARK VINA RESULT: -7.619099658      1.545      3.525
REMARK  6 active torsions:
REMARK  status: ('A' for Active; 'I' for Inactive)
REMARK    1  A    between atoms: N1_1  and  C1_4 
REMARK    2  A    between atoms: C3_9  and  C4_10 
REMARK    3  A    between atoms: C4_10  and  N4_11 
REMARK    4  A    between atoms: C5_14  and  C6_15 
REMARK    5  A    between atoms: C6_15  and  C7_16 
REMARK    6  A    between atoms: N7_19  and  N8_20 
ROOT
HETATM    1  C1  UNL     1     -40.534  -5.095  24.242  1.00  0.00     0.678 A 
HETATM    2  N2  UNL     1     -40.871  -5.829  25.321  1.00  0.00    -0.178 N 
ATOM      3  H2  UNL     1     -40.851  -5.404  26.248  1.00  0.00     0.185 HD
HETATM    4  C2  UNL     1     -41.231  -7.105  25.186  1.00  0.00     0.147 A 
HETATM    5  N3  UNL     1     -41.578  -7.844  26.335  1.00  0.00    -0.081 NA
HETATM    6  C3  UNL     1     -41.256  -7.680  23.893  1.00  0.00     0.067 A 
HETATM    7  C9  UNL     1     -40.914  -6.935  22.796  1.00  0.00     0.129 A 
HETATM    8  N9  UNL     1     -40.915  -7.396  21.606  1.00  0.00    -0.384 N 
ATOM      9  H91 UNL     1     -40.661  -6.841  20.789  1.00  0.00     0.157 HD
ATOM     10  H92 UNL     1     -41.184  -8.367  21.448  1.00  0.00     0.157 HD
HETATM   11  N10 UNL     1     -40.553  -5.631  23.008  1.00  0.00    -0.176 N 
ATOM     12  H10 UNL     1     -40.292  -5.050  22.210  1.00  0.00     0.186 HD
ENDROOT
BRANCH   6  13
HETATM   13  C4  UNL     1     -41.661  -9.078  23.853  1.00  0.00     0.140 C 
BRANCH  13  14
HETATM   14  N4  UNL     1     -42.880  -9.460  23.270  1.00  0.00    -0.213 N 
HETATM   15  N5  UNL     1     -43.420  -8.975  22.164  1.00  0.00    -0.277 N 
HETATM   16  C5  UNL     1     -44.576  -9.579  21.855  1.00  0.00     0.131 A 
ATOM     17  H5  UNL     1     -43.004  -8.227  21.610  1.00  0.00     0.189 HD
HETATM   18  N7  UNL     1     -44.753 -10.498  22.847  1.00  0.00    -0.196 N 
HETATM   19  C8  UNL     1     -43.723 -10.433  23.716  1.00  0.00     0.367 A 
HETATM   20  O2  UNL     1     -43.600 -11.155  24.738  1.00  0.00    -0.243 OA
BRANCH  16  21
HETATM   21  C6  UNL     1     -45.500  -9.350  20.716  1.00  0.00     0.179 C 
BRANCH  21  22
HETATM   22  C7  UNL     1     -45.918  -7.943  20.622  1.00  0.00     0.238 C 
HETATM   23  N6  UNL     1     -47.251  -7.606  20.289  1.00  0.00    -0.062 NA
HETATM   24  O1  UNL     1     -45.095  -7.016  20.836  1.00  0.00    -0.276 OA
ENDBRANCH  21  22
ENDBRANCH  16  21
BRANCH  18  25
HETATM   25  N8  UNL     1     -45.844 -11.363  22.926  1.00  0.00    -0.333 N 
ATOM     26  H82 UNL     1     -46.437 -11.659  22.150  1.00  0.00     0.177 HD
ATOM     27  H81 UNL     1     -46.168 -11.798  23.790  1.00  0.00     0.177 HD
ENDBRANCH  18  25
ENDBRANCH  13  14
ENDBRANCH   6  13
BRANCH   1  28
HETATM   28  N1  UNL     1     -40.187  -3.855  24.411  1.00  0.00    -0.234 N 
ATOM     29  H12 UNL     1     -39.536  -3.411  23.763  1.00  0.00     0.174 HD
ATOM     30  H11 UNL     1     -40.578  -3.337  25.198  1.00  0.00     0.174 HD
ENDBRANCH   1  28
TORSDOF 6
ENDMDL
