MODEL 1
REMARK VINA RESULT: -8.507624304      0.000      0.000
REMARK  9 active torsions:
REMARK  status: ('A' for Active; 'I' for Inactive)
REMARK    1  A    between atoms: N1_1  and  C1_4 
REMARK    2  A    between atoms: C3_8  and  N3_9 
REMARK    3  A    between atoms: N3_9  and  N4_11 
REMARK    4  A    between atoms: N7_23  and  C7_24 
REMARK    5  A    between atoms: C7_24  and  O3_25 
REMARK    6  A    between atoms: O3_25  and  C8_26 
REMARK    7  A    between atoms: C8_26  and  O4_27 
REMARK    8  A    between atoms: C8_26  and  C9_29 
REMARK    9  A    between atoms: C9_29  and  O5_30 
ROOT
HETATM    1  C1  UNL     1     -42.925  -7.006  22.086  1.00  0.00     0.681 A 
HETATM    2  N2  UNL     1     -43.816  -7.707  21.358  1.00  0.00    -0.186 N 
ATOM      3  H2  UNL     1     -44.314  -7.394  20.526  1.00  0.00     0.184 HD
HETATM    4  C2  UNL     1     -43.908  -8.901  21.958  1.00  0.00     0.127 A 
HETATM    5  C3  UNL     1     -44.731  -9.941  21.525  1.00  0.00     0.153 C 
HETATM    6  N5  UNL     1     -45.010 -11.078  22.177  1.00  0.00    -0.291 N 
ATOM      7  H5  UNL     1     -45.587 -11.732  21.649  1.00  0.00     0.172 HD
HETATM    8  C4  UNL     1     -44.661 -11.517  23.417  1.00  0.00     0.328 C 
HETATM    9  O1  UNL     1     -45.343 -12.415  23.950  1.00  0.00    -0.247 OA
HETATM   10  N6  UNL     1     -43.628 -11.085  24.175  1.00  0.00    -0.273 N 
ATOM     11  H6  UNL     1     -43.398 -11.633  25.003  1.00  0.00     0.173 HD
HETATM   12  C5  UNL     1     -42.879  -9.998  23.934  1.00  0.00     0.279 C 
HETATM   13  O2  UNL     1     -41.832  -9.939  24.620  1.00  0.00    -0.265 OA
HETATM   14  C6  UNL     1     -43.071  -8.948  23.063  1.00  0.00     0.153 A 
HETATM   15  N7  UNL     1     -42.465  -7.744  23.123  1.00  0.00    -0.154 N 
ENDROOT
BRANCH  15  16
HETATM   16  C7  UNL     1     -41.508  -7.358  24.121  1.00  0.00     0.321 C 
BRANCH  16  17
HETATM   17  O3  UNL     1     -40.381  -6.735  23.603  1.00  0.00    -0.339 OA
BRANCH  17  18
HETATM   18  C8  UNL     1     -40.210  -5.528  24.262  1.00  0.00     0.282 C 
BRANCH  18  19
HETATM   19  O4  UNL     1     -41.500  -5.046  24.539  1.00  0.00    -0.369 OA
ATOM     20  H4  UNL     1     -41.401  -4.405  25.233  1.00  0.00     0.212 HD
ENDBRANCH  18  19
BRANCH  18  21
HETATM   21  C9  UNL     1     -39.431  -4.536  23.424  1.00  0.00     0.224 C 
BRANCH  21  22
HETATM   22  O5  UNL     1     -40.056  -4.527  22.158  1.00  0.00    -0.396 OA
ATOM     23  H5  UNL     1     -39.432  -4.127  21.564  1.00  0.00     0.209 HD
ENDBRANCH  21  22
ENDBRANCH  18  21
ENDBRANCH  17  18
ENDBRANCH  16  17
ENDBRANCH  15  16
BRANCH   1  24
HETATM   24  N1  UNL     1     -42.571  -5.788  21.809  1.00  0.00    -0.234 N 
ATOM     25  H12 UNL     1     -42.325  -5.436  20.883  1.00  0.00     0.174 HD
ATOM     26  H11 UNL     1     -42.503  -5.047  22.508  1.00  0.00     0.174 HD
ENDBRANCH   1  24
BRANCH   5  27
HETATM   27  N3  UNL     1     -45.273  -9.772  20.373  1.00  0.00    -0.290 N 
ATOM     28  H3  UNL     1     -46.058  -9.132  20.257  1.00  0.00     0.188 HD
BRANCH  27  29
HETATM   29  N4  UNL     1     -44.774 -10.475  19.291  1.00  0.00    -0.344 N 
ATOM     30  H42 UNL     1     -45.049 -11.448  19.151  1.00  0.00     0.176 HD
ATOM     31  H41 UNL     1     -44.135 -10.005  18.651  1.00  0.00     0.176 HD
ENDBRANCH  27  29
ENDBRANCH   5  27
TORSDOF 9
ENDMDL
MODEL 2
REMARK VINA RESULT: -8.398594658      2.662      6.338
REMARK  9 active torsions:
REMARK  status: ('A' for Active; 'I' for Inactive)
REMARK    1  A    between atoms: N1_1  and  C1_4 
REMARK    2  A    between atoms: C3_8  and  N3_9 
REMARK    3  A    between atoms: N3_9  and  N4_11 
REMARK    4  A    between atoms: N7_23  and  C7_24 
REMARK    5  A    between atoms: C7_24  and  O3_25 
REMARK    6  A    between atoms: O3_25  and  C8_26 
REMARK    7  A    between atoms: C8_26  and  O4_27 
REMARK    8  A    between atoms: C8_26  and  C9_29 
REMARK    9  A    between atoms: C9_29  and  O5_30 
ROOT
HETATM    1  C1  UNL     1     -42.212  -8.021  22.998  1.00  0.00     0.681 A 
HETATM    2  N2  UNL     1     -41.642  -6.800  22.972  1.00  0.00    -0.186 N 
ATOM      3  H2  UNL     1     -41.563  -6.173  22.171  1.00  0.00     0.184 HD
HETATM    4  C2  UNL     1     -41.202  -6.584  24.218  1.00  0.00     0.127 A 
HETATM    5  C3  UNL     1     -40.541  -5.428  24.633  1.00  0.00     0.153 C 
HETATM    6  N5  UNL     1     -39.915  -5.227  25.801  1.00  0.00    -0.291 N 
ATOM      7  H5  UNL     1     -39.551  -4.282  25.924  1.00  0.00     0.172 HD
HETATM    8  C4  UNL     1     -39.679  -6.058  26.853  1.00  0.00     0.328 C 
HETATM    9  O1  UNL     1     -38.759  -5.774  27.646  1.00  0.00    -0.247 OA
HETATM   10  N6  UNL     1     -40.340  -7.197  27.158  1.00  0.00    -0.273 N 
ATOM     11  H6  UNL     1     -40.156  -7.610  28.072  1.00  0.00     0.173 HD
HETATM   12  C5  UNL     1     -41.217  -7.831  26.365  1.00  0.00     0.279 C 
HETATM   13  O2  UNL     1     -41.887  -8.714  26.952  1.00  0.00    -0.265 OA
HETATM   14  C6  UNL     1     -41.498  -7.672  25.026  1.00  0.00     0.153 A 
HETATM   15  N7  UNL     1     -42.132  -8.562  24.235  1.00  0.00    -0.154 N 
ENDROOT
BRANCH  15  16
HETATM   16  C7  UNL     1     -42.622  -9.840  24.669  1.00  0.00     0.321 C 
BRANCH  16  17
HETATM   17  O3  UNL     1     -44.003  -9.895  24.798  1.00  0.00    -0.339 OA
BRANCH  17  18
HETATM   18  C8  UNL     1     -44.480 -10.867  23.932  1.00  0.00     0.282 C 
BRANCH  18  19
HETATM   19  O4  UNL     1     -45.152 -10.182  22.906  1.00  0.00    -0.369 OA
ATOM     20  H4  UNL     1     -45.532 -10.850  22.347  1.00  0.00     0.212 HD
ENDBRANCH  18  19
BRANCH  18  21
HETATM   21  C9  UNL     1     -45.409 -11.835  24.635  1.00  0.00     0.224 C 
BRANCH  21  22
HETATM   22  O5  UNL     1     -46.664 -11.693  24.002  1.00  0.00    -0.396 OA
ATOM     23  H5  UNL     1     -47.076 -10.940  24.409  1.00  0.00     0.209 HD
ENDBRANCH  21  22
ENDBRANCH  18  21
ENDBRANCH  17  18
ENDBRANCH  16  17
ENDBRANCH  15  16
BRANCH   1  24
HETATM   24  N1  UNL     1     -42.758  -8.581  21.961  1.00  0.00    -0.234 N 
ATOM     25  H12 UNL     1     -43.650  -8.314  21.542  1.00  0.00     0.174 HD
ATOM     26  H11 UNL     1     -42.337  -9.359  21.453  1.00  0.00     0.174 HD
ENDBRANCH   1  24
BRANCH   5  27
HETATM   27  N3  UNL     1     -40.542  -4.459  23.789  1.00  0.00    -0.290 N 
ATOM     28  H3  UNL     1     -41.355  -3.849  23.700  1.00  0.00     0.188 HD
BRANCH  27  29
HETATM   29  N4  UNL     1     -39.422  -4.258  23.003  1.00  0.00    -0.344 N 
ATOM     30  H42 UNL     1     -39.263  -4.852  22.189  1.00  0.00     0.176 HD
ATOM     31  H41 UNL     1     -38.771  -3.514  23.255  1.00  0.00     0.176 HD
ENDBRANCH  27  29
ENDBRANCH   5  27
TORSDOF 9
ENDMDL
MODEL 3
REMARK VINA RESULT: -8.314529037      2.060      6.096
REMARK  9 active torsions:
REMARK  status: ('A' for Active; 'I' for Inactive)
REMARK    1  A    between atoms: N1_1  and  C1_4 
REMARK    2  A    between atoms: C3_8  and  N3_9 
REMARK    3  A    between atoms: N3_9  and  N4_11 
REMARK    4  A    between atoms: N7_23  and  C7_24 
REMARK    5  A    between atoms: C7_24  and  O3_25 
REMARK    6  A    between atoms: O3_25  and  C8_26 
REMARK    7  A    between atoms: C8_26  and  O4_27 
REMARK    8  A    between atoms: C8_26  and  C9_29 
REMARK    9  A    between atoms: C9_29  and  O5_30 
ROOT
HETATM    1  C1  UNL     1     -42.912  -8.951  22.436  1.00  0.00     0.681 A 
HETATM    2  N2  UNL     1     -42.355  -7.778  22.079  1.00  0.00    -0.186 N 
ATOM      3  H2  UNL     1     -42.319  -7.372  21.144  1.00  0.00     0.184 HD
HETATM    4  C2  UNL     1     -41.860  -7.258  23.209  1.00  0.00     0.127 A 
HETATM    5  C3  UNL     1     -41.190  -6.037  23.289  1.00  0.00     0.153 C 
HETATM    6  N5  UNL     1     -40.512  -5.552  24.339  1.00  0.00    -0.291 N 
ATOM      7  H5  UNL     1     -40.151  -4.608  24.204  1.00  0.00     0.172 HD
HETATM    8  C4  UNL     1     -40.220  -6.093  25.553  1.00  0.00     0.328 C 
HETATM    9  O1  UNL     1     -39.267  -5.623  26.205  1.00  0.00    -0.247 OA
HETATM   10  N6  UNL     1     -40.857  -7.117  26.164  1.00  0.00    -0.273 N 
ATOM     11  H6  UNL     1     -40.627  -7.289  27.143  1.00  0.00     0.173 HD
HETATM   12  C5  UNL     1     -41.764  -7.927  25.598  1.00  0.00     0.279 C 
HETATM   13  O2  UNL     1     -42.399  -8.632  26.418  1.00  0.00    -0.265 OA
HETATM   14  C6  UNL     1     -42.109  -8.107  24.277  1.00  0.00     0.153 A 
HETATM   15  N7  UNL     1     -42.771  -9.165  23.765  1.00  0.00    -0.154 N 
ENDROOT
BRANCH  15  16
HETATM   16  C7  UNL     1     -43.229 -10.292  24.528  1.00  0.00     0.321 C 
BRANCH  16  17
HETATM   17  O3  UNL     1     -44.611 -10.406  24.582  1.00  0.00    -0.339 OA
BRANCH  17  18
HETATM   18  C8  UNL     1     -44.971 -11.602  23.981  1.00  0.00     0.282 C 
BRANCH  18  19
HETATM   19  O4  UNL     1     -45.562 -11.263  22.752  1.00  0.00    -0.369 OA
ATOM     20  H4  UNL     1     -46.485 -11.128  22.930  1.00  0.00     0.212 HD
ENDBRANCH  18  19
BRANCH  18  21
HETATM   21  C9  UNL     1     -45.933 -12.394  24.843  1.00  0.00     0.224 C 
BRANCH  21  22
HETATM   22  O5  UNL     1     -46.054 -11.672  26.050  1.00  0.00    -0.396 OA
ATOM     23  H5  UNL     1     -46.830 -11.132  25.952  1.00  0.00     0.209 HD
ENDBRANCH  21  22
ENDBRANCH  18  21
ENDBRANCH  17  18
ENDBRANCH  16  17
ENDBRANCH  15  16
BRANCH   1  24
HETATM   24  N1  UNL     1     -43.501  -9.752  21.600  1.00  0.00    -0.234 N 
ATOM     25  H12 UNL     1     -43.070 -10.557  21.144  1.00  0.00     0.174 HD
ATOM     26  H11 UNL     1     -44.474  -9.650  21.311  1.00  0.00     0.174 HD
ENDBRANCH   1  24
BRANCH   5  27
HETATM   27  N3  UNL     1     -41.238  -5.310  22.231  1.00  0.00    -0.290 N 
ATOM     28  H3  UNL     1     -42.057  -5.334  21.622  1.00  0.00     0.188 HD
BRANCH  27  29
HETATM   29  N4  UNL     1     -40.161  -4.496  21.931  1.00  0.00    -0.344 N 
ATOM     30  H42 UNL     1     -40.164  -3.523  22.237  1.00  0.00     0.176 HD
ATOM     31  H41 UNL     1     -39.380  -4.887  21.405  1.00  0.00     0.176 HD
ENDBRANCH  27  29
ENDBRANCH   5  27
TORSDOF 9
ENDMDL
MODEL 4
REMARK VINA RESULT: -7.869521352      2.641      5.941
REMARK  9 active torsions:
REMARK  status: ('A' for Active; 'I' for Inactive)
REMARK    1  A    between atoms: N1_1  and  C1_4 
REMARK    2  A    between atoms: C3_8  and  N3_9 
REMARK    3  A    between atoms: N3_9  and  N4_11 
REMARK    4  A    between atoms: N7_23  and  C7_24 
REMARK    5  A    between atoms: C7_24  and  O3_25 
REMARK    6  A    between atoms: O3_25  and  C8_26 
REMARK    7  A    between atoms: C8_26  and  O4_27 
REMARK    8  A    between atoms: C8_26  and  C9_29 
REMARK    9  A    between atoms: C9_29  and  O5_30 
ROOT
HETATM    1  C1  UNL     1     -41.701  -8.619  25.137  1.00  0.00     0.681 A 
HETATM    2  N2  UNL     1     -41.377  -7.381  24.716  1.00  0.00    -0.186 N 
ATOM      3  H2  UNL     1     -40.792  -6.699  25.198  1.00  0.00     0.184 HD
HETATM    4  C2  UNL     1     -41.985  -7.235  23.533  1.00  0.00     0.127 A 
HETATM    5  C3  UNL     1     -41.914  -6.086  22.744  1.00  0.00     0.153 C 
HETATM    6  N5  UNL     1     -42.641  -5.806  21.653  1.00  0.00    -0.291 N 
ATOM      7  H5  UNL     1     -42.382  -4.934  21.191  1.00  0.00     0.172 HD
HETATM    8  C4  UNL     1     -43.661  -6.475  21.052  1.00  0.00     0.328 C 
HETATM    9  O1  UNL     1     -44.427  -5.846  20.294  1.00  0.00    -0.247 OA
HETATM   10  N6  UNL     1     -43.963  -7.787  21.178  1.00  0.00    -0.273 N 
ATOM     11  H6  UNL     1     -44.650  -8.170  20.528  1.00  0.00     0.173 HD
HETATM   12  C5  UNL     1     -43.438  -8.629  22.080  1.00  0.00     0.279 C 
HETATM   13  O2  UNL     1     -43.674  -9.838  21.845  1.00  0.00    -0.265 OA
HETATM   14  C6  UNL     1     -42.690  -8.385  23.211  1.00  0.00     0.153 A 
HETATM   15  N7  UNL     1     -42.496  -9.240  24.236  1.00  0.00    -0.154 N 
ENDROOT
BRANCH  15  16
HETATM   16  C7  UNL     1     -43.049 -10.563  24.316  1.00  0.00     0.321 C 
BRANCH  16  17
HETATM   17  O3  UNL     1     -44.358 -10.594  24.775  1.00  0.00    -0.339 OA
BRANCH  17  18
HETATM   18  C8  UNL     1     -45.030 -11.603  24.103  1.00  0.00     0.282 C 
BRANCH  18  19
HETATM   19  O4  UNL     1     -45.891 -10.965  23.194  1.00  0.00    -0.369 OA
ATOM     20  H4  UNL     1     -45.967 -11.548  22.448  1.00  0.00     0.212 HD
ENDBRANCH  18  19
BRANCH  18  21
HETATM   21  C9  UNL     1     -45.808 -12.489  25.054  1.00  0.00     0.224 C 
BRANCH  21  22
HETATM   22  O5  UNL     1     -46.134 -11.674  26.160  1.00  0.00    -0.396 OA
ATOM     23  H5  UNL     1     -46.825 -11.095  25.861  1.00  0.00     0.209 HD
ENDBRANCH  21  22
ENDBRANCH  18  21
ENDBRANCH  17  18
ENDBRANCH  16  17
ENDBRANCH  15  16
BRANCH   1  24
HETATM   24  N1  UNL     1     -41.291  -9.126  26.261  1.00  0.00    -0.234 N 
ATOM     25  H12 UNL     1     -41.495  -8.754  27.189  1.00  0.00     0.174 HD
ATOM     26  H11 UNL     1     -40.713  -9.964  26.324  1.00  0.00     0.174 HD
ENDBRANCH   1  24
BRANCH   5  27
HETATM   27  N3  UNL     1     -41.052  -5.211  23.120  1.00  0.00    -0.290 N 
ATOM     28  H3  UNL     1     -40.978  -4.944  24.102  1.00  0.00     0.188 HD
BRANCH  27  29
HETATM   29  N4  UNL     1     -40.225  -4.638  22.171  1.00  0.00    -0.344 N 
ATOM     30  H42 UNL     1     -39.545  -5.217  21.678  1.00  0.00     0.176 HD
ATOM     31  H41 UNL     1     -40.313  -3.640  21.980  1.00  0.00     0.176 HD
ENDBRANCH  27  29
ENDBRANCH   5  27
TORSDOF 9
ENDMDL
MODEL 5
REMARK VINA RESULT: -7.851349512      1.729      2.315
REMARK  9 active torsions:
REMARK  status: ('A' for Active; 'I' for Inactive)
REMARK    1  A    between atoms: N1_1  and  C1_4 
REMARK    2  A    between atoms: C3_8  and  N3_9 
REMARK    3  A    between atoms: N3_9  and  N4_11 
REMARK    4  A    between atoms: N7_23  and  C7_24 
REMARK    5  A    between atoms: C7_24  and  O3_25 
REMARK    6  A    between atoms: O3_25  and  C8_26 
REMARK    7  A    between atoms: C8_26  and  O4_27 
REMARK    8  A    between atoms: C8_26  and  C9_29 
REMARK    9  A    between atoms: C9_29  and  O5_30 
ROOT
HETATM    1  C1  UNL     1     -42.366  -6.784  22.489  1.00  0.00     0.681 A 
HETATM    2  N2  UNL     1     -43.354  -7.337  21.760  1.00  0.00    -0.186 N 
ATOM      3  H2  UNL     1     -43.846  -6.921  20.970  1.00  0.00     0.184 HD
HETATM    4  C2  UNL     1     -43.555  -8.550  22.291  1.00  0.00     0.127 A 
HETATM    5  C3  UNL     1     -44.502  -9.466  21.834  1.00  0.00     0.153 C 
HETATM    6  N5  UNL     1     -44.880 -10.606  22.429  1.00  0.00    -0.291 N 
ATOM      7  H5  UNL     1     -45.544 -11.160  21.888  1.00  0.00     0.172 HD
HETATM    8  C4  UNL     1     -44.537 -11.157  23.625  1.00  0.00     0.328 C 
HETATM    9  O1  UNL     1     -45.293 -12.009  24.132  1.00  0.00    -0.247 OA
HETATM   10  N6  UNL     1     -43.436 -10.887  24.362  1.00  0.00    -0.273 N 
ATOM     11  H6  UNL     1     -43.237 -11.509  25.145  1.00  0.00     0.173 HD
HETATM   12  C5  UNL     1     -42.581  -9.874  24.153  1.00  0.00     0.279 C 
HETATM   13  O2  UNL     1     -41.509  -9.972  24.796  1.00  0.00    -0.265 OA
HETATM   14  C6  UNL     1     -42.689  -8.756  23.355  1.00  0.00     0.153 A 
HETATM   15  N7  UNL     1     -41.952  -7.630  23.460  1.00  0.00    -0.154 N 
ENDROOT
BRANCH  15  16
HETATM   16  C7  UNL     1     -40.923  -7.413  24.437  1.00  0.00     0.321 C 
BRANCH  16  17
HETATM   17  O3  UNL     1     -41.379  -6.822  25.607  1.00  0.00    -0.339 OA
BRANCH  17  18
HETATM   18  C8  UNL     1     -40.940  -7.585  26.678  1.00  0.00     0.282 C 
BRANCH  18  19
HETATM   19  O4  UNL     1     -42.094  -8.091  27.299  1.00  0.00    -0.369 OA
ATOM     20  H4  UNL     1     -41.902  -8.995  27.518  1.00  0.00     0.212 HD
ENDBRANCH  18  19
BRANCH  18  21
HETATM   21  C9  UNL     1     -40.117  -6.765  27.650  1.00  0.00     0.224 C 
BRANCH  21  22
HETATM   22  O5  UNL     1     -40.821  -6.798  28.874  1.00  0.00    -0.396 OA
ATOM     23  H5  UNL     1     -40.417  -7.487  29.387  1.00  0.00     0.209 HD
ENDBRANCH  21  22
ENDBRANCH  18  21
ENDBRANCH  17  18
ENDBRANCH  16  17
ENDBRANCH  15  16
BRANCH   1  24
HETATM   24  N1  UNL     1     -41.891  -5.595  22.270  1.00  0.00    -0.234 N 
ATOM     25  H12 UNL     1     -41.476  -4.982  22.973  1.00  0.00     0.174 HD
ATOM     26  H11 UNL     1     -41.886  -5.150  21.352  1.00  0.00     0.174 HD
ENDBRANCH   1  24
BRANCH   5  27
HETATM   27  N3  UNL     1     -45.064  -9.168  20.718  1.00  0.00    -0.290 N 
ATOM     28  H3  UNL     1     -45.540  -8.273  20.599  1.00  0.00     0.188 HD
BRANCH  27  29
HETATM   29  N4  UNL     1     -45.013 -10.081  19.681  1.00  0.00    -0.344 N 
ATOM     30  H42 UNL     1     -45.221 -11.064  19.863  1.00  0.00     0.176 HD
ATOM     31  H41 UNL     1     -44.767  -9.752  18.747  1.00  0.00     0.176 HD
ENDBRANCH  27  29
ENDBRANCH   5  27
TORSDOF 9
ENDMDL
