MODEL 1
REMARK VINA RESULT: -6.916852600      0.000      0.000
REMARK  6 active torsions:
REMARK  status: ('A' for Active; 'I' for Inactive)
REMARK       I    between atoms: C1_2  and  N2_4 
REMARK    1  A    between atoms: N2_4  and  C2_6 
REMARK    2  A    between atoms: C6_10  and  N3_11 
REMARK    3  A    between atoms: N3_11  and  N4_13 
REMARK    4  A    between atoms: N4_13  and  C7_14 
REMARK    5  A    between atoms: C7_14  and  C8_15 
REMARK    6  A    between atoms: C8_15  and  C9_16 
ROOT
HETATM    1  C2  UNL     1      22.563  -4.788  10.225  1.00  0.00     0.110 A 
HETATM    2  C3  UNL     1      23.591  -5.378   9.528  1.00  0.00     0.049 A 
HETATM    3  C4  UNL     1      24.121  -6.587   9.909  1.00  0.00     0.007 A 
HETATM    4  C5  UNL     1      23.573  -7.184  11.023  1.00  0.00     0.050 A 
HETATM    5  C6  UNL     1      22.532  -6.599  11.736  1.00  0.00     0.118 A 
HETATM    6  N5  UNL     1      22.069  -5.415  11.301  1.00  0.00    -0.328 N 
ATOM      7  H5  UNL     1      21.307  -4.973  11.815  1.00  0.00     0.169 HD
ENDROOT
BRANCH   5   8
HETATM    8  N3  UNL     1      21.922  -7.195  12.856  1.00  0.00    -0.289 N 
ATOM      9  H3  UNL     1      22.230  -8.107  13.193  1.00  0.00     0.184 HD
BRANCH   8  10
HETATM   10  N4  UNL     1      20.888  -6.513  13.495  1.00  0.00    -0.140 NA
BRANCH  10  11
HETATM   11  C7  UNL     1      19.968  -7.440  14.129  1.00  0.00     0.142 C 
BRANCH  11  12
HETATM   12  C8  UNL     1      20.464  -7.790  15.502  1.00  0.00     0.087 C 
BRANCH  12  13
HETATM   13  C9  UNL     1      20.767  -6.507  16.234  1.00  0.00     0.232 C 
HETATM   14  O2  UNL     1      21.674  -6.493  17.076  1.00  0.00    -0.307 OA
ENDBRANCH  12  13
ENDBRANCH  11  12
ENDBRANCH  10  11
ENDBRANCH   8  10
ENDBRANCH   5   8
BRANCH   1  15
HETATM   15  N2  UNL     1      22.059  -3.651   9.860  1.00  0.00    -0.297 N 
HETATM   16  C1  UNL     1      21.202  -2.890  10.697  1.00  0.00     0.334 C 
HETATM   17  N1  UNL     1      19.823  -2.704  10.479  1.00  0.00    -0.040 NA
HETATM   18  O1  UNL     1      21.702  -2.331  11.721  1.00  0.00    -0.251 OA
ATOM     19  H2  UNL     1      22.289  -3.288   8.934  1.00  0.00     0.171 HD
ENDBRANCH   1  15
TORSDOF 6
ENDMDL
MODEL 2
REMARK VINA RESULT: -6.908524956      1.332      1.570
REMARK  6 active torsions:
REMARK  status: ('A' for Active; 'I' for Inactive)
REMARK       I    between atoms: C1_2  and  N2_4 
REMARK    1  A    between atoms: N2_4  and  C2_6 
REMARK    2  A    between atoms: C6_10  and  N3_11 
REMARK    3  A    between atoms: N3_11  and  N4_13 
REMARK    4  A    between atoms: N4_13  and  C7_14 
REMARK    5  A    between atoms: C7_14  and  C8_15 
REMARK    6  A    between atoms: C8_15  and  C9_16 
ROOT
HETATM    1  C2  UNL     1      22.529  -4.800  10.242  1.00  0.00     0.110 A 
HETATM    2  C3  UNL     1      23.567  -5.352   9.528  1.00  0.00     0.049 A 
HETATM    3  C4  UNL     1      24.134  -6.552   9.888  1.00  0.00     0.007 A 
HETATM    4  C5  UNL     1      23.612  -7.178  10.997  1.00  0.00     0.050 A 
HETATM    5  C6  UNL     1      22.562  -6.632  11.727  1.00  0.00     0.118 A 
HETATM    6  N5  UNL     1      22.063  -5.456  11.314  1.00  0.00    -0.328 N 
ATOM      7  H5  UNL     1      21.293  -5.042  11.840  1.00  0.00     0.169 HD
ENDROOT
BRANCH   5   8
HETATM    8  N3  UNL     1      21.978  -7.261  12.844  1.00  0.00    -0.289 N 
ATOM      9  H3  UNL     1      22.433  -8.056  13.291  1.00  0.00     0.184 HD
BRANCH   8  10
HETATM   10  N4  UNL     1      20.764  -6.774  13.326  1.00  0.00    -0.140 NA
BRANCH  10  11
HETATM   11  C7  UNL     1      20.777  -6.689  14.774  1.00  0.00     0.142 C 
BRANCH  11  12
HETATM   12  C8  UNL     1      19.898  -5.558  15.225  1.00  0.00     0.087 C 
BRANCH  12  13
HETATM   13  C9  UNL     1      19.437  -4.805  14.003  1.00  0.00     0.232 C 
HETATM   14  O2  UNL     1      19.578  -3.576  13.963  1.00  0.00    -0.307 OA
ENDBRANCH  12  13
ENDBRANCH  11  12
ENDBRANCH  10  11
ENDBRANCH   8  10
ENDBRANCH   5   8
BRANCH   1  15
HETATM   15  N2  UNL     1      21.992  -3.672   9.898  1.00  0.00    -0.297 N 
HETATM   16  C1  UNL     1      21.174  -2.915  10.776  1.00  0.00     0.334 C 
HETATM   17  N1  UNL     1      19.783  -2.747  10.636  1.00  0.00    -0.040 NA
HETATM   18  O1  UNL     1      21.724  -2.341  11.767  1.00  0.00    -0.251 OA
ATOM     19  H2  UNL     1      22.164  -3.315   8.958  1.00  0.00     0.171 HD
ENDBRANCH   1  15
TORSDOF 6
ENDMDL
MODEL 3
REMARK VINA RESULT: -6.697917560      1.952      4.619
REMARK  6 active torsions:
REMARK  status: ('A' for Active; 'I' for Inactive)
REMARK       I    between atoms: C1_2  and  N2_4 
REMARK    1  A    between atoms: N2_4  and  C2_6 
REMARK    2  A    between atoms: C6_10  and  N3_11 
REMARK    3  A    between atoms: N3_11  and  N4_13 
REMARK    4  A    between atoms: N4_13  and  C7_14 
REMARK    5  A    between atoms: C7_14  and  C8_15 
REMARK    6  A    between atoms: C8_15  and  C9_16 
ROOT
HETATM    1  C2  UNL     1      22.157  -7.123  11.482  1.00  0.00     0.110 A 
HETATM    2  C3  UNL     1      23.214  -8.000  11.419  1.00  0.00     0.049 A 
HETATM    3  C4  UNL     1      24.285  -7.782  10.585  1.00  0.00     0.007 A 
HETATM    4  C5  UNL     1      24.251  -6.641   9.814  1.00  0.00     0.050 A 
HETATM    5  C6  UNL     1      23.188  -5.745   9.869  1.00  0.00     0.118 A 
HETATM    6  N5  UNL     1      22.179  -6.029  10.708  1.00  0.00    -0.328 N 
ATOM      7  H5  UNL     1      21.392  -5.381  10.759  1.00  0.00     0.169 HD
ENDROOT
BRANCH   5   8
HETATM    8  N3  UNL     1      23.136  -4.551   9.125  1.00  0.00    -0.289 N 
ATOM      9  H3  UNL     1      22.767  -4.546   8.175  1.00  0.00     0.184 HD
BRANCH   8  10
HETATM   10  N4  UNL     1      23.597  -3.376   9.715  1.00  0.00    -0.140 NA
BRANCH  10  11
HETATM   11  C7  UNL     1      22.759  -2.991  10.835  1.00  0.00     0.142 C 
BRANCH  11  12
HETATM   12  C8  UNL     1      21.382  -2.647  10.346  1.00  0.00     0.087 C 
BRANCH  12  13
HETATM   13  C9  UNL     1      20.447  -2.652  11.529  1.00  0.00     0.232 C 
HETATM   14  O2  UNL     1      20.787  -2.073  12.568  1.00  0.00    -0.307 OA
ENDBRANCH  12  13
ENDBRANCH  11  12
ENDBRANCH  10  11
ENDBRANCH   8  10
ENDBRANCH   5   8
BRANCH   1  15
HETATM   15  N2  UNL     1      21.152  -7.326  12.274  1.00  0.00    -0.297 N 
HETATM   16  C1  UNL     1      20.879  -6.496  13.393  1.00  0.00     0.334 C 
HETATM   17  N1  UNL     1      21.036  -6.881  14.738  1.00  0.00    -0.040 NA
HETATM   18  O1  UNL     1      20.461  -5.316  13.179  1.00  0.00    -0.251 OA
ATOM     19  H2  UNL     1      20.532  -8.114  12.086  1.00  0.00     0.171 HD
ENDBRANCH   1  15
TORSDOF 6
ENDMDL
MODEL 4
REMARK VINA RESULT: -6.649528377      3.190      4.746
REMARK  6 active torsions:
REMARK  status: ('A' for Active; 'I' for Inactive)
REMARK       I    between atoms: C1_2  and  N2_4 
REMARK    1  A    between atoms: N2_4  and  C2_6 
REMARK    2  A    between atoms: C6_10  and  N3_11 
REMARK    3  A    between atoms: N3_11  and  N4_13 
REMARK    4  A    between atoms: N4_13  and  C7_14 
REMARK    5  A    between atoms: C7_14  and  C8_15 
REMARK    6  A    between atoms: C8_15  and  C9_16 
ROOT
HETATM    1  C2  UNL     1      23.540  -5.963   9.879  1.00  0.00     0.110 A 
HETATM    2  C3  UNL     1      23.971  -4.780   9.326  1.00  0.00     0.049 A 
HETATM    3  C4  UNL     1      23.434  -3.570   9.699  1.00  0.00     0.007 A 
HETATM    4  C5  UNL     1      22.444  -3.597  10.655  1.00  0.00     0.050 A 
HETATM    5  C6  UNL     1      21.999  -4.787  11.223  1.00  0.00     0.118 A 
HETATM    6  N5  UNL     1      22.572  -5.927  10.805  1.00  0.00    -0.328 N 
ATOM      7  H5  UNL     1      22.255  -6.808  11.213  1.00  0.00     0.169 HD
ENDROOT
BRANCH   5   8
HETATM    8  N3  UNL     1      21.016  -4.851  12.229  1.00  0.00    -0.289 N 
ATOM      9  H3  UNL     1      20.880  -5.704  12.771  1.00  0.00     0.184 HD
BRANCH   8  10
HETATM   10  N4  UNL     1      20.231  -3.725  12.468  1.00  0.00    -0.140 NA
BRANCH  10  11
HETATM   11  C7  UNL     1      19.295  -3.964  13.551  1.00  0.00     0.142 C 
BRANCH  11  12
HETATM   12  C8  UNL     1      17.958  -3.372  13.208  1.00  0.00     0.087 C 
BRANCH  12  13
HETATM   13  C9  UNL     1      18.100  -2.603  11.919  1.00  0.00     0.232 C 
HETATM   14  O2  UNL     1      17.391  -2.909  10.953  1.00  0.00    -0.307 OA
ENDBRANCH  12  13
ENDBRANCH  11  12
ENDBRANCH  10  11
ENDBRANCH   8  10
ENDBRANCH   5   8
BRANCH   1  15
HETATM   15  N2  UNL     1      24.051  -7.102   9.532  1.00  0.00    -0.297 N 
HETATM   16  C1  UNL     1      23.562  -8.341  10.021  1.00  0.00     0.334 C 
HETATM   17  N1  UNL     1      24.245  -9.176  10.926  1.00  0.00    -0.040 NA
HETATM   18  O1  UNL     1      22.424  -8.739   9.619  1.00  0.00    -0.251 OA
ATOM     19  H2  UNL     1      24.837  -7.107   8.881  1.00  0.00     0.171 HD
ENDBRANCH   1  15
TORSDOF 6
ENDMDL
MODEL 5
REMARK VINA RESULT: -6.552724688      1.300      1.422
REMARK  6 active torsions:
REMARK  status: ('A' for Active; 'I' for Inactive)
REMARK       I    between atoms: C1_2  and  N2_4 
REMARK    1  A    between atoms: N2_4  and  C2_6 
REMARK    2  A    between atoms: C6_10  and  N3_11 
REMARK    3  A    between atoms: N3_11  and  N4_13 
REMARK    4  A    between atoms: N4_13  and  C7_14 
REMARK    5  A    between atoms: C7_14  and  C8_15 
REMARK    6  A    between atoms: C8_15  and  C9_16 
ROOT
HETATM    1  C2  UNL     1      22.594  -5.697  10.235  1.00  0.00     0.110 A 
HETATM    2  C3  UNL     1      23.551  -6.578   9.788  1.00  0.00     0.049 A 
HETATM    3  C4  UNL     1      23.877  -7.711  10.495  1.00  0.00     0.007 A 
HETATM    4  C5  UNL     1      23.198  -7.925  11.673  1.00  0.00     0.050 A 
HETATM    5  C6  UNL     1      22.226  -7.044  12.136  1.00  0.00     0.118 A 
HETATM    6  N5  UNL     1      21.966  -5.958  11.390  1.00  0.00    -0.328 N 
ATOM      7  H5  UNL     1      21.257  -5.302  11.717  1.00  0.00     0.169 HD
ENDROOT
BRANCH   5   8
HETATM    8  N3  UNL     1      21.486  -7.248  13.316  1.00  0.00    -0.289 N 
ATOM      9  H3  UNL     1      21.633  -8.081  13.886  1.00  0.00     0.184 HD
BRANCH   8  10
HETATM   10  N4  UNL     1      20.547  -6.289  13.691  1.00  0.00    -0.140 NA
BRANCH  10  11
HETATM   11  C7  UNL     1      19.854  -6.684  14.903  1.00  0.00     0.142 C 
BRANCH  11  12
HETATM   12  C8  UNL     1      19.877  -5.556  15.893  1.00  0.00     0.087 C 
BRANCH  12  13
HETATM   13  C9  UNL     1      20.572  -6.038  17.141  1.00  0.00     0.232 C 
HETATM   14  O2  UNL     1      21.698  -6.542  17.047  1.00  0.00    -0.307 OA
ENDBRANCH  12  13
ENDBRANCH  11  12
ENDBRANCH  10  11
ENDBRANCH   8  10
ENDBRANCH   5   8
BRANCH   1  15
HETATM   15  N2  UNL     1      22.283  -4.634   9.564  1.00  0.00    -0.297 N 
HETATM   16  C1  UNL     1      22.730  -3.338   9.933  1.00  0.00     0.334 C 
HETATM   17  N1  UNL     1      21.908  -2.322  10.456  1.00  0.00    -0.040 NA
HETATM   18  O1  UNL     1      23.961  -3.062   9.785  1.00  0.00    -0.251 OA
ATOM     19  H2  UNL     1      21.693  -4.732   8.737  1.00  0.00     0.171 HD
ENDBRANCH   1  15
TORSDOF 6
ENDMDL
