MODEL 1
REMARK VINA RESULT: -7.168512321      0.000      0.000
REMARK  5 active torsions:
REMARK  status: ('A' for Active; 'I' for Inactive)
REMARK    1  A    between atoms: C3_8  and  C4_9 
REMARK       I    between atoms: C4_9  and  N4_11 
REMARK    2  A    between atoms: N4_11  and  C5_13 
REMARK    3  A    between atoms: C5_13  and  C6_14 
REMARK    4  A    between atoms: C6_14  and  N5_15 
REMARK    5  A    between atoms: N5_15  and  C7_18 
ROOT
HETATM    1  C4  UNL     1      20.816  -2.901  11.929  1.00  0.00     0.271 C 
HETATM    2  O1  UNL     1      21.542  -1.897  12.100  1.00  0.00    -0.266 OA
HETATM    3  N4  UNL     1      21.176  -4.025  11.165  1.00  0.00    -0.354 N 
ATOM      4  H4  UNL     1      20.515  -4.799  11.088  1.00  0.00     0.162 HD
ENDROOT
BRANCH   1   5
HETATM    5  C3  UNL     1      19.499  -2.884  12.582  1.00  0.00     0.141 A 
HETATM    6  C1  UNL     1      19.052  -3.757  13.538  1.00  0.00     0.096 A 
HETATM    7  N1  UNL     1      19.747  -4.879  14.131  1.00  0.00    -0.098 NA
HETATM    8  C2  UNL     1      17.764  -3.368  13.861  1.00  0.00     0.136 A 
HETATM    9  N2  UNL     1      17.492  -2.299  13.103  1.00  0.00    -0.309 N 
HETATM   10  N3  UNL     1      18.510  -1.996  12.337  1.00  0.00    -0.294 N 
ATOM     11  H2  UNL     1      16.610  -1.788  13.120  1.00  0.00     0.186 HD
ATOM     12  H3  UNL     1      18.549  -1.224  11.671  1.00  0.00     0.187 HD
ENDBRANCH   1   5
BRANCH   3  13
HETATM   13  C5  UNL     1      22.440  -4.121  10.491  1.00  0.00     0.150 C 
BRANCH  13  14
HETATM   14  C6  UNL     1      22.609  -5.485   9.875  1.00  0.00     0.252 C 
BRANCH  14  15
HETATM   15  N5  UNL     1      23.473  -6.322  10.703  1.00  0.00    -0.069 N 
ATOM     16  H52 UNL     1      24.281  -5.818  11.070  1.00  0.00     0.277 HD
ATOM     17  H51 UNL     1      23.050  -6.568  11.597  1.00  0.00     0.277 HD
BRANCH  15  18
HETATM   18  C7  UNL     1      23.841  -7.477   9.918  1.00  0.00     0.186 A 
HETATM   19  C8  UNL     1      24.224  -8.707  10.742  1.00  0.00     0.035 A 
HETATM   20  C9  UNL     1      22.979  -8.684   9.900  1.00  0.00     0.035 A 
ENDBRANCH  15  18
ENDBRANCH  14  15
ENDBRANCH  13  14
ENDBRANCH   3  13
TORSDOF 5
ENDMDL
MODEL 2
REMARK VINA RESULT: -7.050222716      1.163      1.709
REMARK  5 active torsions:
REMARK  status: ('A' for Active; 'I' for Inactive)
REMARK    1  A    between atoms: C3_8  and  C4_9 
REMARK       I    between atoms: C4_9  and  N4_11 
REMARK    2  A    between atoms: N4_11  and  C5_13 
REMARK    3  A    between atoms: C5_13  and  C6_14 
REMARK    4  A    between atoms: C6_14  and  N5_15 
REMARK    5  A    between atoms: N5_15  and  C7_18 
ROOT
HETATM    1  C4  UNL     1      20.754  -2.784  11.676  1.00  0.00     0.271 C 
HETATM    2  O1  UNL     1      21.661  -2.037  12.103  1.00  0.00    -0.266 OA
HETATM    3  N4  UNL     1      20.914  -3.725  10.644  1.00  0.00    -0.354 N 
ATOM      4  H4  UNL     1      20.113  -4.294  10.367  1.00  0.00     0.162 HD
ENDROOT
BRANCH   1   5
HETATM    5  C3  UNL     1      19.434  -2.652  12.310  1.00  0.00     0.141 A 
HETATM    6  C1  UNL     1      18.220  -2.661  11.675  1.00  0.00     0.096 A 
HETATM    7  N1  UNL     1      17.942  -2.802  10.263  1.00  0.00    -0.098 NA
HETATM    8  C2  UNL     1      17.257  -2.506  12.657  1.00  0.00     0.136 A 
HETATM    9  N2  UNL     1      17.914  -2.414  13.819  1.00  0.00    -0.309 N 
HETATM   10  N3  UNL     1      19.208  -2.498  13.634  1.00  0.00    -0.294 N 
ATOM     11  H2  UNL     1      17.467  -2.293  14.727  1.00  0.00     0.186 HD
ATOM     12  H3  UNL     1      19.921  -2.455  14.362  1.00  0.00     0.187 HD
ENDBRANCH   1   5
BRANCH   3  13
HETATM   13  C5  UNL     1      22.167  -3.915   9.968  1.00  0.00     0.150 C 
BRANCH  13  14
HETATM   14  C6  UNL     1      22.904  -5.098  10.539  1.00  0.00     0.252 C 
BRANCH  14  15
HETATM   15  N5  UNL     1      22.226  -6.344  10.193  1.00  0.00    -0.069 N 
ATOM     16  H52 UNL     1      21.215  -6.298  10.327  1.00  0.00     0.277 HD
ATOM     17  H51 UNL     1      22.220  -6.529   9.190  1.00  0.00     0.277 HD
BRANCH  15  18
HETATM   18  C7  UNL     1      22.846  -7.402  10.956  1.00  0.00     0.186 A 
HETATM   19  C8  UNL     1      23.254  -8.623  10.130  1.00  0.00     0.035 A 
HETATM   20  C9  UNL     1      24.280  -7.728  10.768  1.00  0.00     0.035 A 
ENDBRANCH  15  18
ENDBRANCH  14  15
ENDBRANCH  13  14
ENDBRANCH   3  13
TORSDOF 5
ENDMDL
MODEL 3
REMARK VINA RESULT: -6.792099330      1.901      6.234
REMARK  5 active torsions:
REMARK  status: ('A' for Active; 'I' for Inactive)
REMARK    1  A    between atoms: C3_8  and  C4_9 
REMARK       I    between atoms: C4_9  and  N4_11 
REMARK    2  A    between atoms: N4_11  and  C5_13 
REMARK    3  A    between atoms: C5_13  and  C6_14 
REMARK    4  A    between atoms: C6_14  and  N5_15 
REMARK    5  A    between atoms: N5_15  and  C7_18 
ROOT
HETATM    1  C4  UNL     1      21.848  -2.984  10.791  1.00  0.00     0.271 C 
HETATM    2  O1  UNL     1      21.719  -1.805  10.395  1.00  0.00    -0.266 OA
HETATM    3  N4  UNL     1      21.121  -3.556  11.850  1.00  0.00    -0.354 N 
ATOM      4  H4  UNL     1      21.295  -4.530  12.097  1.00  0.00     0.162 HD
ENDROOT
BRANCH   1   5
HETATM    5  C3  UNL     1      22.837  -3.814  10.086  1.00  0.00     0.141 A 
HETATM    6  C1  UNL     1      22.859  -5.183  10.029  1.00  0.00     0.096 A 
HETATM    7  N1  UNL     1      21.940  -6.125  10.627  1.00  0.00    -0.098 NA
HETATM    8  C2  UNL     1      23.960  -5.530   9.265  1.00  0.00     0.136 A 
HETATM    9  N2  UNL     1      24.543  -4.383   8.901  1.00  0.00    -0.309 N 
HETATM   10  N3  UNL     1      23.891  -3.352   9.378  1.00  0.00    -0.294 N 
ATOM     11  H2  UNL     1      25.384  -4.319   8.327  1.00  0.00     0.186 HD
ATOM     12  H3  UNL     1      24.137  -2.372   9.239  1.00  0.00     0.187 HD
ENDBRANCH   1   5
BRANCH   3  13
HETATM   13  C5  UNL     1      20.141  -2.815  12.594  1.00  0.00     0.150 C 
BRANCH  13  14
HETATM   14  C6  UNL     1      19.156  -3.748  13.248  1.00  0.00     0.252 C 
BRANCH  14  15
HETATM   15  N5  UNL     1      17.787  -3.384  12.894  1.00  0.00    -0.069 N 
ATOM     16  H52 UNL     1      17.242  -4.175  12.550  1.00  0.00     0.277 HD
ATOM     17  H51 UNL     1      17.211  -3.166  13.707  1.00  0.00     0.277 HD
BRANCH  15  18
HETATM   18  C7  UNL     1      17.858  -2.296  11.947  1.00  0.00     0.186 A 
HETATM   19  C8  UNL     1      17.031  -2.505  10.678  1.00  0.00     0.035 A 
HETATM   20  C9  UNL     1      16.671  -1.447  11.682  1.00  0.00     0.035 A 
ENDBRANCH  15  18
ENDBRANCH  14  15
ENDBRANCH  13  14
ENDBRANCH   3  13
TORSDOF 5
ENDMDL
MODEL 4
REMARK VINA RESULT: -6.707733481      1.504      1.593
REMARK  5 active torsions:
REMARK  status: ('A' for Active; 'I' for Inactive)
REMARK    1  A    between atoms: C3_8  and  C4_9 
REMARK       I    between atoms: C4_9  and  N4_11 
REMARK    2  A    between atoms: N4_11  and  C5_13 
REMARK    3  A    between atoms: C5_13  and  C6_14 
REMARK    4  A    between atoms: C6_14  and  N5_15 
REMARK    5  A    between atoms: N5_15  and  C7_18 
ROOT
HETATM    1  C4  UNL     1      20.789  -3.460  11.348  1.00  0.00     0.271 C 
HETATM    2  O1  UNL     1      21.057  -4.389  12.140  1.00  0.00    -0.266 OA
HETATM    3  N4  UNL     1      21.683  -2.941  10.395  1.00  0.00    -0.354 N 
ATOM      4  H4  UNL     1      21.370  -2.182   9.788  1.00  0.00     0.162 HD
ENDROOT
BRANCH   1   5
HETATM    5  C3  UNL     1      19.440  -2.883  11.436  1.00  0.00     0.141 A 
HETATM    6  C1  UNL     1      18.781  -2.522  12.582  1.00  0.00     0.096 A 
HETATM    7  N1  UNL     1      19.238  -2.612  13.951  1.00  0.00    -0.098 NA
HETATM    8  C2  UNL     1      17.546  -2.031  12.193  1.00  0.00     0.136 A 
HETATM    9  N2  UNL     1      17.512  -2.114  10.858  1.00  0.00    -0.309 N 
HETATM   10  N3  UNL     1      18.626  -2.617  10.389  1.00  0.00    -0.294 N 
ATOM     11  H2  UNL     1      16.722  -1.824  10.282  1.00  0.00     0.186 HD
ATOM     12  H3  UNL     1      18.843  -2.780   9.406  1.00  0.00     0.187 HD
ENDBRANCH   1   5
BRANCH   3  13
HETATM   13  C5  UNL     1      23.020  -3.442  10.245  1.00  0.00     0.150 C 
BRANCH  13  14
HETATM   14  C6  UNL     1      23.040  -4.633   9.324  1.00  0.00     0.252 C 
BRANCH  14  15
HETATM   15  N5  UNL     1      22.855  -5.870  10.077  1.00  0.00    -0.069 N 
ATOM     16  H52 UNL     1      22.717  -5.712  11.075  1.00  0.00     0.277 HD
ATOM     17  H51 UNL     1      21.960  -6.321   9.887  1.00  0.00     0.277 HD
BRANCH  15  18
HETATM   18  C7  UNL     1      23.985  -6.724   9.795  1.00  0.00     0.186 A 
HETATM   19  C8  UNL     1      24.370  -7.664  10.938  1.00  0.00     0.035 A 
HETATM   20  C9  UNL     1      23.807  -8.189   9.647  1.00  0.00     0.035 A 
ENDBRANCH  15  18
ENDBRANCH  14  15
ENDBRANCH  13  14
ENDBRANCH   3  13
TORSDOF 5
ENDMDL
MODEL 5
REMARK VINA RESULT: -6.668028182      1.963      6.349
REMARK  5 active torsions:
REMARK  status: ('A' for Active; 'I' for Inactive)
REMARK    1  A    between atoms: C3_8  and  C4_9 
REMARK       I    between atoms: C4_9  and  N4_11 
REMARK    2  A    between atoms: N4_11  and  C5_13 
REMARK    3  A    between atoms: C5_13  and  C6_14 
REMARK    4  A    between atoms: C6_14  and  N5_15 
REMARK    5  A    between atoms: N5_15  and  C7_18 
ROOT
HETATM    1  C4  UNL     1      21.835  -2.973  11.125  1.00  0.00     0.271 C 
HETATM    2  O1  UNL     1      22.333  -2.140  11.913  1.00  0.00    -0.266 OA
HETATM    3  N4  UNL     1      20.463  -3.270  11.040  1.00  0.00    -0.354 N 
ATOM      4  H4  UNL     1      20.151  -3.965  10.360  1.00  0.00     0.162 HD
ENDROOT
BRANCH   1   5
HETATM    5  C3  UNL     1      22.766  -3.679  10.233  1.00  0.00     0.141 A 
HETATM    6  C1  UNL     1      22.823  -5.032  10.021  1.00  0.00     0.096 A 
HETATM    7  N1  UNL     1      22.000  -6.071  10.600  1.00  0.00    -0.098 NA
HETATM    8  C2  UNL     1      23.845  -5.249   9.113  1.00  0.00     0.136 A 
HETATM    9  N2  UNL     1      24.352  -4.046   8.822  1.00  0.00    -0.309 N 
HETATM   10  N3  UNL     1      23.725  -3.101   9.476  1.00  0.00    -0.294 N 
ATOM     11  H2  UNL     1      25.124  -3.885   8.175  1.00  0.00     0.186 HD
ATOM     12  H3  UNL     1      23.925  -2.102   9.424  1.00  0.00     0.187 HD
ENDBRANCH   1   5
BRANCH   3  13
HETATM   13  C5  UNL     1      19.487  -2.631  11.876  1.00  0.00     0.150 C 
BRANCH  13  14
HETATM   14  C6  UNL     1      19.317  -3.389  13.166  1.00  0.00     0.252 C 
BRANCH  14  15
HETATM   15  N5  UNL     1      18.971  -2.480  14.256  1.00  0.00    -0.069 N 
ATOM     16  H52 UNL     1      19.718  -1.822  14.477  1.00  0.00     0.277 HD
ATOM     17  H51 UNL     1      18.261  -1.796  13.994  1.00  0.00     0.277 HD
BRANCH  15  18
HETATM   18  C7  UNL     1      18.581  -3.288  15.388  1.00  0.00     0.186 A 
HETATM   19  C8  UNL     1      18.730  -2.595  16.743  1.00  0.00     0.035 A 
HETATM   20  C9  UNL     1      17.379  -2.942  16.185  1.00  0.00     0.035 A 
ENDBRANCH  15  18
ENDBRANCH  14  15
ENDBRANCH  13  14
ENDBRANCH   3  13
TORSDOF 5
ENDMDL
