MODEL 1
REMARK VINA RESULT: -5.100764850      0.000      0.000
REMARK  4 active torsions:
REMARK  status: ('A' for Active; 'I' for Inactive)
REMARK    1  A    between atoms: C2_2  and  C3_3 
REMARK    2  A    between atoms: C4_6  and  S3_7 
REMARK    3  A    between atoms: S3_7  and  N1_8 
REMARK    4  A    between atoms: S3_7  and  N2_12 
ROOT
HETATM    1  S3  UNL     1      26.910  27.502  -5.561  1.00  0.00     0.141 S 
HETATM    2  O1  UNL     1      28.357  27.499  -5.949  1.00  0.00    -0.223 OA
ENDROOT
BRANCH   1   3
HETATM    3  C4  UNL     1      26.119  26.107  -6.282  1.00  0.00     0.122 A 
HETATM    4  C3  UNL     1      26.447  25.178  -7.229  1.00  0.00     0.040 A 
HETATM    5  S1  UNL     1      25.075  24.174  -7.237  1.00  0.00    -0.050 SA
HETATM    6  S2  UNL     1      24.583  25.520  -5.858  1.00  0.00    -0.039 SA
BRANCH   4   7
HETATM    7  C2  UNL     1      27.670  25.023  -8.050  1.00  0.00     0.011 C 
HETATM    8  C1  UNL     1      27.842  24.128  -8.983  1.00  0.00     0.013 C 
ENDBRANCH   4   7
ENDBRANCH   1   3
BRANCH   1   9
HETATM    9  N1  UNL     1      26.178  28.984  -5.942  1.00  0.00    -0.341 N 
ATOM     10  H12 UNL     1      25.488  29.072  -6.688  1.00  0.00     0.167 HD
ATOM     11  H11 UNL     1      26.490  29.763  -5.362  1.00  0.00     0.167 HD
ENDBRANCH   1   9
BRANCH   1  12
HETATM   12  N2  UNL     1      26.937  27.378  -3.981  1.00  0.00    -0.336 N 
HETATM   13  C5  UNL     1      26.056  28.296  -3.287  1.00  0.00     0.158 C 
ATOM     14  H2  UNL     1      27.526  26.705  -3.491  1.00  0.00     0.170 HD
ENDBRANCH   1  12
TORSDOF 4
ENDMDL
MODEL 2
REMARK VINA RESULT: -4.855525199      4.651      5.594
REMARK  4 active torsions:
REMARK  status: ('A' for Active; 'I' for Inactive)
REMARK    1  A    between atoms: C2_2  and  C3_3 
REMARK    2  A    between atoms: C4_6  and  S3_7 
REMARK    3  A    between atoms: S3_7  and  N1_8 
REMARK    4  A    between atoms: S3_7  and  N2_12 
ROOT
HETATM    1  S3  UNL     1      23.580  22.933  -8.793  1.00  0.00     0.141 S 
HETATM    2  O1  UNL     1      23.948  21.574  -8.280  1.00  0.00    -0.223 OA
ENDROOT
BRANCH   1   3
HETATM    3  C4  UNL     1      24.414  24.152  -7.840  1.00  0.00     0.122 A 
HETATM    4  C3  UNL     1      25.678  24.668  -7.803  1.00  0.00     0.040 A 
HETATM    5  S1  UNL     1      25.550  25.845  -6.583  1.00  0.00    -0.050 SA
HETATM    6  S2  UNL     1      23.705  25.103  -6.624  1.00  0.00    -0.039 SA
BRANCH   4   7
HETATM    7  C2  UNL     1      26.881  24.342  -8.605  1.00  0.00     0.011 C 
HETATM    8  C1  UNL     1      28.026  24.960  -8.528  1.00  0.00     0.013 C 
ENDBRANCH   4   7
ENDBRANCH   1   3
BRANCH   1   9
HETATM    9  N1  UNL     1      21.896  23.130  -8.847  1.00  0.00    -0.341 N 
ATOM     10  H12 UNL     1      21.454  24.044  -8.742  1.00  0.00     0.167 HD
ATOM     11  H11 UNL     1      21.379  22.263  -8.992  1.00  0.00     0.167 HD
ENDBRANCH   1   9
BRANCH   1  12
HETATM   12  N2  UNL     1      24.106  22.932 -10.289  1.00  0.00    -0.336 N 
HETATM   13  C5  UNL     1      25.053  21.880 -10.597  1.00  0.00     0.158 C 
ATOM     14  H2  UNL     1      23.801  23.618 -10.979  1.00  0.00     0.170 HD
ENDBRANCH   1  12
TORSDOF 4
ENDMDL
MODEL 3
REMARK VINA RESULT: -4.851945837      4.113      5.079
REMARK  4 active torsions:
REMARK  status: ('A' for Active; 'I' for Inactive)
REMARK    1  A    between atoms: C2_2  and  C3_3 
REMARK    2  A    between atoms: C4_6  and  S3_7 
REMARK    3  A    between atoms: S3_7  and  N1_8 
REMARK    4  A    between atoms: S3_7  and  N2_12 
ROOT
HETATM    1  S3  UNL     1      23.825  23.522  -8.080  1.00  0.00     0.141 S 
HETATM    2  O1  UNL     1      24.028  22.058  -7.832  1.00  0.00    -0.223 OA
ENDROOT
BRANCH   1   3
HETATM    3  C4  UNL     1      25.193  24.411  -7.425  1.00  0.00     0.122 A 
HETATM    4  C3  UNL     1      26.483  24.641  -7.810  1.00  0.00     0.040 A 
HETATM    5  S1  UNL     1      27.051  25.659  -6.572  1.00  0.00    -0.050 SA
HETATM    6  S2  UNL     1      25.175  25.332  -5.998  1.00  0.00    -0.039 SA
BRANCH   4   7
HETATM    7  C2  UNL     1      27.239  24.173  -8.995  1.00  0.00     0.011 C 
HETATM    8  C1  UNL     1      28.518  24.341  -9.187  1.00  0.00     0.013 C 
ENDBRANCH   4   7
ENDBRANCH   1   3
BRANCH   1   9
HETATM    9  N1  UNL     1      22.320  24.039  -7.492  1.00  0.00    -0.341 N 
ATOM     10  H12 UNL     1      22.218  24.889  -6.936  1.00  0.00     0.167 HD
ATOM     11  H11 UNL     1      21.543  23.428  -7.743  1.00  0.00     0.167 HD
ENDBRANCH   1   9
BRANCH   1  12
HETATM   12  N2  UNL     1      23.782  23.640  -9.661  1.00  0.00    -0.336 N 
HETATM   13  C5  UNL     1      24.259  22.469 -10.368  1.00  0.00     0.158 C 
ATOM     14  H2  UNL     1      23.446  24.474 -10.141  1.00  0.00     0.170 HD
ENDBRANCH   1  12
TORSDOF 4
ENDMDL
MODEL 4
REMARK VINA RESULT: -4.829517242      3.994      5.047
REMARK  4 active torsions:
REMARK  status: ('A' for Active; 'I' for Inactive)
REMARK    1  A    between atoms: C2_2  and  C3_3 
REMARK    2  A    between atoms: C4_6  and  S3_7 
REMARK    3  A    between atoms: S3_7  and  N1_8 
REMARK    4  A    between atoms: S3_7  and  N2_12 
ROOT
HETATM    1  S3  UNL     1      25.067  23.930  -7.959  1.00  0.00     0.141 S 
HETATM    2  O1  UNL     1      25.229  24.109  -6.480  1.00  0.00    -0.223 OA
ENDROOT
BRANCH   1   3
HETATM    3  C4  UNL     1      26.657  23.856  -8.706  1.00  0.00     0.122 A 
HETATM    4  C3  UNL     1      27.262  23.065  -9.640  1.00  0.00     0.040 A 
HETATM    5  S1  UNL     1      28.802  23.774  -9.769  1.00  0.00    -0.050 SA
HETATM    6  S2  UNL     1      27.935  24.934  -8.405  1.00  0.00    -0.039 SA
BRANCH   4   7
HETATM    7  C2  UNL     1      26.754  21.896 -10.395  1.00  0.00     0.011 C 
HETATM    8  C1  UNL     1      27.287  21.412 -11.482  1.00  0.00     0.013 C 
ENDBRANCH   4   7
ENDBRANCH   1   3
BRANCH   1   9
HETATM    9  N1  UNL     1      24.052  25.122  -8.612  1.00  0.00    -0.341 N 
ATOM     10  H12 UNL     1      23.662  25.046  -9.552  1.00  0.00     0.167 HD
ATOM     11  H11 UNL     1      23.873  25.905  -7.984  1.00  0.00     0.167 HD
ENDBRANCH   1   9
BRANCH   1  12
HETATM   12  N2  UNL     1      24.317  22.540  -8.097  1.00  0.00    -0.336 N 
HETATM   13  C5  UNL     1      23.075  22.595  -8.841  1.00  0.00     0.158 C 
ATOM     14  H2  UNL     1      24.680  21.676  -7.694  1.00  0.00     0.170 HD
ENDBRANCH   1  12
TORSDOF 4
ENDMDL
MODEL 5
REMARK VINA RESULT: -4.804686423      4.409      5.603
REMARK  4 active torsions:
REMARK  status: ('A' for Active; 'I' for Inactive)
REMARK    1  A    between atoms: C2_2  and  C3_3 
REMARK    2  A    between atoms: C4_6  and  S3_7 
REMARK    3  A    between atoms: S3_7  and  N1_8 
REMARK    4  A    between atoms: S3_7  and  N2_12 
ROOT
HETATM    1  S3  UNL     1      24.391  23.273  -8.723  1.00  0.00     0.141 S 
HETATM    2  O1  UNL     1      24.428  22.798  -7.302  1.00  0.00    -0.223 OA
ENDROOT
BRANCH   1   3
HETATM    3  C4  UNL     1      25.895  22.825  -9.517  1.00  0.00     0.122 A 
HETATM    4  C3  UNL     1      27.168  23.317  -9.547  1.00  0.00     0.040 A 
HETATM    5  S1  UNL     1      27.962  22.198 -10.551  1.00  0.00    -0.050 SA
HETATM    6  S2  UNL     1      26.111  21.470 -10.518  1.00  0.00    -0.039 SA
BRANCH   4   7
HETATM    7  C2  UNL     1      27.766  24.499  -8.882  1.00  0.00     0.011 C 
HETATM    8  C1  UNL     1      27.459  24.928  -7.690  1.00  0.00     0.013 C 
ENDBRANCH   4   7
ENDBRANCH   1   3
BRANCH   1   9
HETATM    9  N1  UNL     1      24.034  24.929  -8.805  1.00  0.00    -0.341 N 
ATOM     10  H12 UNL     1      24.447  25.605  -8.162  1.00  0.00     0.167 HD
ATOM     11  H11 UNL     1      23.378  25.177  -9.546  1.00  0.00     0.167 HD
ENDBRANCH   1   9
BRANCH   1  12
HETATM   12  N2  UNL     1      23.167  22.491  -9.357  1.00  0.00    -0.336 N 
HETATM   13  C5  UNL     1      21.915  22.645  -8.643  1.00  0.00     0.158 C 
ATOM     14  H2  UNL     1      23.252  21.925 -10.201  1.00  0.00     0.170 HD
ENDBRANCH   1  12
TORSDOF 4
ENDMDL
