MODEL 1
REMARK VINA RESULT: -6.834139243      0.000      0.000
REMARK  3 active torsions:
REMARK  status: ('A' for Active; 'I' for Inactive)
REMARK    1  A    between atoms: C2_2  and  O1_4 
REMARK    2  A    between atoms: O1_4  and  N1_5 
REMARK    3  A    between atoms: N2_13  and  O2_15 
ROOT
HETATM    1  N1  UNL     1      27.598  21.090 -12.313  1.00  0.00    -0.267 N 
ATOM      2  H1  UNL     1      26.827  20.421 -12.324  1.00  0.00     0.194 HD
HETATM    3  C4  UNL     1      27.658  21.996 -11.399  1.00  0.00     0.085 C 
HETATM    4  C5  UNL     1      28.706  23.039 -11.241  1.00  0.00     0.078 C 
HETATM    5  C6  UNL     1      28.677  23.410  -9.792  1.00  0.00     0.006 C 
HETATM    6  C7  UNL     1      29.395  22.335  -8.988  1.00  0.00     0.022 C 
HETATM    7  C8  UNL     1      29.267  24.753  -9.511  1.00  0.00     0.022 C 
HETATM    8  C9  UNL     1      27.233  23.319  -9.458  1.00  0.00     0.092 C 
HETATM    9  N2  UNL     1      26.523  24.010  -8.631  1.00  0.00    -0.269 N 
ATOM     10  H2  UNL     1      25.528  23.824  -8.512  1.00  0.00     0.194 HD
HETATM   11  C10 UNL     1      26.721  22.219 -10.303  1.00  0.00     0.221 C 
HETATM   12  O3  UNL     1      25.646  21.602 -10.077  1.00  0.00    -0.284 OA
ENDROOT
BRANCH   1  13
HETATM   13  O1  UNL     1      28.563  21.031 -13.259  1.00  0.00    -0.276 OA
BRANCH  13  14
HETATM   14  C2  UNL     1      28.868  19.947 -14.071  1.00  0.00     0.144 C 
HETATM   15  C1  UNL     1      30.248  19.426 -13.722  1.00  0.00     0.042 C 
HETATM   16  C3  UNL     1      28.837  20.275 -15.555  1.00  0.00     0.042 C 
ENDBRANCH  13  14
ENDBRANCH   1  13
BRANCH   9  17
HETATM   17  O2  UNL     1      27.148  25.005  -7.913  1.00  0.00    -0.290 OA
ATOM     18  H2  UNL     1      28.021  24.835  -7.580  1.00  0.00     0.244 HD
ENDBRANCH   9  17
TORSDOF 3
ENDMDL
MODEL 2
REMARK VINA RESULT: -6.756579381      2.610      6.389
REMARK  3 active torsions:
REMARK  status: ('A' for Active; 'I' for Inactive)
REMARK    1  A    between atoms: C2_2  and  O1_4 
REMARK    2  A    between atoms: O1_4  and  N1_5 
REMARK    3  A    between atoms: N2_13  and  O2_15 
ROOT
HETATM    1  N1  UNL     1      27.890  25.146  -7.752  1.00  0.00    -0.267 N 
ATOM      2  H1  UNL     1      28.601  25.850  -7.553  1.00  0.00     0.194 HD
HETATM    3  C4  UNL     1      27.960  24.439  -8.828  1.00  0.00     0.085 C 
HETATM    4  C5  UNL     1      27.013  23.379  -9.264  1.00  0.00     0.078 C 
HETATM    5  C6  UNL     1      27.805  22.494 -10.174  1.00  0.00     0.006 C 
HETATM    6  C7  UNL     1      28.692  21.584  -9.336  1.00  0.00     0.022 C 
HETATM    7  C8  UNL     1      26.959  21.686 -11.102  1.00  0.00     0.022 C 
HETATM    8  C9  UNL     1      28.695  23.454 -10.874  1.00  0.00     0.092 C 
HETATM    9  N2  UNL     1      29.156  23.438 -12.079  1.00  0.00    -0.269 N 
ATOM     10  H2  UNL     1      29.766  24.182 -12.417  1.00  0.00     0.194 HD
HETATM   11  C10 UNL     1      28.976  24.504  -9.871  1.00  0.00     0.221 C 
HETATM   12  O3  UNL     1      29.948  25.303  -9.945  1.00  0.00    -0.284 OA
ENDROOT
BRANCH   1  13
HETATM   13  O1  UNL     1      26.867  24.949  -6.890  1.00  0.00    -0.276 OA
BRANCH  13  14
HETATM   14  C2  UNL     1      25.979  25.907  -6.419  1.00  0.00     0.144 C 
HETATM   15  C1  UNL     1      26.654  26.740  -5.348  1.00  0.00     0.042 C 
HETATM   16  C3  UNL     1      24.704  25.317  -5.838  1.00  0.00     0.042 C 
ENDBRANCH  13  14
ENDBRANCH   1  13
BRANCH   9  17
HETATM   17  O2  UNL     1      28.801  22.388 -12.895  1.00  0.00    -0.290 OA
ATOM     18  H2  UNL     1      28.094  22.522 -13.516  1.00  0.00     0.244 HD
ENDBRANCH   9  17
TORSDOF 3
ENDMDL
MODEL 3
REMARK VINA RESULT: -6.355989161      3.428      4.806
REMARK  3 active torsions:
REMARK  status: ('A' for Active; 'I' for Inactive)
REMARK    1  A    between atoms: C2_2  and  O1_4 
REMARK    2  A    between atoms: O1_4  and  N1_5 
REMARK    3  A    between atoms: N2_13  and  O2_15 
ROOT
HETATM    1  N1  UNL     1      26.108  22.984  -9.306  1.00  0.00    -0.267 N 
ATOM      2  H1  UNL     1      25.824  22.043  -9.578  1.00  0.00     0.194 HD
HETATM    3  C4  UNL     1      25.337  23.706  -8.567  1.00  0.00     0.085 C 
HETATM    4  C5  UNL     1      25.600  25.089  -8.084  1.00  0.00     0.078 C 
HETATM    5  C6  UNL     1      24.772  25.236  -6.847  1.00  0.00     0.006 C 
HETATM    6  C7  UNL     1      25.467  24.527  -5.694  1.00  0.00     0.022 C 
HETATM    7  C8  UNL     1      24.488  26.658  -6.488  1.00  0.00     0.022 C 
HETATM    8  C9  UNL     1      23.551  24.456  -7.172  1.00  0.00     0.092 C 
HETATM    9  N2  UNL     1      22.323  24.645  -6.824  1.00  0.00    -0.269 N 
ATOM     10  H2  UNL     1      21.587  24.011  -7.134  1.00  0.00     0.194 HD
HETATM   11  C10 UNL     1      24.031  23.349  -8.026  1.00  0.00     0.221 C 
HETATM   12  O3  UNL     1      23.384  22.286  -8.227  1.00  0.00    -0.284 OA
ENDROOT
BRANCH   1  13
HETATM   13  O1  UNL     1      27.295  23.484  -9.719  1.00  0.00    -0.276 OA
BRANCH  13  14
HETATM   14  C2  UNL     1      28.355  22.768 -10.260  1.00  0.00     0.144 C 
HETATM   15  C1  UNL     1      27.837  21.821 -11.324  1.00  0.00     0.042 C 
HETATM   16  C3  UNL     1      29.128  21.960  -9.230  1.00  0.00     0.042 C 
ENDBRANCH  13  14
ENDBRANCH   1  13
BRANCH   9  17
HETATM   17  O2  UNL     1      22.035  25.726  -6.023  1.00  0.00    -0.290 OA
ATOM     18  H2  UNL     1      22.692  26.407  -5.935  1.00  0.00     0.244 HD
ENDBRANCH   9  17
TORSDOF 3
ENDMDL
MODEL 4
REMARK VINA RESULT: -6.204058283      5.713      8.075
REMARK  3 active torsions:
REMARK  status: ('A' for Active; 'I' for Inactive)
REMARK    1  A    between atoms: C2_2  and  O1_4 
REMARK    2  A    between atoms: O1_4  and  N1_5 
REMARK    3  A    between atoms: N2_13  and  O2_15 
ROOT
HETATM    1  N1  UNL     1      24.706  26.383  -5.023  1.00  0.00    -0.267 N 
ATOM      2  H1  UNL     1      24.025  27.052  -4.660  1.00  0.00     0.194 HD
HETATM    3  C4  UNL     1      24.333  25.456  -5.837  1.00  0.00     0.085 C 
HETATM    4  C5  UNL     1      25.192  24.411  -6.455  1.00  0.00     0.078 C 
HETATM    5  C6  UNL     1      24.480  24.006  -7.707  1.00  0.00     0.006 C 
HETATM    6  C7  UNL     1      24.715  25.063  -8.777  1.00  0.00     0.022 C 
HETATM    7  C8  UNL     1      24.880  22.658  -8.209  1.00  0.00     0.022 C 
HETATM    8  C9  UNL     1      23.050  24.088  -7.314  1.00  0.00     0.092 C 
HETATM    9  N2  UNL     1      22.041  23.378  -7.689  1.00  0.00    -0.269 N 
ATOM     10  H2  UNL     1      21.107  23.560  -7.323  1.00  0.00     0.194 HD
HETATM   11  C10 UNL     1      22.991  25.207  -6.349  1.00  0.00     0.221 C 
HETATM   12  O3  UNL     1      21.931  25.818  -6.047  1.00  0.00    -0.284 OA
ENDROOT
BRANCH   1  13
HETATM   13  O1  UNL     1      26.004  26.464  -4.653  1.00  0.00    -0.276 OA
BRANCH  13  14
HETATM   14  C2  UNL     1      26.898  27.479  -4.970  1.00  0.00     0.144 C 
HETATM   15  C1  UNL     1      26.172  28.576  -5.722  1.00  0.00     0.042 C 
HETATM   16  C3  UNL     1      28.071  27.010  -5.814  1.00  0.00     0.042 C 
ENDBRANCH  13  14
ENDBRANCH   1  13
BRANCH   9  17
HETATM   17  O2  UNL     1      22.260  22.367  -8.597  1.00  0.00    -0.290 OA
ATOM     18  H2  UNL     1      23.085  21.898  -8.555  1.00  0.00     0.244 HD
ENDBRANCH   9  17
TORSDOF 3
ENDMDL
MODEL 5
REMARK VINA RESULT: -6.164184770      3.450      4.688
REMARK  3 active torsions:
REMARK  status: ('A' for Active; 'I' for Inactive)
REMARK    1  A    between atoms: C2_2  and  O1_4 
REMARK    2  A    between atoms: O1_4  and  N1_5 
REMARK    3  A    between atoms: N2_13  and  O2_15 
ROOT
HETATM    1  N1  UNL     1      25.352  22.687  -9.451  1.00  0.00    -0.267 N 
ATOM      2  H1  UNL     1      24.807  21.855  -9.676  1.00  0.00     0.194 HD
HETATM    3  C4  UNL     1      24.888  23.564  -8.629  1.00  0.00     0.085 C 
HETATM    4  C5  UNL     1      25.550  24.824  -8.195  1.00  0.00     0.078 C 
HETATM    5  C6  UNL     1      24.946  25.148  -6.867  1.00  0.00     0.006 C 
HETATM    6  C7  UNL     1      25.575  24.260  -5.802  1.00  0.00     0.022 C 
HETATM    7  C8  UNL     1      25.079  26.587  -6.489  1.00  0.00     0.022 C 
HETATM    8  C9  UNL     1      23.536  24.710  -7.029  1.00  0.00     0.092 C 
HETATM    9  N2  UNL     1      22.449  25.196  -6.532  1.00  0.00    -0.269 N 
ATOM     10  H2  UNL     1      21.544  24.776  -6.742  1.00  0.00     0.194 HD
HETATM   11  C10 UNL     1      23.610  23.537  -7.926  1.00  0.00     0.221 C 
HETATM   12  O3  UNL     1      22.695  22.677  -8.034  1.00  0.00    -0.284 OA
ENDROOT
BRANCH   1  13
HETATM   13  O1  UNL     1      26.567  22.879 -10.014  1.00  0.00    -0.276 OA
BRANCH  13  14
HETATM   14  C2  UNL     1      27.589  21.945 -10.126  1.00  0.00     0.144 C 
HETATM   15  C1  UNL     1      28.849  22.494  -9.487  1.00  0.00     0.042 C 
HETATM   16  C3  UNL     1      27.905  21.563 -11.563  1.00  0.00     0.042 C 
ENDBRANCH  13  14
ENDBRANCH   1  13
BRANCH   9  17
HETATM   17  O2  UNL     1      22.546  26.297  -5.712  1.00  0.00    -0.290 OA
ATOM     18  H2  UNL     1      21.950  26.360  -4.975  1.00  0.00     0.244 HD
ENDBRANCH   9  17
TORSDOF 3
ENDMDL
