MODEL 1
REMARK VINA RESULT: -7.913495350      0.000      0.000
REMARK  4 active torsions:
REMARK  status: ('A' for Active; 'I' for Inactive)
REMARK    1  A    between atoms: C2_2  and  C4_10 
REMARK    2  A    between atoms: N1_3  and  O1_5 
REMARK    3  A    between atoms: O1_5  and  C3_6 
REMARK    4  A    between atoms: C5_12  and  C6_13 
ROOT
HETATM    1  C4  UNL     1     -16.573  -5.057  25.927  1.00  0.00     0.112 A 
HETATM    2  O2  UNL     1     -15.749  -4.073  26.286  1.00  0.00    -0.306 OA
HETATM    3  C5  UNL     1     -15.517  -4.077  27.537  1.00  0.00     0.098 A 
HETATM    4  C11 UNL     1     -16.247  -5.148  28.066  1.00  0.00     0.052 A 
HETATM    5  S1  UNL     1     -16.704  -6.013  29.458  1.00  0.00    -0.098 SA
HETATM    6  C12 UNL     1     -17.750  -7.169  28.755  1.00  0.00     0.051 A 
HETATM    7  C13 UNL     1     -17.710  -6.833  27.424  1.00  0.00     0.023 A 
HETATM    8  C14 UNL     1     -16.935  -5.795  27.069  1.00  0.00     0.020 A 
ENDROOT
BRANCH   1   9
HETATM    9  C2  UNL     1     -16.947  -5.248  24.552  1.00  0.00     0.063 C 
HETATM   10  C1  UNL     1     -17.065  -4.107  23.615  1.00  0.00     0.073 C 
HETATM   11  N1  UNL     1     -17.268  -6.418  24.074  1.00  0.00    -0.262 N 
ATOM     12  H1  UNL     1     -17.210  -7.256  24.653  1.00  0.00     0.194 HD
BRANCH  11  13
HETATM   13  O1  UNL     1     -17.684  -6.486  22.775  1.00  0.00    -0.234 OA
BRANCH  13  14
HETATM   14  C3  UNL     1     -18.923  -7.026  22.389  1.00  0.00     0.252 C 
HETATM   15  N2  UNL     1     -19.223  -8.037  23.252  1.00  0.00    -0.388 N 
ATOM     16  H22 UNL     1     -18.641  -8.336  24.035  1.00  0.00     0.157 HD
ATOM     17  H21 UNL     1     -20.122  -8.428  22.972  1.00  0.00     0.157 HD
ENDBRANCH  13  14
ENDBRANCH  11  13
ENDBRANCH   1   9
BRANCH   3  18
HETATM   18  C6  UNL     1     -14.686  -3.238  28.404  1.00  0.00    -0.019 C 
HETATM   19  C7  UNL     1     -14.727  -3.519  29.861  1.00  0.00     0.040 C 
HETATM   20  C8  UNL     1     -14.319  -2.298  30.649  1.00  0.00     0.032 C 
HETATM   21  C9  UNL     1     -13.610  -1.304  29.792  1.00  0.00     0.233 C 
HETATM   22  N3  UNL     1     -12.719  -1.881  28.824  1.00  0.00    -0.071 N 
HETATM   23  C10 UNL     1     -13.385  -2.773  27.872  1.00  0.00     0.269 C 
ATOM     24  H32 UNL     1     -12.200  -1.152  28.333  1.00  0.00     0.277 HD
ATOM     25  H31 UNL     1     -11.946  -2.359  29.286  1.00  0.00     0.277 HD
ENDBRANCH   3  18
TORSDOF 4
ENDMDL
MODEL 2
REMARK VINA RESULT: -7.882369232      2.037      2.503
REMARK  4 active torsions:
REMARK  status: ('A' for Active; 'I' for Inactive)
REMARK    1  A    between atoms: C2_2  and  C4_10 
REMARK    2  A    between atoms: N1_3  and  O1_5 
REMARK    3  A    between atoms: O1_5  and  C3_6 
REMARK    4  A    between atoms: C5_12  and  C6_13 
ROOT
HETATM    1  C4  UNL     1     -17.056  -6.168  26.682  1.00  0.00     0.112 A 
HETATM    2  O2  UNL     1     -16.173  -5.554  27.469  1.00  0.00    -0.306 OA
HETATM    3  C5  UNL     1     -16.305  -5.891  28.689  1.00  0.00     0.098 A 
HETATM    4  C11 UNL     1     -17.366  -6.803  28.729  1.00  0.00     0.052 A 
HETATM    5  S1  UNL     1     -18.367  -7.784  29.693  1.00  0.00    -0.098 SA
HETATM    6  C12 UNL     1     -19.399  -8.424  28.488  1.00  0.00     0.051 A 
HETATM    7  C13 UNL     1     -18.919  -7.835  27.345  1.00  0.00     0.023 A 
HETATM    8  C14 UNL     1     -17.872  -7.003  27.468  1.00  0.00     0.020 A 
ENDROOT
BRANCH   1   9
HETATM    9  C2  UNL     1     -17.064  -5.947  25.261  1.00  0.00     0.063 C 
HETATM   10  C1  UNL     1     -16.547  -4.693  24.669  1.00  0.00     0.073 C 
HETATM   11  N1  UNL     1     -17.587  -6.802  24.427  1.00  0.00    -0.262 N 
ATOM     12  H1  UNL     1     -17.962  -7.692  24.753  1.00  0.00     0.194 HD
BRANCH  11  13
HETATM   13  O1  UNL     1     -17.616  -6.468  23.103  1.00  0.00    -0.234 OA
BRANCH  13  14
HETATM   14  C3  UNL     1     -18.506  -7.046  22.181  1.00  0.00     0.252 C 
HETATM   15  N2  UNL     1     -19.160  -8.059  22.815  1.00  0.00    -0.388 N 
ATOM     16  H22 UNL     1     -19.018  -8.337  23.786  1.00  0.00     0.157 HD
ATOM     17  H21 UNL     1     -19.806  -8.479  22.146  1.00  0.00     0.157 HD
ENDBRANCH  13  14
ENDBRANCH  11  13
ENDBRANCH   1   9
BRANCH   3  18
HETATM   18  C6  UNL     1     -15.587  -5.524  29.912  1.00  0.00    -0.019 C 
HETATM   19  C7  UNL     1     -15.557  -4.085  30.274  1.00  0.00     0.040 C 
HETATM   20  C8  UNL     1     -14.375  -3.786  31.163  1.00  0.00     0.032 C 
HETATM   21  C9  UNL     1     -13.810  -5.029  31.762  1.00  0.00     0.233 C 
HETATM   22  N3  UNL     1     -14.794  -6.000  32.154  1.00  0.00    -0.071 N 
HETATM   23  C10 UNL     1     -15.625  -6.475  31.045  1.00  0.00     0.269 C 
ATOM     24  H32 UNL     1     -14.353  -6.785  32.636  1.00  0.00     0.277 HD
ATOM     25  H31 UNL     1     -15.374  -5.640  32.911  1.00  0.00     0.277 HD
ENDBRANCH   3  18
TORSDOF 4
ENDMDL
MODEL 3
REMARK VINA RESULT: -7.797058606      3.002      5.487
REMARK  4 active torsions:
REMARK  status: ('A' for Active; 'I' for Inactive)
REMARK    1  A    between atoms: C2_2  and  C4_10 
REMARK    2  A    between atoms: N1_3  and  O1_5 
REMARK    3  A    between atoms: O1_5  and  C3_6 
REMARK    4  A    between atoms: C5_12  and  C6_13 
ROOT
HETATM    1  C4  UNL     1     -15.338  -3.408  27.130  1.00  0.00     0.112 A 
HETATM    2  O2  UNL     1     -16.151  -4.438  26.901  1.00  0.00    -0.306 OA
HETATM    3  C5  UNL     1     -16.440  -5.066  27.970  1.00  0.00     0.098 A 
HETATM    4  C11 UNL     1     -15.764  -4.407  29.003  1.00  0.00     0.052 A 
HETATM    5  S1  UNL     1     -15.395  -4.361  30.663  1.00  0.00    -0.098 SA
HETATM    6  C12 UNL     1     -14.350  -3.007  30.694  1.00  0.00     0.051 A 
HETATM    7  C13 UNL     1     -14.320  -2.627  29.376  1.00  0.00     0.023 A 
HETATM    8  C14 UNL     1     -15.049  -3.345  28.506  1.00  0.00     0.020 A 
ENDROOT
BRANCH   1   9
HETATM    9  C2  UNL     1     -14.907  -2.549  26.060  1.00  0.00     0.063 C 
HETATM   10  C1  UNL     1     -13.494  -2.507  25.622  1.00  0.00     0.073 C 
HETATM   11  N1  UNL     1     -15.716  -1.717  25.466  1.00  0.00    -0.262 N 
ATOM     12  H1  UNL     1     -16.707  -1.686  25.706  1.00  0.00     0.194 HD
BRANCH  11  13
HETATM   13  O1  UNL     1     -15.196  -0.888  24.513  1.00  0.00    -0.234 OA
BRANCH  13  14
HETATM   14  C3  UNL     1     -15.621  -0.892  23.173  1.00  0.00     0.252 C 
HETATM   15  N2  UNL     1     -14.532  -0.654  22.391  1.00  0.00    -0.388 N 
ATOM     16  H22 UNL     1     -13.582  -0.503  22.732  1.00  0.00     0.157 HD
ATOM     17  H21 UNL     1     -14.840  -0.657  21.419  1.00  0.00     0.157 HD
ENDBRANCH  13  14
ENDBRANCH  11  13
ENDBRANCH   1   9
BRANCH   3  18
HETATM   18  C6  UNL     1     -17.287  -6.227  28.251  1.00  0.00    -0.019 C 
HETATM   19  C7  UNL     1     -17.829  -6.969  27.084  1.00  0.00     0.040 C 
HETATM   20  C8  UNL     1     -19.074  -7.728  27.470  1.00  0.00     0.032 C 
HETATM   21  C9  UNL     1     -19.195  -7.869  28.950  1.00  0.00     0.233 C 
HETATM   22  N3  UNL     1     -17.952  -8.110  29.628  1.00  0.00    -0.071 N 
HETATM   23  C10 UNL     1     -16.966  -7.043  29.443  1.00  0.00     0.269 C 
ATOM     24  H32 UNL     1     -18.111  -8.285  30.621  1.00  0.00     0.277 HD
ATOM     25  H31 UNL     1     -17.562  -9.013  29.356  1.00  0.00     0.277 HD
ENDBRANCH   3  18
TORSDOF 4
ENDMDL
MODEL 4
REMARK VINA RESULT: -7.730331913      2.357      3.468
REMARK  4 active torsions:
REMARK  status: ('A' for Active; 'I' for Inactive)
REMARK    1  A    between atoms: C2_2  and  C4_10 
REMARK    2  A    between atoms: N1_3  and  O1_5 
REMARK    3  A    between atoms: O1_5  and  C3_6 
REMARK    4  A    between atoms: C5_12  and  C6_13 
ROOT
HETATM    1  C4  UNL     1     -16.479  -4.876  25.138  1.00  0.00     0.112 A 
HETATM    2  O2  UNL     1     -16.819  -5.469  26.282  1.00  0.00    -0.306 OA
HETATM    3  C5  UNL     1     -16.117  -5.057  27.260  1.00  0.00     0.098 A 
HETATM    4  C11 UNL     1     -15.229  -4.112  26.733  1.00  0.00     0.052 A 
HETATM    5  S1  UNL     1     -13.938  -3.046  27.033  1.00  0.00    -0.098 SA
HETATM    6  C12 UNL     1     -13.678  -2.448  25.452  1.00  0.00     0.051 A 
HETATM    7  C13 UNL     1     -14.629  -3.117  24.722  1.00  0.00     0.023 A 
HETATM    8  C14 UNL     1     -15.428  -3.972  25.381  1.00  0.00     0.020 A 
ENDROOT
BRANCH   1   9
HETATM    9  C2  UNL     1     -17.166  -5.179  23.911  1.00  0.00     0.063 C 
HETATM   10  C1  UNL     1     -17.685  -4.110  23.029  1.00  0.00     0.073 C 
HETATM   11  N1  UNL     1     -17.428  -6.403  23.545  1.00  0.00    -0.262 N 
ATOM     12  H1  UNL     1     -17.102  -7.198  24.095  1.00  0.00     0.194 HD
BRANCH  11  13
HETATM   13  O1  UNL     1     -18.152  -6.587  22.402  1.00  0.00    -0.234 OA
BRANCH  13  14
HETATM   14  C3  UNL     1     -19.414  -7.207  22.380  1.00  0.00     0.252 C 
HETATM   15  N2  UNL     1     -19.243  -8.510  22.735  1.00  0.00    -0.388 N 
ATOM     16  H22 UNL     1     -18.352  -8.945  22.973  1.00  0.00     0.157 HD
ATOM     17  H21 UNL     1     -20.159  -8.959  22.719  1.00  0.00     0.157 HD
ENDBRANCH  13  14
ENDBRANCH  11  13
ENDBRANCH   1   9
BRANCH   3  18
HETATM   18  C6  UNL     1     -16.110  -5.373  28.690  1.00  0.00    -0.019 C 
HETATM   19  C7  UNL     1     -15.733  -4.282  29.624  1.00  0.00     0.040 C 
HETATM   20  C8  UNL     1     -15.224  -4.850  30.926  1.00  0.00     0.032 C 
HETATM   21  C9  UNL     1     -15.609  -6.282  31.088  1.00  0.00     0.233 C 
HETATM   22  N3  UNL     1     -16.927  -6.601  30.616  1.00  0.00    -0.071 N 
HETATM   23  C10 UNL     1     -17.123  -6.330  29.190  1.00  0.00     0.269 C 
ATOM     24  H32 UNL     1     -17.164  -7.569  30.835  1.00  0.00     0.277 HD
ATOM     25  H31 UNL     1     -17.635  -6.123  31.174  1.00  0.00     0.277 HD
ENDBRANCH   3  18
TORSDOF 4
ENDMDL
MODEL 5
REMARK VINA RESULT: -7.725534214      2.810      6.968
REMARK  4 active torsions:
REMARK  status: ('A' for Active; 'I' for Inactive)
REMARK    1  A    between atoms: C2_2  and  C4_10 
REMARK    2  A    between atoms: N1_3  and  O1_5 
REMARK    3  A    between atoms: O1_5  and  C3_6 
REMARK    4  A    between atoms: C5_12  and  C6_13 
ROOT
HETATM    1  C4  UNL     1     -15.223  -3.823  28.532  1.00  0.00     0.112 A 
HETATM    2  O2  UNL     1     -15.978  -4.744  29.128  1.00  0.00    -0.306 OA
HETATM    3  C5  UNL     1     -16.588  -5.479  28.287  1.00  0.00     0.098 A 
HETATM    4  C11 UNL     1     -16.216  -5.012  27.020  1.00  0.00     0.052 A 
HETATM    5  S1  UNL     1     -16.401  -5.160  25.336  1.00  0.00    -0.098 SA
HETATM    6  C12 UNL     1     -15.382  -3.888  24.816  1.00  0.00     0.051 A 
HETATM    7  C13 UNL     1     -14.921  -3.375  26.003  1.00  0.00     0.023 A 
HETATM    8  C14 UNL     1     -15.348  -3.955  27.137  1.00  0.00     0.020 A 
ENDROOT
BRANCH   1   9
HETATM    9  C2  UNL     1     -14.429  -2.903  29.302  1.00  0.00     0.063 C 
HETATM   10  C1  UNL     1     -14.093  -3.167  30.719  1.00  0.00     0.073 C 
HETATM   11  N1  UNL     1     -14.023  -1.762  28.819  1.00  0.00    -0.262 N 
ATOM     12  H1  UNL     1     -14.209  -1.505  27.849  1.00  0.00     0.194 HD
BRANCH  11  13
HETATM   13  O1  UNL     1     -13.339  -0.921  29.651  1.00  0.00    -0.234 OA
BRANCH  13  14
HETATM   14  C3  UNL     1     -12.377  -0.002  29.198  1.00  0.00     0.252 C 
HETATM   15  N2  UNL     1     -11.812   0.580  30.292  1.00  0.00    -0.388 N 
ATOM     16  H22 UNL     1     -12.054   0.375  31.261  1.00  0.00     0.157 HD
ATOM     17  H21 UNL     1     -11.114   1.247  29.963  1.00  0.00     0.157 HD
ENDBRANCH  13  14
ENDBRANCH  11  13
ENDBRANCH   1   9
BRANCH   3  18
HETATM   18  C6  UNL     1     -17.500  -6.616  28.427  1.00  0.00    -0.019 C 
HETATM   19  C7  UNL     1     -18.010  -6.912  29.789  1.00  0.00     0.040 C 
HETATM   20  C8  UNL     1     -18.436  -8.356  29.895  1.00  0.00     0.032 C 
HETATM   21  C9  UNL     1     -18.619  -8.974  28.550  1.00  0.00     0.233 C 
HETATM   22  N3  UNL     1     -19.213  -8.106  27.572  1.00  0.00    -0.071 N 
HETATM   23  C10 UNL     1     -18.434  -6.893  27.312  1.00  0.00     0.269 C 
ATOM     24  H32 UNL     1     -19.393  -8.611  26.703  1.00  0.00     0.277 HD
ATOM     25  H31 UNL     1     -20.171  -7.871  27.833  1.00  0.00     0.277 HD
ENDBRANCH   3  18
TORSDOF 4
ENDMDL
