MODEL 1
REMARK VINA RESULT: -7.836949354      0.000      0.000
REMARK  4 active torsions:
REMARK  status: ('A' for Active; 'I' for Inactive)
REMARK    1  A    between atoms: C2_2  and  C3_3 
REMARK    2  A    between atoms: C3_3  and  N1_4 
REMARK    3  A    between atoms: N1_4  and  C4_6 
REMARK    4  A    between atoms: C6_13  and  C7_14 
ROOT
HETATM    1  C4  UNL     1      23.803  -5.293  10.413  1.00  0.00     0.138 A 
HETATM    2  N2  UNL     1      24.804  -5.501   9.522  1.00  0.00    -0.293 N 
ATOM      3  H2  UNL     1      25.271  -6.387   9.329  1.00  0.00     0.172 HD
HETATM    4  C5  UNL     1      25.062  -4.316   8.944  1.00  0.00     0.326 A 
HETATM    5  O1  UNL     1      25.938  -4.111   8.055  1.00  0.00    -0.247 OA
HETATM    6  N3  UNL     1      24.257  -3.382   9.447  1.00  0.00    -0.301 N 
ATOM      7  H3  UNL     1      24.252  -2.399   9.175  1.00  0.00     0.171 HD
HETATM    8  C6  UNL     1      23.437  -3.949  10.385  1.00  0.00     0.146 A 
ENDROOT
BRANCH   1   9
HETATM    9  N1  UNL     1      23.254  -6.270  11.245  1.00  0.00    -0.371 N 
ATOM     10  H1  UNL     1      23.295  -6.108  12.251  1.00  0.00     0.161 HD
BRANCH   9  11
HETATM   11  C3  UNL     1      22.644  -7.474  10.801  1.00  0.00     0.148 C 
BRANCH  11  12
HETATM   12  C2  UNL     1      23.557  -8.583  10.465  1.00  0.00    -0.018 C 
HETATM   13  C1  UNL     1      24.677  -8.791  11.111  1.00  0.00     0.008 C 
ENDBRANCH  11  12
ENDBRANCH   9  11
ENDBRANCH   1   9
BRANCH   8  14
HETATM   14  C7  UNL     1      22.420  -3.234  11.146  1.00  0.00     0.285 C 
HETATM   15  N4  UNL     1      21.650  -3.952  12.106  1.00  0.00    -0.056 NA
HETATM   16  O2  UNL     1      22.209  -2.042  10.985  1.00  0.00    -0.269 OA
ENDBRANCH   8  14
TORSDOF 4
ENDMDL
MODEL 2
REMARK VINA RESULT: -6.778152586      1.167      1.167
REMARK  4 active torsions:
REMARK  status: ('A' for Active; 'I' for Inactive)
REMARK    1  A    between atoms: C2_2  and  C3_3 
REMARK    2  A    between atoms: C3_3  and  N1_4 
REMARK    3  A    between atoms: N1_4  and  C4_6 
REMARK    4  A    between atoms: C6_13  and  C7_14 
ROOT
HETATM    1  C4  UNL     1      23.228  -5.551  10.482  1.00  0.00     0.138 A 
HETATM    2  N2  UNL     1      24.206  -5.604   9.546  1.00  0.00    -0.293 N 
ATOM      3  H2  UNL     1      24.571  -6.443   9.095  1.00  0.00     0.172 HD
HETATM    4  C5  UNL     1      24.603  -4.339   9.326  1.00  0.00     0.326 A 
HETATM    5  O1  UNL     1      25.505  -3.985   8.512  1.00  0.00    -0.247 OA
HETATM    6  N3  UNL     1      23.905  -3.505  10.095  1.00  0.00    -0.301 N 
ATOM      7  H3  UNL     1      24.016  -2.492  10.118  1.00  0.00     0.171 HD
HETATM    8  C6  UNL     1      23.018  -4.223  10.850  1.00  0.00     0.146 A 
ENDROOT
BRANCH   1   9
HETATM    9  N1  UNL     1      22.563  -6.658  11.012  1.00  0.00    -0.371 N 
ATOM     10  H1  UNL     1      21.594  -6.804  10.728  1.00  0.00     0.161 HD
BRANCH   9  11
HETATM   11  C3  UNL     1      23.130  -7.598  11.914  1.00  0.00     0.148 C 
BRANCH  11  12
HETATM   12  C2  UNL     1      23.788  -8.770  11.307  1.00  0.00    -0.018 C 
HETATM   13  C1  UNL     1      25.028  -8.740  10.886  1.00  0.00     0.008 C 
ENDBRANCH  11  12
ENDBRANCH   9  11
ENDBRANCH   1   9
BRANCH   8  14
HETATM   14  C7  UNL     1      22.082  -3.648  11.809  1.00  0.00     0.285 C 
HETATM   15  N4  UNL     1      22.143  -2.249  12.074  1.00  0.00    -0.056 NA
HETATM   16  O2  UNL     1      21.251  -4.328  12.390  1.00  0.00    -0.269 OA
ENDBRANCH   8  14
TORSDOF 4
ENDMDL
MODEL 3
REMARK VINA RESULT: -6.642950427      1.428      1.829
REMARK  4 active torsions:
REMARK  status: ('A' for Active; 'I' for Inactive)
REMARK    1  A    between atoms: C2_2  and  C3_3 
REMARK    2  A    between atoms: C3_3  and  N1_4 
REMARK    3  A    between atoms: N1_4  and  C4_6 
REMARK    4  A    between atoms: C6_13  and  C7_14 
ROOT
HETATM    1  C4  UNL     1      23.378  -5.235  10.439  1.00  0.00     0.138 A 
HETATM    2  N2  UNL     1      24.413  -5.538   9.618  1.00  0.00    -0.293 N 
ATOM      3  H2  UNL     1      24.774  -6.469   9.412  1.00  0.00     0.172 HD
HETATM    4  C5  UNL     1      24.873  -4.374   9.128  1.00  0.00     0.326 A 
HETATM    5  O1  UNL     1      25.840  -4.250   8.322  1.00  0.00    -0.247 OA
HETATM    6  N3  UNL     1      24.159  -3.362   9.618  1.00  0.00    -0.301 N 
ATOM      7  H3  UNL     1      24.307  -2.376   9.402  1.00  0.00     0.171 HD
HETATM    8  C6  UNL     1      23.195  -3.853  10.457  1.00  0.00     0.146 A 
ENDROOT
BRANCH   1   9
HETATM    9  N1  UNL     1      22.636  -6.165  11.170  1.00  0.00    -0.371 N 
ATOM     10  H1  UNL     1      21.791  -6.537  10.737  1.00  0.00     0.161 HD
BRANCH   9  11
HETATM   11  C3  UNL     1      22.965  -6.632  12.471  1.00  0.00     0.148 C 
BRANCH  11  12
HETATM   12  C2  UNL     1      21.856  -7.197  13.261  1.00  0.00    -0.018 C 
HETATM   13  C1  UNL     1      21.398  -6.619  14.344  1.00  0.00     0.008 C 
ENDBRANCH  11  12
ENDBRANCH   9  11
ENDBRANCH   1   9
BRANCH   8  14
HETATM   14  C7  UNL     1      22.221  -3.041  11.175  1.00  0.00     0.285 C 
HETATM   15  N4  UNL     1      21.399  -3.665  12.158  1.00  0.00    -0.056 NA
HETATM   16  O2  UNL     1      22.089  -1.847  10.960  1.00  0.00    -0.269 OA
ENDBRANCH   8  14
TORSDOF 4
ENDMDL
MODEL 4
REMARK VINA RESULT: -6.506817627      1.045      3.174
REMARK  4 active torsions:
REMARK  status: ('A' for Active; 'I' for Inactive)
REMARK    1  A    between atoms: C2_2  and  C3_3 
REMARK    2  A    between atoms: C3_3  and  N1_4 
REMARK    3  A    between atoms: N1_4  and  C4_6 
REMARK    4  A    between atoms: C6_13  and  C7_14 
ROOT
HETATM    1  C4  UNL     1      23.121  -4.990  11.113  1.00  0.00     0.138 A 
HETATM    2  N2  UNL     1      22.253  -4.075  11.611  1.00  0.00    -0.293 N 
ATOM      3  H2  UNL     1      21.560  -4.230  12.342  1.00  0.00     0.172 HD
HETATM    4  C5  UNL     1      22.482  -2.926  10.954  1.00  0.00     0.326 A 
HETATM    5  O1  UNL     1      21.863  -1.838  11.144  1.00  0.00    -0.247 OA
HETATM    6  N3  UNL     1      23.460  -3.098  10.066  1.00  0.00    -0.301 N 
ATOM      7  H3  UNL     1      23.822  -2.378   9.441  1.00  0.00     0.171 HD
HETATM    8  C6  UNL     1      23.902  -4.391  10.126  1.00  0.00     0.146 A 
ENDROOT
BRANCH   1   9
HETATM    9  N1  UNL     1      23.194  -6.326  11.512  1.00  0.00    -0.371 N 
ATOM     10  H1  UNL     1      23.756  -6.541  12.335  1.00  0.00     0.161 HD
BRANCH   9  11
HETATM   11  C3  UNL     1      22.548  -7.410  10.859  1.00  0.00     0.148 C 
BRANCH  11  12
HETATM   12  C2  UNL     1      23.396  -8.569  10.525  1.00  0.00    -0.018 C 
HETATM   13  C1  UNL     1      24.505  -8.838  11.169  1.00  0.00     0.008 C 
ENDBRANCH  11  12
ENDBRANCH   9  11
ENDBRANCH   1   9
BRANCH   8  14
HETATM   14  C7  UNL     1      24.969  -4.948   9.303  1.00  0.00     0.285 C 
HETATM   15  N4  UNL     1      25.466  -4.178   8.212  1.00  0.00    -0.056 NA
HETATM   16  O2  UNL     1      25.446  -6.050   9.520  1.00  0.00    -0.269 OA
ENDBRANCH   8  14
TORSDOF 4
ENDMDL
MODEL 5
REMARK VINA RESULT: -6.385105386      1.875      3.991
REMARK  4 active torsions:
REMARK  status: ('A' for Active; 'I' for Inactive)
REMARK    1  A    between atoms: C2_2  and  C3_3 
REMARK    2  A    between atoms: C3_3  and  N1_4 
REMARK    3  A    between atoms: N1_4  and  C4_6 
REMARK    4  A    between atoms: C6_13  and  C7_14 
ROOT
HETATM    1  C4  UNL     1      23.539  -3.678  10.701  1.00  0.00     0.138 A 
HETATM    2  N2  UNL     1      24.390  -3.242   9.739  1.00  0.00    -0.293 N 
ATOM      3  H2  UNL     1      24.613  -2.272   9.519  1.00  0.00     0.172 HD
HETATM    4  C5  UNL     1      24.881  -4.336   9.131  1.00  0.00     0.326 A 
HETATM    5  O1  UNL     1      25.711  -4.331   8.176  1.00  0.00    -0.247 OA
HETATM    6  N3  UNL     1      24.363  -5.432   9.682  1.00  0.00    -0.301 N 
ATOM      7  H3  UNL     1      24.574  -6.389   9.401  1.00  0.00     0.171 HD
HETATM    8  C6  UNL     1      23.504  -5.071  10.684  1.00  0.00     0.146 A 
ENDROOT
BRANCH   1   9
HETATM    9  N1  UNL     1      22.797  -2.854  11.549  1.00  0.00    -0.371 N 
ATOM     10  H1  UNL     1      23.290  -2.415  12.327  1.00  0.00     0.161 HD
BRANCH   9  11
HETATM   11  C3  UNL     1      21.410  -2.577  11.413  1.00  0.00     0.148 C 
BRANCH  11  12
HETATM   12  C2  UNL     1      20.611  -2.628  12.651  1.00  0.00    -0.018 C 
HETATM   13  C1  UNL     1      19.301  -2.626  12.644  1.00  0.00     0.008 C 
ENDBRANCH  11  12
ENDBRANCH   9  11
ENDBRANCH   1   9
BRANCH   8  14
HETATM   14  C7  UNL     1      22.752  -6.004  11.515  1.00  0.00     0.285 C 
HETATM   15  N4  UNL     1      22.507  -7.319  11.023  1.00  0.00    -0.056 NA
HETATM   16  O2  UNL     1      22.328  -5.692  12.617  1.00  0.00    -0.269 OA
ENDBRANCH   8  14
TORSDOF 4
ENDMDL
