MODEL 1
REMARK VINA RESULT: -8.794982714      0.000      0.000
REMARK  3 active torsions:
REMARK  status: ('A' for Active; 'I' for Inactive)
REMARK    1  A    between atoms: C2_2  and  C3_3 
REMARK    2  A    between atoms: C7_7  and  C8_8 
REMARK    3  A    between atoms: N2_10  and  N3_12 
REMARK       I    between atoms: N3_12  and  C9_14 
ROOT
HETATM    1  C8  UNL     1      21.558  -3.087  11.173  1.00  0.00     0.141 C 
HETATM    2  N1  UNL     1      21.605  -1.857  10.478  1.00  0.00    -0.080 NA
HETATM    3  N2  UNL     1      20.769  -3.230  12.157  1.00  0.00    -0.285 N 
ATOM      4  H2  UNL     1      20.765  -4.132  12.633  1.00  0.00     0.188 HD
ENDROOT
BRANCH   1   5
HETATM    5  C7  UNL     1      22.424  -4.164  10.737  1.00  0.00     0.007 A 
HETATM    6  C6  UNL     1      23.298  -4.013   9.669  1.00  0.00     0.015 A 
HETATM    7  C5  UNL     1      24.126  -5.007   9.233  1.00  0.00     0.002 A 
HETATM    8  C4  UNL     1      24.120  -6.223   9.857  1.00  0.00     0.007 A 
HETATM    9  C3  UNL     1      23.265  -6.405  10.921  1.00  0.00    -0.058 A 
HETATM   10  C10 UNL     1      22.433  -5.399  11.355  1.00  0.00     0.022 A 
BRANCH   9  11
HETATM   11  C2  UNL     1      23.242  -7.735  11.623  1.00  0.00     0.034 C 
HETATM   12  C1  UNL     1      24.182  -8.693  10.918  1.00  0.00     0.010 C 
ENDBRANCH   9  11
ENDBRANCH   1   5
BRANCH   3  13
HETATM   13  N3  UNL     1      19.909  -2.243  12.634  1.00  0.00    -0.273 N 
HETATM   14  C9  UNL     1      18.525  -2.439  12.887  1.00  0.00     0.200 C 
HETATM   15  N4  UNL     1      17.627  -1.549  12.661  1.00  0.00    -0.372 N 
HETATM   16  N5  UNL     1      18.104  -3.703  13.422  1.00  0.00    -0.062 NA
ATOM     17  H42 UNL     1      17.926  -0.651  12.280  1.00  0.00     0.158 HD
ATOM     18  H41 UNL     1      16.633  -1.689  12.843  1.00  0.00     0.158 HD
ATOM     19  H3  UNL     1      20.299  -1.318  12.814  1.00  0.00     0.189 HD
ENDBRANCH   3  13
TORSDOF 3
ENDMDL
MODEL 2
REMARK VINA RESULT: -7.467850861      1.328      1.527
REMARK  3 active torsions:
REMARK  status: ('A' for Active; 'I' for Inactive)
REMARK    1  A    between atoms: C2_2  and  C3_3 
REMARK    2  A    between atoms: C7_7  and  C8_8 
REMARK    3  A    between atoms: N2_10  and  N3_12 
REMARK       I    between atoms: N3_12  and  C9_14 
ROOT
HETATM    1  C8  UNL     1      21.431  -3.589  11.816  1.00  0.00     0.141 C 
HETATM    2  N1  UNL     1      21.402  -2.181  11.699  1.00  0.00    -0.080 NA
HETATM    3  N2  UNL     1      20.622  -4.178  12.596  1.00  0.00    -0.285 N 
ATOM      4  H2  UNL     1      20.675  -5.195  12.654  1.00  0.00     0.188 HD
ENDROOT
BRANCH   1   5
HETATM    5  C7  UNL     1      22.399  -4.330  11.031  1.00  0.00     0.007 A 
HETATM    6  C6  UNL     1      22.954  -3.808   9.871  1.00  0.00     0.015 A 
HETATM    7  C5  UNL     1      23.867  -4.480   9.110  1.00  0.00     0.002 A 
HETATM    8  C4  UNL     1      24.276  -5.731   9.480  1.00  0.00     0.007 A 
HETATM    9  C3  UNL     1      23.744  -6.278  10.627  1.00  0.00    -0.058 A 
HETATM   10  C10 UNL     1      22.824  -5.594  11.389  1.00  0.00     0.022 A 
BRANCH   9  11
HETATM   11  C2  UNL     1      24.180  -7.653  11.053  1.00  0.00     0.034 C 
HETATM   12  C1  UNL     1      23.280  -8.688  10.408  1.00  0.00     0.010 C 
ENDBRANCH   9  11
ENDBRANCH   1   5
BRANCH   3  13
HETATM   13  N3  UNL     1      19.667  -3.534  13.381  1.00  0.00    -0.273 N 
HETATM   14  C9  UNL     1      19.108  -4.076  14.568  1.00  0.00     0.200 C 
HETATM   15  N4  UNL     1      17.880  -3.920  14.913  1.00  0.00    -0.372 N 
HETATM   16  N5  UNL     1      19.959  -4.844  15.432  1.00  0.00    -0.062 NA
ATOM     17  H42 UNL     1      17.275  -3.375  14.299  1.00  0.00     0.158 HD
ATOM     18  H41 UNL     1      17.478  -4.309  15.766  1.00  0.00     0.158 HD
ATOM     19  H3  UNL     1      19.348  -2.613  13.082  1.00  0.00     0.189 HD
ENDBRANCH   3  13
TORSDOF 3
ENDMDL
MODEL 3
REMARK VINA RESULT: -7.345953501      3.167      4.412
REMARK  3 active torsions:
REMARK  status: ('A' for Active; 'I' for Inactive)
REMARK    1  A    between atoms: C2_2  and  C3_3 
REMARK    2  A    between atoms: C7_7  and  C8_8 
REMARK    3  A    between atoms: N2_10  and  N3_12 
REMARK       I    between atoms: N3_12  and  C9_14 
ROOT
HETATM    1  C8  UNL     1      21.168  -6.173  13.255  1.00  0.00     0.141 C 
HETATM    2  N1  UNL     1      20.433  -4.972  13.381  1.00  0.00    -0.080 NA
HETATM    3  N2  UNL     1      20.960  -7.131  14.060  1.00  0.00    -0.285 N 
ATOM      4  H2  UNL     1      21.510  -7.981  13.937  1.00  0.00     0.188 HD
ENDROOT
BRANCH   1   5
HETATM    5  C7  UNL     1      22.151  -6.277  12.195  1.00  0.00     0.007 A 
HETATM    6  C6  UNL     1      22.851  -7.451  11.958  1.00  0.00     0.015 A 
HETATM    7  C5  UNL     1      23.783  -7.581  10.969  1.00  0.00     0.002 A 
HETATM    8  C4  UNL     1      24.064  -6.521  10.153  1.00  0.00     0.007 A 
HETATM    9  C3  UNL     1      23.386  -5.341  10.361  1.00  0.00    -0.058 A 
HETATM   10  C10 UNL     1      22.448  -5.218  11.360  1.00  0.00     0.022 A 
BRANCH   9  11
HETATM   11  C2  UNL     1      23.679  -4.161   9.474  1.00  0.00     0.034 C 
HETATM   12  C1  UNL     1      24.461  -4.625   8.262  1.00  0.00     0.010 C 
ENDBRANCH   9  11
ENDBRANCH   1   5
BRANCH   3  13
HETATM   13  N3  UNL     1      20.034  -7.105  15.102  1.00  0.00    -0.273 N 
HETATM   14  C9  UNL     1      20.378  -7.089  16.479  1.00  0.00     0.200 C 
HETATM   15  N4  UNL     1      19.713  -7.710  17.386  1.00  0.00    -0.372 N 
HETATM   16  N5  UNL     1      21.533  -6.339  16.883  1.00  0.00    -0.062 NA
ATOM     17  H42 UNL     1      18.892  -8.244  17.099  1.00  0.00     0.158 HD
ATOM     18  H41 UNL     1      19.959  -7.699  18.376  1.00  0.00     0.158 HD
ATOM     19  H3  UNL     1      19.044  -7.098  14.857  1.00  0.00     0.189 HD
ENDBRANCH   3  13
TORSDOF 3
ENDMDL
MODEL 4
REMARK VINA RESULT: -7.032685567      3.175      3.988
REMARK  3 active torsions:
REMARK  status: ('A' for Active; 'I' for Inactive)
REMARK    1  A    between atoms: C2_2  and  C3_3 
REMARK    2  A    between atoms: C7_7  and  C8_8 
REMARK    3  A    between atoms: N2_10  and  N3_12 
REMARK       I    between atoms: N3_12  and  C9_14 
ROOT
HETATM    1  C8  UNL     1      20.946  -5.957  13.330  1.00  0.00     0.141 C 
HETATM    2  N1  UNL     1      20.219  -4.791  13.664  1.00  0.00    -0.080 NA
HETATM    3  N2  UNL     1      20.801  -7.013  14.017  1.00  0.00    -0.285 N 
ATOM      4  H2  UNL     1      21.342  -7.833  13.745  1.00  0.00     0.188 HD
ENDROOT
BRANCH   1   5
HETATM    5  C7  UNL     1      21.848  -5.911  12.196  1.00  0.00     0.007 A 
HETATM    6  C6  UNL     1      22.169  -4.717  11.565  1.00  0.00     0.015 A 
HETATM    7  C5  UNL     1      23.014  -4.640  10.495  1.00  0.00     0.002 A 
HETATM    8  C4  UNL     1      23.590  -5.775   9.997  1.00  0.00     0.007 A 
HETATM    9  C3  UNL     1      23.292  -6.976  10.601  1.00  0.00    -0.058 A 
HETATM   10  C10 UNL     1      22.439  -7.046  11.679  1.00  0.00     0.022 A 
BRANCH   9  11
HETATM   11  C2  UNL     1      23.914  -8.238  10.069  1.00  0.00     0.034 C 
HETATM   12  C1  UNL     1      24.269  -9.150  11.226  1.00  0.00     0.010 C 
ENDBRANCH   9  11
ENDBRANCH   1   5
BRANCH   3  13
HETATM   13  N3  UNL     1      19.954  -7.133  15.118  1.00  0.00    -0.273 N 
HETATM   14  C9  UNL     1      20.393  -7.148  16.468  1.00  0.00     0.200 C 
HETATM   15  N4  UNL     1      19.861  -7.877  17.382  1.00  0.00    -0.372 N 
HETATM   16  N5  UNL     1      21.494  -6.303  16.835  1.00  0.00    -0.062 NA
ATOM     17  H42 UNL     1      19.079  -8.478  17.122  1.00  0.00     0.158 HD
ATOM     18  H41 UNL     1      20.176  -7.888  18.352  1.00  0.00     0.158 HD
ATOM     19  H3  UNL     1      18.953  -7.217  14.941  1.00  0.00     0.189 HD
ENDBRANCH   3  13
TORSDOF 3
ENDMDL
MODEL 5
REMARK VINA RESULT: -6.916100135      2.789      4.029
REMARK  3 active torsions:
REMARK  status: ('A' for Active; 'I' for Inactive)
REMARK    1  A    between atoms: C2_2  and  C3_3 
REMARK    2  A    between atoms: C7_7  and  C8_8 
REMARK    3  A    between atoms: N2_10  and  N3_12 
REMARK       I    between atoms: N3_12  and  C9_14 
ROOT
HETATM    1  C8  UNL     1      21.111  -6.150  13.277  1.00  0.00     0.141 C 
HETATM    2  N1  UNL     1      20.431  -4.922  13.438  1.00  0.00    -0.080 NA
HETATM    3  N2  UNL     1      20.863  -7.119  14.057  1.00  0.00    -0.285 N 
ATOM      4  H2  UNL     1      21.375  -7.989  13.909  1.00  0.00     0.188 HD
ENDROOT
BRANCH   1   5
HETATM    5  C7  UNL     1      22.087  -6.268  12.212  1.00  0.00     0.007 A 
HETATM    6  C6  UNL     1      22.786  -7.445  11.986  1.00  0.00     0.015 A 
HETATM    7  C5  UNL     1      23.711  -7.588  10.993  1.00  0.00     0.002 A 
HETATM    8  C4  UNL     1      23.986  -6.540  10.160  1.00  0.00     0.007 A 
HETATM    9  C3  UNL     1      23.309  -5.356  10.357  1.00  0.00    -0.058 A 
HETATM   10  C10 UNL     1      22.378  -5.220  11.361  1.00  0.00     0.022 A 
BRANCH   9  11
HETATM   11  C2  UNL     1      23.595  -4.189   9.452  1.00  0.00     0.034 C 
HETATM   12  C1  UNL     1      24.472  -4.647   8.303  1.00  0.00     0.010 C 
ENDBRANCH   9  11
ENDBRANCH   1   5
BRANCH   3  13
HETATM   13  N3  UNL     1      19.941  -7.082  15.101  1.00  0.00    -0.273 N 
HETATM   14  C9  UNL     1      18.551  -7.331  14.953  1.00  0.00     0.200 C 
HETATM   15  N4  UNL     1      17.641  -6.702  15.605  1.00  0.00    -0.372 N 
HETATM   16  N5  UNL     1      18.137  -8.342  14.021  1.00  0.00    -0.062 NA
ATOM     17  H42 UNL     1      17.935  -5.983  16.267  1.00  0.00     0.158 HD
ATOM     18  H41 UNL     1      16.642  -6.881  15.499  1.00  0.00     0.158 HD
ATOM     19  H3  UNL     1      20.288  -6.860  16.034  1.00  0.00     0.189 HD
ENDBRANCH   3  13
TORSDOF 3
ENDMDL
