MODEL 1
REMARK VINA RESULT: -6.480006191      0.000      0.000
REMARK  7 active torsions:
REMARK  status: ('A' for Active; 'I' for Inactive)
REMARK    1  A    between atoms: C4_4  and  C5_5 
REMARK    2  A    between atoms: C5_5  and  N1_6 
REMARK    3  A    between atoms: N1_6  and  C6_8 
REMARK    4  A    between atoms: C6_8  and  C7_9 
REMARK    5  A    between atoms: C7_9  and  S1_10 
REMARK    6  A    between atoms: S1_10  and  C8_11 
REMARK    7  A    between atoms: C10_13  and  N2_14 
ROOT
HETATM    1  C1  UNL     1      21.779  -6.927  12.516  1.00  0.00     0.102 C 
HETATM    2  C2  UNL     1      22.046  -7.507  11.471  1.00  0.00    -0.160 C 
HETATM    3  C3  UNL     1      22.349  -8.163  10.234  1.00  0.00     0.051 C 
HETATM    4  C4  UNL     1      23.546  -8.644   9.961  1.00  0.00     0.025 C 
ENDROOT
BRANCH   4   5
HETATM    5  C5  UNL     1      24.615  -8.514  10.938  1.00  0.00     0.088 C 
BRANCH   5   6
HETATM    6  N1  UNL     1      25.454  -7.392  10.926  1.00  0.00    -0.378 N 
ATOM      7  H1  UNL     1      26.190  -7.331  10.222  1.00  0.00     0.164 HD
BRANCH   6   8
HETATM    8  C6  UNL     1      25.311  -6.354  11.850  1.00  0.00     0.071 C 
BRANCH   8   9
HETATM    9  C7  UNL     1      25.267  -4.955  11.347  1.00  0.00     0.125 C 
BRANCH   9  10
HETATM   10  S1  UNL     1      24.242  -4.855   9.822  1.00  0.00    -0.106 SA
BRANCH  10  11
HETATM   11  C8  UNL     1      22.742  -3.912  10.191  1.00  0.00     0.088 A 
HETATM   12  C9  UNL     1      22.428  -3.398  11.446  1.00  0.00     0.087 A 
HETATM   13  C10 UNL     1      21.214  -2.767  11.295  1.00  0.00     0.116 A 
HETATM   14  N3  UNL     1      20.810  -2.888  10.021  1.00  0.00    -0.285 N 
HETATM   15  N4  UNL     1      21.743  -3.577   9.385  1.00  0.00    -0.293 N 
ATOM     16  H3  UNL     1      19.948  -2.519   9.620  1.00  0.00     0.188 HD
ATOM     17  H4  UNL     1      21.700  -3.820   8.396  1.00  0.00     0.187 HD
BRANCH  13  18
HETATM   18  N2  UNL     1      20.573  -2.161  12.220  1.00  0.00    -0.384 N 
ATOM     19  H22 UNL     1      20.890  -1.321  12.705  1.00  0.00     0.157 HD
ATOM     20  H21 UNL     1      19.666  -2.440  12.592  1.00  0.00     0.157 HD
ENDBRANCH  13  18
ENDBRANCH  10  11
ENDBRANCH   9  10
ENDBRANCH   8   9
ENDBRANCH   6   8
ENDBRANCH   5   6
ENDBRANCH   4   5
TORSDOF 7
ENDMDL
MODEL 2
REMARK VINA RESULT: -6.380329872      2.294      3.570
REMARK  7 active torsions:
REMARK  status: ('A' for Active; 'I' for Inactive)
REMARK    1  A    between atoms: C4_4  and  C5_5 
REMARK    2  A    between atoms: C5_5  and  N1_6 
REMARK    3  A    between atoms: N1_6  and  C6_8 
REMARK    4  A    between atoms: C6_8  and  C7_9 
REMARK    5  A    between atoms: C7_9  and  S1_10 
REMARK    6  A    between atoms: S1_10  and  C8_11 
REMARK    7  A    between atoms: C10_13  and  N2_14 
ROOT
HETATM    1  C1  UNL     1      23.733  -8.798  10.223  1.00  0.00     0.102 C 
HETATM    2  C2  UNL     1      24.388  -7.908  10.750  1.00  0.00    -0.160 C 
HETATM    3  C3  UNL     1      25.178  -6.885  11.369  1.00  0.00     0.051 C 
HETATM    4  C4  UNL     1      25.382  -5.710  10.806  1.00  0.00     0.025 C 
ENDROOT
BRANCH   4   5
HETATM    5  C5  UNL     1      24.794  -5.420   9.508  1.00  0.00     0.088 C 
BRANCH   5   6
HETATM    6  N1  UNL     1      24.008  -4.275   9.326  1.00  0.00    -0.378 N 
ATOM      7  H1  UNL     1      24.459  -3.403   9.048  1.00  0.00     0.164 HD
BRANCH   6   8
HETATM    8  C6  UNL     1      22.624  -4.293   9.513  1.00  0.00     0.071 C 
BRANCH   8   9
HETATM    9  C7  UNL     1      22.095  -4.397  10.900  1.00  0.00     0.125 C 
BRANCH   9  10
HETATM   10  S1  UNL     1      21.649  -2.730  11.541  1.00  0.00    -0.106 SA
BRANCH  10  11
HETATM   11  C8  UNL     1      19.910  -2.748  12.041  1.00  0.00     0.088 A 
HETATM   12  C9  UNL     1      19.474  -2.789  13.362  1.00  0.00     0.087 A 
HETATM   13  C10 UNL     1      18.099  -2.798  13.299  1.00  0.00     0.116 A 
HETATM   14  N3  UNL     1      17.717  -2.764  12.013  1.00  0.00    -0.285 N 
HETATM   15  N4  UNL     1      18.820  -2.734  11.284  1.00  0.00    -0.293 N 
ATOM     16  H3  UNL     1      16.758  -2.761  11.664  1.00  0.00     0.188 HD
ATOM     17  H4  UNL     1      18.832  -2.704  10.265  1.00  0.00     0.187 HD
BRANCH  13  18
HETATM   18  N2  UNL     1      17.310  -2.832  14.304  1.00  0.00    -0.384 N 
ATOM     19  H22 UNL     1      16.385  -2.405  14.344  1.00  0.00     0.157 HD
ATOM     20  H21 UNL     1      17.507  -3.289  15.195  1.00  0.00     0.157 HD
ENDBRANCH  13  18
ENDBRANCH  10  11
ENDBRANCH   9  10
ENDBRANCH   8   9
ENDBRANCH   6   8
ENDBRANCH   5   6
ENDBRANCH   4   5
TORSDOF 7
ENDMDL
MODEL 3
REMARK VINA RESULT: -6.317747904      1.866      2.520
REMARK  7 active torsions:
REMARK  status: ('A' for Active; 'I' for Inactive)
REMARK    1  A    between atoms: C4_4  and  C5_5 
REMARK    2  A    between atoms: C5_5  and  N1_6 
REMARK    3  A    between atoms: N1_6  and  C6_8 
REMARK    4  A    between atoms: C6_8  and  C7_9 
REMARK    5  A    between atoms: C7_9  and  S1_10 
REMARK    6  A    between atoms: S1_10  and  C8_11 
REMARK    7  A    between atoms: C10_13  and  N2_14 
ROOT
HETATM    1  C1  UNL     1      21.755  -6.971  12.536  1.00  0.00     0.102 C 
HETATM    2  C2  UNL     1      22.476  -7.385  11.637  1.00  0.00    -0.160 C 
HETATM    3  C3  UNL     1      23.297  -7.870  10.568  1.00  0.00     0.051 C 
HETATM    4  C4  UNL     1      24.415  -7.272  10.206  1.00  0.00     0.025 C 
ENDROOT
BRANCH   4   5
HETATM    5  C5  UNL     1      24.850  -6.072  10.904  1.00  0.00     0.088 C 
BRANCH   5   6
HETATM    6  N1  UNL     1      24.712  -4.814  10.306  1.00  0.00    -0.378 N 
ATOM      7  H1  UNL     1      25.253  -4.029  10.670  1.00  0.00     0.164 HD
BRANCH   6   8
HETATM    8  C6  UNL     1      23.856  -4.602   9.223  1.00  0.00     0.071 C 
BRANCH   8   9
HETATM    9  C7  UNL     1      22.430  -4.277   9.497  1.00  0.00     0.125 C 
BRANCH   9  10
HETATM   10  S1  UNL     1      22.290  -3.227  11.001  1.00  0.00    -0.106 SA
BRANCH  10  11
HETATM   11  C8  UNL     1      20.538  -2.917  11.332  1.00  0.00     0.088 A 
HETATM   12  C9  UNL     1      19.980  -2.846  12.605  1.00  0.00     0.087 A 
HETATM   13  C10 UNL     1      18.639  -2.608  12.410  1.00  0.00     0.116 A 
HETATM   14  N3  UNL     1      18.391  -2.538  11.093  1.00  0.00    -0.285 N 
HETATM   15  N4  UNL     1      19.544  -2.726  10.474  1.00  0.00    -0.293 N 
ATOM     16  H3  UNL     1      17.486  -2.371  10.654  1.00  0.00     0.188 HD
ATOM     17  H4  UNL     1      19.656  -2.725   9.460  1.00  0.00     0.187 HD
BRANCH  13  18
HETATM   18  N2  UNL     1      17.766  -2.474  13.335  1.00  0.00    -0.384 N 
ATOM     19  H22 UNL     1      17.968  -2.242  14.307  1.00  0.00     0.157 HD
ATOM     20  H21 UNL     1      16.759  -2.584  13.219  1.00  0.00     0.157 HD
ENDBRANCH  13  18
ENDBRANCH  10  11
ENDBRANCH   9  10
ENDBRANCH   8   9
ENDBRANCH   6   8
ENDBRANCH   5   6
ENDBRANCH   4   5
TORSDOF 7
ENDMDL
MODEL 4
REMARK VINA RESULT: -6.265933995      2.437      3.750
REMARK  7 active torsions:
REMARK  status: ('A' for Active; 'I' for Inactive)
REMARK    1  A    between atoms: C4_4  and  C5_5 
REMARK    2  A    between atoms: C5_5  and  N1_6 
REMARK    3  A    between atoms: N1_6  and  C6_8 
REMARK    4  A    between atoms: C6_8  and  C7_9 
REMARK    5  A    between atoms: C7_9  and  S1_10 
REMARK    6  A    between atoms: S1_10  and  C8_11 
REMARK    7  A    between atoms: C10_13  and  N2_14 
ROOT
HETATM    1  C1  UNL     1      23.493  -8.808  10.210  1.00  0.00     0.102 C 
HETATM    2  C2  UNL     1      24.270  -8.018  10.729  1.00  0.00    -0.160 C 
HETATM    3  C3  UNL     1      25.201  -7.112  11.335  1.00  0.00     0.051 C 
HETATM    4  C4  UNL     1      25.396  -5.889  10.883  1.00  0.00     0.025 C 
ENDROOT
BRANCH   4   5
HETATM    5  C5  UNL     1      24.649  -5.420   9.726  1.00  0.00     0.088 C 
BRANCH   5   6
HETATM    6  N1  UNL     1      24.087  -4.137   9.718  1.00  0.00    -0.378 N 
ATOM      7  H1  UNL     1      24.072  -3.608   8.846  1.00  0.00     0.164 HD
BRANCH   6   8
HETATM    8  C6  UNL     1      23.545  -3.562  10.869  1.00  0.00     0.071 C 
BRANCH   8   9
HETATM    9  C7  UNL     1      22.196  -4.001  11.317  1.00  0.00     0.125 C 
BRANCH   9  10
HETATM   10  S1  UNL     1      20.984  -2.628  11.133  1.00  0.00    -0.106 SA
BRANCH  10  11
HETATM   11  C8  UNL     1      19.719  -2.796  12.416  1.00  0.00     0.088 A 
HETATM   12  C9  UNL     1      19.573  -3.915  13.233  1.00  0.00     0.087 A 
HETATM   13  C10 UNL     1      18.501  -3.639  14.051  1.00  0.00     0.116 A 
HETATM   14  N3  UNL     1      18.020  -2.422  13.752  1.00  0.00    -0.285 N 
HETATM   15  N4  UNL     1      18.767  -1.943  12.772  1.00  0.00    -0.293 N 
ATOM     16  H3  UNL     1      17.229  -1.956  14.196  1.00  0.00     0.188 HD
ATOM     17  H4  UNL     1      18.629  -1.029  12.342  1.00  0.00     0.187 HD
BRANCH  13  18
HETATM   18  N2  UNL     1      18.037  -4.417  14.953  1.00  0.00    -0.384 N 
ATOM     19  H22 UNL     1      17.525  -5.282  14.780  1.00  0.00     0.157 HD
ATOM     20  H21 UNL     1      18.118  -4.271  15.959  1.00  0.00     0.157 HD
ENDBRANCH  13  18
ENDBRANCH  10  11
ENDBRANCH   9  10
ENDBRANCH   8   9
ENDBRANCH   6   8
ENDBRANCH   5   6
ENDBRANCH   4   5
TORSDOF 7
ENDMDL
MODEL 5
REMARK VINA RESULT: -6.121111153      1.985      2.920
REMARK  7 active torsions:
REMARK  status: ('A' for Active; 'I' for Inactive)
REMARK    1  A    between atoms: C4_4  and  C5_5 
REMARK    2  A    between atoms: C5_5  and  N1_6 
REMARK    3  A    between atoms: N1_6  and  C6_8 
REMARK    4  A    between atoms: C6_8  and  C7_9 
REMARK    5  A    between atoms: C7_9  and  S1_10 
REMARK    6  A    between atoms: S1_10  and  C8_11 
REMARK    7  A    between atoms: C10_13  and  N2_14 
ROOT
HETATM    1  C1  UNL     1      25.751  -6.582  11.502  1.00  0.00     0.102 C 
HETATM    2  C2  UNL     1      25.167  -7.588  11.121  1.00  0.00    -0.160 C 
HETATM    3  C3  UNL     1      24.491  -8.779  10.699  1.00  0.00     0.051 C 
HETATM    4  C4  UNL     1      23.214  -8.790  10.369  1.00  0.00     0.025 C 
ENDROOT
BRANCH   4   5
HETATM    5  C5  UNL     1      22.443  -7.558  10.429  1.00  0.00     0.088 C 
BRANCH   5   6
HETATM    6  N1  UNL     1      22.067  -7.017  11.665  1.00  0.00    -0.378 N 
ATOM      7  H1  UNL     1      21.692  -7.636  12.384  1.00  0.00     0.164 HD
BRANCH   6   8
HETATM    8  C6  UNL     1      22.191  -5.654  11.941  1.00  0.00     0.071 C 
BRANCH   8   9
HETATM    9  C7  UNL     1      22.617  -4.741  10.846  1.00  0.00     0.125 C 
BRANCH   9  10
HETATM   10  S1  UNL     1      22.279  -2.991  11.304  1.00  0.00    -0.106 SA
BRANCH  10  11
HETATM   11  C8  UNL     1      20.496  -2.785  11.531  1.00  0.00     0.088 A 
HETATM   12  C9  UNL     1      19.871  -2.667  12.769  1.00  0.00     0.087 A 
HETATM   13  C10 UNL     1      18.528  -2.539  12.496  1.00  0.00     0.116 A 
HETATM   14  N3  UNL     1      18.343  -2.577  11.168  1.00  0.00    -0.285 N 
HETATM   15  N4  UNL     1      19.536  -2.725  10.617  1.00  0.00    -0.293 N 
ATOM     16  H3  UNL     1      17.452  -2.505  10.677  1.00  0.00     0.188 HD
ATOM     17  H4  UNL     1      19.698  -2.785   9.612  1.00  0.00     0.187 HD
BRANCH  13  18
HETATM   18  N2  UNL     1      17.603  -2.405  13.369  1.00  0.00    -0.384 N 
ATOM     19  H22 UNL     1      17.512  -1.622  14.016  1.00  0.00     0.157 HD
ATOM     20  H21 UNL     1      16.841  -3.063  13.530  1.00  0.00     0.157 HD
ENDBRANCH  13  18
ENDBRANCH  10  11
ENDBRANCH   9  10
ENDBRANCH   8   9
ENDBRANCH   6   8
ENDBRANCH   5   6
ENDBRANCH   4   5
TORSDOF 7
ENDMDL
