MODEL 1
REMARK VINA RESULT: -5.929315137      0.000      0.000
REMARK  4 active torsions:
REMARK  status: ('A' for Active; 'I' for Inactive)
REMARK    1  A    between atoms: C3_4  and  C4_5 
REMARK    2  A    between atoms: N2_6  and  C5_8 
REMARK    3  A    between atoms: C5_8  and  N3_9 
REMARK    4  A    between atoms: N3_9  and  C6_11 
ROOT
HETATM    1  N1  UNL     1      24.044  -8.886  10.694  1.00  0.00    -0.083 NA
HETATM    2  C1  UNL     1      23.777  -7.484  10.722  1.00  0.00     0.118 A 
HETATM    3  C2  UNL     1      22.549  -6.896  10.894  1.00  0.00     0.061 A 
HETATM    4  C3  UNL     1      22.767  -5.536  10.851  1.00  0.00     0.023 A 
HETATM    5  C7  UNL     1      24.134  -5.335  10.654  1.00  0.00     0.129 A 
HETATM    6  N4  UNL     1      24.722  -4.038  10.558  1.00  0.00    -0.082 NA
HETATM    7  N5  UNL     1      24.702  -6.533  10.581  1.00  0.00    -0.333 N 
ATOM      8  H5  UNL     1      25.698  -6.701  10.440  1.00  0.00     0.168 HD
ENDROOT
BRANCH   4   9
HETATM    9  C4  UNL     1      21.745  -4.508  10.991  1.00  0.00     0.099 C 
HETATM   10  N2  UNL     1      21.711  -3.465  10.212  1.00  0.00    -0.382 N 
ATOM     11  H2  UNL     1      22.416  -3.357   9.483  1.00  0.00     0.160 HD
BRANCH  10  12
HETATM   12  C5  UNL     1      20.685  -2.456  10.370  1.00  0.00     0.245 C 
BRANCH  12  13
HETATM   13  N3  UNL     1      20.297  -2.298  11.758  1.00  0.00    -0.352 N 
ATOM     14  H3  UNL     1      20.994  -2.042  12.457  1.00  0.00     0.163 HD
BRANCH  13  15
HETATM   15  C6  UNL     1      18.949  -2.499  12.141  1.00  0.00     0.349 C 
HETATM   16  O1  UNL     1      18.050  -2.839  11.334  1.00  0.00    -0.284 OA
ENDBRANCH  13  15
ENDBRANCH  12  13
ENDBRANCH  10  12
ENDBRANCH   4   9
TORSDOF 4
ENDMDL
MODEL 2
REMARK VINA RESULT: -5.923138330      2.491      2.948
REMARK  4 active torsions:
REMARK  status: ('A' for Active; 'I' for Inactive)
REMARK    1  A    between atoms: C3_4  and  C4_5 
REMARK    2  A    between atoms: N2_6  and  C5_8 
REMARK    3  A    between atoms: C5_8  and  N3_9 
REMARK    4  A    between atoms: N3_9  and  C6_11 
ROOT
HETATM    1  N1  UNL     1      24.171  -4.580   8.029  1.00  0.00    -0.083 NA
HETATM    2  C1  UNL     1      23.457  -4.052   9.145  1.00  0.00     0.118 A 
HETATM    3  C2  UNL     1      22.156  -4.332   9.483  1.00  0.00     0.061 A 
HETATM    4  C3  UNL     1      21.891  -3.604  10.622  1.00  0.00     0.023 A 
HETATM    5  C7  UNL     1      23.049  -2.897  10.948  1.00  0.00     0.129 A 
HETATM    6  N4  UNL     1      23.136  -2.031  12.080  1.00  0.00    -0.082 NA
HETATM    7  N5  UNL     1      23.964  -3.195  10.034  1.00  0.00    -0.333 N 
ATOM      8  H5  UNL     1      24.915  -2.825  10.014  1.00  0.00     0.168 HD
ENDROOT
BRANCH   4   9
HETATM    9  C4  UNL     1      20.626  -3.589  11.344  1.00  0.00     0.099 C 
HETATM   10  N2  UNL     1      20.067  -2.476  11.724  1.00  0.00    -0.382 N 
ATOM     11  H2  UNL     1      20.521  -1.587  11.514  1.00  0.00     0.160 HD
BRANCH  10  12
HETATM   12  C5  UNL     1      18.809  -2.485  12.440  1.00  0.00     0.245 C 
BRANCH  12  13
HETATM   13  N3  UNL     1      17.775  -1.770  11.717  1.00  0.00    -0.352 N 
ATOM     14  H3  UNL     1      17.488  -0.840  12.022  1.00  0.00     0.163 HD
BRANCH  13  15
HETATM   15  C6  UNL     1      17.164  -2.365  10.587  1.00  0.00     0.349 C 
HETATM   16  O1  UNL     1      17.787  -2.630   9.530  1.00  0.00    -0.284 OA
ENDBRANCH  13  15
ENDBRANCH  12  13
ENDBRANCH  10  12
ENDBRANCH   4   9
TORSDOF 4
ENDMDL
MODEL 3
REMARK VINA RESULT: -5.709846761      1.892      2.835
REMARK  4 active torsions:
REMARK  status: ('A' for Active; 'I' for Inactive)
REMARK    1  A    between atoms: C3_4  and  C4_5 
REMARK    2  A    between atoms: N2_6  and  C5_8 
REMARK    3  A    between atoms: C5_8  and  N3_9 
REMARK    4  A    between atoms: N3_9  and  C6_11 
ROOT
HETATM    1  N1  UNL     1      24.558  -4.581   8.111  1.00  0.00    -0.083 NA
HETATM    2  C1  UNL     1      23.596  -4.510   9.163  1.00  0.00     0.118 A 
HETATM    3  C2  UNL     1      22.958  -3.378   9.604  1.00  0.00     0.061 A 
HETATM    4  C3  UNL     1      22.126  -3.780  10.626  1.00  0.00     0.023 A 
HETATM    5  C7  UNL     1      22.284  -5.159  10.777  1.00  0.00     0.129 A 
HETATM    6  N4  UNL     1      21.570  -5.918  11.753  1.00  0.00    -0.082 NA
HETATM    7  N5  UNL     1      23.177  -5.556   9.878  1.00  0.00    -0.333 N 
ATOM      8  H5  UNL     1      23.494  -6.517   9.753  1.00  0.00     0.168 HD
ENDROOT
BRANCH   4   9
HETATM    9  C4  UNL     1      21.247  -2.912  11.396  1.00  0.00     0.099 C 
HETATM   10  N2  UNL     1      20.071  -3.305  11.792  1.00  0.00    -0.382 N 
ATOM     11  H2  UNL     1      19.749  -4.244  11.560  1.00  0.00     0.160 HD
BRANCH  10  12
HETATM   12  C5  UNL     1      19.214  -2.424  12.558  1.00  0.00     0.245 C 
BRANCH  12  13
HETATM   13  N3  UNL     1      17.811  -2.710  12.330  1.00  0.00    -0.352 N 
ATOM     14  H3  UNL     1      17.247  -3.127  13.070  1.00  0.00     0.163 HD
BRANCH  13  15
HETATM   15  C6  UNL     1      17.224  -2.409  11.077  1.00  0.00     0.349 C 
HETATM   16  O1  UNL     1      17.732  -2.752   9.982  1.00  0.00    -0.284 OA
ENDBRANCH  13  15
ENDBRANCH  12  13
ENDBRANCH  10  12
ENDBRANCH   4   9
TORSDOF 4
ENDMDL
MODEL 4
REMARK VINA RESULT: -5.462264580      2.635      3.056
REMARK  4 active torsions:
REMARK  status: ('A' for Active; 'I' for Inactive)
REMARK    1  A    between atoms: C3_4  and  C4_5 
REMARK    2  A    between atoms: N2_6  and  C5_8 
REMARK    3  A    between atoms: C5_8  and  N3_9 
REMARK    4  A    between atoms: N3_9  and  C6_11 
ROOT
HETATM    1  N1  UNL     1      24.270  -4.574   8.046  1.00  0.00    -0.083 NA
HETATM    2  C1  UNL     1      23.511  -4.049   9.134  1.00  0.00     0.118 A 
HETATM    3  C2  UNL     1      22.179  -4.275   9.379  1.00  0.00     0.061 A 
HETATM    4  C3  UNL     1      21.875  -3.574  10.525  1.00  0.00     0.023 A 
HETATM    5  C7  UNL     1      23.042  -2.936  10.949  1.00  0.00     0.129 A 
HETATM    6  N4  UNL     1      23.097  -2.115  12.116  1.00  0.00    -0.082 NA
HETATM    7  N5  UNL     1      24.000  -3.249  10.084  1.00  0.00    -0.333 N 
ATOM      8  H5  UNL     1      24.966  -2.926  10.138  1.00  0.00     0.168 HD
ENDROOT
BRANCH   4   9
HETATM    9  C4  UNL     1      20.569  -3.520  11.166  1.00  0.00     0.099 C 
HETATM   10  N2  UNL     1      20.060  -2.400  11.592  1.00  0.00    -0.382 N 
ATOM     11  H2  UNL     1      20.585  -1.533  11.478  1.00  0.00     0.160 HD
BRANCH  10  12
HETATM   12  C5  UNL     1      18.759  -2.370  12.226  1.00  0.00     0.245 C 
BRANCH  12  13
HETATM   13  N3  UNL     1      18.864  -2.163  13.657  1.00  0.00    -0.352 N 
ATOM     14  H3  UNL     1      19.519  -1.474  14.027  1.00  0.00     0.163 HD
BRANCH  13  15
HETATM   15  C6  UNL     1      18.058  -2.920  14.541  1.00  0.00     0.349 C 
HETATM   16  O1  UNL     1      16.812  -2.790  14.614  1.00  0.00    -0.284 OA
ENDBRANCH  13  15
ENDBRANCH  12  13
ENDBRANCH  10  12
ENDBRANCH   4   9
TORSDOF 4
ENDMDL
MODEL 5
REMARK VINA RESULT: -5.417004611      2.255      3.359
REMARK  4 active torsions:
REMARK  status: ('A' for Active; 'I' for Inactive)
REMARK    1  A    between atoms: C3_4  and  C4_5 
REMARK    2  A    between atoms: N2_6  and  C5_8 
REMARK    3  A    between atoms: C5_8  and  N3_9 
REMARK    4  A    between atoms: N3_9  and  C6_11 
ROOT
HETATM    1  N1  UNL     1      24.617  -4.613   9.532  1.00  0.00    -0.083 NA
HETATM    2  C1  UNL     1      23.335  -4.047   9.802  1.00  0.00     0.118 A 
HETATM    3  C2  UNL     1      22.936  -3.468  10.980  1.00  0.00     0.061 A 
HETATM    4  C3  UNL     1      21.632  -3.066  10.786  1.00  0.00     0.023 A 
HETATM    5  C7  UNL     1      21.273  -3.417   9.484  1.00  0.00     0.129 A 
HETATM    6  N4  UNL     1      19.982  -3.151   8.937  1.00  0.00    -0.082 NA
HETATM    7  N5  UNL     1      22.327  -4.004   8.929  1.00  0.00    -0.333 N 
ATOM      8  H5  UNL     1      22.361  -4.367   7.976  1.00  0.00     0.168 HD
ENDROOT
BRANCH   4   9
HETATM    9  C4  UNL     1      20.794  -2.398  11.773  1.00  0.00     0.099 C 
HETATM   10  N2  UNL     1      19.633  -2.873  12.121  1.00  0.00    -0.382 N 
ATOM     11  H2  UNL     1      19.294  -3.735  11.695  1.00  0.00     0.160 HD
BRANCH  10  12
HETATM   12  C5  UNL     1      18.818  -2.191  13.104  1.00  0.00     0.245 C 
BRANCH  12  13
HETATM   13  N3  UNL     1      17.575  -1.712  12.531  1.00  0.00    -0.352 N 
ATOM     14  H3  UNL     1      17.119  -0.886  12.917  1.00  0.00     0.163 HD
BRANCH  13  15
HETATM   15  C6  UNL     1      16.996  -2.394  11.434  1.00  0.00     0.349 C 
HETATM   16  O1  UNL     1      17.132  -2.021  10.244  1.00  0.00    -0.284 OA
ENDBRANCH  13  15
ENDBRANCH  12  13
ENDBRANCH  10  12
ENDBRANCH   4   9
TORSDOF 4
ENDMDL
