MODEL 1
REMARK VINA RESULT: -6.672247519      0.000      0.000
REMARK  5 active torsions:
REMARK  status: ('A' for Active; 'I' for Inactive)
REMARK    1  A    between atoms: C2_2  and  O2_4 
REMARK    2  A    between atoms: O2_4  and  N1_5 
REMARK    3  A    between atoms: N1_5  and  C3_7 
REMARK    4  A    between atoms: C3_7  and  C4_11 
REMARK    5  A    between atoms: C7_14  and  C8_15 
ROOT
HETATM    1  C4  UNL     1      22.723  -3.750  11.163  1.00  0.00     0.009 A 
HETATM    2  C5  UNL     1      22.381  -4.845  11.945  1.00  0.00     0.016 A 
HETATM    3  C6  UNL     1      23.086  -6.039  11.944  1.00  0.00     0.016 A 
HETATM    4  C7  UNL     1      24.182  -6.151  11.126  1.00  0.00     0.004 A 
HETATM    5  C9  UNL     1      24.551  -5.056  10.321  1.00  0.00     0.016 A 
HETATM    6  C10 UNL     1      23.824  -3.891  10.352  1.00  0.00     0.016 A 
ENDROOT
BRANCH   1   7
HETATM    7  C3  UNL     1      21.911  -2.554  11.249  1.00  0.00     0.129 C 
HETATM    8  N2  UNL     1      22.274  -1.500  10.640  1.00  0.00    -0.383 N 
ATOM      9  H22 UNL     1      21.702  -0.657  10.701  1.00  0.00     0.157 HD
ATOM     10  H21 UNL     1      23.137  -1.513  10.098  1.00  0.00     0.157 HD
BRANCH   7  11
HETATM   11  N1  UNL     1      20.711  -2.536  12.004  1.00  0.00    -0.241 N 
ATOM     12  H1  UNL     1      20.740  -2.277  12.990  1.00  0.00     0.196 HD
BRANCH  11  13
HETATM   13  O2  UNL     1      19.505  -2.865  11.421  1.00  0.00    -0.198 OA
BRANCH  13  14
HETATM   14  C2  UNL     1      18.289  -2.442  11.915  1.00  0.00     0.277 C 
HETATM   15  C1  UNL     1      18.001  -2.516  13.363  1.00  0.00     0.128 C 
HETATM   16  O1  UNL     1      17.424  -1.992  11.138  1.00  0.00    -0.264 OA
ENDBRANCH  13  14
ENDBRANCH  11  13
ENDBRANCH   7  11
ENDBRANCH   1   7
BRANCH   4  17
HETATM   17  C8  UNL     1      24.939  -7.370  11.093  1.00  0.00     0.120 C 
HETATM   18  N3  UNL     1      25.981  -7.558  11.785  1.00  0.00    -0.387 N 
ATOM     19  H32 UNL     1      26.295  -6.803  12.393  1.00  0.00     0.157 HD
ATOM     20  H31 UNL     1      26.520  -8.424  11.762  1.00  0.00     0.157 HD
HETATM   21  N4  UNL     1      24.504  -8.419  10.248  1.00  0.00    -0.082 NA
ENDBRANCH   4  17
TORSDOF 5
ENDMDL
MODEL 2
REMARK VINA RESULT: -6.486984124      1.259      1.574
REMARK  5 active torsions:
REMARK  status: ('A' for Active; 'I' for Inactive)
REMARK    1  A    between atoms: C2_2  and  O2_4 
REMARK    2  A    between atoms: O2_4  and  N1_5 
REMARK    3  A    between atoms: N1_5  and  C3_7 
REMARK    4  A    between atoms: C3_7  and  C4_11 
REMARK    5  A    between atoms: C7_14  and  C8_15 
ROOT
HETATM    1  C4  UNL     1      22.704  -3.741  11.207  1.00  0.00     0.009 A 
HETATM    2  C5  UNL     1      22.318  -4.871  11.917  1.00  0.00     0.016 A 
HETATM    3  C6  UNL     1      23.033  -6.059  11.916  1.00  0.00     0.016 A 
HETATM    4  C7  UNL     1      24.186  -6.128  11.174  1.00  0.00     0.004 A 
HETATM    5  C9  UNL     1      24.600  -4.998  10.444  1.00  0.00     0.016 A 
HETATM    6  C10 UNL     1      23.862  -3.840  10.473  1.00  0.00     0.016 A 
ENDROOT
BRANCH   1   7
HETATM    7  C3  UNL     1      21.876  -2.555  11.285  1.00  0.00     0.129 C 
HETATM    8  N2  UNL     1      22.242  -1.490  10.697  1.00  0.00    -0.383 N 
ATOM      9  H22 UNL     1      21.659  -0.656  10.752  1.00  0.00     0.157 HD
ATOM     10  H21 UNL     1      23.119  -1.487  10.177  1.00  0.00     0.157 HD
BRANCH   7  11
HETATM   11  N1  UNL     1      20.657  -2.559  12.009  1.00  0.00    -0.241 N 
ATOM     12  H1  UNL     1      19.778  -2.716  11.515  1.00  0.00     0.196 HD
BRANCH  11  13
HETATM   13  O2  UNL     1      20.644  -2.354  13.372  1.00  0.00    -0.198 OA
BRANCH  13  14
HETATM   14  C2  UNL     1      19.703  -2.914  14.210  1.00  0.00     0.277 C 
HETATM   15  C1  UNL     1      18.278  -2.951  13.818  1.00  0.00     0.128 C 
HETATM   16  O1  UNL     1      20.052  -3.394  15.307  1.00  0.00    -0.264 OA
ENDBRANCH  13  14
ENDBRANCH  11  13
ENDBRANCH   7  11
ENDBRANCH   1   7
BRANCH   4  17
HETATM   17  C8  UNL     1      24.956  -7.339  11.145  1.00  0.00     0.120 C 
HETATM   18  N3  UNL     1      26.017  -7.503  11.814  1.00  0.00    -0.387 N 
ATOM     19  H32 UNL     1      26.337  -6.733  12.400  1.00  0.00     0.157 HD
ATOM     20  H31 UNL     1      26.564  -8.364  11.794  1.00  0.00     0.157 HD
HETATM   21  N4  UNL     1      24.511  -8.409  10.331  1.00  0.00    -0.082 NA
ENDBRANCH   4  17
TORSDOF 5
ENDMDL
MODEL 3
REMARK VINA RESULT: -6.460511460      1.670      2.367
REMARK  5 active torsions:
REMARK  status: ('A' for Active; 'I' for Inactive)
REMARK    1  A    between atoms: C2_2  and  O2_4 
REMARK    2  A    between atoms: O2_4  and  N1_5 
REMARK    3  A    between atoms: N1_5  and  C3_7 
REMARK    4  A    between atoms: C3_7  and  C4_11 
REMARK    5  A    between atoms: C7_14  and  C8_15 
ROOT
HETATM    1  C4  UNL     1      24.068  -4.605  11.512  1.00  0.00     0.009 A 
HETATM    2  C5  UNL     1      25.220  -5.251  11.082  1.00  0.00     0.016 A 
HETATM    3  C6  UNL     1      25.317  -6.626  10.925  1.00  0.00     0.016 A 
HETATM    4  C7  UNL     1      24.217  -7.396  11.210  1.00  0.00     0.004 A 
HETATM    5  C9  UNL     1      23.035  -6.767  11.648  1.00  0.00     0.016 A 
HETATM    6  C10 UNL     1      22.983  -5.402  11.790  1.00  0.00     0.016 A 
ENDROOT
BRANCH   1   7
HETATM    7  C3  UNL     1      24.086  -3.163  11.637  1.00  0.00     0.129 C 
HETATM    8  N2  UNL     1      25.174  -2.566  11.907  1.00  0.00    -0.383 N 
ATOM      9  H22 UNL     1      25.186  -1.550  11.995  1.00  0.00     0.157 HD
ATOM     10  H21 UNL     1      26.023  -3.116  12.033  1.00  0.00     0.157 HD
BRANCH   7  11
HETATM   11  N1  UNL     1      22.904  -2.398  11.462  1.00  0.00    -0.241 N 
ATOM     12  H1  UNL     1      22.698  -1.991  10.549  1.00  0.00     0.196 HD
BRANCH  11  13
HETATM   13  O2  UNL     1      22.031  -2.197  12.510  1.00  0.00    -0.198 OA
BRANCH  13  14
HETATM   14  C2  UNL     1      20.707  -2.579  12.472  1.00  0.00     0.277 C 
HETATM   15  C1  UNL     1      19.889  -2.569  13.703  1.00  0.00     0.128 C 
HETATM   16  O1  UNL     1      20.192  -2.936  11.394  1.00  0.00    -0.264 OA
ENDBRANCH  13  14
ENDBRANCH  11  13
ENDBRANCH   7  11
ENDBRANCH   1   7
BRANCH   4  17
HETATM   17  C8  UNL     1      24.274  -8.822  11.062  1.00  0.00     0.120 C 
HETATM   18  N3  UNL     1      25.274  -9.516  11.405  1.00  0.00    -0.387 N 
ATOM     19  H32 UNL     1      26.078  -9.033  11.805  1.00  0.00     0.157 HD
ATOM     20  H31 UNL     1      25.315 -10.530  11.300  1.00  0.00     0.157 HD
HETATM   21  N4  UNL     1      23.158  -9.493  10.505  1.00  0.00    -0.082 NA
ENDBRANCH   4  17
TORSDOF 5
ENDMDL
MODEL 4
REMARK VINA RESULT: -6.438856372      4.092      5.972
REMARK  5 active torsions:
REMARK  status: ('A' for Active; 'I' for Inactive)
REMARK    1  A    between atoms: C2_2  and  O2_4 
REMARK    2  A    between atoms: O2_4  and  N1_5 
REMARK    3  A    between atoms: N1_5  and  C3_7 
REMARK    4  A    between atoms: C3_7  and  C4_11 
REMARK    5  A    between atoms: C7_14  and  C8_15 
ROOT
HETATM    1  C4  UNL     1      19.529  -3.391  14.795  1.00  0.00     0.009 A 
HETATM    2  C5  UNL     1      19.846  -4.727  14.589  1.00  0.00     0.016 A 
HETATM    3  C6  UNL     1      20.208  -5.596  15.607  1.00  0.00     0.016 A 
HETATM    4  C7  UNL     1      20.258  -5.115  16.891  1.00  0.00     0.004 A 
HETATM    5  C9  UNL     1      19.942  -3.763  17.129  1.00  0.00     0.016 A 
HETATM    6  C10 UNL     1      19.588  -2.936  16.092  1.00  0.00     0.016 A 
ENDROOT
BRANCH   1   7
HETATM    7  C3  UNL     1      19.164  -2.578  13.653  1.00  0.00     0.129 C 
HETATM    8  N2  UNL     1      17.952  -2.241  13.480  1.00  0.00    -0.383 N 
ATOM      9  H22 UNL     1      17.696  -1.668  12.676  1.00  0.00     0.157 HD
ATOM     10  H21 UNL     1      17.251  -2.549  14.152  1.00  0.00     0.157 HD
BRANCH   7  11
HETATM   11  N1  UNL     1      20.140  -2.149  12.718  1.00  0.00    -0.241 N 
ATOM     12  H1  UNL     1      20.462  -1.181  12.734  1.00  0.00     0.196 HD
BRANCH  11  13
HETATM   13  O2  UNL     1      20.659  -3.024  11.787  1.00  0.00    -0.198 OA
BRANCH  13  14
HETATM   14  C2  UNL     1      21.979  -3.004  11.388  1.00  0.00     0.277 C 
HETATM   15  C1  UNL     1      22.818  -4.215  11.512  1.00  0.00     0.128 C 
HETATM   16  O1  UNL     1      22.472  -1.959  10.918  1.00  0.00    -0.264 OA
ENDBRANCH  13  14
ENDBRANCH  11  13
ENDBRANCH   7  11
ENDBRANCH   1   7
BRANCH   4  17
HETATM   17  C8  UNL     1      20.628  -5.980  17.975  1.00  0.00     0.120 C 
HETATM   18  N3  UNL     1      19.820  -6.351  18.874  1.00  0.00    -0.387 N 
ATOM     19  H32 UNL     1      18.859  -6.014  18.823  1.00  0.00     0.157 HD
ATOM     20  H31 UNL     1      20.083  -6.966  19.644  1.00  0.00     0.157 HD
HETATM   21  N4  UNL     1      21.963  -6.448  18.046  1.00  0.00    -0.082 NA
ENDBRANCH   4  17
TORSDOF 5
ENDMDL
MODEL 5
REMARK VINA RESULT: -6.408877610      4.140      5.973
REMARK  5 active torsions:
REMARK  status: ('A' for Active; 'I' for Inactive)
REMARK    1  A    between atoms: C2_2  and  O2_4 
REMARK    2  A    between atoms: O2_4  and  N1_5 
REMARK    3  A    between atoms: N1_5  and  C3_7 
REMARK    4  A    between atoms: C3_7  and  C4_11 
REMARK    5  A    between atoms: C7_14  and  C8_15 
ROOT
HETATM    1  C4  UNL     1      19.534  -3.521  14.726  1.00  0.00     0.009 A 
HETATM    2  C5  UNL     1      19.593  -3.032  16.025  1.00  0.00     0.016 A 
HETATM    3  C6  UNL     1      19.955  -3.803  17.119  1.00  0.00     0.016 A 
HETATM    4  C7  UNL     1      20.272  -5.123  16.914  1.00  0.00     0.004 A 
HETATM    5  C9  UNL     1      20.219  -5.645  15.607  1.00  0.00     0.016 A 
HETATM    6  C10 UNL     1      19.856  -4.846  14.551  1.00  0.00     0.016 A 
ENDROOT
BRANCH   1   7
HETATM    7  C3  UNL     1      19.143  -2.620  13.661  1.00  0.00     0.129 C 
HETATM    8  N2  UNL     1      17.932  -2.252  13.559  1.00  0.00    -0.383 N 
ATOM      9  H22 UNL     1      17.657  -1.617  12.810  1.00  0.00     0.157 HD
ATOM     10  H21 UNL     1      17.250  -2.599  14.232  1.00  0.00     0.157 HD
BRANCH   7  11
HETATM   11  N1  UNL     1      20.093  -2.136  12.726  1.00  0.00    -0.241 N 
ATOM     12  H1  UNL     1      19.791  -1.511  11.979  1.00  0.00     0.196 HD
BRANCH  11  13
HETATM   13  O2  UNL     1      21.419  -2.502  12.812  1.00  0.00    -0.198 OA
BRANCH  13  14
HETATM   14  C2  UNL     1      22.179  -2.849  11.715  1.00  0.00     0.277 C 
HETATM   15  C1  UNL     1      22.729  -4.215  11.586  1.00  0.00     0.128 C 
HETATM   16  O1  UNL     1      22.406  -2.007  10.824  1.00  0.00    -0.264 OA
ENDBRANCH  13  14
ENDBRANCH  11  13
ENDBRANCH   7  11
ENDBRANCH   1   7
BRANCH   4  17
HETATM   17  C8  UNL     1      20.651  -5.956  18.019  1.00  0.00     0.120 C 
HETATM   18  N3  UNL     1      19.849  -6.304  18.933  1.00  0.00    -0.387 N 
ATOM     19  H32 UNL     1      18.887  -5.971  18.879  1.00  0.00     0.157 HD
ATOM     20  H31 UNL     1      20.118  -6.896  19.719  1.00  0.00     0.157 HD
HETATM   21  N4  UNL     1      21.987  -6.418  18.095  1.00  0.00    -0.082 NA
ENDBRANCH   4  17
TORSDOF 5
ENDMDL
