MODEL 1
REMARK VINA RESULT: -6.946433761      0.000      0.000
REMARK  4 active torsions:
REMARK  status: ('A' for Active; 'I' for Inactive)
REMARK    1  A    between atoms: N1_2  and  C2_5 
REMARK    2  A    between atoms: C2_5  and  C3_6 
REMARK    3  A    between atoms: C5_8  and  N2_9 
REMARK       I    between atoms: N2_9  and  C6_11 
REMARK    4  A    between atoms: C8_16  and  N4_17 
ROOT
HETATM    1  C3  UNL     1       0.509  -3.451  13.116  1.00  0.00     0.055 A 
HETATM    2  C4  UNL     1       0.568  -4.703  12.520  1.00  0.00     0.076 A 
HETATM    3  C5  UNL     1      -0.140  -5.775  13.023  1.00  0.00     0.125 A 
HETATM    4  N3  UNL     1      -0.886  -5.536  14.117  1.00  0.00    -0.177 N 
ATOM      5  H3  UNL     1      -1.426  -6.300  14.522  1.00  0.00     0.185 HD
HETATM    6  C8  UNL     1      -0.942  -4.306  14.701  1.00  0.00     0.677 A 
HETATM    7  N5  UNL     1      -0.250  -3.264  14.208  1.00  0.00    -0.194 N 
ATOM      8  H5  UNL     1      -0.301  -2.348  14.654  1.00  0.00     0.184 HD
ENDROOT
BRANCH   1   9
HETATM    9  C2  UNL     1       1.280  -2.340  12.547  1.00  0.00     0.289 C 
BRANCH   9  10
HETATM   10  N1  UNL     1       2.710  -2.571  12.539  1.00  0.00    -0.074 N 
HETATM   11  C1  UNL     1       3.107  -2.650  11.127  1.00  0.00     0.267 C 
ATOM     12  H12 UNL     1       2.991  -3.385  13.085  1.00  0.00     0.277 HD
ATOM     13  H11 UNL     1       3.235  -1.877  13.069  1.00  0.00     0.277 HD
ENDBRANCH   9  10
ENDBRANCH   1   9
BRANCH   3  14
HETATM   14  N2  UNL     1      -0.083  -6.942  12.464  1.00  0.00    -0.313 N 
HETATM   15  C6  UNL     1      -0.253  -8.148  13.167  1.00  0.00     0.219 C 
HETATM   16  C7  UNL     1      -1.438  -9.014  12.876  1.00  0.00     0.117 C 
HETATM   17  O1  UNL     1       0.576  -8.536  14.056  1.00  0.00    -0.274 OA
ATOM     18  H2  UNL     1       0.095  -6.988  11.461  1.00  0.00     0.170 HD
ENDBRANCH   3  14
BRANCH   6  19
HETATM   19  N4  UNL     1      -1.668  -4.138  15.741  1.00  0.00    -0.234 N 
ATOM     20  H42 UNL     1      -2.291  -4.888  16.040  1.00  0.00     0.174 HD
ATOM     21  H41 UNL     1      -1.612  -3.258  16.253  1.00  0.00     0.174 HD
ENDBRANCH   6  19
TORSDOF 4
ENDMDL
MODEL 2
REMARK VINA RESULT: -6.512594700      1.955      4.611
REMARK  4 active torsions:
REMARK  status: ('A' for Active; 'I' for Inactive)
REMARK    1  A    between atoms: N1_2  and  C2_5 
REMARK    2  A    between atoms: C2_5  and  C3_6 
REMARK    3  A    between atoms: C5_8  and  N2_9 
REMARK       I    between atoms: N2_9  and  C6_11 
REMARK    4  A    between atoms: C8_16  and  N4_17 
ROOT
HETATM    1  C3  UNL     1      -1.127  -5.679  13.180  1.00  0.00     0.055 A 
HETATM    2  C4  UNL     1      -0.303  -4.705  12.633  1.00  0.00     0.076 A 
HETATM    3  C5  UNL     1      -0.033  -3.530  13.305  1.00  0.00     0.125 A 
HETATM    4  N3  UNL     1      -0.611  -3.386  14.510  1.00  0.00    -0.177 N 
ATOM      5  H3  UNL     1      -0.438  -2.533  15.042  1.00  0.00     0.185 HD
HETATM    6  C8  UNL     1      -1.420  -4.343  15.045  1.00  0.00     0.677 A 
HETATM    7  N5  UNL     1      -1.680  -5.487  14.388  1.00  0.00    -0.194 N 
ATOM      8  H5  UNL     1      -2.287  -6.196  14.800  1.00  0.00     0.184 HD
ENDROOT
BRANCH   1   9
HETATM    9  C2  UNL     1      -1.387  -6.913  12.431  1.00  0.00     0.289 C 
BRANCH   9  10
HETATM   10  N1  UNL     1      -1.302  -8.111  13.241  1.00  0.00    -0.074 N 
HETATM   11  C1  UNL     1       0.119  -8.290  13.567  1.00  0.00     0.267 C 
ATOM     12  H12 UNL     1      -1.721  -8.929  12.800  1.00  0.00     0.277 HD
ATOM     13  H11 UNL     1      -1.905  -8.088  14.063  1.00  0.00     0.277 HD
ENDBRANCH   9  10
ENDBRANCH   1   9
BRANCH   3  14
HETATM   14  N2  UNL     1       0.736  -2.623  12.791  1.00  0.00    -0.313 N 
HETATM   15  C6  UNL     1       2.123  -2.786  12.624  1.00  0.00     0.219 C 
HETATM   16  C7  UNL     1       2.702  -2.838  11.246  1.00  0.00     0.117 C 
HETATM   17  O1  UNL     1       2.916  -2.893  13.618  1.00  0.00    -0.274 OA
ATOM     18  H2  UNL     1       0.313  -1.744  12.492  1.00  0.00     0.170 HD
ENDBRANCH   3  14
BRANCH   6  19
HETATM   19  N4  UNL     1      -1.942  -4.151  16.197  1.00  0.00    -0.234 N 
ATOM     20  H42 UNL     1      -2.924  -4.383  16.345  1.00  0.00     0.174 HD
ATOM     21  H41 UNL     1      -1.368  -3.767  16.948  1.00  0.00     0.174 HD
ENDBRANCH   6  19
TORSDOF 4
ENDMDL
MODEL 3
REMARK VINA RESULT: -6.413897932      1.661      1.978
REMARK  4 active torsions:
REMARK  status: ('A' for Active; 'I' for Inactive)
REMARK    1  A    between atoms: N1_2  and  C2_5 
REMARK    2  A    between atoms: C2_5  and  C3_6 
REMARK    3  A    between atoms: C5_8  and  N2_9 
REMARK       I    between atoms: N2_9  and  C6_11 
REMARK    4  A    between atoms: C8_16  and  N4_17 
ROOT
HETATM    1  C3  UNL     1       0.822  -3.371  12.994  1.00  0.00     0.055 A 
HETATM    2  C4  UNL     1       0.545  -4.596  13.587  1.00  0.00     0.076 A 
HETATM    3  C5  UNL     1      -0.729  -5.125  13.583  1.00  0.00     0.125 A 
HETATM    4  N3  UNL     1      -1.679  -4.392  12.976  1.00  0.00    -0.177 N 
ATOM      5  H3  UNL     1      -2.635  -4.745  12.949  1.00  0.00     0.185 HD
HETATM    6  C8  UNL     1      -1.404  -3.189  12.395  1.00  0.00     0.677 A 
HETATM    7  N5  UNL     1      -0.161  -2.676  12.400  1.00  0.00    -0.194 N 
ATOM      8  H5  UNL     1       0.031  -1.776  11.961  1.00  0.00     0.184 HD
ENDROOT
BRANCH   1   9
HETATM    9  C2  UNL     1       2.192  -2.846  13.021  1.00  0.00     0.289 C 
BRANCH   9  10
HETATM   10  N1  UNL     1       2.637  -2.323  11.746  1.00  0.00    -0.074 N 
HETATM   11  C1  UNL     1       4.025  -2.773  11.577  1.00  0.00     0.267 C 
ATOM     12  H12 UNL     1       2.526  -1.313  11.661  1.00  0.00     0.277 HD
ATOM     13  H11 UNL     1       2.031  -2.582  10.968  1.00  0.00     0.277 HD
ENDBRANCH   9  10
ENDBRANCH   1   9
BRANCH   3  14
HETATM   14  N2  UNL     1      -0.984  -6.268  14.137  1.00  0.00    -0.313 N 
HETATM   15  C6  UNL     1      -1.046  -7.479  13.425  1.00  0.00     0.219 C 
HETATM   16  C7  UNL     1      -0.031  -8.546  13.688  1.00  0.00     0.117 C 
HETATM   17  O1  UNL     1      -1.948  -7.704  12.550  1.00  0.00    -0.274 OA
ATOM     18  H2  UNL     1      -1.149  -6.290  15.144  1.00  0.00     0.170 HD
ENDBRANCH   3  14
BRANCH   6  19
HETATM   19  N4  UNL     1      -2.349  -2.535  11.832  1.00  0.00    -0.234 N 
ATOM     20  H42 UNL     1      -2.182  -2.099  10.926  1.00  0.00     0.174 HD
ATOM     21  H41 UNL     1      -3.253  -2.462  12.299  1.00  0.00     0.174 HD
ENDBRANCH   6  19
TORSDOF 4
ENDMDL
MODEL 4
REMARK VINA RESULT: -6.407209038      1.926      4.815
REMARK  4 active torsions:
REMARK  status: ('A' for Active; 'I' for Inactive)
REMARK    1  A    between atoms: N1_2  and  C2_5 
REMARK    2  A    between atoms: C2_5  and  C3_6 
REMARK    3  A    between atoms: C5_8  and  N2_9 
REMARK       I    between atoms: N2_9  and  C6_11 
REMARK    4  A    between atoms: C8_16  and  N4_17 
ROOT
HETATM    1  C3  UNL     1       0.183  -5.688  12.934  1.00  0.00     0.055 A 
HETATM    2  C4  UNL     1       0.983  -4.702  12.372  1.00  0.00     0.076 A 
HETATM    3  C5  UNL     1       0.947  -3.400  12.826  1.00  0.00     0.125 A 
HETATM    4  N3  UNL     1       0.100  -3.144  13.838  1.00  0.00    -0.177 N 
ATOM      5  H3  UNL     1       0.042  -2.194  14.205  1.00  0.00     0.185 HD
HETATM    6  C8  UNL     1      -0.685  -4.113  14.388  1.00  0.00     0.677 A 
HETATM    7  N5  UNL     1      -0.648  -5.381  13.943  1.00  0.00    -0.194 N 
ATOM      8  H5  UNL     1      -1.239  -6.097  14.365  1.00  0.00     0.184 HD
ENDROOT
BRANCH   1   9
HETATM    9  C2  UNL     1       0.253  -7.060  12.420  1.00  0.00     0.289 C 
BRANCH   9  10
HETATM   10  N1  UNL     1      -0.072  -8.067  13.409  1.00  0.00    -0.074 N 
HETATM   11  C1  UNL     1      -1.267  -8.761  12.915  1.00  0.00     0.267 C 
ATOM     12  H12 UNL     1      -0.183  -7.689  14.350  1.00  0.00     0.277 HD
ATOM     13  H11 UNL     1       0.704  -8.695  13.618  1.00  0.00     0.277 HD
ENDBRANCH   9  10
ENDBRANCH   1   9
BRANCH   3  14
HETATM   14  N2  UNL     1       1.695  -2.483  12.299  1.00  0.00    -0.313 N 
HETATM   15  C6  UNL     1       3.007  -2.715  11.848  1.00  0.00     0.219 C 
HETATM   16  C7  UNL     1       3.320  -2.603  10.389  1.00  0.00     0.117 C 
HETATM   17  O1  UNL     1       3.952  -3.023  12.647  1.00  0.00    -0.274 OA
ATOM     18  H2  UNL     1       1.311  -1.542  12.205  1.00  0.00     0.170 HD
ENDBRANCH   3  14
BRANCH   6  19
HETATM   19  N4  UNL     1      -1.473  -3.810  15.349  1.00  0.00    -0.234 N 
ATOM     20  H42 UNL     1      -1.375  -4.289  16.244  1.00  0.00     0.174 HD
ATOM     21  H41 UNL     1      -2.186  -3.095  15.204  1.00  0.00     0.174 HD
ENDBRANCH   6  19
TORSDOF 4
ENDMDL
MODEL 5
REMARK VINA RESULT: -5.804280212      3.742      6.449
REMARK  4 active torsions:
REMARK  status: ('A' for Active; 'I' for Inactive)
REMARK    1  A    between atoms: N1_2  and  C2_5 
REMARK    2  A    between atoms: C2_5  and  C3_6 
REMARK    3  A    between atoms: C5_8  and  N2_9 
REMARK       I    between atoms: N2_9  and  C6_11 
REMARK    4  A    between atoms: C8_16  and  N4_17 
ROOT
HETATM    1  C3  UNL     1       2.545  -2.829  12.028  1.00  0.00     0.055 A 
HETATM    2  C4  UNL     1       2.688  -2.746  10.649  1.00  0.00     0.076 A 
HETATM    3  C5  UNL     1       3.919  -2.523  10.065  1.00  0.00     0.125 A 
HETATM    4  N3  UNL     1       4.962  -2.393  10.903  1.00  0.00    -0.177 N 
ATOM      5  H3  UNL     1       5.890  -2.228  10.514  1.00  0.00     0.185 HD
HETATM    6  C8  UNL     1       4.819  -2.474  12.256  1.00  0.00     0.677 A 
HETATM    7  N5  UNL     1       3.619  -2.692  12.822  1.00  0.00    -0.194 N 
ATOM      8  H5  UNL     1       3.526  -2.751  13.836  1.00  0.00     0.184 HD
ENDROOT
BRANCH   1   9
HETATM    9  C2  UNL     1       1.218  -3.066  12.606  1.00  0.00     0.289 C 
BRANCH   9  10
HETATM   10  N1  UNL     1       1.247  -3.346  14.027  1.00  0.00    -0.074 N 
HETATM   11  C1  UNL     1       0.038  -4.127  14.319  1.00  0.00     0.267 C 
ATOM     12  H12 UNL     1       1.338  -2.509  14.602  1.00  0.00     0.277 HD
ATOM     13  H11 UNL     1       2.107  -3.802  14.332  1.00  0.00     0.277 HD
ENDBRANCH   9  10
ENDBRANCH   1   9
BRANCH   3  14
HETATM   14  N2  UNL     1       4.049  -2.446   8.779  1.00  0.00    -0.313 N 
HETATM   15  C6  UNL     1       5.014  -3.166   8.052  1.00  0.00     0.219 C 
HETATM   16  C7  UNL     1       4.579  -4.221   7.085  1.00  0.00     0.117 C 
HETATM   17  O1  UNL     1       6.264  -2.949   8.189  1.00  0.00    -0.274 OA
ATOM     18  H2  UNL     1       3.417  -1.831   8.266  1.00  0.00     0.170 HD
ENDBRANCH   3  14
BRANCH   6  19
HETATM   19  N4  UNL     1       5.849  -2.342  13.004  1.00  0.00    -0.234 N 
ATOM     20  H42 UNL     1       6.397  -3.167  13.249  1.00  0.00     0.174 HD
ATOM     21  H41 UNL     1       6.105  -1.414  13.343  1.00  0.00     0.174 HD
ENDBRANCH   6  19
TORSDOF 4
ENDMDL
