MODEL 1
REMARK VINA RESULT: -7.775474725      0.000      0.000
REMARK  3 active torsions:
REMARK  status: ('A' for Active; 'I' for Inactive)
REMARK    1  A    between atoms: C2_3  and  N5_11 
REMARK    2  A    between atoms: N2_4  and  N3_6 
REMARK       I    between atoms: N3_6  and  C3_8 
REMARK    3  A    between atoms: N5_11  and  C4_13 
ROOT
HETATM    1  N1  UNL     1      25.351  -4.726   7.756  1.00  0.00    -0.188 NA
HETATM    2  C1  UNL     1      24.711  -4.552   8.710  1.00  0.00     0.138 C 
HETATM    3  C2  UNL     1      23.932  -4.321   9.898  1.00  0.00     0.200 C 
HETATM    4  N2  UNL     1      24.021  -3.155  10.439  1.00  0.00    -0.273 N 
ATOM      5  H2  UNL     1      24.630  -2.461  10.006  1.00  0.00     0.189 HD
ENDROOT
BRANCH   3   6
HETATM    6  N5  UNL     1      23.120  -5.366  10.405  1.00  0.00    -0.339 N 
ATOM      7  H5  UNL     1      22.164  -5.470  10.064  1.00  0.00     0.163 HD
BRANCH   6   8
HETATM    8  C4  UNL     1      23.625  -6.286  11.397  1.00  0.00     0.286 C 
HETATM    9  C5  UNL     1      22.671  -7.459  11.449  1.00  0.00     0.056 C 
HETATM   10  C6  UNL     1      23.387  -8.469  10.579  1.00  0.00     0.031 C 
HETATM   11  C7  UNL     1      24.833  -8.243  11.042  1.00  0.00     0.235 C 
HETATM   12  N6  UNL     1      24.918  -6.790  11.055  1.00  0.00    -0.054 N 
ATOM     13  H62 UNL     1      25.276  -6.405  10.181  1.00  0.00     0.279 HD
ATOM     14  H61 UNL     1      25.655  -6.441  11.667  1.00  0.00     0.279 HD
ENDBRANCH   6   8
ENDBRANCH   3   6
BRANCH   4  15
HETATM   15  N3  UNL     1      23.318  -2.798  11.593  1.00  0.00    -0.252 N 
HETATM   16  C3  UNL     1      21.912  -2.664  11.618  1.00  0.00     0.347 C 
HETATM   17  N4  UNL     1      21.238  -2.301  12.810  1.00  0.00    -0.038 NA
HETATM   18  O1  UNL     1      21.271  -2.877  10.546  1.00  0.00    -0.249 OA
ATOM     19  H3  UNL     1      23.842  -2.628  12.451  1.00  0.00     0.191 HD
ENDBRANCH   4  15
TORSDOF 3
ENDMDL
MODEL 2
REMARK VINA RESULT: -7.040081026      0.875      1.278
REMARK  3 active torsions:
REMARK  status: ('A' for Active; 'I' for Inactive)
REMARK    1  A    between atoms: C2_3  and  N5_11 
REMARK    2  A    between atoms: N2_4  and  N3_6 
REMARK       I    between atoms: N3_6  and  C3_8 
REMARK    3  A    between atoms: N5_11  and  C4_13 
ROOT
HETATM    1  N1  UNL     1      25.368  -4.733   7.548  1.00  0.00    -0.188 NA
HETATM    2  C1  UNL     1      24.888  -4.538   8.588  1.00  0.00     0.138 C 
HETATM    3  C2  UNL     1      24.299  -4.276   9.874  1.00  0.00     0.200 C 
HETATM    4  N2  UNL     1      23.889  -3.074  10.097  1.00  0.00    -0.273 N 
ATOM      5  H2  UNL     1      24.001  -2.376   9.361  1.00  0.00     0.189 HD
ENDROOT
BRANCH   3   6
HETATM    6  N5  UNL     1      24.198  -5.331  10.816  1.00  0.00    -0.339 N 
ATOM      7  H5  UNL     1      24.976  -5.514  11.450  1.00  0.00     0.163 HD
BRANCH   6   8
HETATM    8  C4  UNL     1      23.011  -6.149  10.891  1.00  0.00     0.286 C 
HETATM    9  C5  UNL     1      23.421  -7.566  10.555  1.00  0.00     0.056 C 
HETATM   10  C6  UNL     1      23.566  -8.173  11.934  1.00  0.00     0.031 C 
HETATM   11  C7  UNL     1      22.351  -7.546  12.632  1.00  0.00     0.235 C 
HETATM   12  N6  UNL     1      22.445  -6.158  12.204  1.00  0.00    -0.054 N 
ATOM     13  H62 UNL     1      22.960  -5.574  12.862  1.00  0.00     0.279 HD
ATOM     14  H61 UNL     1      21.553  -5.666  12.256  1.00  0.00     0.279 HD
ENDBRANCH   6   8
ENDBRANCH   3   6
BRANCH   4  15
HETATM   15  N3  UNL     1      23.299  -2.685  11.302  1.00  0.00    -0.252 N 
HETATM   16  C3  UNL     1      21.899  -2.664  11.492  1.00  0.00     0.347 C 
HETATM   17  N4  UNL     1      21.341  -2.263  12.731  1.00  0.00    -0.038 NA
HETATM   18  O1  UNL     1      21.158  -3.013  10.527  1.00  0.00    -0.249 OA
ATOM     19  H3  UNL     1      23.903  -2.404  12.074  1.00  0.00     0.191 HD
ENDBRANCH   4  15
TORSDOF 3
ENDMDL
MODEL 3
REMARK VINA RESULT: -6.403074764      3.843      6.606
REMARK  3 active torsions:
REMARK  status: ('A' for Active; 'I' for Inactive)
REMARK    1  A    between atoms: C2_3  and  N5_11 
REMARK    2  A    between atoms: N2_4  and  N3_6 
REMARK       I    between atoms: N3_6  and  C3_8 
REMARK    3  A    between atoms: N5_11  and  C4_13 
ROOT
HETATM    1  N1  UNL     1      16.940  -1.186  12.285  1.00  0.00    -0.188 NA
HETATM    2  C1  UNL     1      17.858  -1.856  12.526  1.00  0.00     0.138 C 
HETATM    3  C2  UNL     1      19.001  -2.684  12.806  1.00  0.00     0.200 C 
HETATM    4  N2  UNL     1      20.048  -2.503  12.075  1.00  0.00    -0.273 N 
ATOM      5  H2  UNL     1      20.016  -1.792  11.345  1.00  0.00     0.189 HD
ENDROOT
BRANCH   3   6
HETATM    6  N5  UNL     1      18.924  -3.640  13.850  1.00  0.00    -0.339 N 
ATOM      7  H5  UNL     1      19.248  -4.593  13.684  1.00  0.00     0.163 HD
BRANCH   6   8
HETATM    8  C4  UNL     1      18.394  -3.284  15.145  1.00  0.00     0.286 C 
HETATM    9  C5  UNL     1      18.371  -4.544  15.982  1.00  0.00     0.056 C 
HETATM   10  C6  UNL     1      19.641  -4.393  16.791  1.00  0.00     0.031 C 
HETATM   11  C7  UNL     1      19.577  -2.892  17.111  1.00  0.00     0.235 C 
HETATM   12  N6  UNL     1      19.215  -2.327  15.819  1.00  0.00    -0.054 N 
ATOM     13  H62 UNL     1      20.025  -2.042  15.269  1.00  0.00     0.279 HD
ATOM     14  H61 UNL     1      18.775  -1.411  15.897  1.00  0.00     0.279 HD
ENDBRANCH   6   8
ENDBRANCH   3   6
BRANCH   4  15
HETATM   15  N3  UNL     1      21.224  -3.238  12.240  1.00  0.00    -0.252 N 
HETATM   16  C3  UNL     1      22.425  -2.915  11.570  1.00  0.00     0.347 C 
HETATM   17  N4  UNL     1      23.597  -3.686  11.766  1.00  0.00    -0.038 NA
HETATM   18  O1  UNL     1      22.425  -1.917  10.790  1.00  0.00    -0.249 OA
ATOM     19  H3  UNL     1      21.215  -4.041  12.870  1.00  0.00     0.191 HD
ENDBRANCH   4  15
TORSDOF 3
ENDMDL
MODEL 4
REMARK VINA RESULT: -6.349295290      1.977      2.380
REMARK  3 active torsions:
REMARK  status: ('A' for Active; 'I' for Inactive)
REMARK    1  A    between atoms: C2_3  and  N5_11 
REMARK    2  A    between atoms: N2_4  and  N3_6 
REMARK       I    between atoms: N3_6  and  C3_8 
REMARK    3  A    between atoms: N5_11  and  C4_13 
ROOT
HETATM    1  N1  UNL     1      25.265  -3.048  11.611  1.00  0.00    -0.188 NA
HETATM    2  C1  UNL     1      24.127  -3.281  11.578  1.00  0.00     0.138 C 
HETATM    3  C2  UNL     1      22.714  -3.551  11.547  1.00  0.00     0.200 C 
HETATM    4  N2  UNL     1      21.923  -2.535  11.587  1.00  0.00    -0.273 N 
ATOM      5  H2  UNL     1      22.330  -1.601  11.639  1.00  0.00     0.189 HD
ENDROOT
BRANCH   3   6
HETATM    6  N5  UNL     1      22.269  -4.895  11.475  1.00  0.00    -0.339 N 
ATOM      7  H5  UNL     1      21.337  -5.097  11.113  1.00  0.00     0.163 HD
BRANCH   6   8
HETATM    8  C4  UNL     1      23.115  -5.983  11.905  1.00  0.00     0.286 C 
HETATM    9  C5  UNL     1      22.251  -7.222  11.977  1.00  0.00     0.056 C 
HETATM   10  C6  UNL     1      22.570  -7.890  10.657  1.00  0.00     0.031 C 
HETATM   11  C7  UNL     1      24.084  -7.641  10.590  1.00  0.00     0.235 C 
HETATM   12  N6  UNL     1      24.173  -6.242  10.979  1.00  0.00    -0.054 N 
ATOM     13  H62 UNL     1      24.166  -5.606  10.181  1.00  0.00     0.279 HD
ATOM     14  H61 UNL     1      25.091  -5.989  11.343  1.00  0.00     0.279 HD
ENDBRANCH   6   8
ENDBRANCH   3   6
BRANCH   4  15
HETATM   15  N3  UNL     1      20.531  -2.656  11.564  1.00  0.00    -0.252 N 
HETATM   16  C3  UNL     1      19.746  -2.654  12.738  1.00  0.00     0.347 C 
HETATM   17  N4  UNL     1      18.337  -2.779  12.670  1.00  0.00    -0.038 NA
HETATM   18  O1  UNL     1      20.337  -2.538  13.852  1.00  0.00    -0.249 OA
ATOM     19  H3  UNL     1      20.063  -2.750  10.662  1.00  0.00     0.191 HD
ENDBRANCH   4  15
TORSDOF 3
ENDMDL
MODEL 5
REMARK VINA RESULT: -6.279615130      3.387      6.041
REMARK  3 active torsions:
REMARK  status: ('A' for Active; 'I' for Inactive)
REMARK    1  A    between atoms: C2_3  and  N5_11 
REMARK    2  A    between atoms: N2_4  and  N3_6 
REMARK       I    between atoms: N3_6  and  C3_8 
REMARK    3  A    between atoms: N5_11  and  C4_13 
ROOT
HETATM    1  N1  UNL     1      17.463  -2.485  11.414  1.00  0.00    -0.188 NA
HETATM    2  C1  UNL     1      18.559  -2.559  11.793  1.00  0.00     0.138 C 
HETATM    3  C2  UNL     1      19.923  -2.656  12.243  1.00  0.00     0.200 C 
HETATM    4  N2  UNL     1      20.844  -2.507  11.354  1.00  0.00    -0.273 N 
ATOM      5  H2  UNL     1      20.567  -2.331  10.388  1.00  0.00     0.189 HD
ENDROOT
BRANCH   3   6
HETATM    6  N5  UNL     1      20.182  -2.905  13.614  1.00  0.00    -0.339 N 
ATOM      7  H5  UNL     1      21.147  -2.969  13.940  1.00  0.00     0.163 HD
BRANCH   6   8
HETATM    8  C4  UNL     1      19.101  -3.067  14.558  1.00  0.00     0.286 C 
HETATM    9  C5  UNL     1      19.016  -4.540  14.893  1.00  0.00     0.056 C 
HETATM   10  C6  UNL     1      19.772  -4.596  16.203  1.00  0.00     0.031 C 
HETATM   11  C7  UNL     1      19.250  -3.314  16.867  1.00  0.00     0.235 C 
HETATM   12  N6  UNL     1      19.337  -2.356  15.775  1.00  0.00    -0.054 N 
ATOM     13  H62 UNL     1      20.216  -1.838  15.769  1.00  0.00     0.279 HD
ATOM     14  H61 UNL     1      18.713  -1.558  15.897  1.00  0.00     0.279 HD
ENDBRANCH   6   8
ENDBRANCH   3   6
BRANCH   4  15
HETATM   15  N3  UNL     1      22.207  -2.577  11.655  1.00  0.00    -0.252 N 
HETATM   16  C3  UNL     1      23.122  -3.321  10.877  1.00  0.00     0.347 C 
HETATM   17  N4  UNL     1      24.496  -3.365  11.217  1.00  0.00    -0.038 NA
HETATM   18  O1  UNL     1      22.680  -3.946   9.869  1.00  0.00    -0.249 OA
ATOM     19  H3  UNL     1      22.554  -2.071  12.470  1.00  0.00     0.191 HD
ENDBRANCH   4  15
TORSDOF 3
ENDMDL
