MODEL 1
REMARK VINA RESULT: -6.123416844      0.000      0.000
REMARK  4 active torsions:
REMARK  status: ('A' for Active; 'I' for Inactive)
REMARK    1  A    between atoms: C2_2  and  C3_6 
REMARK    2  A    between atoms: C4_7  and  C5_8 
REMARK       I    between atoms: C5_8  and  N2_10 
REMARK    3  A    between atoms: N2_10  and  N3_12 
REMARK    4  A    between atoms: N3_12  and  C6_14 
ROOT
HETATM    1  C5  UNL     1      21.998  -2.809  11.428  1.00  0.00     0.259 C 
HETATM    2  O1  UNL     1      22.803  -2.433  12.314  1.00  0.00    -0.267 OA
HETATM    3  N2  UNL     1      22.507  -3.270  10.186  1.00  0.00    -0.265 N 
ATOM      4  H2  UNL     1      21.864  -3.578   9.456  1.00  0.00     0.190 HD
ENDROOT
BRANCH   1   5
HETATM    5  C4  UNL     1      20.582  -2.764  11.689  1.00  0.00     0.077 C 
HETATM    6  C3  UNL     1      20.028  -2.595  12.859  1.00  0.00     0.029 C 
BRANCH   6   7
HETATM    7  C2  UNL     1      18.598  -2.561  13.036  1.00  0.00    -0.002 C 
HETATM    8  C1  UNL     1      17.692  -2.300  11.878  1.00  0.00     0.067 C 
HETATM    9  N1  UNL     1      18.037  -2.751  14.182  1.00  0.00    -0.403 N 
ATOM     10  H12 UNL     1      17.025  -2.726  14.308  1.00  0.00     0.156 HD
ATOM     11  H11 UNL     1      18.655  -2.929  14.974  1.00  0.00     0.156 HD
ENDBRANCH   6   7
ENDBRANCH   1   5
BRANCH   3  12
HETATM   12  N3  UNL     1      23.903  -3.304   9.955  1.00  0.00    -0.276 N 
ATOM     13  H3  UNL     1      24.460  -2.464  10.112  1.00  0.00     0.189 HD
BRANCH  12  14
HETATM   14  C6  UNL     1      24.526  -4.472   9.515  1.00  0.00     0.199 C 
HETATM   15  N4  UNL     1      25.108  -4.522   8.229  1.00  0.00    -0.068 NA
HETATM   16  S1  UNL     1      24.593  -5.784  10.465  1.00  0.00    -0.043 SA
ENDBRANCH  12  14
ENDBRANCH   3  12
TORSDOF 4
ENDMDL
MODEL 2
REMARK VINA RESULT: -5.865432761      3.314      6.059
REMARK  4 active torsions:
REMARK  status: ('A' for Active; 'I' for Inactive)
REMARK    1  A    between atoms: C2_2  and  C3_6 
REMARK    2  A    between atoms: C4_7  and  C5_8 
REMARK       I    between atoms: C5_8  and  N2_10 
REMARK    3  A    between atoms: N2_10  and  N3_12 
REMARK    4  A    between atoms: N3_12  and  C6_14 
ROOT
HETATM    1  C5  UNL     1      22.776  -3.682  11.223  1.00  0.00     0.259 C 
HETATM    2  O1  UNL     1      23.045  -2.652  10.559  1.00  0.00    -0.267 OA
HETATM    3  N2  UNL     1      21.633  -3.680  12.064  1.00  0.00    -0.265 N 
ATOM      4  H2  UNL     1      21.403  -4.511  12.610  1.00  0.00     0.190 HD
ENDROOT
BRANCH   1   5
HETATM    5  C4  UNL     1      23.629  -4.838  11.117  1.00  0.00     0.077 C 
HETATM    6  C3  UNL     1      23.253  -6.079  11.264  1.00  0.00     0.029 C 
BRANCH   6   7
HETATM    7  C2  UNL     1      24.173  -7.182  11.141  1.00  0.00    -0.002 C 
HETATM    8  C1  UNL     1      23.700  -8.521  10.681  1.00  0.00     0.067 C 
HETATM    9  N1  UNL     1      25.429  -7.072  11.417  1.00  0.00    -0.403 N 
ATOM     10  H12 UNL     1      26.079  -7.853  11.330  1.00  0.00     0.156 HD
ATOM     11  H11 UNL     1      25.752  -6.157  11.731  1.00  0.00     0.156 HD
ENDBRANCH   6   7
ENDBRANCH   1   5
BRANCH   3  12
HETATM   12  N3  UNL     1      20.812  -2.532  12.149  1.00  0.00    -0.276 N 
ATOM     13  H3  UNL     1      21.029  -1.713  11.580  1.00  0.00     0.189 HD
BRANCH  12  14
HETATM   14  C6  UNL     1      19.708  -2.504  13.002  1.00  0.00     0.199 C 
HETATM   15  N4  UNL     1      19.895  -2.512  14.402  1.00  0.00    -0.068 NA
HETATM   16  S1  UNL     1      18.201  -2.464  12.406  1.00  0.00    -0.043 SA
ENDBRANCH  12  14
ENDBRANCH   3  12
TORSDOF 4
ENDMDL
MODEL 3
REMARK VINA RESULT: -5.829514051      2.963      6.032
REMARK  4 active torsions:
REMARK  status: ('A' for Active; 'I' for Inactive)
REMARK    1  A    between atoms: C2_2  and  C3_6 
REMARK    2  A    between atoms: C4_7  and  C5_8 
REMARK       I    between atoms: C5_8  and  N2_10 
REMARK    3  A    between atoms: N2_10  and  N3_12 
REMARK    4  A    between atoms: N3_12  and  C6_14 
ROOT
HETATM    1  C5  UNL     1      22.293  -2.900  11.423  1.00  0.00     0.259 C 
HETATM    2  O1  UNL     1      22.295  -1.819  10.785  1.00  0.00    -0.267 OA
HETATM    3  N2  UNL     1      21.187  -3.206  12.258  1.00  0.00    -0.265 N 
ATOM      4  H2  UNL     1      21.173  -4.081  12.782  1.00  0.00     0.190 HD
ENDROOT
BRANCH   1   5
HETATM    5  C4  UNL     1      23.410  -3.802  11.295  1.00  0.00     0.077 C 
HETATM    6  C3  UNL     1      23.419  -4.909  10.604  1.00  0.00     0.029 C 
BRANCH   6   7
HETATM    7  C2  UNL     1      24.582  -5.758  10.525  1.00  0.00    -0.002 C 
HETATM    8  C1  UNL     1      24.444  -7.244  10.556  1.00  0.00     0.067 C 
HETATM    9  N1  UNL     1      25.779  -5.287  10.426  1.00  0.00    -0.403 N 
ATOM     10  H12 UNL     1      26.601  -5.887  10.371  1.00  0.00     0.156 HD
ATOM     11  H11 UNL     1      25.874  -4.271  10.405  1.00  0.00     0.156 HD
ENDBRANCH   6   7
ENDBRANCH   1   5
BRANCH   3  12
HETATM   12  N3  UNL     1      20.103  -2.302  12.366  1.00  0.00    -0.276 N 
ATOM     13  H3  UNL     1      20.268  -1.302  12.249  1.00  0.00     0.189 HD
BRANCH  12  14
HETATM   14  C6  UNL     1      18.813  -2.762  12.631  1.00  0.00     0.199 C 
HETATM   15  N4  UNL     1      17.862  -2.840  11.590  1.00  0.00    -0.068 NA
HETATM   16  S1  UNL     1      18.385  -3.212  14.129  1.00  0.00    -0.043 SA
ENDBRANCH  12  14
ENDBRANCH   3  12
TORSDOF 4
ENDMDL
MODEL 4
REMARK VINA RESULT: -5.741937302      2.667      6.067
REMARK  4 active torsions:
REMARK  status: ('A' for Active; 'I' for Inactive)
REMARK    1  A    between atoms: C2_2  and  C3_6 
REMARK    2  A    between atoms: C4_7  and  C5_8 
REMARK       I    between atoms: C5_8  and  N2_10 
REMARK    3  A    between atoms: N2_10  and  N3_12 
REMARK    4  A    between atoms: N3_12  and  C6_14 
ROOT
HETATM    1  C5  UNL     1      21.518  -2.883  11.025  1.00  0.00     0.259 C 
HETATM    2  O1  UNL     1      20.605  -2.839  10.166  1.00  0.00    -0.267 OA
HETATM    3  N2  UNL     1      21.237  -2.465  12.351  1.00  0.00    -0.265 N 
ATOM      4  H2  UNL     1      21.971  -2.495  13.060  1.00  0.00     0.190 HD
ENDROOT
BRANCH   1   5
HETATM    5  C4  UNL     1      22.826  -3.354  10.647  1.00  0.00     0.077 C 
HETATM    6  C3  UNL     1      23.075  -4.318   9.804  1.00  0.00     0.029 C 
BRANCH   6   7
HETATM    7  C2  UNL     1      24.417  -4.730   9.478  1.00  0.00    -0.002 C 
HETATM    8  C1  UNL     1      25.202  -5.584  10.417  1.00  0.00     0.067 C 
HETATM    9  N1  UNL     1      24.999  -4.388   8.378  1.00  0.00    -0.403 N 
ATOM     10  H12 UNL     1      25.949  -4.679   8.147  1.00  0.00     0.156 HD
ATOM     11  H11 UNL     1      24.463  -3.804   7.736  1.00  0.00     0.156 HD
ENDBRANCH   6   7
ENDBRANCH   1   5
BRANCH   3  12
HETATM   12  N3  UNL     1      19.944  -2.007  12.696  1.00  0.00    -0.276 N 
ATOM     13  H3  UNL     1      19.760  -1.004  12.745  1.00  0.00     0.189 HD
BRANCH  12  14
HETATM   14  C6  UNL     1      18.915  -2.909  12.971  1.00  0.00     0.199 C 
HETATM   15  N4  UNL     1      17.836  -3.048  12.071  1.00  0.00    -0.068 NA
HETATM   16  S1  UNL     1      18.941  -3.807  14.321  1.00  0.00    -0.043 SA
ENDBRANCH  12  14
ENDBRANCH   3  12
TORSDOF 4
ENDMDL
MODEL 5
REMARK VINA RESULT: -5.710015419      2.856      6.226
REMARK  4 active torsions:
REMARK  status: ('A' for Active; 'I' for Inactive)
REMARK    1  A    between atoms: C2_2  and  C3_6 
REMARK    2  A    between atoms: C4_7  and  C5_8 
REMARK       I    between atoms: C5_8  and  N2_10 
REMARK    3  A    between atoms: N2_10  and  N3_12 
REMARK    4  A    between atoms: N3_12  and  C6_14 
ROOT
HETATM    1  C5  UNL     1      20.351  -2.648  12.139  1.00  0.00     0.259 C 
HETATM    2  O1  UNL     1      19.395  -2.917  11.373  1.00  0.00    -0.267 OA
HETATM    3  N2  UNL     1      20.080  -2.334  13.496  1.00  0.00    -0.265 N 
ATOM      4  H2  UNL     1      20.848  -2.112  14.130  1.00  0.00     0.190 HD
ENDROOT
BRANCH   1   5
HETATM    5  C4  UNL     1      21.698  -2.664  11.627  1.00  0.00     0.077 C 
HETATM    6  C3  UNL     1      22.330  -3.714  11.178  1.00  0.00     0.029 C 
BRANCH   6   7
HETATM    7  C2  UNL     1      23.681  -3.645  10.680  1.00  0.00    -0.002 C 
HETATM    8  C1  UNL     1      24.081  -4.398   9.455  1.00  0.00     0.067 C 
HETATM    9  N1  UNL     1      24.597  -2.942  11.255  1.00  0.00    -0.403 N 
ATOM     10  H12 UNL     1      25.553  -2.893  10.903  1.00  0.00     0.156 HD
ATOM     11  H11 UNL     1      24.324  -2.427  12.093  1.00  0.00     0.156 HD
ENDBRANCH   6   7
ENDBRANCH   1   5
BRANCH   3  12
HETATM   12  N3  UNL     1      18.748  -2.325  13.974  1.00  0.00    -0.276 N 
ATOM     13  H3  UNL     1      18.103  -1.602  13.655  1.00  0.00     0.189 HD
BRANCH  12  14
HETATM   14  C6  UNL     1      18.306  -3.294  14.876  1.00  0.00     0.199 C 
HETATM   15  N4  UNL     1      17.226  -3.014  15.742  1.00  0.00    -0.068 NA
HETATM   16  S1  UNL     1      19.020  -4.748  14.946  1.00  0.00    -0.043 SA
ENDBRANCH  12  14
ENDBRANCH   3  12
TORSDOF 4
ENDMDL
