MODEL 1
REMARK VINA RESULT: -6.559467054      0.000      0.000
REMARK  2 active torsions:
REMARK  status: ('A' for Active; 'I' for Inactive)
REMARK       I    between atoms: C1_4  and  N3_6 
REMARK    1  A    between atoms: N3_6  and  C2_8 
REMARK    2  A    between atoms: C7_13  and  C8_14 
ROOT
HETATM    1  C2  UNL     1      23.525  -5.263  11.042  1.00  0.00     0.096 C 
HETATM    2  C3  UNL     1      24.635  -5.540  10.051  1.00  0.00     0.026 C 
HETATM    3  C4  UNL     1      24.580  -7.012   9.662  1.00  0.00     0.002 C 
HETATM    4  C5  UNL     1      24.701  -7.907  10.859  1.00  0.00     0.001 C 
HETATM    5  C6  UNL     1      24.727  -7.106  12.156  1.00  0.00     0.015 C 
HETATM    6  C7  UNL     1      23.553  -6.156  12.235  1.00  0.00     0.097 C 
ENDROOT
BRANCH   1   7
HETATM    7  N3  UNL     1      23.484  -3.863  11.372  1.00  0.00    -0.359 N 
HETATM    8  C1  UNL     1      22.362  -3.037  11.304  1.00  0.00     0.182 C 
HETATM    9  N1  UNL     1      21.688  -2.950  10.229  1.00  0.00    -0.374 N 
HETATM   10  N2  UNL     1      21.978  -2.296  12.440  1.00  0.00    -0.064 NA
ATOM     11  H12 UNL     1      20.867  -2.346  10.179  1.00  0.00     0.158 HD
ATOM     12  H11 UNL     1      21.965  -3.487   9.407  1.00  0.00     0.158 HD
ATOM     13  H3  UNL     1      24.356  -3.434  11.683  1.00  0.00     0.162 HD
ENDBRANCH   1   7
BRANCH   6  14
HETATM   14  C8  UNL     1      22.320  -6.981  12.327  1.00  0.00     0.237 C 
HETATM   15  N4  UNL     1      21.750  -7.154  13.611  1.00  0.00    -0.062 NA
HETATM   16  O1  UNL     1      21.802  -7.504  11.311  1.00  0.00    -0.276 OA
ENDBRANCH   6  14
TORSDOF 2
ENDMDL
MODEL 2
REMARK VINA RESULT: -6.202693926      1.850      3.049
REMARK  2 active torsions:
REMARK  status: ('A' for Active; 'I' for Inactive)
REMARK       I    between atoms: C1_4  and  N3_6 
REMARK    1  A    between atoms: N3_6  and  C2_8 
REMARK    2  A    between atoms: C7_13  and  C8_14 
ROOT
HETATM    1  C2  UNL     1      23.281  -5.521  11.649  1.00  0.00     0.096 C 
HETATM    2  C3  UNL     1      23.102  -6.863  12.323  1.00  0.00     0.026 C 
HETATM    3  C4  UNL     1      24.287  -7.749  11.963  1.00  0.00     0.002 C 
HETATM    4  C5  UNL     1      24.424  -7.915  10.479  1.00  0.00     0.001 C 
HETATM    5  C6  UNL     1      23.413  -7.058   9.724  1.00  0.00     0.015 C 
HETATM    6  C7  UNL     1      23.477  -5.615  10.174  1.00  0.00     0.097 C 
ENDROOT
BRANCH   1   7
HETATM    7  N3  UNL     1      22.226  -4.620  12.033  1.00  0.00    -0.359 N 
HETATM    8  C1  UNL     1      22.039  -3.324  11.551  1.00  0.00     0.182 C 
HETATM    9  N1  UNL     1      22.982  -2.472  11.607  1.00  0.00    -0.374 N 
HETATM   10  N2  UNL     1      20.792  -2.963  11.001  1.00  0.00    -0.064 NA
ATOM     11  H12 UNL     1      22.845  -1.524  11.255  1.00  0.00     0.158 HD
ATOM     12  H11 UNL     1      23.884  -2.733  12.005  1.00  0.00     0.158 HD
ATOM     13  H3  UNL     1      21.554  -4.960  12.720  1.00  0.00     0.162 HD
ENDBRANCH   1   7
BRANCH   6  14
HETATM   14  C8  UNL     1      24.802  -5.082   9.765  1.00  0.00     0.237 C 
HETATM   15  N4  UNL     1      24.947  -4.666   8.419  1.00  0.00    -0.062 NA
HETATM   16  O1  UNL     1      25.757  -5.000  10.576  1.00  0.00    -0.276 OA
ENDBRANCH   6  14
TORSDOF 2
ENDMDL
MODEL 3
REMARK VINA RESULT: -5.990453222      5.453      6.710
REMARK  2 active torsions:
REMARK  status: ('A' for Active; 'I' for Inactive)
REMARK       I    between atoms: C1_4  and  N3_6 
REMARK    1  A    between atoms: N3_6  and  C2_8 
REMARK    2  A    between atoms: C7_13  and  C8_14 
ROOT
HETATM    1  C2  UNL     1      19.085  -4.405  15.007  1.00  0.00     0.096 C 
HETATM    2  C3  UNL     1      19.183  -5.902  15.204  1.00  0.00     0.026 C 
HETATM    3  C4  UNL     1      18.396  -6.279  16.453  1.00  0.00     0.002 C 
HETATM    4  C5  UNL     1      18.897  -5.550  17.664  1.00  0.00     0.001 C 
HETATM    5  C6  UNL     1      19.980  -4.540  17.302  1.00  0.00     0.015 C 
HETATM    6  C7  UNL     1      19.517  -3.618  16.197  1.00  0.00     0.097 C 
ENDROOT
BRANCH   1   7
HETATM    7  N3  UNL     1      19.743  -4.014  13.788  1.00  0.00    -0.359 N 
HETATM    8  C1  UNL     1      19.884  -2.710  13.315  1.00  0.00     0.182 C 
HETATM    9  N1  UNL     1      18.866  -1.960  13.174  1.00  0.00    -0.374 N 
HETATM   10  N2  UNL     1      21.168  -2.226  12.990  1.00  0.00    -0.064 NA
ATOM     11  H12 UNL     1      18.969  -1.006  12.828  1.00  0.00     0.158 HD
ATOM     12  H11 UNL     1      17.937  -2.310  13.409  1.00  0.00     0.158 HD
ATOM     13  H3  UNL     1      20.142  -4.760  13.217  1.00  0.00     0.162 HD
ENDBRANCH   1   7
BRANCH   6  14
HETATM   14  C8  UNL     1      18.404  -2.797  16.740  1.00  0.00     0.237 C 
HETATM   15  N4  UNL     1      17.171  -2.833  16.044  1.00  0.00    -0.062 NA
HETATM   16  O1  UNL     1      18.545  -2.099  17.773  1.00  0.00    -0.276 OA
ENDBRANCH   6  14
TORSDOF 2
ENDMDL
MODEL 4
REMARK VINA RESULT: -5.887532873      2.007      2.769
REMARK  2 active torsions:
REMARK  status: ('A' for Active; 'I' for Inactive)
REMARK       I    between atoms: C1_4  and  N3_6 
REMARK    1  A    between atoms: N3_6  and  C2_8 
REMARK    2  A    between atoms: C7_13  and  C8_14 
ROOT
HETATM    1  C2  UNL     1      23.519  -5.492  11.709  1.00  0.00     0.096 C 
HETATM    2  C3  UNL     1      22.184  -5.566  12.418  1.00  0.00     0.026 C 
HETATM    3  C4  UNL     1      22.044  -6.947  13.045  1.00  0.00     0.002 C 
HETATM    4  C5  UNL     1      22.162  -8.035  12.021  1.00  0.00     0.001 C 
HETATM    5  C6  UNL     1      22.509  -7.475  10.646  1.00  0.00     0.015 C 
HETATM    6  C7  UNL     1      23.726  -6.581  10.712  1.00  0.00     0.097 C 
ENDROOT
BRANCH   1   7
HETATM    7  N3  UNL     1      23.732  -4.173  11.175  1.00  0.00    -0.359 N 
HETATM    8  C1  UNL     1      22.805  -3.421  10.454  1.00  0.00     0.182 C 
HETATM    9  N1  UNL     1      22.245  -3.905   9.420  1.00  0.00    -0.374 N 
HETATM   10  N2  UNL     1      22.492  -2.114  10.880  1.00  0.00    -0.064 NA
ATOM     11  H12 UNL     1      21.566  -3.355   8.892  1.00  0.00     0.158 HD
ATOM     12  H11 UNL     1      22.471  -4.851   9.111  1.00  0.00     0.158 HD
ATOM     13  H3  UNL     1      24.646  -3.750  11.337  1.00  0.00     0.162 HD
ENDBRANCH   1   7
BRANCH   6  14
HETATM   14  C8  UNL     1      24.886  -7.436  11.073  1.00  0.00     0.237 C 
HETATM   15  N4  UNL     1      24.835  -8.797  10.683  1.00  0.00    -0.062 NA
HETATM   16  O1  UNL     1      25.873  -6.978  11.698  1.00  0.00    -0.276 OA
ENDBRANCH   6  14
TORSDOF 2
ENDMDL
MODEL 5
REMARK VINA RESULT: -5.791621485      6.140      7.230
REMARK  2 active torsions:
REMARK  status: ('A' for Active; 'I' for Inactive)
REMARK       I    between atoms: C1_4  and  N3_6 
REMARK    1  A    between atoms: N3_6  and  C2_8 
REMARK    2  A    between atoms: C7_13  and  C8_14 
ROOT
HETATM    1  C2  UNL     1      17.960  -3.491  15.145  1.00  0.00     0.096 C 
HETATM    2  C3  UNL     1      18.592  -4.818  14.787  1.00  0.00     0.026 C 
HETATM    3  C4  UNL     1      18.576  -5.711  16.021  1.00  0.00     0.002 C 
HETATM    4  C5  UNL     1      19.294  -5.074  17.174  1.00  0.00     0.001 C 
HETATM    5  C6  UNL     1      19.744  -3.656  16.840  1.00  0.00     0.015 C 
HETATM    6  C7  UNL     1      18.591  -2.826  16.320  1.00  0.00     0.097 C 
ENDROOT
BRANCH   1   7
HETATM    7  N3  UNL     1      17.874  -2.645  13.983  1.00  0.00    -0.359 N 
HETATM    8  C1  UNL     1      18.841  -2.522  12.985  1.00  0.00     0.182 C 
HETATM    9  N1  UNL     1      20.043  -2.232  13.284  1.00  0.00    -0.374 N 
HETATM   10  N2  UNL     1      18.476  -2.720  11.639  1.00  0.00    -0.064 NA
ATOM     11  H12 UNL     1      20.751  -2.142  12.555  1.00  0.00     0.158 HD
ATOM     12  H11 UNL     1      20.308  -2.089  14.259  1.00  0.00     0.158 HD
ATOM     13  H3  UNL     1      17.028  -2.084  13.880  1.00  0.00     0.162 HD
ENDBRANCH   1   7
BRANCH   6  14
HETATM   14  C8  UNL     1      17.625  -2.661  17.437  1.00  0.00     0.237 C 
HETATM   15  N4  UNL     1      16.256  -2.883  17.148  1.00  0.00    -0.062 NA
HETATM   16  O1  UNL     1      18.001  -2.338  18.589  1.00  0.00    -0.276 OA
ENDBRANCH   6  14
TORSDOF 2
ENDMDL
