MODEL 1
REMARK VINA RESULT: -7.103811798      0.000      0.000
REMARK  2 active torsions:
REMARK  status: ('A' for Active; 'I' for Inactive)
REMARK    1  A    between atoms: C2_2  and  C3_3 
REMARK       I    between atoms: C3_3  and  N1_5 
REMARK    2  A    between atoms: N1_5  and  N2_7 
REMARK       I    between atoms: N2_7  and  C4_9 
ROOT
HETATM    1  C3  UNL     1      23.008  -5.477  11.079  1.00  0.00     0.270 C 
HETATM    2  O1  UNL     1      22.367  -5.210  10.026  1.00  0.00    -0.268 OA
HETATM    3  N1  UNL     1      23.528  -4.395  11.824  1.00  0.00    -0.265 N 
ATOM      4  H1  UNL     1      24.046  -4.591  12.680  1.00  0.00     0.190 HD
ENDROOT
BRANCH   3   5
HETATM    5  N2  UNL     1      23.361  -3.083  11.435  1.00  0.00    -0.271 N 
HETATM    6  C4  UNL     1      22.100  -2.430  11.462  1.00  0.00     0.200 C 
HETATM    7  N3  UNL     1      21.519  -2.184  10.318  1.00  0.00    -0.372 N 
HETATM    8  N4  UNL     1      21.481  -2.056  12.687  1.00  0.00    -0.062 NA
ATOM      9  H32 UNL     1      21.963  -2.453   9.439  1.00  0.00     0.158 HD
ATOM     10  H31 UNL     1      20.614  -1.715  10.337  1.00  0.00     0.158 HD
ATOM     11  H2  UNL     1      24.176  -2.560  11.115  1.00  0.00     0.189 HD
ENDBRANCH   3   5
BRANCH   1  12
HETATM   12  C2  UNL     1      23.159  -6.895  11.446  1.00  0.00     0.139 C 
HETATM   13  C1  UNL     1      22.511  -7.239  12.776  1.00  0.00     0.056 C 
HETATM   14  C5  UNL     1      24.639  -7.203  11.457  1.00  0.00     0.050 C 
HETATM   15  C6  UNL     1      24.722  -8.357  10.472  1.00  0.00     0.030 C 
HETATM   16  C7  UNL     1      23.292  -8.879  10.565  1.00  0.00     0.169 C 
HETATM   17  O2  UNL     1      22.570  -7.685  10.491  1.00  0.00    -0.371 OA
ENDBRANCH   1  12
TORSDOF 2
ENDMDL
MODEL 2
REMARK VINA RESULT: -6.778708699      1.495      1.840
REMARK  2 active torsions:
REMARK  status: ('A' for Active; 'I' for Inactive)
REMARK    1  A    between atoms: C2_2  and  C3_3 
REMARK       I    between atoms: C3_3  and  N1_5 
REMARK    2  A    between atoms: N1_5  and  N2_7 
REMARK       I    between atoms: N2_7  and  C4_9 
ROOT
HETATM    1  C3  UNL     1      24.302  -5.458  10.652  1.00  0.00     0.270 C 
HETATM    2  O1  UNL     1      25.291  -4.692  10.484  1.00  0.00    -0.268 OA
HETATM    3  N1  UNL     1      23.011  -4.916  10.467  1.00  0.00    -0.265 N 
ATOM      4  H1  UNL     1      22.201  -5.522  10.595  1.00  0.00     0.190 HD
ENDROOT
BRANCH   3   5
HETATM    5  N2  UNL     1      22.807  -3.599  10.119  1.00  0.00    -0.271 N 
HETATM    6  C4  UNL     1      21.874  -2.764  10.791  1.00  0.00     0.200 C 
HETATM    7  N3  UNL     1      20.777  -2.446  10.157  1.00  0.00    -0.372 N 
HETATM    8  N4  UNL     1      22.116  -2.288  12.109  1.00  0.00    -0.062 NA
ATOM      9  H32 UNL     1      20.604  -2.787   9.211  1.00  0.00     0.158 HD
ATOM     10  H31 UNL     1      20.108  -1.846  10.639  1.00  0.00     0.158 HD
ATOM     11  H2  UNL     1      23.346  -3.207   9.347  1.00  0.00     0.189 HD
ENDBRANCH   3   5
BRANCH   1  12
HETATM   12  C2  UNL     1      24.578  -6.855  11.027  1.00  0.00     0.139 C 
HETATM   13  C1  UNL     1      25.980  -7.061  11.574  1.00  0.00     0.056 C 
HETATM   14  C5  UNL     1      24.333  -7.708   9.803  1.00  0.00     0.050 C 
HETATM   15  C6  UNL     1      23.299  -8.695  10.315  1.00  0.00     0.030 C 
HETATM   16  C7  UNL     1      23.602  -8.635  11.809  1.00  0.00     0.169 C 
HETATM   17  O2  UNL     1      23.699  -7.255  12.003  1.00  0.00    -0.371 OA
ENDBRANCH   1  12
TORSDOF 2
ENDMDL
MODEL 3
REMARK VINA RESULT: -6.620097228      2.149      3.220
REMARK  2 active torsions:
REMARK  status: ('A' for Active; 'I' for Inactive)
REMARK    1  A    between atoms: C2_2  and  C3_3 
REMARK       I    between atoms: C3_3  and  N1_5 
REMARK    2  A    between atoms: N1_5  and  N2_7 
REMARK       I    between atoms: N2_7  and  C4_9 
ROOT
HETATM    1  C3  UNL     1      22.657  -3.374  11.607  1.00  0.00     0.270 C 
HETATM    2  O1  UNL     1      23.431  -2.588  12.221  1.00  0.00    -0.268 OA
HETATM    3  N1  UNL     1      21.267  -3.174  11.752  1.00  0.00    -0.265 N 
ATOM      4  H1  UNL     1      20.626  -3.798  11.261  1.00  0.00     0.190 HD
ENDROOT
BRANCH   3   5
HETATM    5  N2  UNL     1      20.743  -2.167  12.534  1.00  0.00    -0.271 N 
HETATM    6  C4  UNL     1      19.681  -2.383  13.453  1.00  0.00     0.200 C 
HETATM    7  N3  UNL     1      18.507  -1.898  13.148  1.00  0.00    -0.372 N 
HETATM    8  N4  UNL     1      19.879  -3.102  14.664  1.00  0.00    -0.062 NA
ATOM      9  H32 UNL     1      18.365  -1.382  12.279  1.00  0.00     0.158 HD
ATOM     10  H31 UNL     1      17.745  -2.053  13.807  1.00  0.00     0.158 HD
ATOM     11  H2  UNL     1      21.134  -1.229  12.449  1.00  0.00     0.189 HD
ENDBRANCH   3   5
BRANCH   1  12
HETATM   12  C2  UNL     1      23.270  -4.435  10.789  1.00  0.00     0.139 C 
HETATM   13  C1  UNL     1      22.782  -4.435   9.351  1.00  0.00     0.056 C 
HETATM   14  C5  UNL     1      22.981  -5.754  11.469  1.00  0.00     0.050 C 
HETATM   15  C6  UNL     1      24.380  -6.312  11.666  1.00  0.00     0.030 C 
HETATM   16  C7  UNL     1      25.116  -5.561  10.562  1.00  0.00     0.169 C 
HETATM   17  O2  UNL     1      24.632  -4.266  10.756  1.00  0.00    -0.371 OA
ENDBRANCH   1  12
TORSDOF 2
ENDMDL
MODEL 4
REMARK VINA RESULT: -6.300911687      3.700      5.417
REMARK  2 active torsions:
REMARK  status: ('A' for Active; 'I' for Inactive)
REMARK    1  A    between atoms: C2_2  and  C3_3 
REMARK       I    between atoms: C3_3  and  N1_5 
REMARK    2  A    between atoms: N1_5  and  N2_7 
REMARK       I    between atoms: N2_7  and  C4_9 
ROOT
HETATM    1  C3  UNL     1      20.612  -2.616  12.394  1.00  0.00     0.270 C 
HETATM    2  O1  UNL     1      21.617  -2.126  12.979  1.00  0.00    -0.268 OA
HETATM    3  N1  UNL     1      20.710  -2.850  11.005  1.00  0.00    -0.265 N 
ATOM      4  H1  UNL     1      19.909  -3.249  10.516  1.00  0.00     0.190 HD
ENDROOT
BRANCH   3   5
HETATM    5  N2  UNL     1      21.848  -2.558  10.285  1.00  0.00    -0.271 N 
HETATM    6  C4  UNL     1      23.015  -3.366  10.335  1.00  0.00     0.200 C 
HETATM    7  N3  UNL     1      24.054  -2.893  10.970  1.00  0.00    -0.372 N 
HETATM    8  N4  UNL     1      23.060  -4.649   9.721  1.00  0.00    -0.062 NA
ATOM      9  H32 UNL     1      24.022  -1.973  11.410  1.00  0.00     0.158 HD
ATOM     10  H31 UNL     1      24.892  -3.472  11.006  1.00  0.00     0.158 HD
ATOM     11  H2  UNL     1      21.853  -1.728   9.692  1.00  0.00     0.189 HD
ENDBRANCH   3   5
BRANCH   1  12
HETATM   12  C2  UNL     1      19.421  -2.906  13.211  1.00  0.00     0.139 C 
HETATM   13  C1  UNL     1      18.121  -2.529  12.524  1.00  0.00     0.056 C 
HETATM   14  C5  UNL     1      19.585  -2.174  14.523  1.00  0.00     0.050 C 
HETATM   15  C6  UNL     1      19.468  -3.308  15.527  1.00  0.00     0.030 C 
HETATM   16  C7  UNL     1      18.672  -4.308  14.695  1.00  0.00     0.169 C 
HETATM   17  O2  UNL     1      19.362  -4.251  13.482  1.00  0.00    -0.371 OA
ENDBRANCH   1  12
TORSDOF 2
ENDMDL
MODEL 5
REMARK VINA RESULT: -6.188514207      2.436      3.440
REMARK  2 active torsions:
REMARK  status: ('A' for Active; 'I' for Inactive)
REMARK    1  A    between atoms: C2_2  and  C3_3 
REMARK       I    between atoms: C3_3  and  N1_5 
REMARK    2  A    between atoms: N1_5  and  N2_7 
REMARK       I    between atoms: N2_7  and  C4_9 
ROOT
HETATM    1  C3  UNL     1      22.118  -2.934  11.472  1.00  0.00     0.270 C 
HETATM    2  O1  UNL     1      22.217  -1.862  10.814  1.00  0.00    -0.268 OA
HETATM    3  N1  UNL     1      20.962  -3.114  12.264  1.00  0.00    -0.265 N 
ATOM      4  H1  UNL     1      20.863  -3.976  12.800  1.00  0.00     0.190 HD
ENDROOT
BRANCH   3   5
HETATM    5  N2  UNL     1      19.965  -2.167  12.341  1.00  0.00    -0.271 N 
HETATM    6  C4  UNL     1      18.589  -2.508  12.441  1.00  0.00     0.200 C 
HETATM    7  N3  UNL     1      17.836  -2.306  11.393  1.00  0.00    -0.372 N 
HETATM    8  N4  UNL     1      18.043  -3.055  13.635  1.00  0.00    -0.062 NA
ATOM      9  H32 UNL     1      18.227  -1.913  10.537  1.00  0.00     0.158 HD
ATOM     10  H31 UNL     1      16.848  -2.550  11.465  1.00  0.00     0.158 HD
ATOM     11  H2  UNL     1      20.224  -1.181  12.324  1.00  0.00     0.189 HD
ENDBRANCH   3   5
BRANCH   1  12
HETATM   12  C2  UNL     1      23.214  -3.910  11.356  1.00  0.00     0.139 C 
HETATM   13  C1  UNL     1      24.586  -3.295  11.569  1.00  0.00     0.056 C 
HETATM   14  C5  UNL     1      23.104  -4.554   9.993  1.00  0.00     0.050 C 
HETATM   15  C6  UNL     1      23.005  -6.026  10.353  1.00  0.00     0.030 C 
HETATM   16  C7  UNL     1      23.678  -6.004  11.721  1.00  0.00     0.169 C 
HETATM   17  O2  UNL     1      23.060  -4.894  12.301  1.00  0.00    -0.371 OA
ENDBRANCH   1  12
TORSDOF 2
ENDMDL
