MODEL 1
REMARK VINA RESULT: -10.043083998      0.000      0.000
REMARK  11 active torsions:
REMARK  status: ('A' for Active; 'I' for Inactive)
REMARK    1  A    between atoms: O1_1  and  C1_3 
REMARK    2  A    between atoms: C4_6  and  C5_7 
REMARK    3  A    between atoms: C5_7  and  N1_8 
REMARK    4  A    between atoms: N1_8  and  C6_10 
REMARK    5  A    between atoms: C6_10  and  C7_11 
REMARK    6  A    between atoms: C7_11  and  C8_12 
REMARK    7  A    between atoms: C8_12  and  C9_13 
REMARK    8  A    between atoms: C9_13  and  C10_14 
REMARK    9  A    between atoms: N2_15  and  C11_17 
REMARK   10  A    between atoms: C11_17  and  C12_18 
REMARK   11  A    between atoms: C21_27  and  C22_28 
ROOT
HETATM    1  N1  UNL     1      24.229  -0.536   7.818  1.00  0.00    -0.398 N 
ATOM      2  H1  UNL     1      23.648  -1.091   8.445  1.00  0.00     0.158 HD
ENDROOT
BRANCH   1   3
HETATM    3  C5  UNL     1      23.970   0.873   7.620  1.00  0.00     0.158 C 
BRANCH   3   4
HETATM    4  C4  UNL     1      24.014   1.683   8.852  1.00  0.00    -0.023 A 
HETATM    5  C3  UNL     1      24.870   1.352   9.870  1.00  0.00     0.013 A 
HETATM    6  C2  UNL     1      24.944   2.179  10.991  1.00  0.00     0.038 A 
HETATM    7  C1  UNL     1      24.173   3.285  11.046  1.00  0.00     0.073 A 
HETATM    8  C19 UNL     1      23.288   3.647  10.028  1.00  0.00    -0.006 A 
HETATM    9  C18 UNL     1      23.235   2.834   8.937  1.00  0.00     0.018 A 
HETATM   10  C20 UNL     1      22.373   4.784   9.995  1.00  0.00     0.058 C 
HETATM   11  S1  UNL     1      22.060   3.540   7.829  1.00  0.00    -0.123 SA
HETATM   12  C21 UNL     1      22.182   5.236   8.561  1.00  0.00     0.061 C 
BRANCH   7  13
HETATM   13  O1  UNL     1      24.301   4.068  12.179  1.00  0.00    -0.360 OA
ATOM     14  H1  UNL     1      25.141   4.035  12.621  1.00  0.00     0.217 HD
ENDBRANCH   7  13
BRANCH  12  15
HETATM   15  C22 UNL     1      20.991   6.073   8.304  1.00  0.00    -0.000 A 
HETATM   16  C23 UNL     1      21.136   7.550   8.727  1.00  0.00     0.006 A 
HETATM   17  C24 UNL     1      20.200   6.667   9.425  1.00  0.00     0.006 A 
ENDBRANCH  12  15
ENDBRANCH   3   4
ENDBRANCH   1   3
BRANCH   1  18
HETATM   18  C6  UNL     1      25.302  -1.123   7.124  1.00  0.00     0.056 C 
BRANCH  18  19
HETATM   19  C7  UNL     1      26.174  -2.042   7.834  1.00  0.00     0.044 C 
BRANCH  19  20
HETATM   20  C8  UNL     1      26.514  -1.854   9.267  1.00  0.00     0.010 C 
BRANCH  20  21
HETATM   21  C9  UNL     1      27.693  -0.820   9.271  1.00  0.00     0.044 C 
BRANCH  21  22
HETATM   22  C10 UNL     1      28.706  -1.361   8.345  1.00  0.00     0.056 C 
HETATM   23  N2  UNL     1      29.685  -0.679   7.699  1.00  0.00    -0.398 N 
ATOM     24  H2  UNL     1      30.622  -0.618   8.097  1.00  0.00     0.158 HD
BRANCH  23  25
HETATM   25  C11 UNL     1      29.375  -0.033   6.423  1.00  0.00     0.157 C 
BRANCH  25  26
HETATM   26  C12 UNL     1      30.772  -0.227   5.728  1.00  0.00    -0.041 A 
HETATM   27  C13 UNL     1      31.080  -1.485   5.274  1.00  0.00     0.009 A 
HETATM   28  C14 UNL     1      32.206  -1.734   4.489  1.00  0.00     0.001 A 
HETATM   29  C15 UNL     1      33.003  -0.684   4.175  1.00  0.00     0.000 A 
HETATM   30  C16 UNL     1      32.681   0.587   4.640  1.00  0.00     0.001 A 
HETATM   31  C17 UNL     1      31.558   0.827   5.418  1.00  0.00     0.009 A 
ENDBRANCH  25  26
ENDBRANCH  23  25
ENDBRANCH  21  22
ENDBRANCH  20  21
ENDBRANCH  19  20
ENDBRANCH  18  19
ENDBRANCH   1  18
TORSDOF 11
ENDMDL
MODEL 2
REMARK VINA RESULT: -9.992962269      1.806      2.274
REMARK  11 active torsions:
REMARK  status: ('A' for Active; 'I' for Inactive)
REMARK    1  A    between atoms: O1_1  and  C1_3 
REMARK    2  A    between atoms: C4_6  and  C5_7 
REMARK    3  A    between atoms: C5_7  and  N1_8 
REMARK    4  A    between atoms: N1_8  and  C6_10 
REMARK    5  A    between atoms: C6_10  and  C7_11 
REMARK    6  A    between atoms: C7_11  and  C8_12 
REMARK    7  A    between atoms: C8_12  and  C9_13 
REMARK    8  A    between atoms: C9_13  and  C10_14 
REMARK    9  A    between atoms: N2_15  and  C11_17 
REMARK   10  A    between atoms: C11_17  and  C12_18 
REMARK   11  A    between atoms: C21_27  and  C22_28 
ROOT
HETATM    1  N1  UNL     1      24.980   1.732   9.144  1.00  0.00    -0.398 N 
ATOM      2  H1  UNL     1      25.439   2.618   8.933  1.00  0.00     0.158 HD
ENDROOT
BRANCH   1   3
HETATM    3  C5  UNL     1      23.722   1.384   8.521  1.00  0.00     0.158 C 
BRANCH   3   4
HETATM    4  C4  UNL     1      22.530   1.698   9.331  1.00  0.00    -0.023 A 
HETATM    5  C3  UNL     1      22.041   0.787  10.230  1.00  0.00     0.013 A 
HETATM    6  C2  UNL     1      20.958   1.140  11.035  1.00  0.00     0.038 A 
HETATM    7  C1  UNL     1      20.417   2.370  10.909  1.00  0.00     0.073 A 
HETATM    8  C19 UNL     1      20.889   3.320  10.000  1.00  0.00    -0.006 A 
HETATM    9  C18 UNL     1      21.953   2.962   9.229  1.00  0.00     0.018 A 
HETATM   10  C20 UNL     1      20.360   4.655   9.739  1.00  0.00     0.058 C 
HETATM   11  S1  UNL     1      22.329   4.344   8.203  1.00  0.00    -0.123 SA
HETATM   12  C21 UNL     1      21.489   5.569   9.307  1.00  0.00     0.061 C 
BRANCH   7  13
HETATM   13  O1  UNL     1      19.353   2.662  11.743  1.00  0.00    -0.360 OA
ATOM     14  H1  UNL     1      18.978   3.531  11.659  1.00  0.00     0.217 HD
ENDBRANCH   7  13
BRANCH  12  15
HETATM   15  C22 UNL     1      21.082   6.807   8.609  1.00  0.00    -0.000 A 
HETATM   16  C23 UNL     1      21.516   8.114   9.307  1.00  0.00     0.006 A 
HETATM   17  C24 UNL     1      20.100   7.756   9.215  1.00  0.00     0.006 A 
ENDBRANCH  12  15
ENDBRANCH   3   4
ENDBRANCH   1   3
BRANCH   1  18
HETATM   18  C6  UNL     1      25.555   0.821  10.046  1.00  0.00     0.056 C 
BRANCH  18  19
HETATM   19  C7  UNL     1      26.649  -0.018   9.590  1.00  0.00     0.044 C 
BRANCH  19  20
HETATM   20  C8  UNL     1      26.495  -1.484   9.414  1.00  0.00     0.010 C 
BRANCH  20  21
HETATM   21  C9  UNL     1      27.484  -1.860   8.256  1.00  0.00     0.044 C 
BRANCH  21  22
HETATM   22  C10 UNL     1      27.647  -0.634   7.452  1.00  0.00     0.056 C 
HETATM   23  N2  UNL     1      28.647  -0.340   6.584  1.00  0.00    -0.398 N 
ATOM     24  H2  UNL     1      28.542  -0.533   5.589  1.00  0.00     0.158 HD
BRANCH  23  25
HETATM   25  C11 UNL     1      29.879   0.258   7.101  1.00  0.00     0.157 C 
BRANCH  25  26
HETATM   26  C12 UNL     1      30.848  -0.193   5.948  1.00  0.00    -0.041 A 
HETATM   27  C13 UNL     1      31.700   0.752   5.435  1.00  0.00     0.009 A 
HETATM   28  C14 UNL     1      32.720   0.424   4.541  1.00  0.00     0.001 A 
HETATM   29  C15 UNL     1      32.854  -0.876   4.184  1.00  0.00     0.000 A 
HETATM   30  C16 UNL     1      31.984  -1.827   4.710  1.00  0.00     0.001 A 
HETATM   31  C17 UNL     1      30.975  -1.493   5.601  1.00  0.00     0.009 A 
ENDBRANCH  25  26
ENDBRANCH  23  25
ENDBRANCH  21  22
ENDBRANCH  20  21
ENDBRANCH  19  20
ENDBRANCH  18  19
ENDBRANCH   1  18
TORSDOF 11
ENDMDL
MODEL 3
REMARK VINA RESULT: -9.814671676      0.777      1.026
REMARK  11 active torsions:
REMARK  status: ('A' for Active; 'I' for Inactive)
REMARK    1  A    between atoms: O1_1  and  C1_3 
REMARK    2  A    between atoms: C4_6  and  C5_7 
REMARK    3  A    between atoms: C5_7  and  N1_8 
REMARK    4  A    between atoms: N1_8  and  C6_10 
REMARK    5  A    between atoms: C6_10  and  C7_11 
REMARK    6  A    between atoms: C7_11  and  C8_12 
REMARK    7  A    between atoms: C8_12  and  C9_13 
REMARK    8  A    between atoms: C9_13  and  C10_14 
REMARK    9  A    between atoms: N2_15  and  C11_17 
REMARK   10  A    between atoms: C11_17  and  C12_18 
REMARK   11  A    between atoms: C21_27  and  C22_28 
ROOT
HETATM    1  N1  UNL     1      24.652  -0.656   8.001  1.00  0.00    -0.398 N 
ATOM      2  H1  UNL     1      24.245  -1.250   8.723  1.00  0.00     0.158 HD
ENDROOT
BRANCH   1   3
HETATM    3  C5  UNL     1      24.155   0.684   7.778  1.00  0.00     0.158 C 
BRANCH   3   4
HETATM    4  C4  UNL     1      24.185   1.554   8.968  1.00  0.00    -0.023 A 
HETATM    5  C3  UNL     1      25.094   1.331   9.969  1.00  0.00     0.013 A 
HETATM    6  C2  UNL     1      25.148   2.215  11.047  1.00  0.00     0.038 A 
HETATM    7  C1  UNL     1      24.304   3.268  11.078  1.00  0.00     0.073 A 
HETATM    8  C19 UNL     1      23.364   3.520  10.077  1.00  0.00    -0.006 A 
HETATM    9  C18 UNL     1      23.331   2.653   9.028  1.00  0.00     0.018 A 
HETATM   10  C20 UNL     1      22.372   4.589  10.025  1.00  0.00     0.058 C 
HETATM   11  S1  UNL     1      22.075   3.223   7.931  1.00  0.00    -0.123 SA
HETATM   12  C21 UNL     1      22.103   4.957   8.579  1.00  0.00     0.061 C 
BRANCH   7  13
HETATM   13  O1  UNL     1      24.416   4.112  12.168  1.00  0.00    -0.360 OA
ATOM     14  H1  UNL     1      23.782   3.987  12.865  1.00  0.00     0.217 HD
ENDBRANCH   7  13
BRANCH  12  15
HETATM   15  C22 UNL     1      20.849   5.698   8.327  1.00  0.00    -0.000 A 
HETATM   16  C23 UNL     1      20.963   7.230   8.479  1.00  0.00     0.006 A 
HETATM   17  C24 UNL     1      20.155   6.449   9.417  1.00  0.00     0.006 A 
ENDBRANCH  12  15
ENDBRANCH   3   4
ENDBRANCH   1   3
BRANCH   1  18
HETATM   18  C6  UNL     1      25.708  -1.121   7.199  1.00  0.00     0.056 C 
BRANCH  18  19
HETATM   19  C7  UNL     1      27.058  -0.679   7.496  1.00  0.00     0.044 C 
BRANCH  19  20
HETATM   20  C8  UNL     1      27.714  -0.975   8.795  1.00  0.00     0.010 C 
BRANCH  20  21
HETATM   21  C9  UNL     1      29.244  -0.747   8.538  1.00  0.00     0.044 C 
BRANCH  21  22
HETATM   22  C10 UNL     1      29.573  -1.540   7.338  1.00  0.00     0.056 C 
HETATM   23  N2  UNL     1      30.598  -1.343   6.471  1.00  0.00    -0.398 N 
ATOM     24  H2  UNL     1      31.478  -1.844   6.587  1.00  0.00     0.158 HD
BRANCH  23  25
HETATM   25  C11 UNL     1      30.419  -0.400   5.366  1.00  0.00     0.157 C 
BRANCH  25  26
HETATM   26  C12 UNL     1      31.918  -0.312   4.902  1.00  0.00    -0.041 A 
HETATM   27  C13 UNL     1      32.487  -1.451   4.390  1.00  0.00     0.009 A 
HETATM   28  C14 UNL     1      33.745  -1.444   3.786  1.00  0.00     0.001 A 
HETATM   29  C15 UNL     1      34.404  -0.263   3.711  1.00  0.00     0.000 A 
HETATM   30  C16 UNL     1      33.818   0.886   4.232  1.00  0.00     0.001 A 
HETATM   31  C17 UNL     1      32.566   0.872   4.829  1.00  0.00     0.009 A 
ENDBRANCH  25  26
ENDBRANCH  23  25
ENDBRANCH  21  22
ENDBRANCH  20  21
ENDBRANCH  19  20
ENDBRANCH  18  19
ENDBRANCH   1  18
TORSDOF 11
ENDMDL
MODEL 4
REMARK VINA RESULT: -9.314105506      2.776      3.688
REMARK  11 active torsions:
REMARK  status: ('A' for Active; 'I' for Inactive)
REMARK    1  A    between atoms: O1_1  and  C1_3 
REMARK    2  A    between atoms: C4_6  and  C5_7 
REMARK    3  A    between atoms: C5_7  and  N1_8 
REMARK    4  A    between atoms: N1_8  and  C6_10 
REMARK    5  A    between atoms: C6_10  and  C7_11 
REMARK    6  A    between atoms: C7_11  and  C8_12 
REMARK    7  A    between atoms: C8_12  and  C9_13 
REMARK    8  A    between atoms: C9_13  and  C10_14 
REMARK    9  A    between atoms: N2_15  and  C11_17 
REMARK   10  A    between atoms: C11_17  and  C12_18 
REMARK   11  A    between atoms: C21_27  and  C22_28 
ROOT
HETATM    1  N1  UNL     1      24.944   1.813   8.827  1.00  0.00    -0.398 N 
ATOM      2  H1  UNL     1      25.389   2.729   8.865  1.00  0.00     0.158 HD
ENDROOT
BRANCH   1   3
HETATM    3  C5  UNL     1      23.818   1.573   7.951  1.00  0.00     0.158 C 
BRANCH   3   4
HETATM    4  C4  UNL     1      22.674   2.478   8.162  1.00  0.00    -0.023 A 
HETATM    5  C3  UNL     1      22.399   3.472   7.258  1.00  0.00     0.013 A 
HETATM    6  C2  UNL     1      21.267   4.266   7.444  1.00  0.00     0.038 A 
HETATM    7  C1  UNL     1      20.470   4.036   8.508  1.00  0.00     0.073 A 
HETATM    8  C19 UNL     1      20.724   3.036   9.449  1.00  0.00    -0.006 A 
HETATM    9  C18 UNL     1      21.827   2.264   9.247  1.00  0.00     0.018 A 
HETATM   10  C20 UNL     1      19.968   2.726  10.658  1.00  0.00     0.058 C 
HETATM   11  S1  UNL     1      21.884   1.096  10.565  1.00  0.00    -0.123 SA
HETATM   12  C21 UNL     1      20.081   1.245  10.958  1.00  0.00     0.061 C 
BRANCH   7  13
HETATM   13  O1  UNL     1      19.358   4.850   8.630  1.00  0.00    -0.360 OA
ATOM     14  H1  UNL     1      18.542   4.503   8.289  1.00  0.00     0.217 HD
ENDBRANCH   7  13
BRANCH  12  15
HETATM   15  C22 UNL     1      19.746   0.841  12.340  1.00  0.00    -0.000 A 
HETATM   16  C23 UNL     1      18.237   0.677  12.617  1.00  0.00     0.006 A 
HETATM   17  C24 UNL     1      18.995   1.752  13.257  1.00  0.00     0.006 A 
ENDBRANCH  12  15
ENDBRANCH   3   4
ENDBRANCH   1   3
BRANCH   1  18
HETATM   18  C6  UNL     1      25.409   0.753   9.625  1.00  0.00     0.056 C 
BRANCH  18  19
HETATM   19  C7  UNL     1      26.676   0.129   9.288  1.00  0.00     0.044 C 
BRANCH  19  20
HETATM   20  C8  UNL     1      26.932  -1.313   9.536  1.00  0.00     0.010 C 
BRANCH  20  21
HETATM   21  C9  UNL     1      27.540  -1.853   8.195  1.00  0.00     0.044 C 
BRANCH  21  22
HETATM   22  C10 UNL     1      27.640  -0.685   7.299  1.00  0.00     0.056 C 
HETATM   23  N2  UNL     1      28.636  -0.394   6.426  1.00  0.00    -0.398 N 
ATOM     24  H2  UNL     1      28.564  -0.671   5.447  1.00  0.00     0.158 HD
BRANCH  23  25
HETATM   25  C11 UNL     1      29.817   0.322   6.911  1.00  0.00     0.157 C 
BRANCH  25  26
HETATM   26  C12 UNL     1      30.836  -0.154   5.813  1.00  0.00    -0.041 A 
HETATM   27  C13 UNL     1      31.750   0.764   5.361  1.00  0.00     0.009 A 
HETATM   28  C14 UNL     1      32.809   0.406   4.525  1.00  0.00     0.001 A 
HETATM   29  C15 UNL     1      32.918  -0.895   4.165  1.00  0.00     0.000 A 
HETATM   30  C16 UNL     1      31.986  -1.818   4.628  1.00  0.00     0.001 A 
HETATM   31  C17 UNL     1      30.937  -1.455   5.461  1.00  0.00     0.009 A 
ENDBRANCH  25  26
ENDBRANCH  23  25
ENDBRANCH  21  22
ENDBRANCH  20  21
ENDBRANCH  19  20
ENDBRANCH  18  19
ENDBRANCH   1  18
TORSDOF 11
ENDMDL
MODEL 5
REMARK VINA RESULT: -9.252769971      2.683      3.541
REMARK  11 active torsions:
REMARK  status: ('A' for Active; 'I' for Inactive)
REMARK    1  A    between atoms: O1_1  and  C1_3 
REMARK    2  A    between atoms: C4_6  and  C5_7 
REMARK    3  A    between atoms: C5_7  and  N1_8 
REMARK    4  A    between atoms: N1_8  and  C6_10 
REMARK    5  A    between atoms: C6_10  and  C7_11 
REMARK    6  A    between atoms: C7_11  and  C8_12 
REMARK    7  A    between atoms: C8_12  and  C9_13 
REMARK    8  A    between atoms: C9_13  and  C10_14 
REMARK    9  A    between atoms: N2_15  and  C11_17 
REMARK   10  A    between atoms: C11_17  and  C12_18 
REMARK   11  A    between atoms: C21_27  and  C22_28 
ROOT
HETATM    1  N1  UNL     1      24.759   1.834   8.553  1.00  0.00    -0.398 N 
ATOM      2  H1  UNL     1      24.943   2.626   9.168  1.00  0.00     0.158 HD
ENDROOT
BRANCH   1   3
HETATM    3  C5  UNL     1      23.648   1.859   7.627  1.00  0.00     0.158 C 
BRANCH   3   4
HETATM    4  C4  UNL     1      22.561   2.784   8.000  1.00  0.00    -0.023 A 
HETATM    5  C3  UNL     1      22.266   3.864   7.208  1.00  0.00     0.013 A 
HETATM    6  C2  UNL     1      21.185   4.679   7.545  1.00  0.00     0.038 A 
HETATM    7  C1  UNL     1      20.456   4.385   8.642  1.00  0.00     0.073 A 
HETATM    8  C19 UNL     1      20.733   3.296   9.471  1.00  0.00    -0.006 A 
HETATM    9  C18 UNL     1      21.785   2.505   9.122  1.00  0.00     0.018 A 
HETATM   10  C20 UNL     1      20.052   2.908  10.703  1.00  0.00     0.058 C 
HETATM   11  S1  UNL     1      21.884   1.223  10.327  1.00  0.00    -0.123 SA
HETATM   12  C21 UNL     1      20.122   1.403  10.864  1.00  0.00     0.061 C 
BRANCH   7  13
HETATM   13  O1  UNL     1      19.392   5.225   8.916  1.00  0.00    -0.360 OA
ATOM     14  H1  UNL     1      18.525   4.872   8.756  1.00  0.00     0.217 HD
ENDBRANCH   7  13
BRANCH  12  15
HETATM   15  C22 UNL     1      19.869   0.890  12.228  1.00  0.00    -0.000 A 
HETATM   16  C23 UNL     1      18.377   0.757  12.601  1.00  0.00     0.006 A 
HETATM   17  C24 UNL     1      19.225   1.742  13.273  1.00  0.00     0.006 A 
ENDBRANCH  12  15
ENDBRANCH   3   4
ENDBRANCH   1   3
BRANCH   1  18
HETATM   18  C6  UNL     1      25.579   0.693   8.583  1.00  0.00     0.056 C 
BRANCH  18  19
HETATM   19  C7  UNL     1      26.222   0.328   9.832  1.00  0.00     0.044 C 
BRANCH  19  20
HETATM   20  C8  UNL     1      27.259  -0.734   9.900  1.00  0.00     0.010 C 
BRANCH  20  21
HETATM   21  C9  UNL     1      26.818  -1.799   8.837  1.00  0.00     0.044 C 
BRANCH  21  22
HETATM   22  C10 UNL     1      28.004  -2.040   7.993  1.00  0.00     0.056 C 
HETATM   23  N2  UNL     1      29.012  -1.175   7.716  1.00  0.00    -0.398 N 
ATOM     24  H2  UNL     1      29.867  -1.181   8.271  1.00  0.00     0.158 HD
BRANCH  23  25
HETATM   25  C11 UNL     1      28.852  -0.234   6.607  1.00  0.00     0.157 C 
BRANCH  25  26
HETATM   26  C12 UNL     1      30.287  -0.376   5.983  1.00  0.00    -0.041 A 
HETATM   27  C13 UNL     1      30.720  -1.642   5.680  1.00  0.00     0.009 A 
HETATM   28  C14 UNL     1      31.895  -1.873   4.963  1.00  0.00     0.001 A 
HETATM   29  C15 UNL     1      32.612  -0.796   4.562  1.00  0.00     0.000 A 
HETATM   30  C16 UNL     1      32.165   0.484   4.874  1.00  0.00     0.001 A 
HETATM   31  C17 UNL     1      30.994   0.705   5.585  1.00  0.00     0.009 A 
ENDBRANCH  25  26
ENDBRANCH  23  25
ENDBRANCH  21  22
ENDBRANCH  20  21
ENDBRANCH  19  20
ENDBRANCH  18  19
ENDBRANCH   1  18
TORSDOF 11
ENDMDL
