MODEL 1
REMARK VINA RESULT: -5.781494903      0.000      0.000
REMARK  2 active torsions:
REMARK  status: ('A' for Active; 'I' for Inactive)
REMARK       I    between atoms: C1_2  and  N2_4 
REMARK       I    between atoms: N2_4  and  C2_6 
REMARK    1  A    between atoms: N4_8  and  C3_10 
REMARK    2  A    between atoms: N5_11  and  O2_13 
ROOT
HETATM    1  N1  UNL     1      78.851  84.682  18.725  1.00  0.00    -0.040 NA
HETATM    2  C1  UNL     1      78.858  86.096  18.684  1.00  0.00     0.335 C 
HETATM    3  O1  UNL     1      79.306  86.657  17.651  1.00  0.00    -0.251 OA
HETATM    4  N2  UNL     1      78.377  86.880  19.768  1.00  0.00    -0.285 N 
ATOM      5  H2  UNL     1      78.015  86.415  20.601  1.00  0.00     0.172 HD
HETATM    6  C2  UNL     1      78.391  88.291  19.711  1.00  0.00     0.196 C 
HETATM    7  N3  UNL     1      78.874  89.026  18.597  1.00  0.00    -0.063 NA
HETATM    8  N4  UNL     1      77.943  88.943  20.725  1.00  0.00    -0.325 N 
ATOM      9  H4  UNL     1      77.598  88.408  21.522  1.00  0.00     0.169 HD
ENDROOT
BRANCH   8  10
HETATM   10  C3  UNL     1      77.898  90.350  20.803  1.00  0.00     0.206 C 
HETATM   11  N5  UNL     1      77.036  91.056  20.172  1.00  0.00    -0.265 N 
ATOM     12  H5  UNL     1      77.052  92.072  20.269  1.00  0.00     0.194 HD
BRANCH  11  13
HETATM   13  O2  UNL     1      76.088  90.469  19.364  1.00  0.00    -0.289 OA
ATOM     14  H2  UNL     1      75.710  90.938  18.629  1.00  0.00     0.244 HD
ENDBRANCH  11  13
ENDBRANCH   8  10
TORSDOF 2
ENDMDL
MODEL 2
REMARK VINA RESULT: -5.521111422      2.280      2.559
REMARK  2 active torsions:
REMARK  status: ('A' for Active; 'I' for Inactive)
REMARK       I    between atoms: C1_2  and  N2_4 
REMARK       I    between atoms: N2_4  and  C2_6 
REMARK    1  A    between atoms: N4_8  and  C3_10 
REMARK    2  A    between atoms: N5_11  and  O2_13 
ROOT
HETATM    1  N1  UNL     1      76.500  86.850  15.289  1.00  0.00    -0.040 NA
HETATM    2  C1  UNL     1      77.332  87.012  16.422  1.00  0.00     0.335 C 
HETATM    3  O1  UNL     1      78.036  86.035  16.785  1.00  0.00    -0.251 OA
HETATM    4  N2  UNL     1      77.385  88.235  17.144  1.00  0.00    -0.285 N 
ATOM      5  H2  UNL     1      76.810  89.022  16.842  1.00  0.00     0.172 HD
HETATM    6  C2  UNL     1      78.220  88.380  18.274  1.00  0.00     0.196 C 
HETATM    7  N3  UNL     1      79.055  87.345  18.770  1.00  0.00    -0.063 NA
HETATM    8  N4  UNL     1      78.223  89.511  18.885  1.00  0.00    -0.325 N 
ATOM      9  H4  UNL     1      77.620  90.250  18.523  1.00  0.00     0.169 HD
ENDROOT
BRANCH   8  10
HETATM   10  C3  UNL     1      79.006  89.795  20.022  1.00  0.00     0.206 C 
HETATM   11  N5  UNL     1      78.542  89.761  21.215  1.00  0.00    -0.265 N 
ATOM     12  H5  UNL     1      79.158  89.975  21.999  1.00  0.00     0.194 HD
BRANCH  11  13
HETATM   13  O2  UNL     1      77.225  89.440  21.457  1.00  0.00    -0.289 OA
ATOM     14  H2  UNL     1      76.559  89.561  20.790  1.00  0.00     0.244 HD
ENDBRANCH  11  13
ENDBRANCH   8  10
TORSDOF 2
ENDMDL
MODEL 3
REMARK VINA RESULT: -5.480570858      1.629      1.629
REMARK  2 active torsions:
REMARK  status: ('A' for Active; 'I' for Inactive)
REMARK       I    between atoms: C1_2  and  N2_4 
REMARK       I    between atoms: N2_4  and  C2_6 
REMARK    1  A    between atoms: N4_8  and  C3_10 
REMARK    2  A    between atoms: N5_11  and  O2_13 
ROOT
HETATM    1  N1  UNL     1      76.794  85.346  16.757  1.00  0.00    -0.040 NA
HETATM    2  C1  UNL     1      77.234  86.642  17.117  1.00  0.00     0.335 C 
HETATM    3  O1  UNL     1      77.602  87.419  16.199  1.00  0.00    -0.251 OA
HETATM    4  N2  UNL     1      77.268  87.072  18.471  1.00  0.00    -0.285 N 
ATOM      5  H2  UNL     1      76.967  86.434  19.208  1.00  0.00     0.172 HD
HETATM    6  C2  UNL     1      77.712  88.369  18.813  1.00  0.00     0.196 C 
HETATM    7  N3  UNL     1      78.148  89.325  17.861  1.00  0.00    -0.063 NA
HETATM    8  N4  UNL     1      77.719  88.698  20.056  1.00  0.00    -0.325 N 
ATOM      9  H4  UNL     1      77.405  88.005  20.736  1.00  0.00     0.169 HD
ENDROOT
BRANCH   8  10
HETATM   10  C3  UNL     1      78.135  89.956  20.539  1.00  0.00     0.206 C 
HETATM   11  N5  UNL     1      77.403  91.005  20.474  1.00  0.00    -0.265 N 
ATOM     12  H5  UNL     1      77.759  91.887  20.842  1.00  0.00     0.194 HD
BRANCH  11  13
HETATM   13  O2  UNL     1      76.145  90.961  19.917  1.00  0.00    -0.289 OA
ATOM     14  H2  UNL     1      75.392  91.314  20.376  1.00  0.00     0.244 HD
ENDBRANCH  11  13
ENDBRANCH   8  10
TORSDOF 2
ENDMDL
MODEL 4
REMARK VINA RESULT: -5.337792167      1.264      1.509
REMARK  2 active torsions:
REMARK  status: ('A' for Active; 'I' for Inactive)
REMARK       I    between atoms: C1_2  and  N2_4 
REMARK       I    between atoms: N2_4  and  C2_6 
REMARK    1  A    between atoms: N4_8  and  C3_10 
REMARK    2  A    between atoms: N5_11  and  O2_13 
ROOT
HETATM    1  N1  UNL     1      78.436  85.235  16.651  1.00  0.00    -0.040 NA
HETATM    2  C1  UNL     1      78.589  85.998  17.833  1.00  0.00     0.335 C 
HETATM    3  O1  UNL     1      78.968  85.405  18.876  1.00  0.00    -0.251 OA
HETATM    4  N2  UNL     1      78.326  87.395  17.863  1.00  0.00    -0.285 N 
ATOM      5  H2  UNL     1      78.020  87.866  17.012  1.00  0.00     0.172 HD
HETATM    6  C2  UNL     1      78.483  88.141  19.052  1.00  0.00     0.196 C 
HETATM    7  N3  UNL     1      78.904  87.576  20.283  1.00  0.00    -0.063 NA
HETATM    8  N4  UNL     1      78.228  89.401  19.014  1.00  0.00    -0.325 N 
ATOM      9  H4  UNL     1      77.925  89.801  18.126  1.00  0.00     0.169 HD
ENDROOT
BRANCH   8  10
HETATM   10  C3  UNL     1      78.342  90.265  20.123  1.00  0.00     0.206 C 
HETATM   11  N5  UNL     1      77.377  90.995  20.540  1.00  0.00    -0.265 N 
ATOM     12  H5  UNL     1      77.519  91.600  21.349  1.00  0.00     0.194 HD
BRANCH  11  13
HETATM   13  O2  UNL     1      76.150  90.978  19.916  1.00  0.00    -0.289 OA
ATOM     14  H2  UNL     1      75.667  91.781  19.757  1.00  0.00     0.244 HD
ENDBRANCH  11  13
ENDBRANCH   8  10
TORSDOF 2
ENDMDL
MODEL 5
REMARK VINA RESULT: -5.337147903      1.879      1.973
REMARK  2 active torsions:
REMARK  status: ('A' for Active; 'I' for Inactive)
REMARK       I    between atoms: C1_2  and  N2_4 
REMARK       I    between atoms: N2_4  and  C2_6 
REMARK    1  A    between atoms: N4_8  and  C3_10 
REMARK    2  A    between atoms: N5_11  and  O2_13 
ROOT
HETATM    1  N1  UNL     1      77.924  85.280  16.192  1.00  0.00    -0.040 NA
HETATM    2  C1  UNL     1      78.072  86.020  17.389  1.00  0.00     0.335 C 
HETATM    3  O1  UNL     1      78.864  85.581  18.262  1.00  0.00    -0.251 OA
HETATM    4  N2  UNL     1      77.356  87.226  17.618  1.00  0.00    -0.285 N 
ATOM      5  H2  UNL     1      76.717  87.573  16.903  1.00  0.00     0.172 HD
HETATM    6  C2  UNL     1      77.515  87.952  18.819  1.00  0.00     0.196 C 
HETATM    7  N3  UNL     1      78.380  87.550  19.870  1.00  0.00    -0.063 NA
HETATM    8  N4  UNL     1      76.839  89.036  18.966  1.00  0.00    -0.325 N 
ATOM      9  H4  UNL     1      76.219  89.318  18.207  1.00  0.00     0.169 HD
ENDROOT
BRANCH   8  10
HETATM   10  C3  UNL     1      76.900  89.857  20.110  1.00  0.00     0.206 C 
HETATM   11  N5  UNL     1      77.914  90.588  20.390  1.00  0.00    -0.265 N 
ATOM     12  H5  UNL     1      77.900  91.163  21.233  1.00  0.00     0.194 HD
BRANCH  11  13
HETATM   13  O2  UNL     1      79.023  90.611  19.574  1.00  0.00    -0.289 OA
ATOM     14  H2  UNL     1      79.780  91.144  19.789  1.00  0.00     0.244 HD
ENDBRANCH  11  13
ENDBRANCH   8  10
TORSDOF 2
ENDMDL
