MODEL 1
REMARK VINA RESULT: -5.465191035      0.000      0.000
REMARK  4 active torsions:
REMARK  status: ('A' for Active; 'I' for Inactive)
REMARK    1  A    between atoms: N1_2  and  N2_4 
REMARK    2  A    between atoms: N2_4  and  N3_5 
REMARK       I    between atoms: N3_5  and  C3_7 
REMARK       I    between atoms: C3_7  and  N4_9 
REMARK    3  A    between atoms: N4_9  and  O2_11 
REMARK    4  A    between atoms: O2_11  and  C4_12 
ROOT
HETATM    1  N3  UNL     1      77.113  88.154  16.056  1.00  0.00    -0.238 N 
ATOM      2  H3  UNL     1      76.299  88.734  15.848  1.00  0.00     0.188 HD
HETATM    3  C3  UNL     1      78.154  88.477  16.991  1.00  0.00     0.357 C 
HETATM    4  O1  UNL     1      79.113  87.689  17.171  1.00  0.00    -0.244 OA
HETATM    5  N4  UNL     1      78.108  89.689  17.718  1.00  0.00    -0.205 N 
ATOM      6  H4  UNL     1      77.335  90.341  17.583  1.00  0.00     0.200 HD
ENDROOT
BRANCH   1   7
HETATM    7  N2  UNL     1      77.397  86.925  15.483  1.00  0.00    -0.045 NA
BRANCH   7   8
HETATM    8  N1  UNL     1      76.631  86.647  14.360  1.00  0.00    -0.222 NA
HETATM    9  C1  UNL     1      75.572  85.709  14.603  1.00  0.00     0.133 C 
HETATM   10  C2  UNL     1      76.049  87.898  13.908  1.00  0.00     0.133 C 
ENDBRANCH   7   8
ENDBRANCH   1   7
BRANCH   5  11
HETATM   11  O2  UNL     1      79.105  89.979  18.602  1.00  0.00    -0.179 OA
BRANCH  11  12
HETATM   12  C4  UNL     1      79.013  89.824  19.970  1.00  0.00     0.394 C 
HETATM   13  N5  UNL     1      79.602  88.683  20.557  1.00  0.00    -0.031 NA
HETATM   14  O3  UNL     1      78.409  90.708  20.624  1.00  0.00    -0.240 OA
ENDBRANCH  11  12
ENDBRANCH   5  11
TORSDOF 4
ENDMDL
MODEL 2
REMARK VINA RESULT: -5.455674069      1.326      1.329
REMARK  4 active torsions:
REMARK  status: ('A' for Active; 'I' for Inactive)
REMARK    1  A    between atoms: N1_2  and  N2_4 
REMARK    2  A    between atoms: N2_4  and  N3_5 
REMARK       I    between atoms: N3_5  and  C3_7 
REMARK       I    between atoms: C3_7  and  N4_9 
REMARK    3  A    between atoms: N4_9  and  O2_11 
REMARK    4  A    between atoms: O2_11  and  C4_12 
ROOT
HETATM    1  N3  UNL     1      76.970  87.981  15.694  1.00  0.00    -0.238 N 
ATOM      2  H3  UNL     1      76.294  88.637  15.300  1.00  0.00     0.188 HD
HETATM    3  C3  UNL     1      77.694  88.161  16.921  1.00  0.00     0.357 C 
HETATM    4  O1  UNL     1      78.504  87.287  17.313  1.00  0.00    -0.244 OA
HETATM    5  N4  UNL     1      77.501  89.326  17.698  1.00  0.00    -0.205 N 
ATOM      6  H4  UNL     1      76.847  90.046  17.392  1.00  0.00     0.200 HD
ENDROOT
BRANCH   1   7
HETATM    7  N2  UNL     1      77.341  86.770  15.133  1.00  0.00    -0.045 NA
BRANCH   7   8
HETATM    8  N1  UNL     1      76.603  86.431  14.007  1.00  0.00    -0.222 NA
HETATM    9  C1  UNL     1      75.844  85.222  14.159  1.00  0.00     0.133 C 
HETATM   10  C2  UNL     1      75.686  87.525  13.741  1.00  0.00     0.133 C 
ENDBRANCH   7   8
ENDBRANCH   1   7
BRANCH   5  11
HETATM   11  O2  UNL     1      78.198  89.479  18.860  1.00  0.00    -0.179 OA
BRANCH  11  12
HETATM   12  C4  UNL     1      77.624  89.627  20.107  1.00  0.00     0.394 C 
HETATM   13  N5  UNL     1      76.318  90.156  20.186  1.00  0.00    -0.031 NA
HETATM   14  O3  UNL     1      78.295  89.280  21.109  1.00  0.00    -0.240 OA
ENDBRANCH  11  12
ENDBRANCH   5  11
TORSDOF 4
ENDMDL
MODEL 3
REMARK VINA RESULT: -5.402457322      1.055      1.380
REMARK  4 active torsions:
REMARK  status: ('A' for Active; 'I' for Inactive)
REMARK    1  A    between atoms: N1_2  and  N2_4 
REMARK    2  A    between atoms: N2_4  and  N3_5 
REMARK       I    between atoms: N3_5  and  C3_7 
REMARK       I    between atoms: C3_7  and  N4_9 
REMARK    3  A    between atoms: N4_9  and  O2_11 
REMARK    4  A    between atoms: O2_11  and  C4_12 
ROOT
HETATM    1  N3  UNL     1      77.266  88.333  16.098  1.00  0.00    -0.238 N 
ATOM      2  H3  UNL     1      76.641  89.072  15.774  1.00  0.00     0.188 HD
HETATM    3  C3  UNL     1      78.245  88.460  17.141  1.00  0.00     0.357 C 
HETATM    4  O1  UNL     1      78.962  87.483  17.461  1.00  0.00    -0.244 OA
HETATM    5  N4  UNL     1      78.410  89.691  17.817  1.00  0.00    -0.205 N 
ATOM      6  H4  UNL     1      77.834  90.496  17.568  1.00  0.00     0.200 HD
ENDROOT
BRANCH   1   7
HETATM    7  N2  UNL     1      77.309  87.039  15.604  1.00  0.00    -0.045 NA
BRANCH   7   8
HETATM    8  N1  UNL     1      76.231  86.719  14.791  1.00  0.00    -0.222 NA
HETATM    9  C1  UNL     1      75.905  87.744  13.839  1.00  0.00     0.133 C 
HETATM   10  C2  UNL     1      76.574  85.507  14.069  1.00  0.00     0.133 C 
ENDBRANCH   7   8
ENDBRANCH   1   7
BRANCH   5  11
HETATM   11  O2  UNL     1      79.344  89.794  18.804  1.00  0.00    -0.179 OA
BRANCH  11  12
HETATM   12  C4  UNL     1      79.070  89.733  20.156  1.00  0.00     0.394 C 
HETATM   13  N5  UNL     1      78.190  90.689  20.706  1.00  0.00    -0.031 NA
HETATM   14  O3  UNL     1      79.618  88.826  20.828  1.00  0.00    -0.240 OA
ENDBRANCH  11  12
ENDBRANCH   5  11
TORSDOF 4
ENDMDL
MODEL 4
REMARK VINA RESULT: -5.364334319      2.397      2.946
REMARK  4 active torsions:
REMARK  status: ('A' for Active; 'I' for Inactive)
REMARK    1  A    between atoms: N1_2  and  N2_4 
REMARK    2  A    between atoms: N2_4  and  N3_5 
REMARK       I    between atoms: N3_5  and  C3_7 
REMARK       I    between atoms: C3_7  and  N4_9 
REMARK    3  A    between atoms: N4_9  and  O2_11 
REMARK    4  A    between atoms: O2_11  and  C4_12 
ROOT
HETATM    1  N3  UNL     1      79.039  86.623  18.828  1.00  0.00    -0.238 N 
ATOM      2  H3  UNL     1      78.921  85.913  19.552  1.00  0.00     0.188 HD
HETATM    3  C3  UNL     1      78.964  88.043  19.028  1.00  0.00     0.357 C 
HETATM    4  O1  UNL     1      79.126  88.829  18.065  1.00  0.00    -0.244 OA
HETATM    5  N4  UNL     1      78.706  88.568  20.315  1.00  0.00    -0.205 N 
ATOM      6  H4  UNL     1      78.572  87.942  21.109  1.00  0.00     0.200 HD
ENDROOT
BRANCH   1   7
HETATM    7  N2  UNL     1      79.298  86.377  17.489  1.00  0.00    -0.045 NA
BRANCH   7   8
HETATM    8  N1  UNL     1      78.572  85.313  16.971  1.00  0.00    -0.222 NA
HETATM    9  C1  UNL     1      78.179  84.349  17.959  1.00  0.00     0.133 C 
HETATM   10  C2  UNL     1      77.377  85.860  16.354  1.00  0.00     0.133 C 
ENDBRANCH   7   8
ENDBRANCH   1   7
BRANCH   5  11
HETATM   11  O2  UNL     1      78.638  89.919  20.486  1.00  0.00    -0.179 OA
BRANCH  11  12
HETATM   12  C4  UNL     1      77.470  90.631  20.669  1.00  0.00     0.394 C 
HETATM   13  N5  UNL     1      76.275  90.107  20.131  1.00  0.00    -0.031 NA
HETATM   14  O3  UNL     1      77.530  91.710  21.307  1.00  0.00    -0.240 OA
ENDBRANCH  11  12
ENDBRANCH   5  11
TORSDOF 4
ENDMDL
MODEL 5
REMARK VINA RESULT: -5.267654625      1.839      5.684
REMARK  4 active torsions:
REMARK  status: ('A' for Active; 'I' for Inactive)
REMARK    1  A    between atoms: N1_2  and  N2_4 
REMARK    2  A    between atoms: N2_4  and  N3_5 
REMARK       I    between atoms: N3_5  and  C3_7 
REMARK       I    between atoms: C3_7  and  N4_9 
REMARK    3  A    between atoms: N4_9  and  O2_11 
REMARK    4  A    between atoms: O2_11  and  C4_12 
ROOT
HETATM    1  N3  UNL     1      78.554  89.717  17.771  1.00  0.00    -0.238 N 
ATOM      2  H3  UNL     1      77.895  90.497  17.789  1.00  0.00     0.188 HD
HETATM    3  C3  UNL     1      78.355  88.470  17.087  1.00  0.00     0.357 C 
HETATM    4  O1  UNL     1      79.234  87.576  17.130  1.00  0.00    -0.244 OA
HETATM    5  N4  UNL     1      77.165  88.237  16.360  1.00  0.00    -0.205 N 
ATOM      6  H4  UNL     1      76.441  88.954  16.316  1.00  0.00     0.200 HD
ENDROOT
BRANCH   1   7
HETATM    7  N2  UNL     1      79.788  89.687  18.400  1.00  0.00    -0.045 NA
BRANCH   7   8
HETATM    8  N1  UNL     1      79.704  89.708  19.786  1.00  0.00    -0.222 NA
HETATM    9  C1  UNL     1      78.390  90.013  20.278  1.00  0.00     0.133 C 
HETATM   10  C2  UNL     1      80.086  88.392  20.266  1.00  0.00     0.133 C 
ENDBRANCH   7   8
ENDBRANCH   1   7
BRANCH   5  11
HETATM   11  O2  UNL     1      76.994  87.047  15.718  1.00  0.00    -0.179 OA
BRANCH  11  12
HETATM   12  C4  UNL     1      76.411  86.901  14.475  1.00  0.00     0.394 C 
HETATM   13  N5  UNL     1      76.704  85.740  13.729  1.00  0.00    -0.031 NA
HETATM   14  O3  UNL     1      75.646  87.811  14.072  1.00  0.00    -0.240 OA
ENDBRANCH  11  12
ENDBRANCH   5  11
TORSDOF 4
ENDMDL
