MODEL 1
REMARK VINA RESULT: -4.936397089      0.000      0.000
REMARK  4 active torsions:
REMARK  status: ('A' for Active; 'I' for Inactive)
REMARK    1  A    between atoms: N2_4  and  C1_6 
REMARK    2  A    between atoms: C1_6  and  N3_7 
REMARK    3  A    between atoms: C1_6  and  N4_11 
REMARK    4  A    between atoms: C1_6  and  C2_15 
ROOT
HETATM    1  C1  UNL     1      77.484  88.560  18.683  1.00  0.00     0.449 C 
ENDROOT
BRANCH   1   2
HETATM    2  N2  UNL     1      78.444  89.151  17.810  1.00  0.00    -0.277 N 
HETATM    3  N1  UNL     1      79.583  89.499  18.184  1.00  0.00    -0.345 N 
ATOM      4  H12 UNL     1      79.822  89.346  19.163  1.00  0.00     0.176 HD
ATOM      5  H11 UNL     1      80.269  89.921  17.559  1.00  0.00     0.176 HD
ATOM      6  H2  UNL     1      78.187  89.296  16.833  1.00  0.00     0.184 HD
ENDBRANCH   1   2
BRANCH   1   7
HETATM    7  N3  UNL     1      76.777  87.457  18.075  1.00  0.00    -0.017 N 
ATOM      8  H33 UNL     1      76.988  87.392  17.079  1.00  0.00     0.280 HD
ATOM      9  H32 UNL     1      77.160  86.564  18.384  1.00  0.00     0.280 HD
ATOM     10  H31 UNL     1      75.771  87.497  18.233  1.00  0.00     0.280 HD
ENDBRANCH   1   7
BRANCH   1  11
HETATM   11  N4  UNL     1      76.485  89.569  19.022  1.00  0.00    -0.017 N 
ATOM     12  H43 UNL     1      76.569  90.411  18.453  1.00  0.00     0.280 HD
ATOM     13  H42 UNL     1      75.544  89.299  18.734  1.00  0.00     0.280 HD
ATOM     14  H41 UNL     1      76.547  89.763  20.021  1.00  0.00     0.280 HD
ENDBRANCH   1  11
BRANCH   1  15
HETATM   15  C2  UNL     1      78.112  88.134  19.976  1.00  0.00     0.318 C 
HETATM   16  N5  UNL     1      78.747  86.872  20.083  1.00  0.00    -0.056 NA
HETATM   17  O1  UNL     1      78.043  88.942  20.937  1.00  0.00    -0.270 OA
ENDBRANCH   1  15
TORSDOF 4
ENDMDL
MODEL 2
REMARK VINA RESULT: -4.931807267      1.143      1.542
REMARK  4 active torsions:
REMARK  status: ('A' for Active; 'I' for Inactive)
REMARK    1  A    between atoms: N2_4  and  C1_6 
REMARK    2  A    between atoms: C1_6  and  N3_7 
REMARK    3  A    between atoms: C1_6  and  N4_11 
REMARK    4  A    between atoms: C1_6  and  C2_15 
ROOT
HETATM    1  C1  UNL     1      77.891  88.616  18.891  1.00  0.00     0.449 C 
ENDROOT
BRANCH   1   2
HETATM    2  N2  UNL     1      78.731  89.069  17.833  1.00  0.00    -0.277 N 
HETATM    3  N1  UNL     1      79.837  89.614  18.026  1.00  0.00    -0.345 N 
ATOM      4  H12 UNL     1      80.140  89.733  18.993  1.00  0.00     0.176 HD
ATOM      5  H11 UNL     1      80.438  89.939  17.269  1.00  0.00     0.176 HD
ATOM      6  H2  UNL     1      78.413  88.943  16.872  1.00  0.00     0.184 HD
ENDBRANCH   1   2
BRANCH   1   7
HETATM    7  N3  UNL     1      77.800  87.175  18.956  1.00  0.00    -0.017 N 
ATOM      8  H33 UNL     1      77.789  86.767  18.022  1.00  0.00     0.280 HD
ATOM      9  H32 UNL     1      78.669  86.770  19.304  1.00  0.00     0.280 HD
ATOM     10  H31 UNL     1      77.003  86.854  19.505  1.00  0.00     0.280 HD
ENDBRANCH   1   7
BRANCH   1  11
HETATM   11  N4  UNL     1      76.540  89.115  18.655  1.00  0.00    -0.017 N 
ATOM     12  H43 UNL     1      76.296  89.135  17.665  1.00  0.00     0.280 HD
ATOM     13  H42 UNL     1      75.822  88.459  18.962  1.00  0.00     0.280 HD
ATOM     14  H41 UNL     1      76.451  90.029  19.099  1.00  0.00     0.280 HD
ENDBRANCH   1  11
BRANCH   1  15
HETATM   15  C2  UNL     1      78.326  89.176  20.212  1.00  0.00     0.318 C 
HETATM   16  N5  UNL     1      77.784  90.396  20.686  1.00  0.00    -0.056 NA
HETATM   17  O1  UNL     1      79.177  88.516  20.860  1.00  0.00    -0.270 OA
ENDBRANCH   1  15
TORSDOF 4
ENDMDL
MODEL 3
REMARK VINA RESULT: -4.876070820      1.234      1.234
REMARK  4 active torsions:
REMARK  status: ('A' for Active; 'I' for Inactive)
REMARK    1  A    between atoms: N2_4  and  C1_6 
REMARK    2  A    between atoms: C1_6  and  N3_7 
REMARK    3  A    between atoms: C1_6  and  N4_11 
REMARK    4  A    between atoms: C1_6  and  C2_15 
ROOT
HETATM    1  C1  UNL     1      77.686  88.443  18.422  1.00  0.00     0.449 C 
ENDROOT
BRANCH   1   2
HETATM    2  N2  UNL     1      78.583  89.156  17.574  1.00  0.00    -0.277 N 
HETATM    3  N1  UNL     1      79.770  89.388  17.880  1.00  0.00    -0.345 N 
ATOM      4  H12 UNL     1      80.098  89.045  18.782  1.00  0.00     0.176 HD
ATOM      5  H11 UNL     1      80.411  89.898  17.273  1.00  0.00     0.176 HD
ATOM      6  H2  UNL     1      78.237  89.491  16.675  1.00  0.00     0.184 HD
ENDBRANCH   1   2
BRANCH   1   7
HETATM    7  N3  UNL     1      76.971  87.396  17.729  1.00  0.00    -0.017 N 
ATOM      8  H33 UNL     1      76.468  87.768  16.924  1.00  0.00     0.280 HD
ATOM      9  H32 UNL     1      77.617  86.771  17.246  1.00  0.00     0.280 HD
ATOM     10  H31 UNL     1      76.346  86.872  18.340  1.00  0.00     0.280 HD
ENDBRANCH   1   7
BRANCH   1  11
HETATM   11  N4  UNL     1      76.683  89.377  18.925  1.00  0.00    -0.017 N 
ATOM     12  H43 UNL     1      76.119  88.979  19.676  1.00  0.00     0.280 HD
ATOM     13  H42 UNL     1      77.095  90.146  19.453  1.00  0.00     0.280 HD
ATOM     14  H41 UNL     1      76.119  89.700  18.139  1.00  0.00     0.280 HD
ENDBRANCH   1  11
BRANCH   1  15
HETATM   15  C2  UNL     1      78.392  87.891  19.624  1.00  0.00     0.318 C 
HETATM   16  N5  UNL     1      78.539  88.679  20.793  1.00  0.00    -0.056 NA
HETATM   17  O1  UNL     1      78.834  86.718  19.538  1.00  0.00    -0.270 OA
ENDBRANCH   1  15
TORSDOF 4
ENDMDL
MODEL 4
REMARK VINA RESULT: -4.841263385      1.628      1.930
REMARK  4 active torsions:
REMARK  status: ('A' for Active; 'I' for Inactive)
REMARK    1  A    between atoms: N2_4  and  C1_6 
REMARK    2  A    between atoms: C1_6  and  N3_7 
REMARK    3  A    between atoms: C1_6  and  N4_11 
REMARK    4  A    between atoms: C1_6  and  C2_15 
ROOT
HETATM    1  C1  UNL     1      77.647  89.159  19.888  1.00  0.00     0.449 C 
ENDROOT
BRANCH   1   2
HETATM    2  N2  UNL     1      78.764  89.900  19.403  1.00  0.00    -0.277 N 
HETATM    3  N1  UNL     1      79.450  89.536  18.426  1.00  0.00    -0.345 N 
ATOM      4  H12 UNL     1      79.187  88.665  17.965  1.00  0.00     0.176 HD
ATOM      5  H11 UNL     1      80.249  90.066  18.078  1.00  0.00     0.176 HD
ATOM      6  H2  UNL     1      79.013  90.769  19.876  1.00  0.00     0.184 HD
ENDBRANCH   1   2
BRANCH   1   7
HETATM    7  N3  UNL     1      76.380  89.739  19.508  1.00  0.00    -0.017 N 
ATOM      8  H33 UNL     1      76.513  90.647  19.062  1.00  0.00     0.280 HD
ATOM      9  H32 UNL     1      75.966  89.231  18.727  1.00  0.00     0.280 HD
ATOM     10  H31 UNL     1      75.726  89.807  20.287  1.00  0.00     0.280 HD
ENDBRANCH   1   7
BRANCH   1  11
HETATM   11  N4  UNL     1      77.692  89.159  21.348  1.00  0.00    -0.017 N 
ATOM     12  H43 UNL     1      77.331  90.024  21.750  1.00  0.00     0.280 HD
ATOM     13  H42 UNL     1      77.012  88.520  21.760  1.00  0.00     0.280 HD
ATOM     14  H41 UNL     1      78.647  88.958  21.642  1.00  0.00     0.280 HD
ENDBRANCH   1  11
BRANCH   1  15
HETATM   15  C2  UNL     1      77.717  87.723  19.463  1.00  0.00     0.318 C 
HETATM   16  N5  UNL     1      78.509  86.798  20.187  1.00  0.00    -0.056 NA
HETATM   17  O1  UNL     1      77.048  87.395  18.450  1.00  0.00    -0.270 OA
ENDBRANCH   1  15
TORSDOF 4
ENDMDL
MODEL 5
REMARK VINA RESULT: -4.810804842      1.166      2.552
REMARK  4 active torsions:
REMARK  status: ('A' for Active; 'I' for Inactive)
REMARK    1  A    between atoms: N2_4  and  C1_6 
REMARK    2  A    between atoms: C1_6  and  N3_7 
REMARK    3  A    between atoms: C1_6  and  N4_11 
REMARK    4  A    between atoms: C1_6  and  C2_15 
ROOT
HETATM    1  C1  UNL     1      77.816  88.546  19.457  1.00  0.00     0.449 C 
ENDROOT
BRANCH   1   2
HETATM    2  N2  UNL     1      77.211  88.204  18.213  1.00  0.00    -0.277 N 
HETATM    3  N1  UNL     1      77.433  88.826  17.154  1.00  0.00    -0.345 N 
ATOM      4  H12 UNL     1      78.079  89.613  17.198  1.00  0.00     0.176 HD
ATOM      5  H11 UNL     1      77.000  88.581  16.263  1.00  0.00     0.176 HD
ATOM      6  H2  UNL     1      76.567  87.413  18.187  1.00  0.00     0.184 HD
ENDBRANCH   1   2
BRANCH   1   7
HETATM    7  N3  UNL     1      78.985  89.381  19.302  1.00  0.00    -0.017 N 
ATOM      8  H33 UNL     1      79.344  89.678  20.209  1.00  0.00     0.280 HD
ATOM      9  H32 UNL     1      79.783  88.835  18.978  1.00  0.00     0.280 HD
ATOM     10  H31 UNL     1      78.820  90.183  18.694  1.00  0.00     0.280 HD
ENDBRANCH   1   7
BRANCH   1  11
HETATM   11  N4  UNL     1      78.257  87.317  20.110  1.00  0.00    -0.017 N 
ATOM     12  H43 UNL     1      77.961  87.263  21.085  1.00  0.00     0.280 HD
ATOM     13  H42 UNL     1      77.763  86.493  19.769  1.00  0.00     0.280 HD
ATOM     14  H41 UNL     1      79.268  87.240  20.004  1.00  0.00     0.280 HD
ENDBRANCH   1  11
BRANCH   1  15
HETATM   15  C2  UNL     1      76.830  89.189  20.386  1.00  0.00     0.318 C 
HETATM   16  N5  UNL     1      75.813  90.034  19.878  1.00  0.00    -0.056 NA
HETATM   17  O1  UNL     1      76.954  88.939  21.612  1.00  0.00    -0.270 OA
ENDBRANCH   1  15
TORSDOF 4
ENDMDL
