MODEL 1
REMARK VINA RESULT: -5.235428190      0.000      0.000
REMARK  1 active torsions:
REMARK  status: ('A' for Active; 'I' for Inactive)
REMARK       I    between atoms: N1_2  and  C2_4 
REMARK       I    between atoms: C2_4  and  N2_6 
REMARK       I    between atoms: C3_8  and  N4_10 
REMARK    1  A    between atoms: N4_10  and  N5_12 
ROOT
HETATM    1  C1  UNL     1      77.557  84.242  16.742  1.00  0.00     0.151 C 
HETATM    2  N1  UNL     1      76.952  85.508  17.062  1.00  0.00    -0.347 N 
ATOM      3  H1  UNL     1      75.936  85.600  17.033  1.00  0.00     0.163 HD
HETATM    4  C2  UNL     1      77.744  86.633  17.420  1.00  0.00     0.322 C 
HETATM    5  O1  UNL     1      78.994  86.507  17.451  1.00  0.00    -0.247 OA
HETATM    6  N2  UNL     1      77.115  87.870  17.732  1.00  0.00    -0.282 N 
ATOM      7  H2  UNL     1      76.619  88.375  16.997  1.00  0.00     0.173 HD
HETATM    8  C3  UNL     1      77.155  88.365  18.914  1.00  0.00     0.210 C 
HETATM    9  N3  UNL     1      77.850  87.641  19.916  1.00  0.00    -0.062 NA
HETATM   10  N4  UNL     1      76.509  89.605  19.176  1.00  0.00    -0.280 N 
ATOM     11  H4  UNL     1      75.777  89.926  18.542  1.00  0.00     0.189 HD
ENDROOT
BRANCH  10  12
HETATM   12  N5  UNL     1      76.849  90.392  20.274  1.00  0.00    -0.343 N 
ATOM     13  H52 UNL     1      77.694  90.155  20.792  1.00  0.00     0.176 HD
ATOM     14  H51 UNL     1      76.278  91.187  20.563  1.00  0.00     0.176 HD
ENDBRANCH  10  12
TORSDOF 1
ENDMDL
MODEL 2
REMARK VINA RESULT: -4.971796871      2.264      2.437
REMARK  1 active torsions:
REMARK  status: ('A' for Active; 'I' for Inactive)
REMARK       I    between atoms: N1_2  and  C2_4 
REMARK       I    between atoms: C2_4  and  N2_6 
REMARK       I    between atoms: C3_8  and  N4_10 
REMARK    1  A    between atoms: N4_10  and  N5_12 
ROOT
HETATM    1  C1  UNL     1      75.306  83.918  17.117  1.00  0.00     0.151 C 
HETATM    2  N1  UNL     1      75.685  85.291  17.319  1.00  0.00    -0.347 N 
ATOM      3  H1  UNL     1      75.173  85.858  17.995  1.00  0.00     0.163 HD
HETATM    4  C2  UNL     1      76.762  85.872  16.595  1.00  0.00     0.322 C 
HETATM    5  O1  UNL     1      77.385  85.162  15.765  1.00  0.00    -0.247 OA
HETATM    6  N2  UNL     1      77.112  87.232  16.819  1.00  0.00    -0.282 N 
ATOM      7  H2  UNL     1      76.456  87.965  16.551  1.00  0.00     0.173 HD
HETATM    8  C3  UNL     1      78.233  87.558  17.350  1.00  0.00     0.210 C 
HETATM    9  N3  UNL     1      79.126  86.518  17.714  1.00  0.00    -0.062 NA
HETATM   10  N4  UNL     1      78.536  88.933  17.554  1.00  0.00    -0.280 N 
ATOM     11  H4  UNL     1      77.774  89.610  17.579  1.00  0.00     0.189 HD
ENDROOT
BRANCH  10  12
HETATM   12  N5  UNL     1      79.846  89.379  17.722  1.00  0.00    -0.343 N 
ATOM     13  H52 UNL     1      80.513  88.753  18.173  1.00  0.00     0.176 HD
ATOM     14  H51 UNL     1      80.144  90.303  17.407  1.00  0.00     0.176 HD
ENDBRANCH  10  12
TORSDOF 1
ENDMDL
MODEL 3
REMARK VINA RESULT: -4.585495937      1.441      1.564
REMARK  1 active torsions:
REMARK  status: ('A' for Active; 'I' for Inactive)
REMARK       I    between atoms: N1_2  and  C2_4 
REMARK       I    between atoms: C2_4  and  N2_6 
REMARK       I    between atoms: C3_8  and  N4_10 
REMARK    1  A    between atoms: N4_10  and  N5_12 
ROOT
HETATM    1  C1  UNL     1      76.678  84.987  15.655  1.00  0.00     0.151 C 
HETATM    2  N1  UNL     1      76.489  85.661  16.913  1.00  0.00    -0.347 N 
ATOM      3  H1  UNL     1      75.912  85.226  17.633  1.00  0.00     0.163 HD
HETATM    4  C2  UNL     1      77.094  86.922  17.171  1.00  0.00     0.322 C 
HETATM    5  O1  UNL     1      77.802  87.447  16.275  1.00  0.00    -0.247 OA
HETATM    6  N2  UNL     1      76.888  87.560  18.425  1.00  0.00    -0.282 N 
ATOM      7  H2  UNL     1      75.954  87.890  18.668  1.00  0.00     0.173 HD
HETATM    8  C3  UNL     1      77.849  87.732  19.257  1.00  0.00     0.210 C 
HETATM    9  N3  UNL     1      79.137  87.264  18.893  1.00  0.00    -0.062 NA
HETATM   10  N4  UNL     1      77.592  88.376  20.498  1.00  0.00    -0.280 N 
ATOM     11  H4  UNL     1      76.635  88.410  20.851  1.00  0.00     0.189 HD
ENDROOT
BRANCH  10  12
HETATM   12  N5  UNL     1      78.611  88.963  21.247  1.00  0.00    -0.343 N 
ATOM     13  H52 UNL     1      79.427  89.320  20.749  1.00  0.00     0.176 HD
ATOM     14  H51 UNL     1      78.557  89.039  22.263  1.00  0.00     0.176 HD
ENDBRANCH  10  12
TORSDOF 1
ENDMDL
MODEL 4
REMARK VINA RESULT: -4.491186049      1.653      4.340
REMARK  1 active torsions:
REMARK  status: ('A' for Active; 'I' for Inactive)
REMARK       I    between atoms: N1_2  and  C2_4 
REMARK       I    between atoms: C2_4  and  N2_6 
REMARK       I    between atoms: C3_8  and  N4_10 
REMARK    1  A    between atoms: N4_10  and  N5_12 
ROOT
HETATM    1  C1  UNL     1      78.500  89.617  20.286  1.00  0.00     0.151 C 
HETATM    2  N1  UNL     1      77.715  89.027  19.234  1.00  0.00    -0.347 N 
ATOM      3  H1  UNL     1      77.270  89.631  18.543  1.00  0.00     0.163 HD
HETATM    4  C2  UNL     1      77.548  87.618  19.141  1.00  0.00     0.322 C 
HETATM    5  O1  UNL     1      78.101  86.886  20.000  1.00  0.00    -0.247 OA
HETATM    6  N2  UNL     1      76.767  87.067  18.089  1.00  0.00    -0.282 N 
ATOM      7  H2  UNL     1      75.763  87.249  18.067  1.00  0.00     0.173 HD
HETATM    8  C3  UNL     1      77.292  86.348  17.167  1.00  0.00     0.210 C 
HETATM    9  N3  UNL     1      78.690  86.112  17.221  1.00  0.00    -0.062 NA
HETATM   10  N4  UNL     1      76.468  85.820  16.135  1.00  0.00    -0.280 N 
ATOM     11  H4  UNL     1      75.563  86.255  15.953  1.00  0.00     0.189 HD
ENDROOT
BRANCH  10  12
HETATM   12  N5  UNL     1      76.861  84.726  15.368  1.00  0.00    -0.343 N 
ATOM     13  H52 UNL     1      77.403  84.903  14.521  1.00  0.00     0.176 HD
ATOM     14  H51 UNL     1      76.621  83.770  15.631  1.00  0.00     0.176 HD
ENDBRANCH  10  12
TORSDOF 1
ENDMDL
MODEL 5
REMARK VINA RESULT: -4.482890511      2.341      4.738
REMARK  1 active torsions:
REMARK  status: ('A' for Active; 'I' for Inactive)
REMARK       I    between atoms: N1_2  and  C2_4 
REMARK       I    between atoms: C2_4  and  N2_6 
REMARK       I    between atoms: C3_8  and  N4_10 
REMARK    1  A    between atoms: N4_10  and  N5_12 
ROOT
HETATM    1  C1  UNL     1      77.331  90.377  20.828  1.00  0.00     0.151 C 
HETATM    2  N1  UNL     1      77.607  88.975  20.999  1.00  0.00    -0.347 N 
ATOM      3  H1  UNL     1      77.188  88.474  21.783  1.00  0.00     0.163 HD
HETATM    4  C2  UNL     1      78.453  88.276  20.095  1.00  0.00     0.322 C 
HETATM    5  O1  UNL     1      78.963  88.905  19.134  1.00  0.00    -0.247 OA
HETATM    6  N2  UNL     1      78.705  86.890  20.292  1.00  0.00    -0.282 N 
ATOM      7  H2  UNL     1      79.233  86.592  21.112  1.00  0.00     0.173 HD
HETATM    8  C3  UNL     1      78.284  86.006  19.464  1.00  0.00     0.210 C 
HETATM    9  N3  UNL     1      77.553  86.449  18.332  1.00  0.00    -0.062 NA
HETATM   10  N4  UNL     1      78.562  84.633  19.705  1.00  0.00    -0.280 N 
ATOM     11  H4  UNL     1      78.799  84.334  20.651  1.00  0.00     0.189 HD
ENDROOT
BRANCH  10  12
HETATM   12  N5  UNL     1      78.518  83.684  18.686  1.00  0.00    -0.343 N 
ATOM     13  H52 UNL     1      79.008  83.891  17.815  1.00  0.00     0.176 HD
ATOM     14  H51 UNL     1      78.014  82.803  18.792  1.00  0.00     0.176 HD
ENDBRANCH  10  12
TORSDOF 1
ENDMDL
