MODEL 1
REMARK VINA RESULT: -6.340461477      0.000      0.000
REMARK  1 active torsions:
REMARK  status: ('A' for Active; 'I' for Inactive)
REMARK       I    between atoms: C1_2  and  N2_4 
REMARK       I    between atoms: N2_4  and  C2_6 
REMARK       I    between atoms: C2_6  and  N3_8 
REMARK    1  A    between atoms: N3_8  and  C3_10 
ROOT
HETATM    1  N1  UNL     1      75.699  88.983  19.741  1.00  0.00    -0.040 NA
HETATM    2  C1  UNL     1      76.969  89.429  20.168  1.00  0.00     0.336 C 
HETATM    3  O1  UNL     1      77.035  89.935  21.318  1.00  0.00    -0.251 OA
HETATM    4  N2  UNL     1      78.145  89.331  19.376  1.00  0.00    -0.263 N 
ATOM      5  H2  UNL     1      79.030  89.675  19.750  1.00  0.00     0.174 HD
HETATM    6  C2  UNL     1      78.113  88.770  18.084  1.00  0.00     0.342 C 
HETATM    7  O2  UNL     1      79.157  88.688  17.387  1.00  0.00    -0.246 OA
HETATM    8  N3  UNL     1      76.891  88.270  17.503  1.00  0.00    -0.139 N 
ATOM      9  H3  UNL     1      75.992  88.707  17.707  1.00  0.00     0.189 HD
ENDROOT
BRANCH   8  10
HETATM   10  C3  UNL     1      76.973  87.250  16.717  1.00  0.00     0.712 A 
HETATM   11  N4  UNL     1      76.517  87.107  15.449  1.00  0.00    -0.117 N 
HETATM   12  N5  UNL     1      76.815  85.890  15.011  1.00  0.00     0.006 NA
ATOM     13  H4  UNL     1      76.022  87.823  14.916  1.00  0.00     0.202 HD
HETATM   14  N6  UNL     1      77.456  85.244  15.972  1.00  0.00     0.006 NA
HETATM   15  N7  UNL     1      77.549  86.068  17.002  1.00  0.00    -0.117 N 
ATOM     16  H7  UNL     1      77.995  85.840  17.890  1.00  0.00     0.202 HD
ENDBRANCH   8  10
TORSDOF 1
ENDMDL
MODEL 2
REMARK VINA RESULT: -6.340020199      0.048      1.026
REMARK  1 active torsions:
REMARK  status: ('A' for Active; 'I' for Inactive)
REMARK       I    between atoms: C1_2  and  N2_4 
REMARK       I    between atoms: N2_4  and  C2_6 
REMARK       I    between atoms: C2_6  and  N3_8 
REMARK    1  A    between atoms: N3_8  and  C3_10 
ROOT
HETATM    1  N1  UNL     1      75.696  88.945  19.756  1.00  0.00    -0.040 NA
HETATM    2  C1  UNL     1      76.963  89.408  20.174  1.00  0.00     0.336 C 
HETATM    3  O1  UNL     1      77.029  89.923  21.320  1.00  0.00    -0.251 OA
HETATM    4  N2  UNL     1      78.137  89.318  19.377  1.00  0.00    -0.263 N 
ATOM      5  H2  UNL     1      79.019  89.675  19.744  1.00  0.00     0.174 HD
HETATM    6  C2  UNL     1      78.105  88.748  18.089  1.00  0.00     0.342 C 
HETATM    7  O2  UNL     1      79.146  88.672  17.388  1.00  0.00    -0.246 OA
HETATM    8  N3  UNL     1      76.885  88.229  17.518  1.00  0.00    -0.139 N 
ATOM      9  H3  UNL     1      75.983  88.658  17.723  1.00  0.00     0.189 HD
ENDROOT
BRANCH   8  10
HETATM   10  C3  UNL     1      76.975  87.204  16.738  1.00  0.00     0.712 A 
HETATM   11  N4  UNL     1      77.535  85.994  16.978  1.00  0.00    -0.117 N 
HETATM   12  N5  UNL     1      77.407  85.231  15.899  1.00  0.00     0.006 NA
ATOM     13  H4  UNL     1      77.984  85.713  17.850  1.00  0.00     0.202 HD
HETATM   14  N6  UNL     1      76.775  85.927  14.966  1.00  0.00     0.006 NA
HETATM   15  N7  UNL     1      76.516  87.119  15.477  1.00  0.00    -0.117 N 
ATOM     16  H7  UNL     1      76.035  87.871  14.983  1.00  0.00     0.202 HD
ENDBRANCH   8  10
TORSDOF 1
ENDMDL
MODEL 3
REMARK VINA RESULT: -6.201539340      2.247      4.824
REMARK  1 active torsions:
REMARK  status: ('A' for Active; 'I' for Inactive)
REMARK       I    between atoms: C1_2  and  N2_4 
REMARK       I    between atoms: N2_4  and  C2_6 
REMARK       I    between atoms: C2_6  and  N3_8 
REMARK    1  A    between atoms: N3_8  and  C3_10 
ROOT
HETATM    1  N1  UNL     1      75.702  84.809  17.368  1.00  0.00    -0.040 NA
HETATM    2  C1  UNL     1      76.031  85.306  16.088  1.00  0.00     0.336 C 
HETATM    3  O1  UNL     1      75.675  84.612  15.101  1.00  0.00    -0.251 OA
HETATM    4  N2  UNL     1      76.729  86.526  15.873  1.00  0.00    -0.263 N 
ATOM      5  H2  UNL     1      76.933  86.823  14.918  1.00  0.00     0.174 HD
HETATM    6  C2  UNL     1      77.144  87.332  16.951  1.00  0.00     0.342 C 
HETATM    7  O2  UNL     1      77.761  88.410  16.754  1.00  0.00    -0.246 OA
HETATM    8  N3  UNL     1      76.883  86.961  18.321  1.00  0.00    -0.139 N 
ATOM      9  H3  UNL     1      76.875  85.983  18.610  1.00  0.00     0.189 HD
ENDROOT
BRANCH   8  10
HETATM   10  C3  UNL     1      76.661  87.909  19.168  1.00  0.00     0.712 A 
HETATM   11  N4  UNL     1      76.011  89.083  18.987  1.00  0.00    -0.117 N 
HETATM   12  N5  UNL     1      76.012  89.765  20.126  1.00  0.00     0.006 NA
ATOM     13  H4  UNL     1      75.588  89.395  18.112  1.00  0.00     0.202 HD
HETATM   14  N6  UNL     1      76.651  89.052  21.041  1.00  0.00     0.006 NA
HETATM   15  N7  UNL     1      77.042  87.931  20.458  1.00  0.00    -0.117 N 
ATOM     16  H7  UNL     1      77.561  87.185  20.922  1.00  0.00     0.202 HD
ENDBRANCH   8  10
TORSDOF 1
ENDMDL
MODEL 4
REMARK VINA RESULT: -6.194556591      2.246      4.922
REMARK  1 active torsions:
REMARK  status: ('A' for Active; 'I' for Inactive)
REMARK       I    between atoms: C1_2  and  N2_4 
REMARK       I    between atoms: N2_4  and  C2_6 
REMARK       I    between atoms: C2_6  and  N3_8 
REMARK    1  A    between atoms: N3_8  and  C3_10 
ROOT
HETATM    1  N1  UNL     1      75.662  84.842  17.209  1.00  0.00    -0.040 NA
HETATM    2  C1  UNL     1      75.990  85.378  15.944  1.00  0.00     0.336 C 
HETATM    3  O1  UNL     1      75.615  84.726  14.936  1.00  0.00    -0.251 OA
HETATM    4  N2  UNL     1      76.708  86.592  15.766  1.00  0.00    -0.263 N 
ATOM      5  H2  UNL     1      76.911  86.919  14.822  1.00  0.00     0.174 HD
HETATM    6  C2  UNL     1      77.145  87.352  16.869  1.00  0.00     0.342 C 
HETATM    7  O2  UNL     1      77.780  88.426  16.705  1.00  0.00    -0.246 OA
HETATM    8  N3  UNL     1      76.888  86.938  18.227  1.00  0.00    -0.139 N 
ATOM      9  H3  UNL     1      76.864  85.951  18.482  1.00  0.00     0.189 HD
ENDROOT
BRANCH   8  10
HETATM   10  C3  UNL     1      76.688  87.860  19.109  1.00  0.00     0.712 A 
HETATM   11  N4  UNL     1      77.031  87.879  20.419  1.00  0.00    -0.117 N 
HETATM   12  N5  UNL     1      76.633  89.024  20.959  1.00  0.00     0.006 NA
ATOM     13  H4  UNL     1      77.519  87.131  20.913  1.00  0.00     0.202 HD
HETATM   14  N6  UNL     1      76.038  89.745  20.022  1.00  0.00     0.006 NA
HETATM   15  N7  UNL     1      76.072  89.038  18.905  1.00  0.00    -0.117 N 
ATOM     16  H7  UNL     1      75.686  89.344  18.012  1.00  0.00     0.202 HD
ENDBRANCH   8  10
TORSDOF 1
ENDMDL
MODEL 5
REMARK VINA RESULT: -5.936863902      2.458      4.934
REMARK  1 active torsions:
REMARK  status: ('A' for Active; 'I' for Inactive)
REMARK       I    between atoms: C1_2  and  N2_4 
REMARK       I    between atoms: N2_4  and  C2_6 
REMARK       I    between atoms: C2_6  and  N3_8 
REMARK    1  A    between atoms: N3_8  and  C3_10 
ROOT
HETATM    1  N1  UNL     1      76.371  87.665  14.275  1.00  0.00    -0.040 NA
HETATM    2  C1  UNL     1      76.084  86.319  14.587  1.00  0.00     0.336 C 
HETATM    3  O1  UNL     1      75.662  85.595  13.648  1.00  0.00    -0.251 OA
HETATM    4  N2  UNL     1      76.248  85.759  15.884  1.00  0.00    -0.263 N 
ATOM      5  H2  UNL     1      76.020  84.776  16.037  1.00  0.00     0.174 HD
HETATM    6  C2  UNL     1      76.718  86.535  16.962  1.00  0.00     0.342 C 
HETATM    7  O2  UNL     1      76.860  86.034  18.107  1.00  0.00    -0.246 OA
HETATM    8  N3  UNL     1      77.054  87.929  16.804  1.00  0.00    -0.139 N 
ATOM      9  H3  UNL     1      76.543  88.524  16.153  1.00  0.00     0.189 HD
ENDROOT
BRANCH   8  10
HETATM   10  C3  UNL     1      78.025  88.397  17.515  1.00  0.00     0.712 A 
HETATM   11  N4  UNL     1      78.024  88.791  18.811  1.00  0.00    -0.117 N 
HETATM   12  N5  UNL     1      79.240  89.208  19.143  1.00  0.00     0.006 NA
ATOM     13  H4  UNL     1      77.216  88.771  19.434  1.00  0.00     0.202 HD
HETATM   14  N6  UNL     1      80.027  89.090  18.085  1.00  0.00     0.006 NA
HETATM   15  N7  UNL     1      79.289  88.600  17.103  1.00  0.00    -0.117 N 
ATOM     16  H7  UNL     1      79.631  88.404  16.162  1.00  0.00     0.202 HD
ENDBRANCH   8  10
TORSDOF 1
ENDMDL
