MODEL 1
REMARK VINA RESULT: -8.846219060      0.000      0.000
REMARK  4 active torsions:
REMARK  status: ('A' for Active; 'I' for Inactive)
REMARK    1  A    between atoms: C1_2  and  C2_4 
REMARK    2  A    between atoms: C2_4  and  C3_5 
REMARK       I    between atoms: C3_5  and  N1_7 
REMARK       I    between atoms: N2_13  and  C9_14 
REMARK    3  A    between atoms: C9_14  and  C10_16 
REMARK    4  A    between atoms: C10_16  and  O5_17 
ROOT
HETATM    1  C2  UNL     1      21.410   8.010   3.280  1.00  0.00     0.132 C 
HETATM    2  C7  UNL     1      22.101   7.178   2.253  1.00  0.00     0.050 C 
HETATM    3  C8  UNL     1      21.878   7.639   0.829  1.00  0.00     0.127 C 
HETATM    4  N2  UNL     1      20.460   7.644   0.571  1.00  0.00    -0.349 N 
HETATM    5  C9  UNL     1      19.828   7.945  -0.653  1.00  0.00     0.255 C 
HETATM    6  O4  UNL     1      18.549   7.874  -0.650  1.00  0.00    -0.270 OA
HETATM    7  C19 UNL     1      19.636   7.300   1.754  1.00  0.00     0.127 C 
HETATM    8  C20 UNL     1      19.961   8.251   2.882  1.00  0.00     0.050 C 
ENDROOT
BRANCH   5   9
HETATM    9  C10 UNL     1      20.508   8.319  -1.872  1.00  0.00     0.146 C 
HETATM   10  C11 UNL     1      21.775   7.572  -2.189  1.00  0.00     0.032 C 
HETATM   11  C12 UNL     1      21.268   6.224  -2.651  1.00  0.00     0.013 C 
HETATM   12  C16 UNL     1      22.403   8.207  -3.420  1.00  0.00     0.029 C 
HETATM   13  C13 UNL     1      20.186   6.652  -3.619  1.00  0.00    -0.005 C 
HETATM   14  C14 UNL     1      20.924   6.973  -4.930  1.00  0.00     0.026 C 
HETATM   15  C18 UNL     1      19.676   7.986  -3.125  1.00  0.00     0.036 C 
HETATM   16  C15 UNL     1      21.455   8.367  -4.559  1.00  0.00     0.019 C 
HETATM   17 BR1  UNL     1      22.277   9.246  -6.023  1.00  0.00    -0.086 Br
HETATM   18  C17 UNL     1      20.124   9.002  -4.161  1.00  0.00     0.029 C 
BRANCH   9  19
HETATM   19  O5  UNL     1      20.801   9.692  -1.872  1.00  0.00    -0.379 OA
ATOM     20  H5  UNL     1      21.355   9.915  -2.611  1.00  0.00     0.211 HD
ENDBRANCH   9  19
ENDBRANCH   5   9
BRANCH   1  21
HETATM   21  C1  UNL     1      21.427   7.301   4.589  1.00  0.00     0.191 C 
HETATM   22  O1  UNL     1      20.717   7.798   5.529  1.00  0.00    -0.647 OA
HETATM   23  O2  UNL     1      22.137   6.163   4.872  1.00  0.00    -0.647 OA
ENDBRANCH   1  21
BRANCH   1  24
HETATM   24  C3  UNL     1      22.107   9.311   3.438  1.00  0.00     0.239 C 
HETATM   25  O3  UNL     1      23.279   9.293   3.980  1.00  0.00    -0.272 OA
HETATM   26  N1  UNL     1      21.549  10.541   3.029  1.00  0.00    -0.351 N 
HETATM   27  C4  UNL     1      20.349  11.022   2.405  1.00  0.00     0.127 C 
HETATM   28  C6  UNL     1      21.999  11.923   3.078  1.00  0.00     0.127 C 
HETATM   29  C5  UNL     1      21.216  12.134   1.793  1.00  0.00     0.040 C 
ENDBRANCH   1  24
TORSDOF 4
ENDMDL
MODEL 2
REMARK VINA RESULT: -8.589315187      3.982      6.259
REMARK  4 active torsions:
REMARK  status: ('A' for Active; 'I' for Inactive)
REMARK    1  A    between atoms: C1_2  and  C2_4 
REMARK    2  A    between atoms: C2_4  and  C3_5 
REMARK       I    between atoms: C3_5  and  N1_7 
REMARK       I    between atoms: N2_13  and  C9_14 
REMARK    3  A    between atoms: C9_14  and  C10_16 
REMARK    4  A    between atoms: C10_16  and  O5_17 
ROOT
HETATM    1  C2  UNL     1      21.106   7.846  -2.190  1.00  0.00     0.132 C 
HETATM    2  C7  UNL     1      22.387   7.085  -2.148  1.00  0.00     0.050 C 
HETATM    3  C8  UNL     1      23.616   7.925  -2.416  1.00  0.00     0.127 C 
HETATM    4  N2  UNL     1      23.467   8.547  -3.707  1.00  0.00    -0.349 N 
HETATM    5  C9  UNL     1      24.415   9.358  -4.366  1.00  0.00     0.255 C 
HETATM    6  O4  UNL     1      24.066   9.795  -5.519  1.00  0.00    -0.270 OA
HETATM    7  C19 UNL     1      22.160   8.279  -4.352  1.00  0.00     0.127 C 
HETATM    8  C20 UNL     1      21.048   8.723  -3.432  1.00  0.00     0.050 C 
ENDROOT
BRANCH   5   9
HETATM    9  C10 UNL     1      25.712   9.718  -3.841  1.00  0.00     0.146 C 
HETATM   10  C11 UNL     1      26.462   8.638  -3.110  1.00  0.00     0.032 C 
HETATM   11  C12 UNL     1      26.944   7.742  -4.230  1.00  0.00     0.013 C 
HETATM   12  C16 UNL     1      27.722   9.254  -2.521  1.00  0.00     0.029 C 
HETATM   13  C13 UNL     1      27.511   8.772  -5.184  1.00  0.00    -0.005 C 
HETATM   14  C14 UNL     1      28.919   9.084  -4.649  1.00  0.00     0.026 C 
HETATM   15  C18 UNL     1      26.721  10.041  -4.960  1.00  0.00     0.036 C 
HETATM   16  C15 UNL     1      28.524  10.033  -3.506  1.00  0.00     0.019 C 
HETATM   17 BR1  UNL     1      30.026  10.847  -2.685  1.00  0.00    -0.086 Br
HETATM   18  C17 UNL     1      27.694  11.019  -4.326  1.00  0.00     0.029 C 
BRANCH   9  19
HETATM   19  O5  UNL     1      25.608  10.828  -2.988  1.00  0.00    -0.379 OA
ATOM     20  H5  UNL     1      26.437  11.290  -2.939  1.00  0.00     0.211 HD
ENDBRANCH   9  19
ENDBRANCH   5   9
BRANCH   1  21
HETATM   21  C1  UNL     1      19.962   6.894  -2.233  1.00  0.00     0.191 C 
HETATM   22  O1  UNL     1      19.998   5.980  -3.128  1.00  0.00    -0.647 OA
HETATM   23  O2  UNL     1      18.875   6.911  -1.396  1.00  0.00    -0.647 OA
ENDBRANCH   1  21
BRANCH   1  24
HETATM   24  C3  UNL     1      20.972   8.690  -0.976  1.00  0.00     0.239 C 
HETATM   25  O3  UNL     1      20.483   9.875  -1.129  1.00  0.00    -0.272 OA
HETATM   26  N1  UNL     1      21.354   8.258   0.312  1.00  0.00    -0.351 N 
HETATM   27  C4  UNL     1      21.904   7.086   0.933  1.00  0.00     0.127 C 
HETATM   28  C6  UNL     1      21.343   8.870   1.631  1.00  0.00     0.127 C 
HETATM   29  C5  UNL     1      21.099   7.476   2.183  1.00  0.00     0.040 C 
ENDBRANCH   1  24
TORSDOF 4
ENDMDL
MODEL 3
REMARK VINA RESULT: -8.439289474      3.331      7.103
REMARK  4 active torsions:
REMARK  status: ('A' for Active; 'I' for Inactive)
REMARK    1  A    between atoms: C1_2  and  C2_4 
REMARK    2  A    between atoms: C2_4  and  C3_5 
REMARK       I    between atoms: C3_5  and  N1_7 
REMARK       I    between atoms: N2_13  and  C9_14 
REMARK    3  A    between atoms: C9_14  and  C10_16 
REMARK    4  A    between atoms: C10_16  and  O5_17 
ROOT
HETATM    1  C2  UNL     1      19.048   8.197  -2.584  1.00  0.00     0.132 C 
HETATM    2  C7  UNL     1      19.344   9.573  -2.093  1.00  0.00     0.050 C 
HETATM    3  C8  UNL     1      19.493   9.676  -0.590  1.00  0.00     0.127 C 
HETATM    4  N2  UNL     1      18.277   9.198   0.019  1.00  0.00    -0.349 N 
HETATM    5  C9  UNL     1      17.975   9.185   1.397  1.00  0.00     0.255 C 
HETATM    6  O4  UNL     1      16.822   8.722   1.707  1.00  0.00    -0.270 OA
HETATM    7  C19 UNL     1      17.290   8.669  -0.952  1.00  0.00     0.127 C 
HETATM    8  C20 UNL     1      17.930   7.569  -1.765  1.00  0.00     0.050 C 
ENDROOT
BRANCH   5   9
HETATM    9  C10 UNL     1      18.854   9.646   2.447  1.00  0.00     0.146 C 
HETATM   10  C11 UNL     1      18.943   8.783   3.675  1.00  0.00     0.032 C 
HETATM   11  C12 UNL     1      19.785   7.616   3.210  1.00  0.00     0.013 C 
HETATM   12  C16 UNL     1      19.797   9.509   4.703  1.00  0.00     0.029 C 
HETATM   13  C13 UNL     1      20.915   8.348   2.517  1.00  0.00    -0.005 C 
HETATM   14  C14 UNL     1      21.875   8.764   3.645  1.00  0.00     0.026 C 
HETATM   15  C18 UNL     1      20.330   9.646   2.007  1.00  0.00     0.036 C 
HETATM   16  C15 UNL     1      21.102   9.988   4.165  1.00  0.00     0.019 C 
HETATM   17 BR1  UNL     1      22.072  10.960   5.469  1.00  0.00    -0.086 Br
HETATM   18  C17 UNL     1      20.977  10.738   2.840  1.00  0.00     0.029 C 
BRANCH   9  19
HETATM   19  O5  UNL     1      18.501  10.943   2.851  1.00  0.00    -0.379 OA
ATOM     20  H5  UNL     1      19.271  11.495   2.914  1.00  0.00     0.211 HD
ENDBRANCH   9  19
ENDBRANCH   5   9
BRANCH   1  21
HETATM   21  C1  UNL     1      18.611   8.259  -4.006  1.00  0.00     0.191 C 
HETATM   22  O1  UNL     1      18.301   7.153  -4.569  1.00  0.00    -0.647 OA
HETATM   23  O2  UNL     1      18.512   9.399  -4.763  1.00  0.00    -0.647 OA
ENDBRANCH   1  21
BRANCH   1  24
HETATM   24  C3  UNL     1      20.264   7.351  -2.500  1.00  0.00     0.239 C 
HETATM   25  O3  UNL     1      20.243   6.364  -1.668  1.00  0.00    -0.272 OA
HETATM   26  N1  UNL     1      21.421   7.581  -3.275  1.00  0.00    -0.351 N 
HETATM   27  C4  UNL     1      21.875   8.498  -4.282  1.00  0.00     0.127 C 
HETATM   28  C6  UNL     1      22.718   6.932  -3.377  1.00  0.00     0.127 C 
HETATM   29  C5  UNL     1      22.712   7.336  -4.841  1.00  0.00     0.040 C 
ENDBRANCH   1  24
TORSDOF 4
ENDMDL
MODEL 4
REMARK VINA RESULT: -8.326529970      3.529      7.244
REMARK  4 active torsions:
REMARK  status: ('A' for Active; 'I' for Inactive)
REMARK    1  A    between atoms: C1_2  and  C2_4 
REMARK    2  A    between atoms: C2_4  and  C3_5 
REMARK       I    between atoms: C3_5  and  N1_7 
REMARK       I    between atoms: N2_13  and  C9_14 
REMARK    3  A    between atoms: C9_14  and  C10_16 
REMARK    4  A    between atoms: C10_16  and  O5_17 
ROOT
HETATM    1  C2  UNL     1      22.906   8.979  -3.312  1.00  0.00     0.132 C 
HETATM    2  C7  UNL     1      21.680   9.521  -2.659  1.00  0.00     0.050 C 
HETATM    3  C8  UNL     1      21.704   9.457  -1.147  1.00  0.00     0.127 C 
HETATM    4  N2  UNL     1      21.891   8.083  -0.755  1.00  0.00    -0.349 N 
HETATM    5  C9  UNL     1      21.905   7.577   0.562  1.00  0.00     0.255 C 
HETATM    6  O4  UNL     1      22.077   6.313   0.670  1.00  0.00    -0.270 OA
HETATM    7  C19 UNL     1      22.096   7.159  -1.895  1.00  0.00     0.127 C 
HETATM    8  C20 UNL     1      23.275   7.629  -2.713  1.00  0.00     0.050 C 
ENDROOT
BRANCH   5   9
HETATM    9  C10 UNL     1      21.743   8.369   1.760  1.00  0.00     0.146 C 
HETATM   10  C11 UNL     1      20.691   9.444   1.716  1.00  0.00     0.032 C 
HETATM   11  C12 UNL     1      19.402   8.661   1.821  1.00  0.00     0.013 C 
HETATM   12  C16 UNL     1      20.779  10.244   3.007  1.00  0.00     0.029 C 
HETATM   13  C13 UNL     1      19.728   7.741   2.978  1.00  0.00    -0.005 C 
HETATM   14  C14 UNL     1      19.477   8.580   4.242  1.00  0.00     0.026 C 
HETATM   15  C18 UNL     1      21.225   7.530   2.943  1.00  0.00     0.036 C 
HETATM   16  C15 UNL     1      20.778   9.400   4.235  1.00  0.00     0.019 C 
HETATM   17 BR1  UNL     1      20.983  10.453   5.797  1.00  0.00    -0.086 Br
HETATM   18  C17 UNL     1      21.764   8.234   4.176  1.00  0.00     0.029 C 
BRANCH   9  19
HETATM   19  O5  UNL     1      22.960   8.966   2.125  1.00  0.00    -0.379 OA
ATOM     20  H5  UNL     1      22.921   9.907   2.001  1.00  0.00     0.211 HD
ENDBRANCH   9  19
ENDBRANCH   5   9
BRANCH   1  21
HETATM   21  C1  UNL     1      22.654   8.795  -4.768  1.00  0.00     0.191 C 
HETATM   22  O1  UNL     1      22.545   7.593  -5.192  1.00  0.00    -0.647 OA
HETATM   23  O2  UNL     1      22.529   9.802  -5.690  1.00  0.00    -0.647 OA
ENDBRANCH   1  21
BRANCH   1  24
HETATM   24  C3  UNL     1      24.037   9.925  -3.144  1.00  0.00     0.239 C 
HETATM   25  O3  UNL     1      23.747  11.145  -2.835  1.00  0.00    -0.272 OA
HETATM   26  N1  UNL     1      25.388   9.553  -3.307  1.00  0.00    -0.351 N 
HETATM   27  C4  UNL     1      26.147   8.375  -3.620  1.00  0.00     0.127 C 
HETATM   28  C6  UNL     1      26.653  10.263  -3.216  1.00  0.00     0.127 C 
HETATM   29  C5  UNL     1      27.255   8.957  -2.728  1.00  0.00     0.040 C 
ENDBRANCH   1  24
TORSDOF 4
ENDMDL
MODEL 5
REMARK VINA RESULT: -8.209479310      4.841      7.327
REMARK  4 active torsions:
REMARK  status: ('A' for Active; 'I' for Inactive)
REMARK    1  A    between atoms: C1_2  and  C2_4 
REMARK    2  A    between atoms: C2_4  and  C3_5 
REMARK       I    between atoms: C3_5  and  N1_7 
REMARK       I    between atoms: N2_13  and  C9_14 
REMARK    3  A    between atoms: C9_14  and  C10_16 
REMARK    4  A    between atoms: C10_16  and  O5_17 
ROOT
HETATM    1  C2  UNL     1      26.126   9.987  -3.415  1.00  0.00     0.132 C 
HETATM    2  C7  UNL     1      24.863  10.766  -3.271  1.00  0.00     0.050 C 
HETATM    3  C8  UNL     1      23.932  10.245  -2.198  1.00  0.00     0.127 C 
HETATM    4  N2  UNL     1      23.620   8.870  -2.498  1.00  0.00    -0.349 N 
HETATM    5  C9  UNL     1      22.734   8.033  -1.787  1.00  0.00     0.255 C 
HETATM    6  O4  UNL     1      22.603   6.846  -2.247  1.00  0.00    -0.270 OA
HETATM    7  C19 UNL     1      24.342   8.337  -3.677  1.00  0.00     0.127 C 
HETATM    8  C20 UNL     1      25.829   8.495  -3.465  1.00  0.00     0.050 C 
ENDROOT
BRANCH   5   9
HETATM    9  C10 UNL     1      21.989   8.418  -0.611  1.00  0.00     0.146 C 
HETATM   10  C11 UNL     1      21.010   9.549  -0.776  1.00  0.00     0.032 C 
HETATM   11  C12 UNL     1      19.870   8.903  -1.530  1.00  0.00     0.013 C 
HETATM   12  C16 UNL     1      20.443   9.888   0.594  1.00  0.00     0.029 C 
HETATM   13  C13 UNL     1      19.683   7.637  -0.721  1.00  0.00    -0.005 C 
HETATM   14  C14 UNL     1      18.825   8.054   0.485  1.00  0.00     0.026 C 
HETATM   15  C18 UNL     1      21.037   7.303  -0.138  1.00  0.00     0.036 C 
HETATM   16  C15 UNL     1      19.928   8.703   1.338  1.00  0.00     0.019 C 
HETATM   17 BR1  UNL     1      19.323   9.184   3.068  1.00  0.00    -0.086 Br
HETATM   18  C17 UNL     1      20.901   7.525   1.358  1.00  0.00     0.029 C 
BRANCH   9  19
HETATM   19  O5  UNL     1      22.860   8.748   0.440  1.00  0.00    -0.379 OA
ATOM     20  H5  UNL     1      23.757   8.791   0.129  1.00  0.00     0.211 HD
ENDBRANCH   9  19
ENDBRANCH   5   9
BRANCH   1  21
HETATM   21  C1  UNL     1      26.809  10.374  -4.680  1.00  0.00     0.191 C 
HETATM   22  O1  UNL     1      27.008  11.623  -4.876  1.00  0.00    -0.647 OA
HETATM   23  O2  UNL     1      27.242   9.509  -5.652  1.00  0.00    -0.647 OA
ENDBRANCH   1  21
BRANCH   1  24
HETATM   24  C3  UNL     1      27.038  10.276  -2.279  1.00  0.00     0.239 C 
HETATM   25  O3  UNL     1      26.495  10.573  -1.146  1.00  0.00    -0.272 OA
HETATM   26  N1  UNL     1      28.444  10.242  -2.389  1.00  0.00    -0.351 N 
HETATM   27  C4  UNL     1      29.438   9.967  -3.387  1.00  0.00     0.127 C 
HETATM   28  C6  UNL     1      29.538  10.488  -1.464  1.00  0.00     0.127 C 
HETATM   29  C5  UNL     1      30.320   9.445  -2.242  1.00  0.00     0.040 C 
ENDBRANCH   1  24
TORSDOF 4
ENDMDL
