MODEL 1
REMARK VINA RESULT: -8.094174104      0.000      0.000
REMARK  4 active torsions:
REMARK  status: ('A' for Active; 'I' for Inactive)
REMARK    1  A    between atoms: N2_4  and  C3_6 
REMARK    2  A    between atoms: C7_12  and  C9_14 
REMARK    3  A    between atoms: C9_14  and  C10_15 
REMARK    4  A    between atoms: C10_15  and  C11_16 
ROOT
HETATM    1  C1  UNL     1     -16.914   9.969  -2.587  1.00  0.00     0.190 C 
HETATM    2  N1  UNL     1     -18.074   9.643  -1.816  1.00  0.00    -0.096 N 
HETATM    3  C2  UNL     1     -19.352   9.474  -2.454  1.00  0.00     0.689 C 
HETATM    4  N2  UNL     1     -19.377   9.575  -3.708  1.00  0.00    -0.217 N 
ATOM      5  H2  UNL     1     -18.470   9.770  -4.130  1.00  0.00     0.178 HD
HETATM    6  N3  UNL     1     -20.466   9.207  -1.603  1.00  0.00    -0.199 N 
ATOM      7  H3  UNL     1     -21.382   9.527  -1.919  1.00  0.00     0.180 HD
HETATM    8  C7  UNL     1     -20.410   8.537  -0.357  1.00  0.00     0.128 C 
HETATM    9  C8  UNL     1     -20.201   7.043  -0.604  1.00  0.00     0.064 C 
HETATM   10  N6  UNL     1     -19.420   9.005   0.563  1.00  0.00    -0.274 N 
ATOM     11  H6  UNL     1     -19.591   9.063   1.567  1.00  0.00     0.176 HD
HETATM   12  S1  UNL     1     -17.942   9.456  -0.132  1.00  0.00     0.336 S 
HETATM   13  O1  UNL     1     -17.502  10.784   0.457  1.00  0.00    -0.182 OA
HETATM   14  O2  UNL     1     -16.835   8.475   0.183  1.00  0.00    -0.182 OA
ENDROOT
BRANCH   8  15
HETATM   15  C9  UNL     1     -21.753   8.659   0.336  1.00  0.00     0.060 C 
BRANCH  15  16
HETATM   16  C10 UNL     1     -21.852   7.480   1.295  1.00  0.00     0.063 C 
BRANCH  16  17
HETATM   17  C11 UNL     1     -22.907   7.700   2.315  1.00  0.00     0.025 A 
HETATM   18  C12 UNL     1     -23.023   7.120   3.562  1.00  0.00     0.114 A 
HETATM   19  N4  UNL     1     -24.124   7.594   4.166  1.00  0.00    -0.360 N 
HETATM   20  C13 UNL     1     -24.704   8.461   3.325  1.00  0.00     0.180 A 
ATOM     21  H4  UNL     1     -24.458   7.341   5.096  1.00  0.00     0.166 HD
HETATM   22  N5  UNL     1     -23.960   8.518   2.207  1.00  0.00    -0.355 N 
ATOM     23  H5  UNL     1     -24.168   9.099   1.394  1.00  0.00     0.166 HD
ENDBRANCH  16  17
ENDBRANCH  15  16
ENDBRANCH   8  15
BRANCH   4  24
HETATM   24  C3  UNL     1     -20.438   9.468  -4.636  1.00  0.00     0.036 C 
HETATM   25  C4  UNL     1     -20.863   7.994  -4.684  1.00  0.00     0.038 C 
HETATM   26  C5  UNL     1     -21.644  10.296  -4.353  1.00  0.00     0.038 C 
HETATM   27  C6  UNL     1     -19.983   9.776  -6.068  1.00  0.00     0.038 C 
ENDBRANCH   4  24
TORSDOF 4
ENDMDL
MODEL 2
REMARK VINA RESULT: -8.092928083      3.734      5.869
REMARK  4 active torsions:
REMARK  status: ('A' for Active; 'I' for Inactive)
REMARK    1  A    between atoms: N2_4  and  C3_6 
REMARK    2  A    between atoms: C7_12  and  C9_14 
REMARK    3  A    between atoms: C9_14  and  C10_15 
REMARK    4  A    between atoms: C10_15  and  C11_16 
ROOT
HETATM    1  C1  UNL     1     -24.041  12.912   1.663  1.00  0.00     0.190 C 
HETATM    2  N1  UNL     1     -23.650  11.588   1.290  1.00  0.00    -0.096 N 
HETATM    3  C2  UNL     1     -22.816  11.370   0.140  1.00  0.00     0.689 C 
HETATM    4  N2  UNL     1     -22.416  12.393  -0.474  1.00  0.00    -0.217 N 
ATOM      5  H2  UNL     1     -22.739  13.273  -0.073  1.00  0.00     0.178 HD
HETATM    6  N3  UNL     1     -22.521  10.013  -0.194  1.00  0.00    -0.199 N 
ATOM      7  H3  UNL     1     -22.354   9.801  -1.178  1.00  0.00     0.180 HD
HETATM    8  C7  UNL     1     -22.441   8.937   0.723  1.00  0.00     0.128 C 
HETATM    9  C8  UNL     1     -21.142   9.057   1.519  1.00  0.00     0.064 C 
HETATM   10  N6  UNL     1     -23.539   8.804   1.631  1.00  0.00    -0.274 N 
ATOM     11  H6  UNL     1     -23.911   7.896   1.909  1.00  0.00     0.176 HD
HETATM   12  S1  UNL     1     -24.178  10.262   2.212  1.00  0.00     0.336 S 
HETATM   13  O1  UNL     1     -25.693  10.205   2.134  1.00  0.00    -0.182 OA
HETATM   14  O2  UNL     1     -23.845  10.494   3.669  1.00  0.00    -0.182 OA
ENDROOT
BRANCH   8  15
HETATM   15  C9  UNL     1     -22.340   7.634  -0.045  1.00  0.00     0.060 C 
BRANCH  15  16
HETATM   16  C10 UNL     1     -20.964   7.624  -0.698  1.00  0.00     0.063 C 
BRANCH  16  17
HETATM   17  C11 UNL     1     -21.066   7.494  -2.173  1.00  0.00     0.025 A 
HETATM   18  C12 UNL     1     -20.250   8.051  -3.137  1.00  0.00     0.114 A 
HETATM   19  N4  UNL     1     -20.692   7.683  -4.350  1.00  0.00    -0.360 N 
HETATM   20  C13 UNL     1     -21.769   6.907  -4.170  1.00  0.00     0.180 A 
ATOM     21  H4  UNL     1     -20.282   7.947  -5.246  1.00  0.00     0.166 HD
HETATM   22  N5  UNL     1     -21.988   6.799  -2.848  1.00  0.00    -0.355 N 
ATOM     23  H5  UNL     1     -22.746   6.265  -2.422  1.00  0.00     0.166 HD
ENDBRANCH  16  17
ENDBRANCH  15  16
ENDBRANCH   8  15
BRANCH   4  24
HETATM   24  C3  UNL     1     -21.599  12.542  -1.618  1.00  0.00     0.036 C 
HETATM   25  C4  UNL     1     -21.096  13.992  -1.641  1.00  0.00     0.038 C 
HETATM   26  C5  UNL     1     -20.422  11.634  -1.706  1.00  0.00     0.038 C 
HETATM   27  C6  UNL     1     -22.400  12.400  -2.918  1.00  0.00     0.038 C 
ENDBRANCH   4  24
TORSDOF 4
ENDMDL
MODEL 3
REMARK VINA RESULT: -7.921441000      2.178      2.936
REMARK  4 active torsions:
REMARK  status: ('A' for Active; 'I' for Inactive)
REMARK    1  A    between atoms: N2_4  and  C3_6 
REMARK    2  A    between atoms: C7_12  and  C9_14 
REMARK    3  A    between atoms: C9_14  and  C10_15 
REMARK    4  A    between atoms: C10_15  and  C11_16 
ROOT
HETATM    1  C1  UNL     1     -16.836   9.526  -2.467  1.00  0.00     0.190 C 
HETATM    2  N1  UNL     1     -18.037   9.505  -1.690  1.00  0.00    -0.096 N 
HETATM    3  C2  UNL     1     -19.323   9.498  -2.332  1.00  0.00     0.689 C 
HETATM    4  N2  UNL     1     -19.329   9.459  -3.590  1.00  0.00    -0.217 N 
ATOM      5  H2  UNL     1     -18.400   9.437  -4.011  1.00  0.00     0.178 HD
HETATM    6  N3  UNL     1     -20.468   9.534  -1.481  1.00  0.00    -0.199 N 
ATOM      7  H3  UNL     1     -21.311   9.976  -1.851  1.00  0.00     0.180 HD
HETATM    8  C7  UNL     1     -20.536   9.011  -0.167  1.00  0.00     0.128 C 
HETATM    9  C8  UNL     1     -20.601   7.486  -0.242  1.00  0.00     0.064 C 
HETATM   10  N6  UNL     1     -19.478   9.394   0.716  1.00  0.00    -0.274 N 
ATOM     11  H6  UNL     1     -19.637   9.596   1.704  1.00  0.00     0.176 HD
HETATM   12  S1  UNL     1     -17.942   9.490   0.007  1.00  0.00     0.336 S 
HETATM   13  O1  UNL     1     -17.269  10.775   0.454  1.00  0.00    -0.182 OA
HETATM   14  O2  UNL     1     -17.032   8.367   0.454  1.00  0.00    -0.182 OA
ENDROOT
BRANCH   8  15
HETATM   15  C9  UNL     1     -21.835   9.450   0.478  1.00  0.00     0.060 C 
BRANCH  15  16
HETATM   16  C10 UNL     1     -22.626  10.183  -0.597  1.00  0.00     0.063 C 
BRANCH  16  17
HETATM   17  C11 UNL     1     -22.904  11.587  -0.203  1.00  0.00     0.025 A 
HETATM   18  C12 UNL     1     -22.504  12.746  -0.836  1.00  0.00     0.114 A 
HETATM   19  N4  UNL     1     -22.969  13.802  -0.151  1.00  0.00    -0.360 N 
HETATM   20  C13 UNL     1     -23.654  13.332   0.900  1.00  0.00     0.180 A 
ATOM     21  H4  UNL     1     -22.828  14.784  -0.388  1.00  0.00     0.166 HD
HETATM   22  N5  UNL     1     -23.608  11.989   0.861  1.00  0.00    -0.355 N 
ATOM     23  H5  UNL     1     -24.046  11.368   1.542  1.00  0.00     0.166 HD
ENDBRANCH  16  17
ENDBRANCH  15  16
ENDBRANCH   8  15
BRANCH   4  24
HETATM   24  C3  UNL     1     -20.390   9.440  -4.523  1.00  0.00     0.036 C 
HETATM   25  C4  UNL     1     -20.896   7.993  -4.619  1.00  0.00     0.038 C 
HETATM   26  C5  UNL     1     -21.549  10.323  -4.216  1.00  0.00     0.038 C 
HETATM   27  C6  UNL     1     -19.914   9.767  -5.943  1.00  0.00     0.038 C 
ENDBRANCH   4  24
TORSDOF 4
ENDMDL
MODEL 4
REMARK VINA RESULT: -7.870979984      2.689      3.408
REMARK  4 active torsions:
REMARK  status: ('A' for Active; 'I' for Inactive)
REMARK    1  A    between atoms: N2_4  and  C3_6 
REMARK    2  A    between atoms: C7_12  and  C9_14 
REMARK    3  A    between atoms: C9_14  and  C10_15 
REMARK    4  A    between atoms: C10_15  and  C11_16 
ROOT
HETATM    1  C1  UNL     1     -22.445  12.163  -2.664  1.00  0.00     0.190 C 
HETATM    2  N1  UNL     1     -22.339  11.008  -1.827  1.00  0.00    -0.096 N 
HETATM    3  C2  UNL     1     -21.620   9.846  -2.273  1.00  0.00     0.689 C 
HETATM    4  N2  UNL     1     -21.058   9.923  -3.396  1.00  0.00    -0.217 N 
ATOM      5  H2  UNL     1     -21.184  10.820  -3.865  1.00  0.00     0.178 HD
HETATM    6  N3  UNL     1     -21.612   8.718  -1.398  1.00  0.00    -0.199 N 
ATOM      7  H3  UNL     1     -21.538   7.795  -1.827  1.00  0.00     0.180 HD
HETATM    8  C7  UNL     1     -21.700   8.769   0.014  1.00  0.00     0.128 C 
HETATM    9  C8  UNL     1     -20.365   9.255   0.578  1.00  0.00     0.064 C 
HETATM   10  N6  UNL     1     -22.757   9.572   0.549  1.00  0.00    -0.274 N 
ATOM     11  H6  UNL     1     -23.285   9.299   1.378  1.00  0.00     0.176 HD
HETATM   12  S1  UNL     1     -23.070  11.009  -0.292  1.00  0.00     0.336 S 
HETATM   13  O1  UNL     1     -24.568  11.156  -0.483  1.00  0.00    -0.182 OA
HETATM   14  O2  UNL     1     -22.628  12.233   0.479  1.00  0.00    -0.182 OA
ENDROOT
BRANCH   8  15
HETATM   15  C9  UNL     1     -21.892   7.366   0.554  1.00  0.00     0.060 C 
BRANCH  15  16
HETATM   16  C10 UNL     1     -21.042   7.267   1.814  1.00  0.00     0.063 C 
BRANCH  16  17
HETATM   17  C11 UNL     1     -21.887   7.177   3.031  1.00  0.00     0.025 A 
HETATM   18  C12 UNL     1     -23.262   7.242   3.122  1.00  0.00     0.114 A 
HETATM   19  N4  UNL     1     -23.623   7.117   4.408  1.00  0.00    -0.360 N 
HETATM   20  C13 UNL     1     -22.503   6.976   5.130  1.00  0.00     0.180 A 
ATOM     21  H4  UNL     1     -24.576   7.128   4.771  1.00  0.00     0.166 HD
HETATM   22  N5  UNL     1     -21.456   7.014   4.287  1.00  0.00    -0.355 N 
ATOM     23  H5  UNL     1     -20.478   6.932   4.564  1.00  0.00     0.166 HD
ENDBRANCH  16  17
ENDBRANCH  15  16
ENDBRANCH   8  15
BRANCH   4  24
HETATM   24  C3  UNL     1     -20.285   8.990  -4.124  1.00  0.00     0.036 C 
HETATM   25  C4  UNL     1     -18.945   8.829  -3.393  1.00  0.00     0.038 C 
HETATM   26  C5  UNL     1     -20.886   7.639  -4.306  1.00  0.00     0.038 C 
HETATM   27  C6  UNL     1     -19.897   9.521  -5.510  1.00  0.00     0.038 C 
ENDBRANCH   4  24
TORSDOF 4
ENDMDL
MODEL 5
REMARK VINA RESULT: -7.793953375      4.090      6.608
REMARK  4 active torsions:
REMARK  status: ('A' for Active; 'I' for Inactive)
REMARK    1  A    between atoms: N2_4  and  C3_6 
REMARK    2  A    between atoms: C7_12  and  C9_14 
REMARK    3  A    between atoms: C9_14  and  C10_15 
REMARK    4  A    between atoms: C10_15  and  C11_16 
ROOT
HETATM    1  C1  UNL     1     -21.046  10.239  -0.067  1.00  0.00     0.190 C 
HETATM    2  N1  UNL     1     -22.281   9.996   0.611  1.00  0.00    -0.096 N 
HETATM    3  C2  UNL     1     -22.312   9.209   1.814  1.00  0.00     0.689 C 
HETATM    4  N2  UNL     1     -21.206   8.801   2.254  1.00  0.00    -0.217 N 
ATOM      5  H2  UNL     1     -20.404   9.084   1.691  1.00  0.00     0.178 HD
HETATM    6  N3  UNL     1     -23.595   8.968   2.393  1.00  0.00    -0.199 N 
ATOM      7  H3  UNL     1     -23.714   8.102   2.919  1.00  0.00     0.180 HD
HETATM    8  C7  UNL     1     -24.716   9.828   2.300  1.00  0.00     0.128 C 
HETATM    9  C8  UNL     1     -24.496  11.033   3.213  1.00  0.00     0.064 C 
HETATM   10  N6  UNL     1     -25.048  10.287   0.987  1.00  0.00    -0.274 N 
ATOM     11  H6  UNL     1     -26.013  10.393   0.673  1.00  0.00     0.176 HD
HETATM   12  S1  UNL     1     -23.725  10.640  -0.012  1.00  0.00     0.336 S 
HETATM   13  O1  UNL     1     -23.962  10.031  -1.382  1.00  0.00    -0.182 OA
HETATM   14  O2  UNL     1     -23.560  12.126  -0.241  1.00  0.00    -0.182 OA
ENDROOT
BRANCH   8  15
HETATM   15  C9  UNL     1     -25.938   9.114   2.844  1.00  0.00     0.060 C 
BRANCH  15  16
HETATM   16  C10 UNL     1     -26.842  10.190   3.429  1.00  0.00     0.063 C 
BRANCH  16  17
HETATM   17  C11 UNL     1     -28.236  10.052   2.939  1.00  0.00     0.025 A 
HETATM   18  C12 UNL     1     -28.672   9.876   1.642  1.00  0.00     0.114 A 
HETATM   19  N4  UNL     1     -30.011   9.796   1.636  1.00  0.00    -0.360 N 
HETATM   20  C13 UNL     1     -30.429   9.917   2.903  1.00  0.00     0.180 A 
ATOM     21  H4  UNL     1     -30.604   9.666   0.815  1.00  0.00     0.166 HD
HETATM   22  N5  UNL     1     -29.346  10.072   3.685  1.00  0.00    -0.355 N 
ATOM     23  H5  UNL     1     -29.369  10.189   4.698  1.00  0.00     0.166 HD
ENDBRANCH  16  17
ENDBRANCH  15  16
ENDBRANCH   8  15
BRANCH   4  24
HETATM   24  C3  UNL     1     -20.876   8.022   3.387  1.00  0.00     0.036 C 
HETATM   25  C4  UNL     1     -19.357   8.114   3.583  1.00  0.00     0.038 C 
HETATM   26  C5  UNL     1     -21.539   8.408   4.663  1.00  0.00     0.038 C 
HETATM   27  C6  UNL     1     -21.137   6.529   3.154  1.00  0.00     0.038 C 
ENDBRANCH   4  24
TORSDOF 4
ENDMDL
