MODEL 1
REMARK VINA RESULT: -9.035567840      0.000      0.000
REMARK  3 active torsions:
REMARK  status: ('A' for Active; 'I' for Inactive)
REMARK    1  A    between atoms: C3_4  and  N2_5 
REMARK       I    between atoms: N2_5  and  C4_7 
REMARK       I    between atoms: C4_7  and  N3_9 
REMARK    2  A    between atoms: C7_13  and  C8_14 
REMARK    3  A    between atoms: C8_14  and  O2_15 
ROOT
HETATM    1  N1  UNL     1       0.870  63.805 190.590  1.00  0.00    -0.191 NA
HETATM    2  C1  UNL     1       1.321  64.485 189.740  1.00  0.00     0.103 C 
HETATM    3  C2  UNL     1       1.925  65.300 188.651  1.00  0.00     0.086 A 
HETATM    4  C3  UNL     1       2.243  66.601 188.838  1.00  0.00     0.100 A 
HETATM    5  S2  UNL     1       3.008  66.969 187.269  1.00  0.00    -0.075 SA
HETATM    6  C9  UNL     1       2.859  65.481 186.526  1.00  0.00    -0.002 A 
HETATM    7  C10 UNL     1       2.235  64.712 187.460  1.00  0.00    -0.020 A 
HETATM    8  C11 UNL     1       1.979  63.271 186.998  1.00  0.00     0.066 C 
HETATM    9  C12 UNL     1       3.306  62.817 186.425  1.00  0.00     0.169 C 
HETATM   10  C13 UNL     1       4.370  63.032 187.402  1.00  0.00     0.070 C 
HETATM   11  N4  UNL     1       5.206  63.191 188.161  1.00  0.00    -0.197 NA
HETATM   12  C14 UNL     1       3.531  63.530 185.137  1.00  0.00     0.264 C 
HETATM   13  F1  UNL     1       2.758  62.897 184.163  1.00  0.00    -0.204 F 
HETATM   14  F2  UNL     1       4.863  63.309 184.765  1.00  0.00    -0.204 F 
HETATM   15  C15 UNL     1       3.263  64.988 185.179  1.00  0.00     0.127 C 
ENDROOT
BRANCH   4  16
HETATM   16  N2  UNL     1       2.053  67.597 189.813  1.00  0.00    -0.301 N 
HETATM   17  C4  UNL     1       1.111  68.559 190.020  1.00  0.00     0.324 C 
HETATM   18  O1  UNL     1       0.130  68.771 189.286  1.00  0.00    -0.247 OA
HETATM   19  N3  UNL     1       1.198  69.457 191.189  1.00  0.00    -0.318 N 
HETATM   20  C5  UNL     1       0.186  70.470 191.401  1.00  0.00     0.202 C 
HETATM   21  C7  UNL     1       2.192  69.472 192.197  1.00  0.00     0.122 C 
HETATM   22  S1  UNL     1       1.150  71.804 192.167  1.00  0.00    -0.147 SA
HETATM   23  C6  UNL     1       2.757  70.913 192.268  1.00  0.00     0.103 C 
ATOM     24  H2  UNL     1       2.784  67.600 190.524  1.00  0.00     0.171 HD
BRANCH  21  25
HETATM   25  C8  UNL     1       1.646  69.153 193.580  1.00  0.00     0.190 C 
BRANCH  25  26
HETATM   26  O2  UNL     1       2.613  69.146 194.560  1.00  0.00    -0.399 OA
ATOM     27  H2  UNL     1       2.596  69.920 195.111  1.00  0.00     0.209 HD
ENDBRANCH  25  26
ENDBRANCH  21  25
ENDBRANCH   4  16
TORSDOF 3
ENDMDL
MODEL 2
REMARK VINA RESULT: -8.682898527      1.285      1.838
REMARK  3 active torsions:
REMARK  status: ('A' for Active; 'I' for Inactive)
REMARK    1  A    between atoms: C3_4  and  N2_5 
REMARK       I    between atoms: N2_5  and  C4_7 
REMARK       I    between atoms: C4_7  and  N3_9 
REMARK    2  A    between atoms: C7_13  and  C8_14 
REMARK    3  A    between atoms: C8_14  and  O2_15 
ROOT
HETATM    1  N1  UNL     1       0.667  63.525 190.215  1.00  0.00    -0.191 NA
HETATM    2  C1  UNL     1       1.149  64.217 189.392  1.00  0.00     0.103 C 
HETATM    3  C2  UNL     1       1.793  65.049 188.338  1.00  0.00     0.086 A 
HETATM    4  C3  UNL     1       2.079  66.353 188.548  1.00  0.00     0.100 A 
HETATM    5  S2  UNL     1       2.916  66.743 187.021  1.00  0.00    -0.075 SA
HETATM    6  C9  UNL     1       2.830  65.257 186.265  1.00  0.00    -0.002 A 
HETATM    7  C10 UNL     1       2.173  64.472 187.162  1.00  0.00    -0.020 A 
HETATM    8  C11 UNL     1       1.965  63.030 186.680  1.00  0.00     0.066 C 
HETATM    9  C12 UNL     1       3.327  62.602 186.173  1.00  0.00     0.169 C 
HETATM   10  C13 UNL     1       4.336  62.829 187.203  1.00  0.00     0.070 C 
HETATM   11  N4  UNL     1       5.131  62.997 188.004  1.00  0.00    -0.197 NA
HETATM   12  C14 UNL     1       3.604  63.325 184.902  1.00  0.00     0.264 C 
HETATM   13  F1  UNL     1       2.892  62.685 183.886  1.00  0.00    -0.204 F 
HETATM   14  F2  UNL     1       4.957  63.130 184.596  1.00  0.00    -0.204 F 
HETATM   15  C15 UNL     1       3.310  64.779 184.937  1.00  0.00     0.127 C 
ENDROOT
BRANCH   4  16
HETATM   16  N2  UNL     1       1.823  67.341 189.516  1.00  0.00    -0.301 N 
HETATM   17  C4  UNL     1       2.568  68.323 190.095  1.00  0.00     0.324 C 
HETATM   18  O1  UNL     1       3.767  68.548 189.856  1.00  0.00    -0.247 OA
HETATM   19  N3  UNL     1       1.969  69.231 191.094  1.00  0.00    -0.318 N 
HETATM   20  C5  UNL     1       2.771  70.276 191.696  1.00  0.00     0.202 C 
HETATM   21  C7  UNL     1       0.640  69.228 191.580  1.00  0.00     0.122 C 
HETATM   22  S1  UNL     1       2.065  70.371 193.366  1.00  0.00    -0.147 SA
HETATM   23  C6  UNL     1       0.713  69.146 193.125  1.00  0.00     0.103 C 
ATOM     24  H2  UNL     1       0.864  67.316 189.863  1.00  0.00     0.171 HD
BRANCH  21  25
HETATM   25  C8  UNL     1      -0.121  70.503 191.250  1.00  0.00     0.190 C 
BRANCH  25  26
HETATM   26  O2  UNL     1      -1.068  70.333 190.266  1.00  0.00    -0.399 OA
ATOM     27  H2  UNL     1      -1.959  70.437 190.579  1.00  0.00     0.209 HD
ENDBRANCH  25  26
ENDBRANCH  21  25
ENDBRANCH   4  16
TORSDOF 3
ENDMDL
MODEL 3
REMARK VINA RESULT: -8.538479110      2.486      2.953
REMARK  3 active torsions:
REMARK  status: ('A' for Active; 'I' for Inactive)
REMARK    1  A    between atoms: C3_4  and  N2_5 
REMARK       I    between atoms: N2_5  and  C4_7 
REMARK       I    between atoms: C4_7  and  N3_9 
REMARK    2  A    between atoms: C7_13  and  C8_14 
REMARK    3  A    between atoms: C8_14  and  O2_15 
ROOT
HETATM    1  N1  UNL     1       0.438  67.631 187.701  1.00  0.00    -0.191 NA
HETATM    2  C1  UNL     1       1.601  67.485 187.586  1.00  0.00     0.103 C 
HETATM    3  C2  UNL     1       3.064  67.244 187.446  1.00  0.00     0.086 A 
HETATM    4  C3  UNL     1       3.970  68.037 188.060  1.00  0.00     0.100 A 
HETATM    5  S2  UNL     1       5.479  67.192 187.621  1.00  0.00    -0.075 SA
HETATM    6  C9  UNL     1       4.847  65.939 186.715  1.00  0.00    -0.002 A 
HETATM    7  C10 UNL     1       3.505  66.159 186.746  1.00  0.00    -0.020 A 
HETATM    8  C11 UNL     1       2.693  65.119 185.962  1.00  0.00     0.066 C 
HETATM    9  C12 UNL     1       3.239  63.785 186.430  1.00  0.00     0.169 C 
HETATM   10  C13 UNL     1       3.199  63.713 187.887  1.00  0.00     0.070 C 
HETATM   11  N4  UNL     1       3.166  63.645 189.025  1.00  0.00    -0.197 NA
HETATM   12  C14 UNL     1       4.606  63.613 185.865  1.00  0.00     0.264 C 
HETATM   13  F1  UNL     1       4.468  63.225 184.532  1.00  0.00    -0.204 F 
HETATM   14  F2  UNL     1       5.194  62.522 186.517  1.00  0.00    -0.204 F 
HETATM   15  C15 UNL     1       5.487  64.800 185.996  1.00  0.00     0.127 C 
ENDROOT
BRANCH   4  16
HETATM   16  N2  UNL     1       3.989  69.244 188.781  1.00  0.00    -0.301 N 
HETATM   17  C4  UNL     1       3.327  70.430 188.672  1.00  0.00     0.324 C 
HETATM   18  O1  UNL     1       2.490  70.704 187.795  1.00  0.00    -0.247 OA
HETATM   19  N3  UNL     1       3.575  71.521 189.636  1.00  0.00    -0.318 N 
HETATM   20  C5  UNL     1       2.859  72.773 189.512  1.00  0.00     0.202 C 
HETATM   21  C7  UNL     1       4.468  71.519 190.735  1.00  0.00     0.122 C 
HETATM   22  S1  UNL     1       4.092  73.966 190.104  1.00  0.00    -0.147 SA
HETATM   23  C6  UNL     1       5.391  72.753 190.581  1.00  0.00     0.103 C 
ATOM     24  H2  UNL     1       4.647  69.229 189.561  1.00  0.00     0.171 HD
BRANCH  21  25
HETATM   25  C8  UNL     1       3.766  71.668 192.075  1.00  0.00     0.190 C 
BRANCH  25  26
HETATM   26  O2  UNL     1       4.629  71.930 193.116  1.00  0.00    -0.399 OA
ATOM     27  H2  UNL     1       4.902  72.839 193.159  1.00  0.00     0.209 HD
ENDBRANCH  25  26
ENDBRANCH  21  25
ENDBRANCH   4  16
TORSDOF 3
ENDMDL
MODEL 4
REMARK VINA RESULT: -8.427269734      1.412      1.500
REMARK  3 active torsions:
REMARK  status: ('A' for Active; 'I' for Inactive)
REMARK    1  A    between atoms: C3_4  and  N2_5 
REMARK       I    between atoms: N2_5  and  C4_7 
REMARK       I    between atoms: C4_7  and  N3_9 
REMARK    2  A    between atoms: C7_13  and  C8_14 
REMARK    3  A    between atoms: C8_14  and  O2_15 
ROOT
HETATM    1  N1  UNL     1       0.532  62.917 189.315  1.00  0.00    -0.191 NA
HETATM    2  C1  UNL     1       1.106  63.602 188.547  1.00  0.00     0.103 C 
HETATM    3  C2  UNL     1       1.863  64.423 187.563  1.00  0.00     0.086 A 
HETATM    4  C3  UNL     1       2.220  65.698 187.837  1.00  0.00     0.100 A 
HETATM    5  S2  UNL     1       3.169  66.081 186.375  1.00  0.00    -0.075 SA
HETATM    6  C9  UNL     1       3.031  64.630 185.560  1.00  0.00    -0.002 A 
HETATM    7  C10 UNL     1       2.274  63.862 186.390  1.00  0.00    -0.020 A 
HETATM    8  C11 UNL     1       2.001  62.454 185.844  1.00  0.00     0.066 C 
HETATM    9  C12 UNL     1       3.360  61.952 185.399  1.00  0.00     0.169 C 
HETATM   10  C13 UNL     1       4.319  62.077 186.492  1.00  0.00     0.070 C 
HETATM   11  N4  UNL     1       5.074  62.165 187.343  1.00  0.00    -0.197 NA
HETATM   12  C14 UNL     1       3.757  62.697 184.173  1.00  0.00     0.264 C 
HETATM   13  F1  UNL     1       3.067  62.140 183.096  1.00  0.00    -0.204 F 
HETATM   14  F2  UNL     1       5.110  62.421 183.937  1.00  0.00    -0.204 F 
HETATM   15  C15 UNL     1       3.557  64.165 184.245  1.00  0.00     0.127 C 
ENDROOT
BRANCH   4  16
HETATM   16  N2  UNL     1       1.972  66.668 188.825  1.00  0.00    -0.301 N 
HETATM   17  C4  UNL     1       0.974  67.568 189.047  1.00  0.00     0.324 C 
HETATM   18  O1  UNL     1      -0.020  67.729 188.318  1.00  0.00    -0.247 OA
HETATM   19  N3  UNL     1       1.010  68.453 190.228  1.00  0.00    -0.318 N 
HETATM   20  C5  UNL     1      -0.062  69.400 190.456  1.00  0.00     0.202 C 
HETATM   21  C7  UNL     1       2.003  68.515 191.235  1.00  0.00     0.122 C 
HETATM   22  S1  UNL     1       0.822  70.780 191.238  1.00  0.00    -0.147 SA
HETATM   23  C6  UNL     1       2.480  69.987 191.324  1.00  0.00     0.103 C 
ATOM     24  H2  UNL     1       2.704  66.705 189.535  1.00  0.00     0.171 HD
BRANCH  21  25
HETATM   25  C8  UNL     1       1.481  68.145 192.614  1.00  0.00     0.190 C 
BRANCH  25  26
HETATM   26  O2  UNL     1       1.138  66.817 192.729  1.00  0.00    -0.399 OA
ATOM     27  H2  UNL     1       1.836  66.277 193.080  1.00  0.00     0.209 HD
ENDBRANCH  25  26
ENDBRANCH  21  25
ENDBRANCH   4  16
TORSDOF 3
ENDMDL
MODEL 5
REMARK VINA RESULT: -8.420277866      1.374      1.978
REMARK  3 active torsions:
REMARK  status: ('A' for Active; 'I' for Inactive)
REMARK    1  A    between atoms: C3_4  and  N2_5 
REMARK       I    between atoms: N2_5  and  C4_7 
REMARK       I    between atoms: C4_7  and  N3_9 
REMARK    2  A    between atoms: C7_13  and  C8_14 
REMARK    3  A    between atoms: C8_14  and  O2_15 
ROOT
HETATM    1  N1  UNL     1       1.065  64.131 190.582  1.00  0.00    -0.191 NA
HETATM    2  C1  UNL     1       1.484  64.707 189.644  1.00  0.00     0.103 C 
HETATM    3  C2  UNL     1       2.046  65.390 188.446  1.00  0.00     0.086 A 
HETATM    4  C3  UNL     1       2.380  66.699 188.474  1.00  0.00     0.100 A 
HETATM    5  S2  UNL     1       3.080  66.883 186.844  1.00  0.00    -0.075 SA
HETATM    6  C9  UNL     1       2.890  65.323 186.278  1.00  0.00    -0.002 A 
HETATM    7  C10 UNL     1       2.302  64.669 187.317  1.00  0.00    -0.020 A 
HETATM    8  C11 UNL     1       2.016  63.189 187.029  1.00  0.00     0.066 C 
HETATM    9  C12 UNL     1       3.315  62.660 186.455  1.00  0.00     0.169 C 
HETATM   10  C13 UNL     1       4.421  62.970 187.357  1.00  0.00     0.070 C 
HETATM   11  N4  UNL     1       5.290  63.202 188.058  1.00  0.00    -0.197 NA
HETATM   12  C14 UNL     1       3.490  63.222 185.088  1.00  0.00     0.264 C 
HETATM   13  F1  UNL     1       2.672  62.494 184.223  1.00  0.00    -0.204 F 
HETATM   14  F2  UNL     1       4.804  62.947 184.688  1.00  0.00    -0.204 F 
HETATM   15  C15 UNL     1       3.234  64.679 184.978  1.00  0.00     0.127 C 
ENDROOT
BRANCH   4  16
HETATM   16  N2  UNL     1       2.238  67.800 189.339  1.00  0.00    -0.301 N 
HETATM   17  C4  UNL     1       2.697  68.097 190.587  1.00  0.00     0.324 C 
HETATM   18  O1  UNL     1       3.404  67.350 191.285  1.00  0.00    -0.247 OA
HETATM   19  N3  UNL     1       2.370  69.390 191.220  1.00  0.00    -0.318 N 
HETATM   20  C5  UNL     1       2.871  69.695 192.544  1.00  0.00     0.202 C 
HETATM   21  C7  UNL     1       1.587  70.442 190.687  1.00  0.00     0.122 C 
HETATM   22  S1  UNL     1       1.525  70.703 193.227  1.00  0.00    -0.147 SA
HETATM   23  C6  UNL     1       0.474  70.757 191.718  1.00  0.00     0.103 C 
ATOM     24  H2  UNL     1       1.661  68.542 188.943  1.00  0.00     0.171 HD
BRANCH  21  25
HETATM   25  C8  UNL     1       2.371  71.729 190.488  1.00  0.00     0.190 C 
BRANCH  25  26
HETATM   26  O2  UNL     1       2.567  72.049 189.164  1.00  0.00    -0.399 OA
ATOM     27  H2  UNL     1       3.481  72.171 188.937  1.00  0.00     0.209 HD
ENDBRANCH  25  26
ENDBRANCH  21  25
ENDBRANCH   4  16
TORSDOF 3
ENDMDL
