MODEL 1
REMARK VINA RESULT: -7.212511228      0.000      0.000
REMARK  4 active torsions:
REMARK  status: ('A' for Active; 'I' for Inactive)
REMARK    1  A    between atoms: C3_4  and  C4_5 
REMARK    2  A    between atoms: C4_5  and  C5_6 
REMARK    3  A    between atoms: C5_6  and  O1_7 
REMARK    4  A    between atoms: C5_6  and  C6_9 
ROOT
HETATM    1  N1  UNL     1      41.292  35.808  55.753  1.00  0.00    -0.182 NA
HETATM    2  C1  UNL     1      41.871  35.098  56.462  1.00  0.00     0.152 C 
HETATM    3  C2  UNL     1      42.571  34.249  57.343  1.00  0.00     0.014 C 
HETATM    4  C3  UNL     1      43.181  33.531  58.096  1.00  0.00    -0.078 C 
ENDROOT
BRANCH   4   5
HETATM    5  C4  UNL     1      43.941  32.636  59.000  1.00  0.00     0.051 C 
HETATM    6  C10 UNL     1      45.367  32.761  58.599  1.00  0.00     0.025 C 
HETATM    7  C11 UNL     1      45.679  34.200  58.980  1.00  0.00     0.002 C 
HETATM    8  C12 UNL     1      44.901  34.411  60.252  1.00  0.00     0.002 C 
HETATM    9  C13 UNL     1      43.896  33.280  60.348  1.00  0.00     0.025 C 
BRANCH   5  10
HETATM   10  C5  UNL     1      43.331  31.297  58.923  1.00  0.00     0.143 C 
BRANCH  10  11
HETATM   11  O1  UNL     1      43.562  30.647  60.139  1.00  0.00    -0.393 OA
ATOM     12  H1  UNL     1      43.579  29.712  59.972  1.00  0.00     0.210 HD
ENDBRANCH  10  11
BRANCH  10  13
HETATM   13  C6  UNL     1      43.683  30.417  57.798  1.00  0.00     0.016 C 
HETATM   14  C7  UNL     1      42.444  30.020  57.011  1.00  0.00     0.007 C 
HETATM   15  C8  UNL     1      43.203  28.735  56.659  1.00  0.00     0.001 C 
HETATM   16  C9  UNL     1      43.917  28.966  58.001  1.00  0.00     0.007 C 
ENDBRANCH  10  13
ENDBRANCH   5  10
ENDBRANCH   4   5
TORSDOF 4
ENDMDL
MODEL 2
REMARK VINA RESULT: -6.980782864      2.600      4.496
REMARK  4 active torsions:
REMARK  status: ('A' for Active; 'I' for Inactive)
REMARK    1  A    between atoms: C3_4  and  C4_5 
REMARK    2  A    between atoms: C4_5  and  C5_6 
REMARK    3  A    between atoms: C5_6  and  O1_7 
REMARK    4  A    between atoms: C5_6  and  C6_9 
ROOT
HETATM    1  N1  UNL     1      42.375  29.248  57.365  1.00  0.00    -0.182 NA
HETATM    2  C1  UNL     1      42.631  30.363  57.547  1.00  0.00     0.152 C 
HETATM    3  C2  UNL     1      42.925  31.726  57.752  1.00  0.00     0.014 C 
HETATM    4  C3  UNL     1      43.185  32.893  57.915  1.00  0.00    -0.078 C 
ENDROOT
BRANCH   4   5
HETATM    5  C4  UNL     1      43.526  34.319  58.129  1.00  0.00     0.051 C 
HETATM    6  C10 UNL     1      43.456  34.543  59.596  1.00  0.00     0.025 C 
HETATM    7  C11 UNL     1      44.613  33.695  60.103  1.00  0.00     0.002 C 
HETATM    8  C12 UNL     1      45.670  33.860  59.043  1.00  0.00     0.002 C 
HETATM    9  C13 UNL     1      44.984  34.442  57.822  1.00  0.00     0.025 C 
BRANCH   5  10
HETATM   10  C5  UNL     1      42.635  35.127  57.278  1.00  0.00     0.143 C 
BRANCH  10  11
HETATM   11  O1  UNL     1      41.751  35.817  58.113  1.00  0.00    -0.393 OA
ATOM     12  H1  UNL     1      40.944  35.958  57.632  1.00  0.00     0.210 HD
ENDBRANCH  10  11
BRANCH  10  13
HETATM   13  C6  UNL     1      41.900  34.467  56.188  1.00  0.00     0.016 C 
HETATM   14  C7  UNL     1      42.493  34.829  54.836  1.00  0.00     0.007 C 
HETATM   15  C8  UNL     1      41.084  34.612  54.273  1.00  0.00     0.001 C 
HETATM   16  C9  UNL     1      40.620  35.019  55.680  1.00  0.00     0.007 C 
ENDBRANCH  10  13
ENDBRANCH   5  10
ENDBRANCH   4   5
TORSDOF 4
ENDMDL
MODEL 3
REMARK VINA RESULT: -6.913812776      1.497      4.207
REMARK  4 active torsions:
REMARK  status: ('A' for Active; 'I' for Inactive)
REMARK    1  A    between atoms: C3_4  and  C4_5 
REMARK    2  A    between atoms: C4_5  and  C5_6 
REMARK    3  A    between atoms: C5_6  and  O1_7 
REMARK    4  A    between atoms: C5_6  and  C6_9 
ROOT
HETATM    1  N1  UNL     1      40.519  33.644  55.285  1.00  0.00    -0.182 NA
HETATM    2  C1  UNL     1      41.278  33.123  55.988  1.00  0.00     0.152 C 
HETATM    3  C2  UNL     1      42.185  32.478  56.853  1.00  0.00     0.014 C 
HETATM    4  C3  UNL     1      42.957  31.934  57.604  1.00  0.00    -0.078 C 
ENDROOT
BRANCH   4   5
HETATM    5  C4  UNL     1      43.925  31.284  58.519  1.00  0.00     0.051 C 
HETATM    6  C10 UNL     1      43.130  30.354  59.363  1.00  0.00     0.025 C 
HETATM    7  C11 UNL     1      42.666  29.321  58.347  1.00  0.00     0.002 C 
HETATM    8  C12 UNL     1      43.839  29.183  57.414  1.00  0.00     0.002 C 
HETATM    9  C13 UNL     1      44.746  30.373  57.666  1.00  0.00     0.025 C 
BRANCH   5  10
HETATM   10  C5  UNL     1      44.676  32.348  59.207  1.00  0.00     0.143 C 
BRANCH  10  11
HETATM   11  O1  UNL     1      45.734  31.751  59.899  1.00  0.00    -0.393 OA
ATOM     12  H1  UNL     1      46.546  32.098  59.548  1.00  0.00     0.210 HD
ENDBRANCH  10  11
BRANCH  10  13
HETATM   13  C6  UNL     1      43.951  33.279  60.085  1.00  0.00     0.016 C 
HETATM   14  C7  UNL     1      44.173  34.719  59.651  1.00  0.00     0.007 C 
HETATM   15  C8  UNL     1      43.959  35.090  61.123  1.00  0.00     0.001 C 
HETATM   16  C9  UNL     1      44.504  33.680  61.403  1.00  0.00     0.007 C 
ENDBRANCH  10  13
ENDBRANCH   5  10
ENDBRANCH   4   5
TORSDOF 4
ENDMDL
MODEL 4
REMARK VINA RESULT: -6.856102707      1.131      1.261
REMARK  4 active torsions:
REMARK  status: ('A' for Active; 'I' for Inactive)
REMARK    1  A    between atoms: C3_4  and  C4_5 
REMARK    2  A    between atoms: C4_5  and  C5_6 
REMARK    3  A    between atoms: C5_6  and  O1_7 
REMARK    4  A    between atoms: C5_6  and  C6_9 
ROOT
HETATM    1  N1  UNL     1      42.446  36.576  55.775  1.00  0.00    -0.182 NA
HETATM    2  C1  UNL     1      42.766  35.624  56.351  1.00  0.00     0.152 C 
HETATM    3  C2  UNL     1      43.157  34.477  57.071  1.00  0.00     0.014 C 
HETATM    4  C3  UNL     1      43.505  33.500  57.688  1.00  0.00    -0.078 C 
ENDROOT
BRANCH   4   5
HETATM    5  C4  UNL     1      43.937  32.288  58.423  1.00  0.00     0.051 C 
HETATM    6  C10 UNL     1      45.411  32.404  58.576  1.00  0.00     0.025 C 
HETATM    7  C11 UNL     1      45.540  33.599  59.509  1.00  0.00     0.002 C 
HETATM    8  C12 UNL     1      44.375  33.448  60.449  1.00  0.00     0.002 C 
HETATM    9  C13 UNL     1      43.424  32.449  59.817  1.00  0.00     0.025 C 
BRANCH   5  10
HETATM   10  C5  UNL     1      43.423  31.115  57.695  1.00  0.00     0.143 C 
BRANCH  10  11
HETATM   11  O1  UNL     1      42.059  30.997  57.977  1.00  0.00    -0.393 OA
ATOM     12  H1  UNL     1      41.853  31.599  58.682  1.00  0.00     0.210 HD
ENDBRANCH  10  11
BRANCH  10  13
HETATM   13  C6  UNL     1      44.095  29.818  57.868  1.00  0.00     0.016 C 
HETATM   14  C7  UNL     1      43.407  28.737  57.048  1.00  0.00     0.007 C 
HETATM   15  C8  UNL     1      43.905  27.754  58.114  1.00  0.00     0.001 C 
HETATM   16  C9  UNL     1      43.831  28.968  59.055  1.00  0.00     0.007 C 
ENDBRANCH  10  13
ENDBRANCH   5  10
ENDBRANCH   4   5
TORSDOF 4
ENDMDL
MODEL 5
REMARK VINA RESULT: -6.682205886      3.053      5.530
REMARK  4 active torsions:
REMARK  status: ('A' for Active; 'I' for Inactive)
REMARK    1  A    between atoms: C3_4  and  C4_5 
REMARK    2  A    between atoms: C4_5  and  C5_6 
REMARK    3  A    between atoms: C5_6  and  O1_7 
REMARK    4  A    between atoms: C5_6  and  C6_9 
ROOT
HETATM    1  N1  UNL     1      42.415  29.165  57.681  1.00  0.00    -0.182 NA
HETATM    2  C1  UNL     1      42.475  30.303  57.474  1.00  0.00     0.152 C 
HETATM    3  C2  UNL     1      42.530  31.691  57.238  1.00  0.00     0.014 C 
HETATM    4  C3  UNL     1      42.566  32.879  57.028  1.00  0.00    -0.078 C 
ENDROOT
BRANCH   4   5
HETATM    5  C4  UNL     1      42.625  34.333  56.748  1.00  0.00     0.051 C 
HETATM    6  C10 UNL     1      42.189  35.010  57.998  1.00  0.00     0.025 C 
HETATM    7  C11 UNL     1      43.318  34.663  58.957  1.00  0.00     0.002 C 
HETATM    8  C12 UNL     1      44.549  34.700  58.092  1.00  0.00     0.002 C 
HETATM    9  C13 UNL     1      44.077  34.673  56.651  1.00  0.00     0.025 C 
BRANCH   5  10
HETATM   10  C5  UNL     1      41.837  34.588  55.530  1.00  0.00     0.143 C 
BRANCH  10  11
HETATM   11  O1  UNL     1      42.496  33.983  54.456  1.00  0.00    -0.393 OA
ATOM     12  H1  UNL     1      43.126  33.367  54.809  1.00  0.00     0.210 HD
ENDBRANCH  10  11
BRANCH  10  13
HETATM   13  C6  UNL     1      41.473  35.973  55.194  1.00  0.00     0.016 C 
HETATM   14  C7  UNL     1      41.065  36.086  53.733  1.00  0.00     0.007 C 
HETATM   15  C8  UNL     1      41.569  37.533  53.810  1.00  0.00     0.001 C 
HETATM   16  C9  UNL     1      42.512  36.989  54.895  1.00  0.00     0.007 C 
ENDBRANCH  10  13
ENDBRANCH   5  10
ENDBRANCH   4   5
TORSDOF 4
ENDMDL
