MODEL 1
REMARK VINA RESULT: -5.833303171      0.000      0.000
REMARK  2 active torsions:
REMARK  status: ('A' for Active; 'I' for Inactive)
REMARK    1  A    between atoms: O1_1  and  C1_3 
REMARK    2  A    between atoms: C1_3  and  C2_4 
ROOT
HETATM    1  C2  UNL     1      42.707  34.817  57.488  1.00  0.00     0.020 C 
HETATM    2  C3  UNL     1      43.983  34.692  56.760  1.00  0.00    -0.006 C 
HETATM    3  C4  UNL     1      43.933  35.617  55.565  1.00  0.00     0.031 C 
HETATM    4  C5  UNL     1      42.712  35.063  54.793  1.00  0.00     0.168 C 
HETATM    5  O2  UNL     1      42.486  33.736  55.033  1.00  0.00    -0.391 OA
HETATM    6  C6  UNL     1      41.546  33.402  55.968  1.00  0.00     0.173 C 
HETATM    7  C7  UNL     1      42.095  33.455  57.419  1.00  0.00     0.020 C 
HETATM    8  C8  UNL     1      42.981  32.314  57.652  1.00  0.00    -0.004 A 
HETATM    9  C9  UNL     1      43.300  31.890  59.068  1.00  0.00     0.010 A 
HETATM   10  C10 UNL     1      44.338  32.319  57.974  1.00  0.00    -0.010 A 
HETATM   11  C11 UNL     1      45.179  33.411  58.406  1.00  0.00     0.005 C 
HETATM   12  C12 UNL     1      45.139  34.725  57.640  1.00  0.00     0.005 C 
ENDROOT
BRANCH   1  13
HETATM   13  C1  UNL     1      42.703  35.476  58.819  1.00  0.00     0.169 C 
BRANCH  13  14
HETATM   14  O1  UNL     1      41.519  36.225  58.928  1.00  0.00    -0.400 OA
ATOM     15  H1  UNL     1      41.385  36.431  59.846  1.00  0.00     0.209 HD
ENDBRANCH  13  14
ENDBRANCH   1  13
TORSDOF 2
ENDMDL
MODEL 2
REMARK VINA RESULT: -5.780613043      1.264      3.746
REMARK  2 active torsions:
REMARK  status: ('A' for Active; 'I' for Inactive)
REMARK    1  A    between atoms: O1_1  and  C1_3 
REMARK    2  A    between atoms: C1_3  and  C2_4 
ROOT
HETATM    1  C2  UNL     1      42.394  34.538  57.679  1.00  0.00     0.020 C 
HETATM    2  C3  UNL     1      42.526  33.348  56.818  1.00  0.00    -0.006 C 
HETATM    3  C4  UNL     1      42.628  32.133  57.711  1.00  0.00     0.031 C 
HETATM    4  C5  UNL     1      43.898  32.457  58.533  1.00  0.00     0.168 C 
HETATM    5  O2  UNL     1      44.766  33.280  57.873  1.00  0.00    -0.391 OA
HETATM    6  C6  UNL     1      44.724  34.618  58.153  1.00  0.00     0.173 C 
HETATM    7  C7  UNL     1      43.605  35.362  57.376  1.00  0.00     0.020 C 
HETATM    8  C8  UNL     1      43.986  35.494  55.970  1.00  0.00    -0.004 A 
HETATM    9  C9  UNL     1      43.302  36.525  55.101  1.00  0.00     0.010 A 
HETATM   10  C10 UNL     1      43.344  34.980  54.844  1.00  0.00    -0.010 A 
HETATM   11  C11 UNL     1      42.026  34.404  54.715  1.00  0.00     0.005 C 
HETATM   12  C12 UNL     1      41.580  33.345  55.713  1.00  0.00     0.005 C 
ENDROOT
BRANCH   1  13
HETATM   13  C1  UNL     1      41.097  35.259  57.711  1.00  0.00     0.169 C 
BRANCH  13  14
HETATM   14  O1  UNL     1      41.112  36.132  58.812  1.00  0.00    -0.400 OA
ATOM     15  H1  UNL     1      40.820  35.647  59.575  1.00  0.00     0.209 HD
ENDBRANCH  13  14
ENDBRANCH   1  13
TORSDOF 2
ENDMDL
MODEL 3
REMARK VINA RESULT: -5.611161376      2.476      4.293
REMARK  2 active torsions:
REMARK  status: ('A' for Active; 'I' for Inactive)
REMARK    1  A    between atoms: O1_1  and  C1_3 
REMARK    2  A    between atoms: C1_3  and  C2_4 
ROOT
HETATM    1  C2  UNL     1      45.143  34.271  59.122  1.00  0.00     0.020 C 
HETATM    2  C3  UNL     1      43.688  34.462  59.259  1.00  0.00    -0.006 C 
HETATM    3  C4  UNL     1      43.454  35.721  60.064  1.00  0.00     0.031 C 
HETATM    4  C5  UNL     1      44.171  35.378  61.391  1.00  0.00     0.168 C 
HETATM    5  O2  UNL     1      44.222  34.035  61.640  1.00  0.00    -0.391 OA
HETATM    6  C6  UNL     1      45.366  33.363  61.309  1.00  0.00     0.173 C 
HETATM    7  C7  UNL     1      45.423  32.973  59.808  1.00  0.00     0.020 C 
HETATM    8  C8  UNL     1      44.496  31.870  59.551  1.00  0.00    -0.004 A 
HETATM    9  C9  UNL     1      44.660  31.029  58.305  1.00  0.00     0.010 A 
HETATM   10  C10 UNL     1      43.385  31.848  58.707  1.00  0.00    -0.010 A 
HETATM   11  C11 UNL     1      42.984  32.785  57.685  1.00  0.00     0.005 C 
HETATM   12  C12 UNL     1      42.974  34.273  58.006  1.00  0.00     0.005 C 
ENDROOT
BRANCH   1  13
HETATM   13  C1  UNL     1      45.768  34.461  57.788  1.00  0.00     0.169 C 
BRANCH  13  14
HETATM   14  O1  UNL     1      47.159  34.324  57.937  1.00  0.00    -0.400 OA
ATOM     15  H1  UNL     1      47.465  35.028  58.497  1.00  0.00     0.209 HD
ENDBRANCH  13  14
ENDBRANCH   1  13
TORSDOF 2
ENDMDL
MODEL 4
REMARK VINA RESULT: -5.604129254      1.923      2.979
REMARK  2 active torsions:
REMARK  status: ('A' for Active; 'I' for Inactive)
REMARK    1  A    between atoms: O1_1  and  C1_3 
REMARK    2  A    between atoms: C1_3  and  C2_4 
ROOT
HETATM    1  C2  UNL     1      43.904  33.125  59.233  1.00  0.00     0.020 C 
HETATM    2  C3  UNL     1      45.064  32.714  58.421  1.00  0.00    -0.006 C 
HETATM    3  C4  UNL     1      46.023  33.881  58.348  1.00  0.00     0.031 C 
HETATM    4  C5  UNL     1      45.142  34.965  57.683  1.00  0.00     0.168 C 
HETATM    5  O2  UNL     1      44.152  34.442  56.899  1.00  0.00    -0.391 OA
HETATM    6  C6  UNL     1      42.901  34.321  57.438  1.00  0.00     0.173 C 
HETATM    7  C7  UNL     1      42.738  33.041  58.301  1.00  0.00     0.020 C 
HETATM    8  C8  UNL     1      42.664  31.867  57.431  1.00  0.00    -0.004 A 
HETATM    9  C9  UNL     1      42.088  30.575  57.964  1.00  0.00     0.010 A 
HETATM   10  C10 UNL     1      43.527  30.772  57.374  1.00  0.00    -0.010 A 
HETATM   11  C11 UNL     1      44.563  30.365  58.294  1.00  0.00     0.005 C 
HETATM   12  C12 UNL     1      45.567  31.399  58.783  1.00  0.00     0.005 C 
ENDROOT
BRANCH   1  13
HETATM   13  C1  UNL     1      43.720  32.521  60.577  1.00  0.00     0.169 C 
BRANCH  13  14
HETATM   14  O1  UNL     1      44.405  33.319  61.509  1.00  0.00    -0.400 OA
ATOM     15  H1  UNL     1      45.207  33.623  61.102  1.00  0.00     0.209 HD
ENDBRANCH  13  14
ENDBRANCH   1  13
TORSDOF 2
ENDMDL
MODEL 5
REMARK VINA RESULT: -5.568418799      2.137      3.908
REMARK  2 active torsions:
REMARK  status: ('A' for Active; 'I' for Inactive)
REMARK    1  A    between atoms: O1_1  and  C1_3 
REMARK    2  A    between atoms: C1_3  and  C2_4 
ROOT
HETATM    1  C2  UNL     1      44.517  33.404  58.276  1.00  0.00     0.020 C 
HETATM    2  C3  UNL     1      43.709  33.542  59.502  1.00  0.00    -0.006 C 
HETATM    3  C4  UNL     1      43.976  32.338  60.378  1.00  0.00     0.031 C 
HETATM    4  C5  UNL     1      43.528  31.179  59.457  1.00  0.00     0.168 C 
HETATM    5  O2  UNL     1      42.580  31.555  58.547  1.00  0.00    -0.391 OA
HETATM    6  C6  UNL     1      42.991  31.873  57.282  1.00  0.00     0.173 C 
HETATM    7  C7  UNL     1      43.517  33.329  57.168  1.00  0.00     0.020 C 
HETATM    8  C8  UNL     1      42.392  34.264  57.222  1.00  0.00    -0.004 A 
HETATM    9  C9  UNL     1      42.567  35.677  56.713  1.00  0.00     0.010 A 
HETATM   10  C10 UNL     1      42.136  35.262  58.162  1.00  0.00    -0.010 A 
HETATM   11  C11 UNL     1      43.000  35.817  59.177  1.00  0.00     0.005 C 
HETATM   12  C12 UNL     1      43.784  34.875  60.078  1.00  0.00     0.005 C 
ENDROOT
BRANCH   1  13
HETATM   13  C1  UNL     1      45.666  34.322  58.068  1.00  0.00     0.169 C 
BRANCH  13  14
HETATM   14  O1  UNL     1      46.807  33.723  58.629  1.00  0.00    -0.400 OA
ATOM     15  H1  UNL     1      47.436  34.409  58.816  1.00  0.00     0.209 HD
ENDBRANCH  13  14
ENDBRANCH   1  13
TORSDOF 2
ENDMDL
