MODEL 1
REMARK VINA RESULT: -8.710303988      0.000      0.000
REMARK  2 active torsions:
REMARK  status: ('A' for Active; 'I' for Inactive)
REMARK    1  A    between atoms: C2_5  and  N2_6 
REMARK    2  A    between atoms: N2_6  and  C3_8 
ROOT
HETATM    1  C3  UNL     1      44.090 -20.151  -3.974  1.00  0.00     0.083 C 
HETATM    2  C4  UNL     1      43.636 -21.448  -4.550  1.00  0.00     0.030 C 
HETATM    3  C5  UNL     1      42.216 -21.808  -4.148  1.00  0.00     0.073 C 
HETATM    4  C6  UNL     1      41.384 -20.549  -4.426  1.00  0.00     0.200 C 
HETATM    5  C7  UNL     1      41.728 -19.575  -3.342  1.00  0.00     0.073 C 
HETATM    6  C8  UNL     1      43.164 -19.555  -2.960  1.00  0.00     0.030 C 
HETATM    7  O1  UNL     1      41.744 -19.977  -5.642  1.00  0.00    -0.197 OA
HETATM    8  O2  UNL     1      40.663 -19.290  -5.947  1.00  0.00    -0.197 OA
HETATM    9  C9  UNL     1      39.644 -20.187  -5.654  1.00  0.00     0.204 C 
HETATM   10  C10 UNL     1      39.529 -21.253  -6.726  1.00  0.00     0.072 C 
HETATM   11  C11 UNL     1      38.274 -22.046  -6.427  1.00  0.00     0.010 C 
HETATM   12  C12 UNL     1      37.147 -21.135  -6.063  1.00  0.00    -0.013 C 
HETATM   13  C13 UNL     1      37.452 -20.573  -4.668  1.00  0.00     0.014 C 
HETATM   14  C14 UNL     1      38.325 -19.538  -5.393  1.00  0.00     0.052 C 
HETATM   15  C15 UNL     1      37.373 -19.711  -6.582  1.00  0.00     0.014 C 
HETATM   16  O3  UNL     1      40.044 -20.829  -4.463  1.00  0.00    -0.313 OA
ENDROOT
BRANCH   1  17
HETATM   17  N2  UNL     1      45.393 -20.295  -3.401  1.00  0.00    -0.369 N 
ATOM     18  H2  UNL     1      45.475 -20.952  -2.626  1.00  0.00     0.161 HD
BRANCH  17  19
HETATM   19  C2  UNL     1      46.457 -19.699  -3.749  1.00  0.00     0.142 A 
HETATM   20  N1  UNL     1      46.873 -19.530  -5.020  1.00  0.00    -0.317 N 
HETATM   21  C1  UNL     1      48.004 -18.895  -5.355  1.00  0.00     0.182 A 
ATOM     22  H1  UNL     1      46.294 -19.907  -5.770  1.00  0.00     0.170 HD
HETATM   23 CL1  UNL     1      48.496 -18.704  -7.037  1.00  0.00    -0.045 Cl
HETATM   24  N3  UNL     1      48.765 -18.401  -4.362  1.00  0.00    -0.311 N 
HETATM   25  C17 UNL     1      48.451 -18.509  -3.067  1.00  0.00     0.184 A 
ATOM     26  H3  UNL     1      49.627 -17.917  -4.610  1.00  0.00     0.170 HD
HETATM   27  C16 UNL     1      47.269 -19.176  -2.764  1.00  0.00     0.166 A 
HETATM   28  O4  UNL     1      49.001 -18.124  -1.856  1.00  0.00    -0.307 OA
HETATM   29  O5  UNL     1      47.137 -19.175  -1.383  1.00  0.00    -0.318 OA
HETATM   30  C18 UNL     1      47.979 -18.144  -0.855  1.00  0.00     0.354 C 
ENDBRANCH  17  19
ENDBRANCH   1  17
TORSDOF 2
ENDMDL
MODEL 2
REMARK VINA RESULT: -8.608283090      2.216      3.008
REMARK  2 active torsions:
REMARK  status: ('A' for Active; 'I' for Inactive)
REMARK    1  A    between atoms: C2_5  and  N2_6 
REMARK    2  A    between atoms: N2_6  and  C3_8 
ROOT
HETATM    1  C3  UNL     1      43.939 -19.045  -5.495  1.00  0.00     0.083 C 
HETATM    2  C4  UNL     1      43.049 -18.385  -6.490  1.00  0.00     0.030 C 
HETATM    3  C5  UNL     1      42.043 -19.340  -7.109  1.00  0.00     0.073 C 
HETATM    4  C6  UNL     1      41.402 -20.077  -5.925  1.00  0.00     0.200 C 
HETATM    5  C7  UNL     1      42.429 -21.052  -5.437  1.00  0.00     0.073 C 
HETATM    6  C8  UNL     1      43.822 -20.536  -5.439  1.00  0.00     0.030 C 
HETATM    7  O1  UNL     1      41.124 -19.195  -4.885  1.00  0.00    -0.197 OA
HETATM    8  O2  UNL     1      40.175 -19.835  -4.236  1.00  0.00    -0.197 OA
HETATM    9  C9  UNL     1      39.356 -20.283  -5.265  1.00  0.00     0.204 C 
HETATM   10  C10 UNL     1      38.510 -19.154  -5.821  1.00  0.00     0.072 C 
HETATM   11  C11 UNL     1      37.517 -19.777  -6.778  1.00  0.00     0.010 C 
HETATM   12  C12 UNL     1      36.929 -21.021  -6.195  1.00  0.00    -0.013 C 
HETATM   13  C13 UNL     1      38.029 -22.091  -6.210  1.00  0.00     0.014 C 
HETATM   14  C14 UNL     1      38.513 -21.459  -4.897  1.00  0.00     0.052 C 
HETATM   15  C15 UNL     1      37.054 -21.050  -4.668  1.00  0.00     0.014 C 
HETATM   16  O3  UNL     1      40.235 -20.693  -6.289  1.00  0.00    -0.313 OA
ENDROOT
BRANCH   1  17
HETATM   17  N2  UNL     1      45.302 -18.683  -5.736  1.00  0.00    -0.369 N 
ATOM     18  H2  UNL     1      45.468 -18.038  -6.508  1.00  0.00     0.161 HD
BRANCH  17  19
HETATM   19  C2  UNL     1      46.326 -19.073  -5.097  1.00  0.00     0.142 A 
HETATM   20  N1  UNL     1      46.309 -19.668  -3.888  1.00  0.00    -0.317 N 
HETATM   21  C1  UNL     1      47.410 -20.069  -3.240  1.00  0.00     0.182 A 
ATOM     22  H1  UNL     1      45.405 -19.822  -3.441  1.00  0.00     0.170 HD
HETATM   23 CL1  UNL     1      47.324 -20.844  -1.659  1.00  0.00    -0.045 Cl
HETATM   24  N3  UNL     1      48.600 -19.862  -3.834  1.00  0.00    -0.311 N 
HETATM   25  C17 UNL     1      48.736 -19.283  -5.030  1.00  0.00     0.184 A 
ATOM     26  H3  UNL     1      49.442 -20.165  -3.345  1.00  0.00     0.170 HD
HETATM   27  C16 UNL     1      47.568 -18.881  -5.668  1.00  0.00     0.166 A 
HETATM   28  O4  UNL     1      49.778 -18.941  -5.876  1.00  0.00    -0.307 OA
HETATM   29  O5  UNL     1      47.933 -18.311  -6.879  1.00  0.00    -0.318 OA
HETATM   30  C18 UNL     1      49.260 -18.749  -7.196  1.00  0.00     0.354 C 
ENDBRANCH  17  19
ENDBRANCH   1  17
TORSDOF 2
ENDMDL
MODEL 3
REMARK VINA RESULT: -8.515505966      3.635      5.706
REMARK  2 active torsions:
REMARK  status: ('A' for Active; 'I' for Inactive)
REMARK    1  A    between atoms: C2_5  and  N2_6 
REMARK    2  A    between atoms: N2_6  and  C3_8 
ROOT
HETATM    1  C3  UNL     1      41.060 -20.793  -4.131  1.00  0.00     0.083 C 
HETATM    2  C4  UNL     1      39.630 -20.612  -4.508  1.00  0.00     0.030 C 
HETATM    3  C5  UNL     1      38.693 -21.521  -3.732  1.00  0.00     0.073 C 
HETATM    4  C6  UNL     1      39.092 -21.353  -2.260  1.00  0.00     0.200 C 
HETATM    5  C7  UNL     1      40.382 -22.093  -2.090  1.00  0.00     0.073 C 
HETATM    6  C8  UNL     1      41.328 -21.957  -3.228  1.00  0.00     0.030 C 
HETATM    7  O1  UNL     1      39.327 -20.014  -1.961  1.00  0.00    -0.197 OA
HETATM    8  O2  UNL     1      39.142 -19.992  -0.658  1.00  0.00    -0.197 OA
HETATM    9  C9  UNL     1      37.986 -20.747  -0.506  1.00  0.00     0.204 C 
HETATM   10  C10 UNL     1      36.758 -19.954  -0.908  1.00  0.00     0.072 C 
HETATM   11  C11 UNL     1      35.551 -20.779  -0.513  1.00  0.00     0.010 C 
HETATM   12  C12 UNL     1      35.731 -21.359   0.853  1.00  0.00    -0.013 C 
HETATM   13  C13 UNL     1      36.790 -22.465   0.738  1.00  0.00     0.014 C 
HETATM   14  C14 UNL     1      37.826 -21.337   0.857  1.00  0.00     0.052 C 
HETATM   15  C15 UNL     1      36.768 -20.583   1.671  1.00  0.00     0.014 C 
HETATM   16  O3  UNL     1      38.115 -21.815  -1.418  1.00  0.00    -0.313 OA
ENDROOT
BRANCH   1  17
HETATM   17  N2  UNL     1      41.869 -20.905  -5.304  1.00  0.00    -0.369 N 
ATOM     18  H2  UNL     1      41.761 -21.761  -5.848  1.00  0.00     0.161 HD
BRANCH  17  19
HETATM   19  C2  UNL     1      42.705 -20.060  -5.746  1.00  0.00     0.142 A 
HETATM   20  N1  UNL     1      43.972 -19.918  -5.308  1.00  0.00    -0.317 N 
HETATM   21  C1  UNL     1      44.832 -19.015  -5.796  1.00  0.00     0.182 A 
ATOM     22  H1  UNL     1      44.295 -20.535  -4.562  1.00  0.00     0.170 HD
HETATM   23 CL1  UNL     1      46.479 -18.878  -5.184  1.00  0.00    -0.045 Cl
HETATM   24  N3  UNL     1      44.401 -18.204  -6.780  1.00  0.00    -0.311 N 
HETATM   25  C17 UNL     1      43.167 -18.255  -7.291  1.00  0.00     0.184 A 
ATOM     26  H3  UNL     1      45.050 -17.514  -7.155  1.00  0.00     0.170 HD
HETATM   27  C16 UNL     1      42.307 -19.207  -6.755  1.00  0.00     0.166 A 
HETATM   28  O4  UNL     1      42.447 -17.587  -8.266  1.00  0.00    -0.307 OA
HETATM   29  O5  UNL     1      41.095 -19.089  -7.420  1.00  0.00    -0.318 OA
HETATM   30  C18 UNL     1      41.326 -18.390  -8.648  1.00  0.00     0.354 C 
ENDBRANCH  17  19
ENDBRANCH   1  17
TORSDOF 2
ENDMDL
MODEL 4
REMARK VINA RESULT: -8.465414696      1.058      1.553
REMARK  2 active torsions:
REMARK  status: ('A' for Active; 'I' for Inactive)
REMARK    1  A    between atoms: C2_5  and  N2_6 
REMARK    2  A    between atoms: N2_6  and  C3_8 
ROOT
HETATM    1  C3  UNL     1      44.094 -20.911  -3.332  1.00  0.00     0.083 C 
HETATM    2  C4  UNL     1      43.819 -20.083  -4.540  1.00  0.00     0.030 C 
HETATM    3  C5  UNL     1      42.781 -20.703  -5.459  1.00  0.00     0.073 C 
HETATM    4  C6  UNL     1      41.607 -21.084  -4.546  1.00  0.00     0.200 C 
HETATM    5  C7  UNL     1      42.047 -22.296  -3.785  1.00  0.00     0.073 C 
HETATM    6  C8  UNL     1      43.466 -22.270  -3.347  1.00  0.00     0.030 C 
HETATM    7  O1  UNL     1      41.349 -20.073  -3.625  1.00  0.00    -0.197 OA
HETATM    8  O2  UNL     1      40.092 -20.306  -3.314  1.00  0.00    -0.197 OA
HETATM    9  C9  UNL     1      39.515 -20.547  -4.555  1.00  0.00     0.204 C 
HETATM   10  C10 UNL     1      39.308 -19.255  -5.321  1.00  0.00     0.072 C 
HETATM   11  C11 UNL     1      38.495 -19.597  -6.551  1.00  0.00     0.010 C 
HETATM   12  C12 UNL     1      37.374 -20.523  -6.203  1.00  0.00    -0.013 C 
HETATM   13  C13 UNL     1      37.997 -21.893  -5.900  1.00  0.00     0.014 C 
HETATM   14  C14 UNL     1      38.254 -21.345  -4.489  1.00  0.00     0.052 C 
HETATM   15  C15 UNL     1      37.022 -20.460  -4.714  1.00  0.00     0.014 C 
HETATM   16  O3  UNL     1      40.464 -21.311  -5.265  1.00  0.00    -0.313 OA
ENDROOT
BRANCH   1  17
HETATM   17  N2  UNL     1      45.504 -21.039  -3.133  1.00  0.00    -0.369 N 
ATOM     18  H2  UNL     1      45.821 -21.904  -2.697  1.00  0.00     0.161 HD
BRANCH  17  19
HETATM   19  C2  UNL     1      46.404 -20.200  -3.439  1.00  0.00     0.142 A 
HETATM   20  N1  UNL     1      46.809 -19.915  -4.692  1.00  0.00    -0.317 N 
HETATM   21  C1  UNL     1      47.764 -19.022  -4.982  1.00  0.00     0.182 A 
ATOM     22  H1  UNL     1      46.362 -20.409  -5.465  1.00  0.00     0.170 HD
HETATM   23 CL1  UNL     1      48.251 -18.691  -6.643  1.00  0.00    -0.045 Cl
HETATM   24  N3  UNL     1      48.350 -18.375  -3.958  1.00  0.00    -0.311 N 
HETATM   25  C17 UNL     1      48.029 -18.576  -2.676  1.00  0.00     0.184 A 
ATOM     26  H3  UNL     1      49.078 -17.694  -4.172  1.00  0.00     0.170 HD
HETATM   27  C16 UNL     1      47.033 -19.512  -2.421  1.00  0.00     0.166 A 
HETATM   28  O4  UNL     1      48.430 -18.089  -1.444  1.00  0.00    -0.307 OA
HETATM   29  O5  UNL     1      46.859 -19.564  -1.046  1.00  0.00    -0.318 OA
HETATM   30  C18 UNL     1      47.410 -18.369  -0.480  1.00  0.00     0.354 C 
ENDBRANCH  17  19
ENDBRANCH   1  17
TORSDOF 2
ENDMDL
MODEL 5
REMARK VINA RESULT: -8.329194444      2.472      3.127
REMARK  2 active torsions:
REMARK  status: ('A' for Active; 'I' for Inactive)
REMARK    1  A    between atoms: C2_5  and  N2_6 
REMARK    2  A    between atoms: N2_6  and  C3_8 
ROOT
HETATM    1  C3  UNL     1      43.797 -21.152  -2.963  1.00  0.00     0.083 C 
HETATM    2  C4  UNL     1      43.643 -20.249  -4.138  1.00  0.00     0.030 C 
HETATM    3  C5  UNL     1      42.689 -20.798  -5.185  1.00  0.00     0.073 C 
HETATM    4  C6  UNL     1      41.433 -21.215  -4.409  1.00  0.00     0.200 C 
HETATM    5  C7  UNL     1      41.789 -22.478  -3.687  1.00  0.00     0.073 C 
HETATM    6  C8  UNL     1      43.161 -22.499  -3.118  1.00  0.00     0.030 C 
HETATM    7  O1  UNL     1      41.099 -20.258  -3.456  1.00  0.00    -0.197 OA
HETATM    8  O2  UNL     1      39.817 -20.491  -3.277  1.00  0.00    -0.197 OA
HETATM    9  C9  UNL     1      39.355 -20.648  -4.578  1.00  0.00     0.204 C 
HETATM   10  C10 UNL     1      39.232 -19.310  -5.279  1.00  0.00     0.072 C 
HETATM   11  C11 UNL     1      38.534 -19.566  -6.598  1.00  0.00     0.010 C 
HETATM   12  C12 UNL     1      37.377 -20.494  -6.412  1.00  0.00    -0.013 C 
HETATM   13  C13 UNL     1      37.957 -21.888  -6.138  1.00  0.00     0.014 C 
HETATM   14  C14 UNL     1      38.086 -21.430  -4.677  1.00  0.00     0.052 C 
HETATM   15  C15 UNL     1      36.889 -20.515  -4.960  1.00  0.00     0.014 C 
HETATM   16  O3  UNL     1      40.359 -21.382  -5.243  1.00  0.00    -0.313 OA
ENDROOT
BRANCH   1  17
HETATM   17  N2  UNL     1      45.181 -21.313  -2.643  1.00  0.00    -0.369 N 
ATOM     18  H2  UNL     1      45.685 -22.030  -3.164  1.00  0.00     0.161 HD
BRANCH  17  19
HETATM   19  C2  UNL     1      45.853 -20.665  -1.784  1.00  0.00     0.142 A 
HETATM   20  N1  UNL     1      45.750 -20.806  -0.448  1.00  0.00    -0.317 N 
HETATM   21  C1  UNL     1      46.475 -20.106   0.434  1.00  0.00     0.182 A 
ATOM     22  H1  UNL     1      45.080 -21.486  -0.087  1.00  0.00     0.170 HD
HETATM   23 CL1  UNL     1      46.296 -20.336   2.172  1.00  0.00    -0.045 Cl
HETATM   24  N3  UNL     1      47.356 -19.210  -0.048  1.00  0.00    -0.311 N 
HETATM   25  C17 UNL     1      47.543 -18.987  -1.353  1.00  0.00     0.184 A 
ATOM     26  H3  UNL     1      47.911 -18.673   0.618  1.00  0.00     0.170 HD
HETATM   27  C16 UNL     1      46.769 -19.735  -2.233  1.00  0.00     0.166 A 
HETATM   28  O4  UNL     1      48.338 -18.167  -2.135  1.00  0.00    -0.307 OA
HETATM   29  O5  UNL     1      47.117 -19.350  -3.519  1.00  0.00    -0.318 OA
HETATM   30  C18 UNL     1      48.395 -18.703  -3.461  1.00  0.00     0.354 C 
ENDBRANCH  17  19
ENDBRANCH   1  17
TORSDOF 2
ENDMDL
