MODEL 1
REMARK VINA RESULT: -8.280064459      0.000      0.000
REMARK  2 active torsions:
REMARK  status: ('A' for Active; 'I' for Inactive)
REMARK    1  A    between atoms: C2_2  and  C4_4 
REMARK    2  A    between atoms: C18_22  and  O4_23 
ROOT
HETATM    1  C4  UNL     1      46.052 -19.988  -3.861  1.00  0.00    -0.017 C 
HETATM    2  C5  UNL     1      46.673 -19.586  -5.186  1.00  0.00     0.052 C 
HETATM    3  C6  UNL     1      44.736 -20.098  -3.704  1.00  0.00     0.158 C 
HETATM    4  O1  UNL     1      44.308 -20.519  -2.450  1.00  0.00    -0.193 OA
HETATM    5  O2  UNL     1      43.303 -21.248  -2.096  1.00  0.00    -0.224 OA
HETATM    6  C7  UNL     1      42.258 -20.497  -1.627  1.00  0.00     0.226 C 
HETATM    7  C8  UNL     1      41.819 -19.410  -2.591  1.00  0.00     0.085 C 
HETATM    8  C9  UNL     1      41.074 -19.802  -3.736  1.00  0.00     0.124 A 
HETATM    9  F1  UNL     1      40.212 -18.836  -4.204  1.00  0.00    -0.241 F 
HETATM   10  C10 UNL     1      40.908 -21.223  -3.659  1.00  0.00     0.101 A 
HETATM   11  C11 UNL     1      39.926 -21.700  -2.836  1.00  0.00     0.182 C 
HETATM   12  O3  UNL     1      38.987 -22.456  -3.531  1.00  0.00    -0.343 OA
HETATM   13  C12 UNL     1      37.838 -21.741  -3.084  1.00  0.00     0.066 C 
HETATM   14  C13 UNL     1      36.841 -22.886  -2.766  1.00  0.00     0.046 C 
HETATM   15  C14 UNL     1      37.145 -20.816  -3.963  1.00  0.00     0.046 C 
HETATM   16  C15 UNL     1      38.762 -21.310  -2.056  1.00  0.00     0.083 C 
HETATM   17  C16 UNL     1      38.852 -20.096  -1.270  1.00  0.00     0.018 C 
HETATM   18  C17 UNL     1      40.106 -20.356  -0.414  1.00  0.00     0.072 C 
HETATM   19  C18 UNL     1      41.126 -21.251  -1.005  1.00  0.00     0.194 C 
HETATM   20  O5  UNL     1      40.639 -22.331  -1.749  1.00  0.00    -0.315 OA
HETATM   21  C19 UNL     1      41.372 -20.555  -4.867  1.00  0.00     0.011 A 
HETATM   22  C20 UNL     1      40.419 -20.860  -6.015  1.00  0.00     0.020 C 
HETATM   23  C21 UNL     1      42.775 -20.617  -5.387  1.00  0.00     0.099 C 
HETATM   24  C22 UNL     1      43.800 -19.789  -4.784  1.00  0.00     0.186 C 
HETATM   25  O6  UNL     1      43.925 -18.586  -5.252  1.00  0.00    -0.290 OA
ENDROOT
BRANCH   1  26
HETATM   26  C2  UNL     1      47.050 -20.266  -2.841  1.00  0.00    -0.062 C 
HETATM   27  C1  UNL     1      47.635 -21.451  -2.766  1.00  0.00     0.019 C 
HETATM   28  C3  UNL     1      47.429 -19.211  -1.832  1.00  0.00     0.048 C 
ENDBRANCH   1  26
BRANCH  19  29
HETATM   29  O4  UNL     1      41.757 -21.918   0.094  1.00  0.00    -0.363 OA
ATOM     30  H4  UNL     1      41.287 -22.743   0.137  1.00  0.00     0.213 HD
ENDBRANCH  19  29
TORSDOF 2
ENDMDL
MODEL 2
REMARK VINA RESULT: -8.263154624      2.641      4.626
REMARK  2 active torsions:
REMARK  status: ('A' for Active; 'I' for Inactive)
REMARK    1  A    between atoms: C2_2  and  C4_4 
REMARK    2  A    between atoms: C18_22  and  O4_23 
ROOT
HETATM    1  C4  UNL     1      42.540 -19.335  -6.204  1.00  0.00    -0.017 C 
HETATM    2  C5  UNL     1      44.052 -19.342  -6.083  1.00  0.00     0.052 C 
HETATM    3  C6  UNL     1      41.753 -19.788  -5.233  1.00  0.00     0.158 C 
HETATM    4  O1  UNL     1      40.385 -19.680  -5.460  1.00  0.00    -0.193 OA
HETATM    5  O2  UNL     1      39.405 -19.459  -4.650  1.00  0.00    -0.224 OA
HETATM    6  C7  UNL     1      38.734 -20.607  -4.323  1.00  0.00     0.226 C 
HETATM    7  C8  UNL     1      39.639 -21.700  -3.784  1.00  0.00     0.085 C 
HETATM    8  C9  UNL     1      40.126 -21.559  -2.455  1.00  0.00     0.124 A 
HETATM    9  F1  UNL     1      40.383 -22.755  -1.822  1.00  0.00    -0.241 F 
HETATM   10  C10 UNL     1      39.576 -20.344  -1.936  1.00  0.00     0.101 A 
HETATM   11  C11 UNL     1      38.287 -20.378  -1.477  1.00  0.00     0.182 C 
HETATM   12  O3  UNL     1      38.204 -20.022  -0.135  1.00  0.00    -0.343 OA
HETATM   13  C12 UNL     1      37.491 -21.179   0.296  1.00  0.00     0.066 C 
HETATM   14  C13 UNL     1      36.425 -20.574   1.246  1.00  0.00     0.046 C 
HETATM   15  C14 UNL     1      38.159 -22.236   1.036  1.00  0.00     0.046 C 
HETATM   16  C15 UNL     1      37.198 -21.272  -1.119  1.00  0.00     0.083 C 
HETATM   17  C16 UNL     1      36.935 -22.398  -1.990  1.00  0.00     0.018 C 
HETATM   18  C17 UNL     1      36.743 -21.715  -3.357  1.00  0.00     0.072 C 
HETATM   19  C18 UNL     1      37.463 -20.436  -3.553  1.00  0.00     0.194 C 
HETATM   20  O5  UNL     1      37.542 -19.597  -2.437  1.00  0.00    -0.315 OA
HETATM   21  C19 UNL     1      40.993 -20.666  -1.837  1.00  0.00     0.011 A 
HETATM   22  C20 UNL     1      41.408 -20.690  -0.372  1.00  0.00     0.020 C 
HETATM   23  C21 UNL     1      42.074 -19.992  -2.624  1.00  0.00     0.099 C 
HETATM   24  C22 UNL     1      42.295 -20.370  -4.006  1.00  0.00     0.186 C 
HETATM   25  O6  UNL     1      43.089 -21.374  -4.213  1.00  0.00    -0.290 OA
ENDROOT
BRANCH   1  26
HETATM   26  C2  UNL     1      42.085 -18.753  -7.457  1.00  0.00    -0.062 C 
HETATM   27  C1  UNL     1      42.796 -17.822  -8.072  1.00  0.00     0.019 C 
HETATM   28  C3  UNL     1      40.779 -19.187  -8.074  1.00  0.00     0.048 C 
ENDBRANCH   1  26
BRANCH  19  29
HETATM   29  O4  UNL     1      36.656 -19.657  -4.445  1.00  0.00    -0.363 OA
ATOM     30  H4  UNL     1      36.065 -19.207  -3.853  1.00  0.00     0.213 HD
ENDBRANCH  19  29
TORSDOF 2
ENDMDL
MODEL 3
REMARK VINA RESULT: -8.157558744      2.340      3.900
REMARK  2 active torsions:
REMARK  status: ('A' for Active; 'I' for Inactive)
REMARK    1  A    between atoms: C2_2  and  C4_4 
REMARK    2  A    between atoms: C18_22  and  O4_23 
ROOT
HETATM    1  C4  UNL     1      41.524 -19.593  -6.178  1.00  0.00    -0.017 C 
HETATM    2  C5  UNL     1      40.881 -19.739  -7.544  1.00  0.00     0.052 C 
HETATM    3  C6  UNL     1      40.891 -19.938  -5.061  1.00  0.00     0.158 C 
HETATM    4  O1  UNL     1      41.616 -19.793  -3.883  1.00  0.00    -0.193 OA
HETATM    5  O2  UNL     1      41.614 -20.485  -2.793  1.00  0.00    -0.224 OA
HETATM    6  C7  UNL     1      40.879 -19.890  -1.803  1.00  0.00     0.226 C 
HETATM    7  C8  UNL     1      39.461 -19.552  -2.228  1.00  0.00     0.085 C 
HETATM    8  C9  UNL     1      38.529 -20.621  -2.331  1.00  0.00     0.124 A 
HETATM    9  F1  UNL     1      37.223 -20.251  -2.101  1.00  0.00    -0.241 F 
HETATM   10  C10 UNL     1      39.224 -21.818  -1.960  1.00  0.00     0.101 A 
HETATM   11  C11 UNL     1      39.387 -22.066  -0.625  1.00  0.00     0.182 C 
HETATM   12  O3  UNL     1      38.804 -23.271  -0.247  1.00  0.00    -0.343 OA
HETATM   13  C12 UNL     1      38.012 -22.743   0.814  1.00  0.00     0.066 C 
HETATM   14  C13 UNL     1      38.212 -23.800   1.932  1.00  0.00     0.046 C 
HETATM   15  C14 UNL     1      36.579 -22.563   0.660  1.00  0.00     0.046 C 
HETATM   16  C15 UNL     1      38.959 -21.654   0.702  1.00  0.00     0.083 C 
HETATM   17  C16 UNL     1      38.850 -20.233   0.964  1.00  0.00     0.018 C 
HETATM   18  C17 UNL     1      40.255 -19.724   0.586  1.00  0.00     0.072 C 
HETATM   19  C18 UNL     1      40.976 -20.505  -0.443  1.00  0.00     0.194 C 
HETATM   20  O5  UNL     1      40.803 -21.893  -0.396  1.00  0.00    -0.315 OA
HETATM   21  C19 UNL     1      38.418 -21.724  -3.170  1.00  0.00     0.011 A 
HETATM   22  C20 UNL     1      37.315 -22.773  -3.128  1.00  0.00     0.020 C 
HETATM   23  C21 UNL     1      38.974 -21.677  -4.560  1.00  0.00     0.099 C 
HETATM   24  C22 UNL     1      39.515 -20.434  -5.072  1.00  0.00     0.186 C 
HETATM   25  O6  UNL     1      38.675 -19.619  -5.629  1.00  0.00    -0.290 OA
ENDROOT
BRANCH   1  26
HETATM   26  C2  UNL     1      42.884 -19.084  -6.255  1.00  0.00    -0.062 C 
HETATM   27  C1  UNL     1      43.158 -17.976  -6.925  1.00  0.00     0.019 C 
HETATM   28  C3  UNL     1      44.017 -19.821  -5.585  1.00  0.00     0.048 C 
ENDBRANCH   1  26
BRANCH  19  29
HETATM   29  O4  UNL     1      42.370 -20.377  -0.138  1.00  0.00    -0.363 OA
ATOM     30  H4  UNL     1      42.402 -19.567   0.358  1.00  0.00     0.213 HD
ENDBRANCH  19  29
TORSDOF 2
ENDMDL
MODEL 4
REMARK VINA RESULT: -8.100513977      1.925      3.864
REMARK  2 active torsions:
REMARK  status: ('A' for Active; 'I' for Inactive)
REMARK    1  A    between atoms: C2_2  and  C4_4 
REMARK    2  A    between atoms: C18_22  and  O4_23 
ROOT
HETATM    1  C4  UNL     1      46.837 -19.589  -4.374  1.00  0.00    -0.017 C 
HETATM    2  C5  UNL     1      47.741 -19.721  -3.163  1.00  0.00     0.052 C 
HETATM    3  C6  UNL     1      45.534 -19.843  -4.312  1.00  0.00     0.158 C 
HETATM    4  O1  UNL     1      44.819 -19.638  -5.486  1.00  0.00    -0.193 OA
HETATM    5  O2  UNL     1      43.610 -19.228  -5.684  1.00  0.00    -0.224 OA
HETATM    6  C7  UNL     1      42.751 -20.258  -5.954  1.00  0.00     0.226 C 
HETATM    7  C8  UNL     1      42.780 -21.355  -4.905  1.00  0.00     0.085 C 
HETATM    8  C9  UNL     1      42.142 -21.097  -3.661  1.00  0.00     0.124 A 
HETATM    9  F1  UNL     1      41.660 -22.224  -3.033  1.00  0.00    -0.241 F 
HETATM   10  C10 UNL     1      41.585 -19.780  -3.743  1.00  0.00     0.101 A 
HETATM   11  C11 UNL     1      40.394 -19.638  -4.402  1.00  0.00     0.182 C 
HETATM   12  O3  UNL     1      39.404 -19.113  -3.577  1.00  0.00    -0.343 OA
HETATM   13  C12 UNL     1      38.439 -20.136  -3.809  1.00  0.00     0.066 C 
HETATM   14  C13 UNL     1      37.131 -19.321  -3.983  1.00  0.00     0.046 C 
HETATM   15  C14 UNL     1      38.170 -21.150  -2.805  1.00  0.00     0.046 C 
HETATM   16  C15 UNL     1      39.275 -20.375  -4.967  1.00  0.00     0.083 C 
HETATM   17  C16 UNL     1      39.571 -21.572  -5.727  1.00  0.00     0.018 C 
HETATM   18  C17 UNL     1      40.559 -21.048  -6.787  1.00  0.00     0.072 C 
HETATM   19  C18 UNL     1      41.374 -19.877  -6.396  1.00  0.00     0.194 C 
HETATM   20  O5  UNL     1      40.732 -18.916  -5.607  1.00  0.00    -0.315 OA
HETATM   21  C19 UNL     1      42.394 -20.218  -2.614  1.00  0.00     0.011 A 
HETATM   22  C20 UNL     1      41.583 -20.099  -1.330  1.00  0.00     0.020 C 
HETATM   23  C21 UNL     1      43.789 -19.750  -2.337  1.00  0.00     0.099 C 
HETATM   24  C22 UNL     1      44.895 -20.315  -3.083  1.00  0.00     0.186 C 
HETATM   25  O6  UNL     1      45.415 -21.407  -2.615  1.00  0.00    -0.290 OA
ENDROOT
BRANCH   1  26
HETATM   26  C2  UNL     1      47.552 -19.126  -5.553  1.00  0.00    -0.062 C 
HETATM   27  C1  UNL     1      46.913 -18.520  -6.540  1.00  0.00     0.019 C 
HETATM   28  C3  UNL     1      49.039 -19.345  -5.683  1.00  0.00     0.048 C 
ENDBRANCH   1  26
BRANCH  19  29
HETATM   29  O4  UNL     1      41.622 -19.142  -7.601  1.00  0.00    -0.363 OA
ATOM     30  H4  UNL     1      42.197 -19.722  -8.085  1.00  0.00     0.213 HD
ENDBRANCH  19  29
TORSDOF 2
ENDMDL
MODEL 5
REMARK VINA RESULT: -8.014929462      3.243      5.187
REMARK  2 active torsions:
REMARK  status: ('A' for Active; 'I' for Inactive)
REMARK    1  A    between atoms: C2_2  and  C4_4 
REMARK    2  A    between atoms: C18_22  and  O4_23 
ROOT
HETATM    1  C4  UNL     1      41.292 -20.733   2.137  1.00  0.00    -0.017 C 
HETATM    2  C5  UNL     1      42.604 -21.406   2.493  1.00  0.00     0.052 C 
HETATM    3  C6  UNL     1      40.902 -20.571   0.876  1.00  0.00     0.158 C 
HETATM    4  O1  UNL     1      39.656 -19.979   0.698  1.00  0.00    -0.193 OA
HETATM    5  O2  UNL     1      38.749 -20.164  -0.203  1.00  0.00    -0.224 OA
HETATM    6  C7  UNL     1      38.772 -19.193  -1.168  1.00  0.00     0.226 C 
HETATM    7  C8  UNL     1      40.136 -19.015  -1.809  1.00  0.00     0.085 C 
HETATM    8  C9  UNL     1      40.564 -20.003  -2.738  1.00  0.00     0.124 A 
HETATM    9  F1  UNL     1      41.428 -19.531  -3.701  1.00  0.00    -0.241 F 
HETATM   10  C10 UNL     1      39.508 -20.964  -2.842  1.00  0.00     0.101 A 
HETATM   11  C11 UNL     1      38.444 -20.650  -3.642  1.00  0.00     0.182 C 
HETATM   12  O3  UNL     1      38.273 -21.575  -4.667  1.00  0.00    -0.343 OA
HETATM   13  C12 UNL     1      38.271 -20.634  -5.738  1.00  0.00     0.066 C 
HETATM   14  C13 UNL     1      37.104 -21.147  -6.623  1.00  0.00     0.046 C 
HETATM   15  C14 UNL     1      39.424 -20.489  -6.608  1.00  0.00     0.046 C 
HETATM   16  C15 UNL     1      37.979 -19.717  -4.656  1.00  0.00     0.083 C 
HETATM   17  C16 UNL     1      38.269 -18.311  -4.463  1.00  0.00     0.018 C 
HETATM   18  C17 UNL     1      37.676 -18.045  -3.066  1.00  0.00     0.072 C 
HETATM   19  C18 UNL     1      37.638 -19.201  -2.143  1.00  0.00     0.194 C 
HETATM   20  O5  UNL     1      37.349 -20.441  -2.723  1.00  0.00    -0.315 OA
HETATM   21  C19 UNL     1      40.896 -21.348  -2.628  1.00  0.00     0.011 A 
HETATM   22  C20 UNL     1      41.354 -22.253  -3.764  1.00  0.00     0.020 C 
HETATM   23  C21 UNL     1      41.439 -21.891  -1.342  1.00  0.00     0.099 C 
HETATM   24  C22 UNL     1      41.737 -20.985  -0.251  1.00  0.00     0.186 C 
HETATM   25  O6  UNL     1      42.915 -20.443  -0.251  1.00  0.00    -0.290 OA
ENDROOT
BRANCH   1  26
HETATM   26  C2  UNL     1      40.530 -20.343   3.313  1.00  0.00    -0.062 C 
HETATM   27  C1  UNL     1      40.789 -19.210   3.946  1.00  0.00     0.019 C 
HETATM   28  C3  UNL     1      39.436 -21.233   3.847  1.00  0.00     0.048 C 
ENDBRANCH   1  26
BRANCH  19  29
HETATM   29  O4  UNL     1      36.496 -19.003  -1.301  1.00  0.00    -0.363 OA
ATOM     30  H4  UNL     1      36.175 -19.887  -1.171  1.00  0.00     0.213 HD
ENDBRANCH  19  29
TORSDOF 2
ENDMDL
