MODEL 1
REMARK VINA RESULT: -6.161907446      0.000      0.000
REMARK  7 active torsions:
REMARK  status: ('A' for Active; 'I' for Inactive)
REMARK    1  A    between atoms: N1_4  and  O1_6 
REMARK    2  A    between atoms: O1_6  and  C4_7 
REMARK    3  A    between atoms: C7_10  and  O2_11 
REMARK    4  A    between atoms: C7_10  and  C8_13 
REMARK    5  A    between atoms: C8_13  and  O4_15 
REMARK    6  A    between atoms: O4_15  and  C9_16 
REMARK    7  A    between atoms: C17_25  and  C18_26 
ROOT
HETATM    1  C4  UNL     1       3.893  40.347  16.373  1.00  0.00     0.165 C 
HETATM    2  C5  UNL     1       3.203  39.202  15.640  1.00  0.00     0.026 C 
HETATM    3  C6  UNL     1       1.823  39.712  15.280  1.00  0.00     0.056 C 
HETATM    4  C7  UNL     1       0.983  38.662  14.597  1.00  0.00     0.149 C 
HETATM    5  C10 UNL     1       1.419  37.307  15.039  1.00  0.00     0.026 C 
HETATM    6  C11 UNL     1       0.335  36.308  14.708  1.00  0.00     0.014 C 
HETATM    7  C12 UNL     1       1.793  37.298  16.485  1.00  0.00     0.013 C 
HETATM    8  C13 UNL     1       3.073  38.057  16.665  1.00  0.00    -0.003 C 
HETATM    9  C14 UNL     1       3.080  38.849  17.902  1.00  0.00     0.001 C 
HETATM   10  C15 UNL     1       3.411  38.263  19.191  1.00  0.00     0.006 C 
HETATM   11  C16 UNL     1       3.948  39.499  19.935  1.00  0.00     0.006 C 
HETATM   12  C17 UNL     1       4.404  40.473  18.872  1.00  0.00     0.001 C 
HETATM   13  C21 UNL     1       4.347  39.688  17.636  1.00  0.00    -0.007 C 
HETATM   14  C22 UNL     1       5.531  38.847  17.337  1.00  0.00     0.019 C 
ENDROOT
BRANCH   4  15
HETATM   15  O2  UNL     1       1.207  38.744  13.211  1.00  0.00    -0.379 OA
ATOM     16  H2  UNL     1       0.603  39.378  12.845  1.00  0.00     0.211 HD
ENDBRANCH   4  15
BRANCH   4  17
HETATM   17  C8  UNL     1      -0.450  38.947  14.866  1.00  0.00     0.301 C 
HETATM   18  O3  UNL     1      -0.915  38.888  16.034  1.00  0.00    -0.261 OA
BRANCH  17  19
HETATM   19  O4  UNL     1      -1.344  39.289  13.859  1.00  0.00    -0.250 OA
BRANCH  19  20
HETATM   20  C9  UNL     1      -1.996  38.323  13.082  1.00  0.00     0.406 C 
HETATM   21  O5  UNL     1      -1.444  37.857  12.057  1.00  0.00    -0.276 OA
ENDBRANCH  19  20
ENDBRANCH  17  19
ENDBRANCH   4  17
BRANCH   1  22
HETATM   22  O1  UNL     1       3.054  41.413  16.646  1.00  0.00    -0.274 OA
BRANCH  22  23
HETATM   23  N1  UNL     1       2.892  42.586  16.036  1.00  0.00    -0.275 N 
HETATM   24  C2  UNL     1       3.375  43.727  16.229  1.00  0.00     0.002 C 
HETATM   25  C1  UNL     1       2.962  44.845  15.330  1.00  0.00     0.065 C 
HETATM   26  C3  UNL     1       4.339  44.027  17.307  1.00  0.00     0.065 C 
ATOM     27  H1  UNL     1       2.242  42.549  15.251  1.00  0.00     0.193 HD
ENDBRANCH  22  23
ENDBRANCH   1  22
BRANCH  12  28
HETATM   28  C18 UNL     1       5.746  41.071  19.106  1.00  0.00    -0.010 A 
HETATM   29  C19 UNL     1       5.810  42.201  20.068  1.00  0.00     0.005 A 
HETATM   30  C20 UNL     1       6.550  40.941  20.315  1.00  0.00     0.005 A 
ENDBRANCH  12  28
TORSDOF 7
ENDMDL
MODEL 2
REMARK VINA RESULT: -6.138166733      1.238      1.514
REMARK  7 active torsions:
REMARK  status: ('A' for Active; 'I' for Inactive)
REMARK    1  A    between atoms: N1_4  and  O1_6 
REMARK    2  A    between atoms: O1_6  and  C4_7 
REMARK    3  A    between atoms: C7_10  and  O2_11 
REMARK    4  A    between atoms: C7_10  and  C8_13 
REMARK    5  A    between atoms: C8_13  and  O4_15 
REMARK    6  A    between atoms: O4_15  and  C9_16 
REMARK    7  A    between atoms: C17_25  and  C18_26 
ROOT
HETATM    1  C4  UNL     1       4.464  40.363  17.172  1.00  0.00     0.165 C 
HETATM    2  C5  UNL     1       3.706  39.084  16.836  1.00  0.00     0.026 C 
HETATM    3  C6  UNL     1       2.306  39.518  16.455  1.00  0.00     0.056 C 
HETATM    4  C7  UNL     1       1.404  38.347  16.153  1.00  0.00     0.149 C 
HETATM    5  C10 UNL     1       1.863  37.152  16.916  1.00  0.00     0.026 C 
HETATM    6  C11 UNL     1       0.747  36.134  16.956  1.00  0.00     0.014 C 
HETATM    7  C12 UNL     1       2.354  37.527  18.276  1.00  0.00     0.013 C 
HETATM    8  C13 UNL     1       3.650  38.266  18.143  1.00  0.00    -0.003 C 
HETATM    9  C14 UNL     1       3.765  39.366  19.111  1.00  0.00     0.001 C 
HETATM   10  C15 UNL     1       4.194  39.144  20.482  1.00  0.00     0.006 C 
HETATM   11  C16 UNL     1       4.800  40.520  20.815  1.00  0.00     0.006 C 
HETATM   12  C17 UNL     1       5.177  41.152  19.493  1.00  0.00     0.001 C 
HETATM   13  C21 UNL     1       5.012  40.061  18.529  1.00  0.00    -0.007 C 
HETATM   14  C22 UNL     1       6.161  39.135  18.384  1.00  0.00     0.019 C 
ENDROOT
BRANCH   4  15
HETATM   15  O2  UNL     1       1.516  38.040  14.785  1.00  0.00    -0.379 OA
ATOM     16  H2  UNL     1       1.678  37.109  14.697  1.00  0.00     0.211 HD
ENDBRANCH   4  15
BRANCH   4  17
HETATM   17  C8  UNL     1       0.001  38.738  16.441  1.00  0.00     0.301 C 
HETATM   18  O3  UNL     1      -0.306  39.301  17.524  1.00  0.00    -0.261 OA
BRANCH  17  19
HETATM   19  O4  UNL     1      -1.037  38.508  15.546  1.00  0.00    -0.250 OA
BRANCH  19  20
HETATM   20  C9  UNL     1      -1.427  39.460  14.596  1.00  0.00     0.406 C 
HETATM   21  O5  UNL     1      -0.627  39.831  13.705  1.00  0.00    -0.276 OA
ENDBRANCH  19  20
ENDBRANCH  17  19
ENDBRANCH   4  17
BRANCH   1  22
HETATM   22  O1  UNL     1       3.658  41.489  17.204  1.00  0.00    -0.274 OA
BRANCH  22  23
HETATM   23  N1  UNL     1       3.463  42.459  16.312  1.00  0.00    -0.275 N 
HETATM   24  C2  UNL     1       3.711  43.688  16.314  1.00  0.00     0.002 C 
HETATM   25  C1  UNL     1       3.349  44.497  15.113  1.00  0.00     0.065 C 
HETATM   26  C3  UNL     1       4.349  44.385  17.450  1.00  0.00     0.065 C 
ATOM     27  H1  UNL     1       3.021  42.136  15.451  1.00  0.00     0.193 HD
ENDBRANCH  22  23
ENDBRANCH   1  22
BRANCH  12  28
HETATM   28  C18 UNL     1       6.538  41.750  19.452  1.00  0.00    -0.010 A 
HETATM   29  C19 UNL     1       6.664  43.148  19.939  1.00  0.00     0.005 A 
HETATM   30  C20 UNL     1       7.391  42.038  20.599  1.00  0.00     0.005 A 
ENDBRANCH  12  28
TORSDOF 7
ENDMDL
MODEL 3
REMARK VINA RESULT: -5.987791869      2.651      5.032
REMARK  7 active torsions:
REMARK  status: ('A' for Active; 'I' for Inactive)
REMARK    1  A    between atoms: N1_4  and  O1_6 
REMARK    2  A    between atoms: O1_6  and  C4_7 
REMARK    3  A    between atoms: C7_10  and  O2_11 
REMARK    4  A    between atoms: C7_10  and  C8_13 
REMARK    5  A    between atoms: C8_13  and  O4_15 
REMARK    6  A    between atoms: O4_15  and  C9_16 
REMARK    7  A    between atoms: C17_25  and  C18_26 
ROOT
HETATM    1  C4  UNL     1       6.080  42.804  19.081  1.00  0.00     0.165 C 
HETATM    2  C5  UNL     1       6.331  41.301  19.024  1.00  0.00     0.026 C 
HETATM    3  C6  UNL     1       5.155  40.712  18.273  1.00  0.00     0.056 C 
HETATM    4  C7  UNL     1       5.225  39.208  18.186  1.00  0.00     0.149 C 
HETATM    5  C10 UNL     1       5.981  38.674  19.355  1.00  0.00     0.026 C 
HETATM    6  C11 UNL     1       5.687  37.199  19.499  1.00  0.00     0.014 C 
HETATM    7  C12 UNL     1       5.684  39.448  20.597  1.00  0.00     0.013 C 
HETATM    8  C13 UNL     1       6.302  40.809  20.486  1.00  0.00    -0.003 C 
HETATM    9  C14 UNL     1       5.449  41.855  21.067  1.00  0.00     0.001 C 
HETATM   10  C15 UNL     1       5.435  42.133  22.494  1.00  0.00     0.006 C 
HETATM   11  C16 UNL     1       5.017  43.615  22.490  1.00  0.00     0.006 C 
HETATM   12  C17 UNL     1       5.398  44.163  21.132  1.00  0.00     0.001 C 
HETATM   13  C21 UNL     1       6.206  43.092  20.542  1.00  0.00    -0.007 C 
HETATM   14  C22 UNL     1       7.643  43.076  20.910  1.00  0.00     0.019 C 
ENDROOT
BRANCH   4  15
HETATM   15  O2  UNL     1       5.943  38.861  17.028  1.00  0.00    -0.379 OA
ATOM     16  H2  UNL     1       6.146  37.934  17.066  1.00  0.00     0.211 HD
ENDBRANCH   4  15
BRANCH   4  17
HETATM   17  C8  UNL     1       3.845  38.672  18.070  1.00  0.00     0.301 C 
HETATM   18  O3  UNL     1       2.999  38.854  18.984  1.00  0.00    -0.261 OA
BRANCH  17  19
HETATM   19  O4  UNL     1       3.416  37.948  16.964  1.00  0.00    -0.250 OA
BRANCH  19  20
HETATM   20  C9  UNL     1       2.876  38.570  15.831  1.00  0.00     0.406 C 
HETATM   21  O5  UNL     1       3.627  39.125  14.995  1.00  0.00    -0.276 OA
ENDBRANCH  19  20
ENDBRANCH  17  19
ENDBRANCH   4  17
BRANCH   1  22
HETATM   22  O1  UNL     1       4.831  43.173  18.610  1.00  0.00    -0.274 OA
BRANCH  22  23
HETATM   23  N1  UNL     1       4.468  43.957  17.597  1.00  0.00    -0.275 N 
HETATM   24  C2  UNL     1       3.745  43.777  16.588  1.00  0.00     0.002 C 
HETATM   25  C1  UNL     1       3.548  44.906  15.633  1.00  0.00     0.065 C 
HETATM   26  C3  UNL     1       3.072  42.495  16.292  1.00  0.00     0.065 C 
ATOM     27  H1  UNL     1       4.857  44.899  17.654  1.00  0.00     0.193 HD
ENDBRANCH  22  23
ENDBRANCH   1  22
BRANCH  12  28
HETATM   28  C18 UNL     1       6.112  45.467  21.162  1.00  0.00    -0.010 A 
HETATM   29  C19 UNL     1       5.601  46.524  20.253  1.00  0.00     0.005 A 
HETATM   30  C20 UNL     1       5.608  46.715  21.722  1.00  0.00     0.005 A 
ENDBRANCH  12  28
TORSDOF 7
ENDMDL
MODEL 4
REMARK VINA RESULT: -5.933241013      1.539      2.370
REMARK  7 active torsions:
REMARK  status: ('A' for Active; 'I' for Inactive)
REMARK    1  A    between atoms: N1_4  and  O1_6 
REMARK    2  A    between atoms: O1_6  and  C4_7 
REMARK    3  A    between atoms: C7_10  and  O2_11 
REMARK    4  A    between atoms: C7_10  and  C8_13 
REMARK    5  A    between atoms: C8_13  and  O4_15 
REMARK    6  A    between atoms: O4_15  and  C9_16 
REMARK    7  A    between atoms: C17_25  and  C18_26 
ROOT
HETATM    1  C4  UNL     1       4.371  40.380  17.102  1.00  0.00     0.165 C 
HETATM    2  C5  UNL     1       3.618  39.097  16.772  1.00  0.00     0.026 C 
HETATM    3  C6  UNL     1       2.197  39.518  16.461  1.00  0.00     0.056 C 
HETATM    4  C7  UNL     1       1.300  38.340  16.172  1.00  0.00     0.149 C 
HETATM    5  C10 UNL     1       1.807  37.137  16.890  1.00  0.00     0.026 C 
HETATM    6  C11 UNL     1       0.708  36.102  16.956  1.00  0.00     0.014 C 
HETATM    7  C12 UNL     1       2.350  37.492  18.236  1.00  0.00     0.013 C 
HETATM    8  C13 UNL     1       3.629  38.253  18.064  1.00  0.00    -0.003 C 
HETATM    9  C14 UNL     1       3.769  39.334  19.048  1.00  0.00     0.001 C 
HETATM   10  C15 UNL     1       4.259  39.091  20.395  1.00  0.00     0.006 C 
HETATM   11  C16 UNL     1       4.860  40.469  20.731  1.00  0.00     0.006 C 
HETATM   12  C17 UNL     1       5.171  41.133  19.408  1.00  0.00     0.001 C 
HETATM   13  C21 UNL     1       4.981  40.060  18.429  1.00  0.00    -0.007 C 
HETATM   14  C22 UNL     1       6.136  39.153  18.216  1.00  0.00     0.019 C 
ENDROOT
BRANCH   4  15
HETATM   15  O2  UNL     1       1.357  38.063  14.795  1.00  0.00    -0.379 OA
ATOM     16  H2  UNL     1       0.730  37.377  14.599  1.00  0.00     0.211 HD
ENDBRANCH   4  15
BRANCH   4  17
HETATM   17  C8  UNL     1      -0.096  38.705  16.527  1.00  0.00     0.301 C 
HETATM   18  O3  UNL     1      -1.061  38.365  15.795  1.00  0.00    -0.261 OA
BRANCH  17  19
HETATM   19  O4  UNL     1      -0.409  39.431  17.670  1.00  0.00    -0.250 OA
BRANCH  19  20
HETATM   20  C9  UNL     1      -0.875  38.816  18.839  1.00  0.00     0.406 C 
HETATM   21  O5  UNL     1      -1.229  39.509  19.822  1.00  0.00    -0.276 OA
ENDBRANCH  19  20
ENDBRANCH  17  19
ENDBRANCH   4  17
BRANCH   1  22
HETATM   22  O1  UNL     1       3.552  41.493  17.192  1.00  0.00    -0.274 OA
BRANCH  22  23
HETATM   23  N1  UNL     1       3.334  42.498  16.345  1.00  0.00    -0.275 N 
HETATM   24  C2  UNL     1       3.644  43.713  16.358  1.00  0.00     0.002 C 
HETATM   25  C1  UNL     1       3.226  44.574  15.213  1.00  0.00     0.065 C 
HETATM   26  C3  UNL     1       4.407  44.344  17.455  1.00  0.00     0.065 C 
ATOM     27  H1  UNL     1       2.808  42.222  15.516  1.00  0.00     0.193 HD
ENDBRANCH  22  23
ENDBRANCH   1  22
BRANCH  12  28
HETATM   28  C18 UNL     1       6.521  41.751  19.321  1.00  0.00    -0.010 A 
HETATM   29  C19 UNL     1       6.671  43.104  19.917  1.00  0.00     0.005 A 
HETATM   30  C20 UNL     1       7.452  41.952  20.426  1.00  0.00     0.005 A 
ENDBRANCH  12  28
TORSDOF 7
ENDMDL
MODEL 5
REMARK VINA RESULT: -5.916364310      3.558      5.505
REMARK  7 active torsions:
REMARK  status: ('A' for Active; 'I' for Inactive)
REMARK    1  A    between atoms: N1_4  and  O1_6 
REMARK    2  A    between atoms: O1_6  and  C4_7 
REMARK    3  A    between atoms: C7_10  and  O2_11 
REMARK    4  A    between atoms: C7_10  and  C8_13 
REMARK    5  A    between atoms: C8_13  and  O4_15 
REMARK    6  A    between atoms: O4_15  and  C9_16 
REMARK    7  A    between atoms: C17_25  and  C18_26 
ROOT
HETATM    1  C4  UNL     1       6.201  42.616  19.148  1.00  0.00     0.165 C 
HETATM    2  C5  UNL     1       6.492  41.129  19.320  1.00  0.00     0.026 C 
HETATM    3  C6  UNL     1       5.332  40.401  18.673  1.00  0.00     0.056 C 
HETATM    4  C7  UNL     1       5.442  38.904  18.816  1.00  0.00     0.149 C 
HETATM    5  C10 UNL     1       6.213  38.575  20.048  1.00  0.00     0.026 C 
HETATM    6  C11 UNL     1       5.959  37.132  20.417  1.00  0.00     0.014 C 
HETATM    7  C12 UNL     1       5.896  39.521  21.160  1.00  0.00     0.013 C 
HETATM    8  C13 UNL     1       6.477  40.865  20.840  1.00  0.00    -0.003 C 
HETATM    9  C14 UNL     1       5.597  41.965  21.259  1.00  0.00     0.001 C 
HETATM   10  C15 UNL     1       5.576  42.456  22.627  1.00  0.00     0.006 C 
HETATM   11  C16 UNL     1       5.118  43.908  22.399  1.00  0.00     0.006 C 
HETATM   12  C17 UNL     1       5.483  44.253  20.973  1.00  0.00     0.001 C 
HETATM   13  C21 UNL     1       6.319  43.127  20.548  1.00  0.00    -0.007 C 
HETATM   14  C22 UNL     1       7.756  43.205  20.907  1.00  0.00     0.019 C 
ENDROOT
BRANCH   4  15
HETATM   15  O2  UNL     1       6.169  38.404  17.720  1.00  0.00    -0.379 OA
ATOM     16  H2  UNL     1       6.050  37.462  17.685  1.00  0.00     0.211 HD
ENDBRANCH   4  15
BRANCH   4  17
HETATM   17  C8  UNL     1       4.077  38.320  18.789  1.00  0.00     0.301 C 
HETATM   18  O3  UNL     1       3.803  37.344  18.044  1.00  0.00    -0.261 OA
BRANCH  17  19
HETATM   19  O4  UNL     1       3.040  38.812  19.573  1.00  0.00    -0.250 OA
BRANCH  19  20
HETATM   20  C9  UNL     1       1.811  38.149  19.684  1.00  0.00     0.406 C 
HETATM   21  O5  UNL     1       0.815  38.550  19.037  1.00  0.00    -0.276 OA
ENDBRANCH  19  20
ENDBRANCH  17  19
ENDBRANCH   4  17
BRANCH   1  22
HETATM   22  O1  UNL     1       4.942  42.875  18.633  1.00  0.00    -0.274 OA
BRANCH  22  23
HETATM   23  N1  UNL     1       4.536  43.709  17.677  1.00  0.00    -0.275 N 
HETATM   24  C2  UNL     1       3.803  43.568  16.669  1.00  0.00     0.002 C 
HETATM   25  C1  UNL     1       3.552  44.748  15.790  1.00  0.00     0.065 C 
HETATM   26  C3  UNL     1       3.169  42.285  16.302  1.00  0.00     0.065 C 
ATOM     27  H1  UNL     1       4.894  44.658  17.788  1.00  0.00     0.193 HD
ENDBRANCH  22  23
ENDBRANCH   1  22
BRANCH  12  28
HETATM   28  C18 UNL     1       6.162  45.565  20.800  1.00  0.00    -0.010 A 
HETATM   29  C19 UNL     1       5.517  46.529  19.873  1.00  0.00     0.005 A 
HETATM   30  C20 UNL     1       5.698  46.851  21.307  1.00  0.00     0.005 A 
ENDBRANCH  12  28
TORSDOF 7
ENDMDL
