MODEL 1
REMARK VINA RESULT: -5.665318674      0.000      0.000
REMARK  7 active torsions:
REMARK  status: ('A' for Active; 'I' for Inactive)
REMARK    1  A    between atoms: C3_3  and  C4_4 
REMARK    2  A    between atoms: C3_3  and  O1_6 
REMARK    3  A    between atoms: O1_6  and  C6_7 
REMARK    4  A    between atoms: C10_11  and  O2_12 
REMARK    5  A    between atoms: C13_16  and  C15_18 
REMARK    6  A    between atoms: C15_18  and  O4_20 
REMARK    7  A    between atoms: C18_24  and  O6_25 
ROOT
HETATM    1  C6  UNL     1       5.522  44.262  18.886  1.00  0.00     0.136 C 
HETATM    2  C7  UNL     1       6.325  45.521  18.747  1.00  0.00     0.048 C 
HETATM    3  C8  UNL     1       6.027  46.221  20.054  1.00  0.00     0.017 C 
HETATM    4  C9  UNL     1       4.686  46.856  19.887  1.00  0.00     0.021 C 
HETATM    5  C10 UNL     1       7.088  47.168  20.508  1.00  0.00     0.129 C 
HETATM    6  C11 UNL     1       6.594  47.807  21.774  1.00  0.00     0.034 C 
HETATM    7  C12 UNL     1       5.806  46.982  22.695  1.00  0.00     0.025 C 
HETATM    8  C13 UNL     1       5.663  45.510  22.412  1.00  0.00     0.077 C 
HETATM    9  C14 UNL     1       4.206  45.173  22.748  1.00  0.00     0.029 C 
HETATM   10  C17 UNL     1       6.077  45.065  21.060  1.00  0.00     0.096 C 
HETATM   11  O5  UNL     1       7.398  44.718  21.134  1.00  0.00    -0.348 OA
HETATM   12  C18 UNL     1       7.806  43.494  20.772  1.00  0.00     0.260 C 
HETATM   13  C20 UNL     1       6.872  42.351  20.950  1.00  0.00     0.061 C 
HETATM   14  C21 UNL     1       5.442  42.638  20.684  1.00  0.00     0.015 C 
HETATM   15  C22 UNL     1       5.227  44.074  20.373  1.00  0.00     0.052 C 
ENDROOT
BRANCH   1  16
HETATM   16  O1  UNL     1       4.308  44.321  18.143  1.00  0.00    -0.350 OA
BRANCH  16  17
HETATM   17  C3  UNL     1       4.071  43.385  17.179  1.00  0.00     0.042 C 
HETATM   18  C2  UNL     1       3.530  43.698  15.993  1.00  0.00     0.001 C 
HETATM   19  C1  UNL     1       3.163  45.095  15.675  1.00  0.00     0.038 C 
BRANCH  17  20
HETATM   20  C4  UNL     1       4.424  41.971  17.455  1.00  0.00     0.060 C 
HETATM   21  C5  UNL     1       3.573  41.021  16.664  1.00  0.00     0.012 C 
ENDBRANCH  17  20
ENDBRANCH  16  17
ENDBRANCH   1  16
BRANCH   5  22
HETATM   22  O2  UNL     1       7.300  48.155  19.556  1.00  0.00    -0.395 OA
ATOM     23  H2  UNL     1       8.221  48.385  19.513  1.00  0.00     0.210 HD
ENDBRANCH   5  22
BRANCH   8  24
HETATM   24  C15 UNL     1       6.432  44.822  23.494  1.00  0.00     0.270 C 
HETATM   25  O3  UNL     1       6.115  43.704  23.981  1.00  0.00    -0.264 OA
BRANCH  24  26
HETATM   26  O4  UNL     1       7.580  45.350  24.075  1.00  0.00    -0.326 OA
HETATM   27  C16 UNL     1       8.584  44.582  24.685  1.00  0.00     0.213 C 
ENDBRANCH  24  26
ENDBRANCH   8  24
BRANCH  12  28
HETATM   28  O6  UNL     1       8.997  43.192  21.431  1.00  0.00    -0.366 OA
HETATM   29  C19 UNL     1       9.038  41.954  22.011  1.00  0.00     0.204 C 
ENDBRANCH  12  28
TORSDOF 7
ENDMDL
MODEL 2
REMARK VINA RESULT: -5.590503282      1.782      4.230
REMARK  7 active torsions:
REMARK  status: ('A' for Active; 'I' for Inactive)
REMARK    1  A    between atoms: C3_3  and  C4_4 
REMARK    2  A    between atoms: C3_3  and  O1_6 
REMARK    3  A    between atoms: O1_6  and  C6_7 
REMARK    4  A    between atoms: C10_11  and  O2_12 
REMARK    5  A    between atoms: C13_16  and  C15_18 
REMARK    6  A    between atoms: C15_18  and  O4_20 
REMARK    7  A    between atoms: C18_24  and  O6_25 
ROOT
HETATM    1  C6  UNL     1       5.542  45.035  20.492  1.00  0.00     0.136 C 
HETATM    2  C7  UNL     1       5.410  43.669  21.097  1.00  0.00     0.048 C 
HETATM    3  C8  UNL     1       6.803  43.437  21.638  1.00  0.00     0.017 C 
HETATM    4  C9  UNL     1       7.638  43.026  20.471  1.00  0.00     0.021 C 
HETATM    5  C10 UNL     1       6.873  42.490  22.789  1.00  0.00     0.129 C 
HETATM    6  C11 UNL     1       8.324  42.338  23.146  1.00  0.00     0.034 C 
HETATM    7  C12 UNL     1       9.186  43.517  23.023  1.00  0.00     0.025 C 
HETATM    8  C13 UNL     1       8.558  44.848  22.701  1.00  0.00     0.077 C 
HETATM    9  C14 UNL     1       9.513  45.517  21.706  1.00  0.00     0.029 C 
HETATM   10  C17 UNL     1       7.150  44.806  22.235  1.00  0.00     0.096 C 
HETATM   11  O5  UNL     1       6.354  44.922  23.340  1.00  0.00    -0.348 OA
HETATM   12  C18 UNL     1       5.441  45.899  23.425  1.00  0.00     0.260 C 
HETATM   13  C20 UNL     1       5.713  47.191  22.741  1.00  0.00     0.061 C 
HETATM   14  C21 UNL     1       6.406  47.094  21.433  1.00  0.00     0.015 C 
HETATM   15  C22 UNL     1       6.772  45.690  21.117  1.00  0.00     0.052 C 
ENDROOT
BRANCH   1  16
HETATM   16  O1  UNL     1       5.675  44.977  19.075  1.00  0.00    -0.350 OA
BRANCH  16  17
HETATM   17  C3  UNL     1       4.712  45.545  18.293  1.00  0.00     0.042 C 
HETATM   18  C2  UNL     1       4.030  44.845  17.375  1.00  0.00     0.001 C 
HETATM   19  C1  UNL     1       4.297  43.405  17.170  1.00  0.00     0.038 C 
BRANCH  17  20
HETATM   20  C4  UNL     1       4.411  46.987  18.464  1.00  0.00     0.060 C 
HETATM   21  C5  UNL     1       3.054  47.340  17.927  1.00  0.00     0.012 C 
ENDBRANCH  17  20
ENDBRANCH  16  17
ENDBRANCH   1  16
BRANCH   5  22
HETATM   22  O2  UNL     1       6.363  41.249  22.433  1.00  0.00    -0.395 OA
ATOM     23  H2  UNL     1       6.482  40.624  23.138  1.00  0.00     0.210 HD
ENDBRANCH   5  22
BRANCH   8  24
HETATM   24  C15 UNL     1       8.718  45.671  23.938  1.00  0.00     0.270 C 
HETATM   25  O3  UNL     1       8.742  45.192  25.104  1.00  0.00    -0.264 OA
BRANCH  24  26
HETATM   26  O4  UNL     1       8.857  47.055  23.929  1.00  0.00    -0.326 OA
HETATM   27  C16 UNL     1       8.528  47.892  25.005  1.00  0.00     0.213 C 
ENDBRANCH  24  26
ENDBRANCH   8  24
BRANCH  12  28
HETATM   28  O6  UNL     1       5.175  46.165  24.768  1.00  0.00    -0.366 OA
HETATM   29  C19 UNL     1       5.243  45.079  25.597  1.00  0.00     0.204 C 
ENDBRANCH  12  28
TORSDOF 7
ENDMDL
MODEL 3
REMARK VINA RESULT: -5.585819036      1.908      4.161
REMARK  7 active torsions:
REMARK  status: ('A' for Active; 'I' for Inactive)
REMARK    1  A    between atoms: C3_3  and  C4_4 
REMARK    2  A    between atoms: C3_3  and  O1_6 
REMARK    3  A    between atoms: O1_6  and  C6_7 
REMARK    4  A    between atoms: C10_11  and  O2_12 
REMARK    5  A    between atoms: C13_16  and  C15_18 
REMARK    6  A    between atoms: C15_18  and  O4_20 
REMARK    7  A    between atoms: C18_24  and  O6_25 
ROOT
HETATM    1  C6  UNL     1       5.757  43.789  20.694  1.00  0.00     0.136 C 
HETATM    2  C7  UNL     1       6.173  42.965  21.876  1.00  0.00     0.048 C 
HETATM    3  C8  UNL     1       7.382  43.727  22.370  1.00  0.00     0.017 C 
HETATM    4  C9  UNL     1       8.514  43.331  21.481  1.00  0.00     0.021 C 
HETATM    5  C10 UNL     1       7.674  43.555  23.824  1.00  0.00     0.129 C 
HETATM    6  C11 UNL     1       8.930  44.326  24.115  1.00  0.00     0.034 C 
HETATM    7  C12 UNL     1       9.141  45.586  23.397  1.00  0.00     0.025 C 
HETATM    8  C13 UNL     1       8.033  46.125  22.530  1.00  0.00     0.077 C 
HETATM    9  C14 UNL     1       8.728  46.672  21.278  1.00  0.00     0.029 C 
HETATM   10  C17 UNL     1       6.927  45.184  22.231  1.00  0.00     0.096 C 
HETATM   11  O5  UNL     1       5.978  45.352  23.202  1.00  0.00    -0.348 OA
HETATM   12  C18 UNL     1       4.715  45.661  22.878  1.00  0.00     0.260 C 
HETATM   13  C20 UNL     1       4.470  46.465  21.652  1.00  0.00     0.061 C 
HETATM   14  C21 UNL     1       5.357  46.171  20.500  1.00  0.00     0.015 C 
HETATM   15  C22 UNL     1       6.392  45.168  20.856  1.00  0.00     0.052 C 
ENDROOT
BRANCH   1  16
HETATM   16  O1  UNL     1       6.164  43.196  19.464  1.00  0.00    -0.350 OA
BRANCH  16  17
HETATM   17  C3  UNL     1       5.226  42.942  18.505  1.00  0.00     0.042 C 
HETATM   18  C2  UNL     1       4.743  41.712  18.285  1.00  0.00     0.001 C 
HETATM   19  C1  UNL     1       5.213  40.560  19.085  1.00  0.00     0.038 C 
BRANCH  17  20
HETATM   20  C4  UNL     1       4.727  44.068  17.679  1.00  0.00     0.060 C 
HETATM   21  C5  UNL     1       3.621  43.635  16.760  1.00  0.00     0.012 C 
ENDBRANCH  17  20
ENDBRANCH  16  17
ENDBRANCH   1  16
BRANCH   5  22
HETATM   22  O2  UNL     1       7.884  42.217  24.125  1.00  0.00    -0.395 OA
ATOM     23  H2  UNL     1       7.056  41.765  24.235  1.00  0.00     0.210 HD
ENDBRANCH   5  22
BRANCH   8  24
HETATM   24  C15 UNL     1       7.553  47.359  23.224  1.00  0.00     0.270 C 
HETATM   25  O3  UNL     1       7.075  48.361  22.626  1.00  0.00    -0.264 OA
BRANCH  24  26
HETATM   26  O4  UNL     1       7.586  47.528  24.604  1.00  0.00    -0.326 OA
HETATM   27  C16 UNL     1       8.284  48.554  25.259  1.00  0.00     0.213 C 
ENDBRANCH  24  26
ENDBRANCH   8  24
BRANCH  12  28
HETATM   28  O6  UNL     1       4.110  46.310  23.954  1.00  0.00    -0.366 OA
HETATM   29  C19 UNL     1       4.519  45.887  25.189  1.00  0.00     0.204 C 
ENDBRANCH  12  28
TORSDOF 7
ENDMDL
MODEL 4
REMARK VINA RESULT: -5.474472679      1.762      3.969
REMARK  7 active torsions:
REMARK  status: ('A' for Active; 'I' for Inactive)
REMARK    1  A    between atoms: C3_3  and  C4_4 
REMARK    2  A    between atoms: C3_3  and  O1_6 
REMARK    3  A    between atoms: O1_6  and  C6_7 
REMARK    4  A    between atoms: C10_11  and  O2_12 
REMARK    5  A    between atoms: C13_16  and  C15_18 
REMARK    6  A    between atoms: C15_18  and  O4_20 
REMARK    7  A    between atoms: C18_24  and  O6_25 
ROOT
HETATM    1  C6  UNL     1       5.614  44.878  20.275  1.00  0.00     0.136 C 
HETATM    2  C7  UNL     1       5.496  43.534  20.931  1.00  0.00     0.048 C 
HETATM    3  C8  UNL     1       6.858  43.385  21.571  1.00  0.00     0.017 C 
HETATM    4  C9  UNL     1       7.784  42.960  20.480  1.00  0.00     0.021 C 
HETATM    5  C10 UNL     1       6.889  42.491  22.766  1.00  0.00     0.129 C 
HETATM    6  C11 UNL     1       8.317  42.415  23.222  1.00  0.00     0.034 C 
HETATM    7  C12 UNL     1       9.138  43.623  23.102  1.00  0.00     0.025 C 
HETATM    8  C13 UNL     1       8.481  44.912  22.681  1.00  0.00     0.077 C 
HETATM    9  C14 UNL     1       9.474  45.578  21.721  1.00  0.00     0.029 C 
HETATM   10  C17 UNL     1       7.111  44.791  22.127  1.00  0.00     0.096 C 
HETATM   11  O5  UNL     1       6.239  44.920  23.172  1.00  0.00    -0.348 OA
HETATM   12  C18 UNL     1       5.285  45.860  23.154  1.00  0.00     0.260 C 
HETATM   13  C20 UNL     1       5.551  47.132  22.432  1.00  0.00     0.061 C 
HETATM   14  C21 UNL     1       6.332  47.010  21.177  1.00  0.00     0.015 C 
HETATM   15  C22 UNL     1       6.773  45.611  20.948  1.00  0.00     0.052 C 
ENDROOT
BRANCH   1  16
HETATM   16  O1  UNL     1       5.843  44.767  18.874  1.00  0.00    -0.350 OA
BRANCH  16  17
HETATM   17  C3  UNL     1       4.775  44.673  18.030  1.00  0.00     0.042 C 
HETATM   18  C2  UNL     1       3.999  45.726  17.737  1.00  0.00     0.001 C 
HETATM   19  C1  UNL     1       4.273  47.054  18.325  1.00  0.00     0.038 C 
BRANCH  17  20
HETATM   20  C4  UNL     1       4.462  43.359  17.417  1.00  0.00     0.060 C 
HETATM   21  C5  UNL     1       3.371  43.469  16.393  1.00  0.00     0.012 C 
ENDBRANCH  17  20
ENDBRANCH  16  17
ENDBRANCH   1  16
BRANCH   5  22
HETATM   22  O2  UNL     1       6.453  41.216  22.432  1.00  0.00    -0.395 OA
ATOM     23  H2  UNL     1       7.048  40.559  22.775  1.00  0.00     0.210 HD
ENDBRANCH   5  22
BRANCH   8  24
HETATM   24  C15 UNL     1       8.527  45.792  23.888  1.00  0.00     0.270 C 
HETATM   25  O3  UNL     1       8.493  45.365  25.073  1.00  0.00    -0.264 OA
BRANCH  24  26
HETATM   26  O4  UNL     1       8.610  47.179  23.825  1.00  0.00    -0.326 OA
HETATM   27  C16 UNL     1       8.202  48.044  24.852  1.00  0.00     0.213 C 
ENDBRANCH  24  26
ENDBRANCH   8  24
BRANCH  12  28
HETATM   28  O6  UNL     1       4.919  46.171  24.464  1.00  0.00    -0.366 OA
HETATM   29  C19 UNL     1       4.988  45.127  25.346  1.00  0.00     0.204 C 
ENDBRANCH  12  28
TORSDOF 7
ENDMDL
MODEL 5
REMARK VINA RESULT: -5.474248456      1.640      2.414
REMARK  7 active torsions:
REMARK  status: ('A' for Active; 'I' for Inactive)
REMARK    1  A    between atoms: C3_3  and  C4_4 
REMARK    2  A    between atoms: C3_3  and  O1_6 
REMARK    3  A    between atoms: O1_6  and  C6_7 
REMARK    4  A    between atoms: C10_11  and  O2_12 
REMARK    5  A    between atoms: C13_16  and  C15_18 
REMARK    6  A    between atoms: C15_18  and  O4_20 
REMARK    7  A    between atoms: C18_24  and  O6_25 
ROOT
HETATM    1  C6  UNL     1       5.780  45.475  20.165  1.00  0.00     0.136 C 
HETATM    2  C7  UNL     1       6.469  46.580  20.909  1.00  0.00     0.048 C 
HETATM    3  C8  UNL     1       6.091  46.269  22.339  1.00  0.00     0.017 C 
HETATM    4  C9  UNL     1       4.701  46.782  22.522  1.00  0.00     0.021 C 
HETATM    5  C10 UNL     1       7.056  46.772  23.361  1.00  0.00     0.129 C 
HETATM    6  C11 UNL     1       6.489  46.428  24.709  1.00  0.00     0.034 C 
HETATM    7  C12 UNL     1       5.765  45.161  24.843  1.00  0.00     0.025 C 
HETATM    8  C13 UNL     1       5.759  44.199  23.684  1.00  0.00     0.077 C 
HETATM    9  C14 UNL     1       4.333  43.639  23.631  1.00  0.00     0.029 C 
HETATM   10  C17 UNL     1       6.231  44.743  22.387  1.00  0.00     0.096 C 
HETATM   11  O5  UNL     1       7.576  44.508  22.315  1.00  0.00    -0.348 OA
HETATM   12  C18 UNL     1       8.097  43.822  21.289  1.00  0.00     0.260 C 
HETATM   13  C20 UNL     1       7.267  42.773  20.639  1.00  0.00     0.061 C 
HETATM   14  C21 UNL     1       5.821  43.077  20.518  1.00  0.00     0.015 C 
HETATM   15  C22 UNL     1       5.483  44.366  21.173  1.00  0.00     0.052 C 
ENDROOT
BRANCH   1  16
HETATM   16  O1  UNL     1       4.577  45.920  19.547  1.00  0.00    -0.350 OA
BRANCH  16  17
HETATM   17  C3  UNL     1       4.349  45.615  18.237  1.00  0.00     0.042 C 
HETATM   18  C2  UNL     1       3.557  46.361  17.454  1.00  0.00     0.001 C 
HETATM   19  C1  UNL     1       2.887  47.567  17.987  1.00  0.00     0.038 C 
BRANCH  17  20
HETATM   20  C4  UNL     1       5.000  44.414  17.660  1.00  0.00     0.060 C 
HETATM   21  C5  UNL     1       4.017  43.543  16.932  1.00  0.00     0.012 C 
ENDBRANCH  17  20
ENDBRANCH  16  17
ENDBRANCH   1  16
BRANCH   5  22
HETATM   22  O2  UNL     1       7.192  48.150  23.266  1.00  0.00    -0.395 OA
ATOM     23  H2  UNL     1       8.084  48.412  23.466  1.00  0.00     0.210 HD
ENDBRANCH   5  22
BRANCH   8  24
HETATM   24  C15 UNL     1       6.571  43.029  24.135  1.00  0.00     0.270 C 
HETATM   25  O3  UNL     1       7.548  43.114  24.927  1.00  0.00    -0.264 OA
BRANCH  24  26
HETATM   26  O4  UNL     1       6.331  41.722  23.724  1.00  0.00    -0.326 OA
HETATM   27  C16 UNL     1       7.311  40.720  23.659  1.00  0.00     0.213 C 
ENDBRANCH  24  26
ENDBRANCH   8  24
BRANCH  12  28
HETATM   28  O6  UNL     1       9.301  43.241  21.687  1.00  0.00    -0.366 OA
HETATM   29  C19 UNL     1      10.048  43.995  22.550  1.00  0.00     0.204 C 
ENDBRANCH  12  28
TORSDOF 7
ENDMDL
