MODEL 1
REMARK VINA RESULT: -7.956814633      0.000      0.000
REMARK  5 active torsions:
REMARK  status: ('A' for Active; 'I' for Inactive)
REMARK    1  A    between atoms: C2_2  and  C3_3 
REMARK    2  A    between atoms: C3_3  and  C4_4 
REMARK    3  A    between atoms: C4_4  and  N1_5 
REMARK    4  A    between atoms: C23_26  and  O1_27 
REMARK    5  A    between atoms: C23_26  and  C24_29 
ROOT
HETATM    1  N1  UNL     1     -19.509  -6.479  53.187  1.00  0.00    -0.393 N 
ATOM      2  H1  UNL     1     -19.634  -7.070  54.009  1.00  0.00     0.159 HD
HETATM    3  C5  UNL     1     -20.174  -5.388  53.185  1.00  0.00     0.008 C 
HETATM    4  C6  UNL     1     -21.028  -5.126  54.358  1.00  0.00     0.022 C 
HETATM    5  C7  UNL     1     -22.004  -4.237  54.314  1.00  0.00    -0.011 C 
HETATM    6  C8  UNL     1     -22.345  -3.424  53.119  1.00  0.00     0.001 C 
HETATM    7  C9  UNL     1     -21.884  -2.012  53.424  1.00  0.00     0.025 C 
HETATM    8  C10 UNL     1     -21.589  -3.894  51.942  1.00  0.00    -0.066 C 
HETATM    9  C11 UNL     1     -22.093  -3.926  50.733  1.00  0.00    -0.022 C 
HETATM   10  C12 UNL     1     -23.472  -3.498  50.409  1.00  0.00     0.033 C 
HETATM   11  C13 UNL     1     -23.991  -2.655  51.549  1.00  0.00     0.001 C 
HETATM   12  C14 UNL     1     -23.812  -3.494  52.789  1.00  0.00     0.006 C 
HETATM   13  C15 UNL     1     -24.714  -3.113  53.912  1.00  0.00     0.007 C 
HETATM   14  C16 UNL     1     -26.146  -3.013  53.443  1.00  0.00     0.013 C 
HETATM   15  C17 UNL     1     -26.231  -1.892  52.411  1.00  0.00     0.003 C 
HETATM   16  C18 UNL     1     -25.683  -0.651  53.083  1.00  0.00     0.019 C 
HETATM   17  C19 UNL     1     -25.422  -2.315  51.231  1.00  0.00     0.020 C 
HETATM   18  C20 UNL     1     -25.412  -1.363  50.082  1.00  0.00     0.087 C 
HETATM   19 CL1  UNL     1     -23.935  -0.357  50.014  1.00  0.00    -0.125 Cl
HETATM   20  C21 UNL     1     -26.621  -0.486  49.969  1.00  0.00     0.024 C 
HETATM   21  C22 UNL     1     -27.800  -1.171  50.570  1.00  0.00     0.051 C 
HETATM   22  C23 UNL     1     -27.639  -1.582  51.995  1.00  0.00     0.153 C 
HETATM   23  C25 UNL     1     -20.168  -4.362  52.120  1.00  0.00     0.091 C 
ENDROOT
BRANCH   1  24
HETATM   24  C4  UNL     1     -18.622  -6.980  52.201  1.00  0.00     0.119 C 
BRANCH  24  25
HETATM   25  C3  UNL     1     -19.042  -8.311  51.665  1.00  0.00     0.019 C 
BRANCH  25  26
HETATM   26  C2  UNL     1     -17.905  -9.081  51.060  1.00  0.00    -0.003 C 
HETATM   27  C1  UNL     1     -18.104  -9.486  49.634  1.00  0.00     0.005 C 
ENDBRANCH  25  26
ENDBRANCH  24  25
ENDBRANCH   1  24
BRANCH  22  28
HETATM   28  O1  UNL     1     -28.146  -0.521  52.790  1.00  0.00    -0.378 OA
ATOM     29  H1  UNL     1     -28.368   0.215  52.232  1.00  0.00     0.211 HD
ENDBRANCH  22  28
BRANCH  22  30
HETATM   30  C24 UNL     1     -28.579  -2.723  52.217  1.00  0.00     0.209 C 
HETATM   31  O2  UNL     1     -29.367  -2.633  53.190  1.00  0.00    -0.646 OA
HETATM   32  O3  UNL     1     -28.617  -3.850  51.410  1.00  0.00    -0.646 OA
ENDBRANCH  22  30
TORSDOF 5
ENDMDL
MODEL 2
REMARK VINA RESULT: -7.917097291      0.820      1.148
REMARK  5 active torsions:
REMARK  status: ('A' for Active; 'I' for Inactive)
REMARK    1  A    between atoms: C2_2  and  C3_3 
REMARK    2  A    between atoms: C3_3  and  C4_4 
REMARK    3  A    between atoms: C4_4  and  N1_5 
REMARK    4  A    between atoms: C23_26  and  O1_27 
REMARK    5  A    between atoms: C23_26  and  C24_29 
ROOT
HETATM    1  N1  UNL     1     -19.423  -6.630  53.065  1.00  0.00    -0.393 N 
ATOM      2  H1  UNL     1     -19.537  -7.226  53.886  1.00  0.00     0.159 HD
HETATM    3  C5  UNL     1     -20.074  -5.531  53.086  1.00  0.00     0.008 C 
HETATM    4  C6  UNL     1     -20.898  -5.267  54.279  1.00  0.00     0.022 C 
HETATM    5  C7  UNL     1     -21.863  -4.365  54.263  1.00  0.00    -0.011 C 
HETATM    6  C8  UNL     1     -22.220  -3.539  53.082  1.00  0.00     0.001 C 
HETATM    7  C9  UNL     1     -21.735  -2.136  53.386  1.00  0.00     0.025 C 
HETATM    8  C10 UNL     1     -21.497  -4.010  51.885  1.00  0.00    -0.066 C 
HETATM    9  C11 UNL     1     -22.029  -4.027  50.688  1.00  0.00    -0.022 C 
HETATM   10  C12 UNL     1     -23.409  -3.579  50.398  1.00  0.00     0.033 C 
HETATM   11  C13 UNL     1     -23.891  -2.739  51.555  1.00  0.00     0.001 C 
HETATM   12  C14 UNL     1     -23.695  -3.589  52.785  1.00  0.00     0.006 C 
HETATM   13  C15 UNL     1     -24.567  -3.205  53.930  1.00  0.00     0.007 C 
HETATM   14  C16 UNL     1     -26.008  -3.083  53.494  1.00  0.00     0.013 C 
HETATM   15  C17 UNL     1     -26.102  -1.954  52.472  1.00  0.00     0.003 C 
HETATM   16  C18 UNL     1     -25.523  -0.724  53.140  1.00  0.00     0.019 C 
HETATM   17  C19 UNL     1     -25.325  -2.378  51.271  1.00  0.00     0.020 C 
HETATM   18  C20 UNL     1     -25.328  -1.418  50.129  1.00  0.00     0.087 C 
HETATM   19 CL1  UNL     1     -23.840  -0.430  50.035  1.00  0.00    -0.125 Cl
HETATM   20  C21 UNL     1     -26.528  -0.525  50.049  1.00  0.00     0.024 C 
HETATM   21  C22 UNL     1     -27.702  -1.200  50.671  1.00  0.00     0.051 C 
HETATM   22  C23 UNL     1     -27.514  -1.623  52.090  1.00  0.00     0.153 C 
HETATM   23  C25 UNL     1     -20.078  -4.497  52.028  1.00  0.00     0.091 C 
ENDROOT
BRANCH   1  24
HETATM   24  C4  UNL     1     -18.564  -7.135  52.056  1.00  0.00     0.119 C 
BRANCH  24  25
HETATM   25  C3  UNL     1     -17.218  -7.524  52.581  1.00  0.00     0.019 C 
BRANCH  25  26
HETATM   26  C2  UNL     1     -16.092  -7.031  51.721  1.00  0.00    -0.003 C 
HETATM   27  C1  UNL     1     -15.720  -5.597  51.930  1.00  0.00     0.005 C 
ENDBRANCH  25  26
ENDBRANCH  24  25
ENDBRANCH   1  24
BRANCH  22  28
HETATM   28  O1  UNL     1     -27.990  -0.561  52.903  1.00  0.00    -0.378 OA
ATOM     29  H1  UNL     1     -28.807  -0.818  53.315  1.00  0.00     0.211 HD
ENDBRANCH  22  28
BRANCH  22  30
HETATM   30  C24 UNL     1     -28.463  -2.753  52.324  1.00  0.00     0.209 C 
HETATM   31  O2  UNL     1     -29.220  -2.667  53.323  1.00  0.00    -0.646 OA
HETATM   32  O3  UNL     1     -28.543  -3.868  51.504  1.00  0.00    -0.646 OA
ENDBRANCH  22  30
TORSDOF 5
ENDMDL
MODEL 3
REMARK VINA RESULT: -7.495473848      4.236      7.518
REMARK  5 active torsions:
REMARK  status: ('A' for Active; 'I' for Inactive)
REMARK    1  A    between atoms: C2_2  and  C3_3 
REMARK    2  A    between atoms: C3_3  and  C4_4 
REMARK    3  A    between atoms: C4_4  and  N1_5 
REMARK    4  A    between atoms: C23_26  and  O1_27 
REMARK    5  A    between atoms: C23_26  and  C24_29 
ROOT
HETATM    1  N1  UNL     1     -29.854  -5.415  56.363  1.00  0.00    -0.393 N 
ATOM      2  H1  UNL     1     -30.081  -6.349  56.022  1.00  0.00     0.159 HD
HETATM    3  C5  UNL     1     -29.332  -4.625  55.505  1.00  0.00     0.008 C 
HETATM    4  C6  UNL     1     -29.127  -5.159  54.147  1.00  0.00     0.022 C 
HETATM    5  C7  UNL     1     -28.297  -4.580  53.297  1.00  0.00    -0.011 C 
HETATM    6  C8  UNL     1     -27.501  -3.364  53.600  1.00  0.00     0.001 C 
HETATM    7  C9  UNL     1     -28.138  -2.235  52.814  1.00  0.00     0.025 C 
HETATM    8  C10 UNL     1     -27.603  -3.023  55.032  1.00  0.00    -0.066 C 
HETATM    9  C11 UNL     1     -26.602  -2.545  55.728  1.00  0.00    -0.022 C 
HETATM   10  C12 UNL     1     -25.258  -2.294  55.162  1.00  0.00     0.033 C 
HETATM   11  C13 UNL     1     -25.371  -2.256  53.658  1.00  0.00     0.001 C 
HETATM   12  C14 UNL     1     -26.044  -3.548  53.268  1.00  0.00     0.006 C 
HETATM   13  C15 UNL     1     -25.781  -3.966  51.863  1.00  0.00     0.007 C 
HETATM   14  C16 UNL     1     -24.301  -3.929  51.557  1.00  0.00     0.013 C 
HETATM   15  C17 UNL     1     -23.826  -2.485  51.682  1.00  0.00     0.003 C 
HETATM   16  C18 UNL     1     -24.698  -1.666  50.754  1.00  0.00     0.019 C 
HETATM   17  C19 UNL     1     -23.978  -2.092  53.113  1.00  0.00     0.020 C 
HETATM   18  C20 UNL     1     -23.522  -0.712  53.455  1.00  0.00     0.087 C 
HETATM   19 CL1  UNL     1     -24.865   0.461  53.583  1.00  0.00    -0.125 Cl
HETATM   20  C21 UNL     1     -22.454  -0.156  52.565  1.00  0.00     0.024 C 
HETATM   21  C22 UNL     1     -21.638  -1.266  51.998  1.00  0.00     0.051 C 
HETATM   22  C23 UNL     1     -22.407  -2.294  51.236  1.00  0.00     0.153 C 
HETATM   23  C25 UNL     1     -28.916  -3.226  55.743  1.00  0.00     0.091 C 
ENDROOT
BRANCH   1  24
HETATM   24  C4  UNL     1     -30.159  -5.169  57.726  1.00  0.00     0.119 C 
BRANCH  24  25
HETATM   25  C3  UNL     1     -29.157  -5.766  58.662  1.00  0.00     0.019 C 
BRANCH  25  26
HETATM   26  C2  UNL     1     -27.961  -4.885  58.874  1.00  0.00    -0.003 C 
HETATM   27  C1  UNL     1     -27.212  -5.133  60.145  1.00  0.00     0.005 C 
ENDBRANCH  25  26
ENDBRANCH  24  25
ENDBRANCH   1  24
BRANCH  22  28
HETATM   28  O1  UNL     1     -22.387  -1.896  49.873  1.00  0.00    -0.378 OA
ATOM     29  H1  UNL     1     -23.277  -1.758  49.570  1.00  0.00     0.211 HD
ENDBRANCH  22  28
BRANCH  22  30
HETATM   30  C24 UNL     1     -21.602  -3.551  51.290  1.00  0.00     0.209 C 
HETATM   31  O2  UNL     1     -21.062  -3.838  52.387  1.00  0.00    -0.646 OA
HETATM   32  O3  UNL     1     -21.429  -4.397  50.204  1.00  0.00    -0.646 OA
ENDBRANCH  22  30
TORSDOF 5
ENDMDL
MODEL 4
REMARK VINA RESULT: -7.317596887      6.294      7.655
REMARK  5 active torsions:
REMARK  status: ('A' for Active; 'I' for Inactive)
REMARK    1  A    between atoms: C2_2  and  C3_3 
REMARK    2  A    between atoms: C3_3  and  C4_4 
REMARK    3  A    between atoms: C4_4  and  N1_5 
REMARK    4  A    between atoms: C23_26  and  O1_27 
REMARK    5  A    between atoms: C23_26  and  C24_29 
ROOT
HETATM    1  N1  UNL     1     -16.959  -8.284  52.200  1.00  0.00    -0.393 N 
ATOM      2  H1  UNL     1     -16.200  -8.879  52.533  1.00  0.00     0.159 HD
HETATM    3  C5  UNL     1     -17.123  -7.189  52.838  1.00  0.00     0.008 C 
HETATM    4  C6  UNL     1     -16.206  -6.930  53.962  1.00  0.00     0.022 C 
HETATM    5  C7  UNL     1     -16.491  -6.034  54.891  1.00  0.00    -0.011 C 
HETATM    6  C8  UNL     1     -17.728  -5.212  54.911  1.00  0.00     0.001 C 
HETATM    7  C9  UNL     1     -17.305  -3.804  54.538  1.00  0.00     0.025 C 
HETATM    8  C10 UNL     1     -18.676  -5.679  53.882  1.00  0.00    -0.066 C 
HETATM    9  C11 UNL     1     -19.973  -5.701  54.060  1.00  0.00    -0.022 C 
HETATM   10  C12 UNL     1     -20.636  -5.263  55.309  1.00  0.00     0.033 C 
HETATM   11  C13 UNL     1     -19.661  -4.424  56.099  1.00  0.00     0.001 C 
HETATM   12  C14 UNL     1     -18.422  -5.272  56.246  1.00  0.00     0.006 C 
HETATM   13  C15 UNL     1     -17.565  -4.893  57.403  1.00  0.00     0.007 C 
HETATM   14  C16 UNL     1     -18.384  -4.781  58.668  1.00  0.00     0.013 C 
HETATM   15  C17 UNL     1     -19.395  -3.654  58.482  1.00  0.00     0.003 C 
HETATM   16  C18 UNL     1     -18.596  -2.420  58.119  1.00  0.00     0.019 C 
HETATM   17  C19 UNL     1     -20.331  -4.074  57.399  1.00  0.00     0.020 C 
HETATM   18  C20 UNL     1     -21.433  -3.115  57.091  1.00  0.00     0.087 C 
HETATM   19 CL1  UNL     1     -21.113  -2.117  55.643  1.00  0.00    -0.125 Cl
HETATM   20  C21 UNL     1     -21.844  -2.231  58.228  1.00  0.00     0.024 C 
HETATM   21  C22 UNL     1     -21.571  -2.913  59.524  1.00  0.00     0.051 C 
HETATM   22  C23 UNL     1     -20.154  -3.333  59.735  1.00  0.00     0.153 C 
HETATM   23  C25 UNL     1     -18.143  -6.156  52.555  1.00  0.00     0.091 C 
ENDROOT
BRANCH   1  24
HETATM   24  C4  UNL     1     -17.689  -8.783  51.092  1.00  0.00     0.119 C 
BRANCH  24  25
HETATM   25  C3  UNL     1     -16.829  -9.019  49.890  1.00  0.00     0.019 C 
BRANCH  25  26
HETATM   26  C2  UNL     1     -17.539  -9.773  48.804  1.00  0.00    -0.003 C 
HETATM   27  C1  UNL     1     -18.975  -9.400  48.612  1.00  0.00     0.005 C 
ENDBRANCH  25  26
ENDBRANCH  24  25
ENDBRANCH   1  24
BRANCH  22  28
HETATM   28  O1  UNL     1     -19.508  -2.274  60.424  1.00  0.00    -0.378 OA
ATOM     29  H1  UNL     1     -19.968  -1.460  60.257  1.00  0.00     0.211 HD
ENDBRANCH  22  28
BRANCH  22  30
HETATM   30  C24 UNL     1     -20.189  -4.470  60.704  1.00  0.00     0.209 C 
HETATM   31  O2  UNL     1     -19.436  -4.390  61.706  1.00  0.00    -0.646 OA
HETATM   32  O3  UNL     1     -21.001  -5.584  60.549  1.00  0.00    -0.646 OA
ENDBRANCH  22  30
TORSDOF 5
ENDMDL
MODEL 5
REMARK VINA RESULT: -7.185344442      6.937      8.268
REMARK  5 active torsions:
REMARK  status: ('A' for Active; 'I' for Inactive)
REMARK    1  A    between atoms: C2_2  and  C3_3 
REMARK    2  A    between atoms: C3_3  and  C4_4 
REMARK    3  A    between atoms: C4_4  and  N1_5 
REMARK    4  A    between atoms: C23_26  and  O1_27 
REMARK    5  A    between atoms: C23_26  and  C24_29 
ROOT
HETATM    1  N1  UNL     1     -16.723  -8.721  51.258  1.00  0.00    -0.393 N 
ATOM      2  H1  UNL     1     -15.790  -9.116  51.374  1.00  0.00     0.159 HD
HETATM    3  C5  UNL     1     -16.927  -7.604  51.845  1.00  0.00     0.008 C 
HETATM    4  C6  UNL     1     -15.800  -7.037  52.607  1.00  0.00     0.022 C 
HETATM    5  C7  UNL     1     -15.989  -6.100  53.520  1.00  0.00    -0.011 C 
HETATM    6  C8  UNL     1     -17.313  -5.529  53.874  1.00  0.00     0.001 C 
HETATM    7  C9  UNL     1     -17.335  -4.126  53.299  1.00  0.00     0.025 C 
HETATM    8  C10 UNL     1     -18.395  -6.293  53.225  1.00  0.00    -0.066 C 
HETATM    9  C11 UNL     1     -19.546  -6.535  53.802  1.00  0.00    -0.022 C 
HETATM   10  C12 UNL     1     -19.893  -6.074  55.165  1.00  0.00     0.033 C 
HETATM   11  C13 UNL     1     -18.936  -4.974  55.555  1.00  0.00     0.001 C 
HETATM   12  C14 UNL     1     -17.555  -5.548  55.360  1.00  0.00     0.006 C 
HETATM   13  C15 UNL     1     -16.500  -4.871  56.164  1.00  0.00     0.007 C 
HETATM   14  C16 UNL     1     -16.916  -4.755  57.612  1.00  0.00     0.013 C 
HETATM   15  C17 UNL     1     -18.157  -3.871  57.681  1.00  0.00     0.003 C 
HETATM   16  C18 UNL     1     -17.789  -2.565  57.009  1.00  0.00     0.019 C 
HETATM   17  C19 UNL     1     -19.255  -4.594  56.975  1.00  0.00     0.020 C 
HETATM   18  C20 UNL     1     -20.580  -3.905  56.968  1.00  0.00     0.087 C 
HETATM   19 CL1  UNL     1     -20.924  -3.057  55.432  1.00  0.00    -0.125 Cl
HETATM   20  C21 UNL     1     -20.822  -2.977  58.118  1.00  0.00     0.024 C 
HETATM   21  C22 UNL     1     -20.039  -3.426  59.304  1.00  0.00     0.051 C 
HETATM   22  C23 UNL     1     -18.567  -3.542  59.086  1.00  0.00     0.153 C 
HETATM   23  C25 UNL     1     -18.185  -6.826  51.831  1.00  0.00     0.091 C 
ENDROOT
BRANCH   1  24
HETATM   24  C4  UNL     1     -17.619  -9.485  50.468  1.00  0.00     0.119 C 
BRANCH  24  25
HETATM   25  C3  UNL     1     -17.194  -9.580  49.037  1.00  0.00     0.019 C 
BRANCH  25  26
HETATM   26  C2  UNL     1     -18.352  -9.563  48.083  1.00  0.00    -0.003 C 
HETATM   27  C1  UNL     1     -19.636  -9.055  48.657  1.00  0.00     0.005 C 
ENDBRANCH  25  26
ENDBRANCH  24  25
ENDBRANCH   1  24
BRANCH  22  28
HETATM   28  O1  UNL     1     -17.994  -2.302  59.470  1.00  0.00    -0.378 OA
ATOM     29  H1  UNL     1     -18.405  -1.598  58.982  1.00  0.00     0.211 HD
ENDBRANCH  22  28
BRANCH  22  30
HETATM   30  C24 UNL     1     -18.068  -4.533  60.088  1.00  0.00     0.209 C 
HETATM   31  O2  UNL     1     -17.049  -4.213  60.749  1.00  0.00    -0.646 OA
HETATM   32  O3  UNL     1     -18.668  -5.762  60.313  1.00  0.00    -0.646 OA
ENDBRANCH  22  30
TORSDOF 5
ENDMDL
