MODEL 1
REMARK VINA RESULT: -8.873856825      0.000      0.000
REMARK  4 active torsions:
REMARK  status: ('A' for Active; 'I' for Inactive)
REMARK    1  A    between atoms: C16_18  and  O2_19 
REMARK    2  A    between atoms: C17_21  and  C18_22 
REMARK    3  A    between atoms: C18_22  and  C19_23 
REMARK    4  A    between atoms: C19_23  and  N1_24 
ROOT
HETATM    1  C1  UNL     1     -17.960  -4.934  59.916  1.00  0.00     0.018 C 
HETATM    2  C2  UNL     1     -18.859  -4.742  58.699  1.00  0.00    -0.015 C 
HETATM    3  C3  UNL     1     -18.018  -4.304  57.591  1.00  0.00     0.012 C 
HETATM    4  C4  UNL     1     -18.290  -4.723  56.242  1.00  0.00     0.010 C 
HETATM    5  C5  UNL     1     -19.671  -5.365  55.922  1.00  0.00     0.021 C 
HETATM    6  C6  UNL     1     -20.239  -6.150  57.146  1.00  0.00     0.014 C 
HETATM    7  C7  UNL     1     -19.497  -6.055  58.363  1.00  0.00    -0.004 C 
HETATM    8  C8  UNL     1     -20.439  -6.196  59.578  1.00  0.00     0.007 C 
HETATM    9  C9  UNL     1     -20.896  -4.789  59.868  1.00  0.00     0.031 C 
HETATM   10  C10 UNL     1     -19.936  -3.839  59.164  1.00  0.00     0.063 C 
HETATM   11 CL1  UNL     1     -19.278  -2.774  60.500  1.00  0.00    -0.114 Cl
HETATM   12  C11 UNL     1     -20.664  -2.984  58.276  1.00  0.00     0.011 C 
HETATM   13  C12 UNL     1     -20.870  -3.321  56.853  1.00  0.00    -0.030 A 
HETATM   14  C13 UNL     1     -21.744  -2.274  56.472  1.00  0.00     0.014 A 
HETATM   15  C14 UNL     1     -22.240  -2.108  55.218  1.00  0.00     0.039 A 
HETATM   16  C15 UNL     1     -21.884  -3.004  54.232  1.00  0.00     0.089 A 
HETATM   17  O1  UNL     1     -22.224  -3.049  52.968  1.00  0.00    -0.287 OA
HETATM   18  C16 UNL     1     -21.632  -4.091  52.411  1.00  0.00     0.191 A 
HETATM   19  C17 UNL     1     -20.861  -4.757  53.387  1.00  0.00     0.015 A 
HETATM   20  C25 UNL     1     -21.027  -4.052  54.566  1.00  0.00     0.016 A 
HETATM   21  C26 UNL     1     -20.525  -4.223  55.826  1.00  0.00    -0.030 A 
ENDROOT
BRANCH  19  22
HETATM   22  C18 UNL     1     -20.053  -5.921  53.224  1.00  0.00     0.075 C 
BRANCH  22  23
HETATM   23  C19 UNL     1     -18.679  -5.536  52.695  1.00  0.00     0.277 C 
BRANCH  23  24
HETATM   24  N1  UNL     1     -17.727  -6.624  52.985  1.00  0.00     0.088 N 
HETATM   25  C20 UNL     1     -18.064  -7.732  52.165  1.00  0.00     0.272 C 
HETATM   26  C21 UNL     1     -16.841  -8.534  51.831  1.00  0.00     0.030 C 
HETATM   27  C22 UNL     1     -15.889  -7.669  51.043  1.00  0.00     0.003 C 
HETATM   28  C23 UNL     1     -15.711  -6.314  51.647  1.00  0.00     0.030 C 
HETATM   29  C24 UNL     1     -16.371  -6.218  53.007  1.00  0.00     0.272 C 
ENDBRANCH  23  24
ENDBRANCH  22  23
ENDBRANCH  19  22
BRANCH  18  30
HETATM   30  O2  UNL     1     -21.730  -4.486  51.091  1.00  0.00    -0.340 OA
ATOM     31  H2  UNL     1     -22.222  -5.227  50.757  1.00  0.00     0.220 HD
ENDBRANCH  18  30
TORSDOF 4
ENDMDL
MODEL 2
REMARK VINA RESULT: -8.330062021      3.048      5.857
REMARK  4 active torsions:
REMARK  status: ('A' for Active; 'I' for Inactive)
REMARK    1  A    between atoms: C16_18  and  O2_19 
REMARK    2  A    between atoms: C17_21  and  C18_22 
REMARK    3  A    between atoms: C18_22  and  C19_23 
REMARK    4  A    between atoms: C19_23  and  N1_24 
ROOT
HETATM    1  C1  UNL     1     -25.377  -1.563  50.696  1.00  0.00     0.018 C 
HETATM    2  C2  UNL     1     -24.273  -1.938  51.680  1.00  0.00    -0.015 C 
HETATM    3  C3  UNL     1     -24.573  -3.268  52.196  1.00  0.00     0.012 C 
HETATM    4  C4  UNL     1     -23.520  -4.201  52.496  1.00  0.00     0.010 C 
HETATM    5  C5  UNL     1     -22.058  -3.677  52.588  1.00  0.00     0.021 C 
HETATM    6  C6  UNL     1     -21.820  -2.464  51.635  1.00  0.00     0.014 C 
HETATM    7  C7  UNL     1     -22.967  -1.960  50.948  1.00  0.00    -0.004 C 
HETATM    8  C8  UNL     1     -22.806  -0.449  50.673  1.00  0.00     0.007 C 
HETATM    9  C9  UNL     1     -23.373   0.221  51.898  1.00  0.00     0.031 C 
HETATM   10  C10 UNL     1     -24.220  -0.808  52.635  1.00  0.00     0.063 C 
HETATM   11 CL1  UNL     1     -25.882  -0.046  52.742  1.00  0.00    -0.114 Cl
HETATM   12  C11 UNL     1     -23.746  -0.954  53.978  1.00  0.00     0.011 C 
HETATM   13  C12 UNL     1     -22.748  -1.976  54.352  1.00  0.00    -0.030 A 
HETATM   14  C13 UNL     1     -22.514  -1.614  55.702  1.00  0.00     0.014 A 
HETATM   15  C14 UNL     1     -21.662  -2.268  56.533  1.00  0.00     0.039 A 
HETATM   16  C15 UNL     1     -20.967  -3.360  56.058  1.00  0.00     0.089 A 
HETATM   17  O1  UNL     1     -20.106  -4.142  56.660  1.00  0.00    -0.287 OA
HETATM   18  C16 UNL     1     -19.702  -5.062  55.802  1.00  0.00     0.191 A 
HETATM   19  C17 UNL     1     -20.349  -4.851  54.566  1.00  0.00     0.015 A 
HETATM   20  C25 UNL     1     -21.166  -3.748  54.734  1.00  0.00     0.016 A 
HETATM   21  C26 UNL     1     -22.023  -3.094  53.892  1.00  0.00    -0.030 A 
ENDROOT
BRANCH  19  22
HETATM   22  C18 UNL     1     -20.216  -5.611  53.366  1.00  0.00     0.075 C 
BRANCH  22  23
HETATM   23  C19 UNL     1     -18.849  -5.371  52.741  1.00  0.00     0.277 C 
BRANCH  23  24
HETATM   24  N1  UNL     1     -17.979  -6.528  53.024  1.00  0.00     0.088 N 
HETATM   25  C20 UNL     1     -18.330  -7.571  52.127  1.00  0.00     0.272 C 
HETATM   26  C21 UNL     1     -17.136  -8.426  51.820  1.00  0.00     0.030 C 
HETATM   27  C22 UNL     1     -16.092  -7.580  51.135  1.00  0.00     0.003 C 
HETATM   28  C23 UNL     1     -15.873  -6.271  51.821  1.00  0.00     0.030 C 
HETATM   29  C24 UNL     1     -16.606  -6.206  53.146  1.00  0.00     0.272 C 
ENDBRANCH  23  24
ENDBRANCH  22  23
ENDBRANCH  19  22
BRANCH  18  30
HETATM   30  O2  UNL     1     -18.797  -6.076  56.047  1.00  0.00    -0.340 OA
ATOM     31  H2  UNL     1     -17.851  -6.011  56.014  1.00  0.00     0.220 HD
ENDBRANCH  18  30
TORSDOF 4
ENDMDL
MODEL 3
REMARK VINA RESULT: -8.243890980      0.810      1.195
REMARK  4 active torsions:
REMARK  status: ('A' for Active; 'I' for Inactive)
REMARK    1  A    between atoms: C16_18  and  O2_19 
REMARK    2  A    between atoms: C17_21  and  C18_22 
REMARK    3  A    between atoms: C18_22  and  C19_23 
REMARK    4  A    between atoms: C19_23  and  N1_24 
ROOT
HETATM    1  C1  UNL     1     -17.748  -4.192  59.691  1.00  0.00     0.018 C 
HETATM    2  C2  UNL     1     -18.741  -4.166  58.534  1.00  0.00    -0.015 C 
HETATM    3  C3  UNL     1     -18.059  -3.601  57.376  1.00  0.00     0.012 C 
HETATM    4  C4  UNL     1     -18.341  -4.071  56.046  1.00  0.00     0.010 C 
HETATM    5  C5  UNL     1     -19.609  -4.943  55.813  1.00  0.00     0.021 C 
HETATM    6  C6  UNL     1     -19.956  -5.803  57.069  1.00  0.00     0.014 C 
HETATM    7  C7  UNL     1     -19.165  -5.572  58.236  1.00  0.00    -0.004 C 
HETATM    8  C8  UNL     1     -19.990  -5.862  59.509  1.00  0.00     0.007 C 
HETATM    9  C9  UNL     1     -20.662  -4.551  59.831  1.00  0.00     0.031 C 
HETATM   10  C10 UNL     1     -19.925  -3.457  59.069  1.00  0.00     0.063 C 
HETATM   11 CL1  UNL     1     -19.376  -2.284  60.363  1.00  0.00    -0.114 Cl
HETATM   12  C11 UNL     1     -20.844  -2.747  58.232  1.00  0.00     0.011 C 
HETATM   13  C12 UNL     1     -21.079  -3.127  56.824  1.00  0.00    -0.030 A 
HETATM   14  C13 UNL     1     -22.142  -2.247  56.503  1.00  0.00     0.014 A 
HETATM   15  C14 UNL     1     -22.737  -2.179  55.283  1.00  0.00     0.039 A 
HETATM   16  C15 UNL     1     -22.296  -3.009  54.274  1.00  0.00     0.089 A 
HETATM   17  O1  UNL     1     -22.703  -3.123  53.035  1.00  0.00    -0.287 OA
HETATM   18  C16 UNL     1     -21.978  -4.052  52.439  1.00  0.00     0.191 A 
HETATM   19  C17 UNL     1     -21.045  -4.568  53.362  1.00  0.00     0.015 A 
HETATM   20  C25 UNL     1     -21.253  -3.892  54.550  1.00  0.00     0.016 A 
HETATM   21  C26 UNL     1     -20.651  -3.965  55.775  1.00  0.00    -0.030 A 
ENDROOT
BRANCH  19  22
HETATM   22  C18 UNL     1     -20.061  -5.579  53.144  1.00  0.00     0.075 C 
BRANCH  22  23
HETATM   23  C19 UNL     1     -18.849  -4.987  52.438  1.00  0.00     0.277 C 
BRANCH  23  24
HETATM   24  N1  UNL     1     -17.840  -6.045  52.244  1.00  0.00     0.088 N 
HETATM   25  C20 UNL     1     -16.628  -5.426  51.837  1.00  0.00     0.272 C 
HETATM   26  C21 UNL     1     -15.446  -6.219  52.310  1.00  0.00     0.030 C 
HETATM   27  C22 UNL     1     -15.448  -6.248  53.819  1.00  0.00     0.003 C 
HETATM   28  C23 UNL     1     -16.793  -6.568  54.385  1.00  0.00     0.030 C 
HETATM   29  C24 UNL     1     -17.770  -6.982  53.303  1.00  0.00     0.272 C 
ENDBRANCH  23  24
ENDBRANCH  22  23
ENDBRANCH  19  22
BRANCH  18  30
HETATM   30  O2  UNL     1     -22.091  -4.470  51.126  1.00  0.00    -0.340 OA
ATOM     31  H2  UNL     1     -22.748  -5.058  50.774  1.00  0.00     0.220 HD
ENDBRANCH  18  30
TORSDOF 4
ENDMDL
MODEL 4
REMARK VINA RESULT: -8.228757539      2.943      5.650
REMARK  4 active torsions:
REMARK  status: ('A' for Active; 'I' for Inactive)
REMARK    1  A    between atoms: C16_18  and  O2_19 
REMARK    2  A    between atoms: C17_21  and  C18_22 
REMARK    3  A    between atoms: C18_22  and  C19_23 
REMARK    4  A    between atoms: C19_23  and  N1_24 
ROOT
HETATM    1  C1  UNL     1     -24.405  -2.364  50.960  1.00  0.00     0.018 C 
HETATM    2  C2  UNL     1     -23.487  -2.539  52.165  1.00  0.00    -0.015 C 
HETATM    3  C3  UNL     1     -23.968  -3.684  52.928  1.00  0.00     0.012 C 
HETATM    4  C4  UNL     1     -23.052  -4.566  53.601  1.00  0.00     0.010 C 
HETATM    5  C5  UNL     1     -21.578  -4.107  53.794  1.00  0.00     0.021 C 
HETATM    6  C6  UNL     1     -21.106  -3.181  52.630  1.00  0.00     0.014 C 
HETATM    7  C7  UNL     1     -22.097  -2.806  51.673  1.00  0.00    -0.004 C 
HETATM    8  C8  UNL     1     -21.771  -1.419  51.077  1.00  0.00     0.007 C 
HETATM    9  C9  UNL     1     -22.443  -0.440  52.005  1.00  0.00     0.031 C 
HETATM   10  C10 UNL     1     -23.470  -1.213  52.822  1.00  0.00     0.063 C 
HETATM   11 CL1  UNL     1     -25.059  -0.367  52.485  1.00  0.00    -0.114 Cl
HETATM   12  C11 UNL     1     -23.203  -1.046  54.219  1.00  0.00     0.011 C 
HETATM   13  C12 UNL     1     -22.358  -1.992  54.975  1.00  0.00    -0.030 A 
HETATM   14  C13 UNL     1     -22.285  -1.321  56.221  1.00  0.00     0.014 A 
HETATM   15  C14 UNL     1     -21.617  -1.791  57.306  1.00  0.00     0.039 A 
HETATM   16  C15 UNL     1     -20.959  -2.999  57.217  1.00  0.00     0.089 A 
HETATM   17  O1  UNL     1     -20.261  -3.651  58.114  1.00  0.00    -0.287 OA
HETATM   18  C16 UNL     1     -19.822  -4.772  57.571  1.00  0.00     0.191 A 
HETATM   19  C17 UNL     1     -20.269  -4.841  56.235  1.00  0.00     0.015 A 
HETATM   20  C25 UNL     1     -21.004  -3.692  56.007  1.00  0.00     0.016 A 
HETATM   21  C26 UNL     1     -21.675  -3.223  54.912  1.00  0.00    -0.030 A 
ENDROOT
BRANCH  19  22
HETATM   22  C18 UNL     1     -20.036  -5.879  55.284  1.00  0.00     0.075 C 
BRANCH  22  23
HETATM   23  C19 UNL     1     -18.547  -5.999  54.992  1.00  0.00     0.277 C 
BRANCH  23  24
HETATM   24  N1  UNL     1     -18.296  -5.613  53.592  1.00  0.00     0.088 N 
HETATM   25  C20 UNL     1     -16.972  -5.108  53.506  1.00  0.00     0.272 C 
HETATM   26  C21 UNL     1     -16.391  -5.380  52.150  1.00  0.00     0.030 C 
HETATM   27  C22 UNL     1     -16.314  -6.872  51.941  1.00  0.00     0.003 C 
HETATM   28  C23 UNL     1     -17.576  -7.571  52.328  1.00  0.00     0.030 C 
HETATM   29  C24 UNL     1     -18.685  -6.588  52.642  1.00  0.00     0.272 C 
ENDBRANCH  23  24
ENDBRANCH  22  23
ENDBRANCH  19  22
BRANCH  18  30
HETATM   30  O2  UNL     1     -19.051  -5.739  58.187  1.00  0.00    -0.340 OA
ATOM     31  H2  UNL     1     -19.350  -6.579  58.513  1.00  0.00     0.220 HD
ENDBRANCH  18  30
TORSDOF 4
ENDMDL
MODEL 5
REMARK VINA RESULT: -8.029512783      2.211      4.635
REMARK  4 active torsions:
REMARK  status: ('A' for Active; 'I' for Inactive)
REMARK    1  A    between atoms: C16_18  and  O2_19 
REMARK    2  A    between atoms: C17_21  and  C18_22 
REMARK    3  A    between atoms: C18_22  and  C19_23 
REMARK    4  A    between atoms: C19_23  and  N1_24 
ROOT
HETATM    1  C1  UNL     1     -20.635  -4.255  59.631  1.00  0.00     0.018 C 
HETATM    2  C2  UNL     1     -19.731  -4.366  58.407  1.00  0.00    -0.015 C 
HETATM    3  C3  UNL     1     -19.698  -5.767  58.006  1.00  0.00     0.012 C 
HETATM    4  C4  UNL     1     -19.623  -6.140  56.619  1.00  0.00     0.010 C 
HETATM    5  C5  UNL     1     -19.241  -5.054  55.571  1.00  0.00     0.021 C 
HETATM    6  C6  UNL     1     -19.730  -3.637  56.006  1.00  0.00     0.014 C 
HETATM    7  C7  UNL     1     -20.316  -3.536  57.305  1.00  0.00    -0.004 C 
HETATM    8  C8  UNL     1     -20.076  -2.129  57.893  1.00  0.00     0.007 C 
HETATM    9  C9  UNL     1     -18.754  -2.239  58.610  1.00  0.00     0.031 C 
HETATM   10  C10 UNL     1     -18.464  -3.720  58.815  1.00  0.00     0.063 C 
HETATM   11 CL1  UNL     1     -18.262  -3.904  60.625  1.00  0.00    -0.114 Cl
HETATM   12  C11 UNL     1     -17.203  -4.052  58.224  1.00  0.00     0.011 C 
HETATM   13  C12 UNL     1     -17.091  -4.548  56.837  1.00  0.00    -0.030 A 
HETATM   14  C13 UNL     1     -15.682  -4.577  56.695  1.00  0.00     0.014 A 
HETATM   15  C14 UNL     1     -15.034  -4.986  55.573  1.00  0.00     0.039 A 
HETATM   16  C15 UNL     1     -15.772  -5.406  54.487  1.00  0.00     0.089 A 
HETATM   17  O1  UNL     1     -15.381  -5.842  53.316  1.00  0.00    -0.287 OA
HETATM   18  C16 UNL     1     -16.451  -6.132  52.597  1.00  0.00     0.191 A 
HETATM   19  C17 UNL     1     -17.605  -5.861  53.361  1.00  0.00     0.015 A 
HETATM   20  C25 UNL     1     -17.163  -5.390  54.585  1.00  0.00     0.016 A 
HETATM   21  C26 UNL     1     -17.821  -4.980  55.711  1.00  0.00    -0.030 A 
ENDROOT
BRANCH  19  22
HETATM   22  C18 UNL     1     -18.969  -6.036  52.983  1.00  0.00     0.075 C 
BRANCH  22  23
HETATM   23  C19 UNL     1     -19.385  -4.952  51.999  1.00  0.00     0.277 C 
BRANCH  23  24
HETATM   24  N1  UNL     1     -20.857  -4.903  51.928  1.00  0.00     0.088 N 
HETATM   25  C20 UNL     1     -21.362  -4.948  53.253  1.00  0.00     0.272 C 
HETATM   26  C21 UNL     1     -22.660  -4.201  53.349  1.00  0.00     0.030 C 
HETATM   27  C22 UNL     1     -22.416  -2.751  53.014  1.00  0.00     0.003 C 
HETATM   28  C23 UNL     1     -21.583  -2.578  51.785  1.00  0.00     0.030 C 
HETATM   29  C24 UNL     1     -21.363  -3.896  51.071  1.00  0.00     0.272 C 
ENDBRANCH  23  24
ENDBRANCH  22  23
ENDBRANCH  19  22
BRANCH  18  30
HETATM   30  O2  UNL     1     -16.467  -6.623  51.306  1.00  0.00    -0.340 OA
ATOM     31  H2  UNL     1     -17.009  -7.329  50.975  1.00  0.00     0.220 HD
ENDBRANCH  18  30
TORSDOF 4
ENDMDL
