MODEL 1
REMARK VINA RESULT: -6.192743313      0.000      0.000
REMARK  7 active torsions:
REMARK  status: ('A' for Active; 'I' for Inactive)
REMARK    1  A    between atoms: C2_5  and  C3_6 
REMARK       I    between atoms: C3_6  and  N2_8 
REMARK    2  A    between atoms: N2_8  and  C4_10 
REMARK    3  A    between atoms: C4_10  and  N3_12 
REMARK    4  A    between atoms: C9_17  and  C10_18 
REMARK    5  A    between atoms: C10_18  and  C11_20 
REMARK    6  A    between atoms: C11_20  and  O3_21 
REMARK    7  A    between atoms: C11_20  and  C12_23 
ROOT
HETATM    1  O1  UNL     1      83.185   3.848   4.106  1.00  0.00    -0.238 OA
HETATM    2  C1  UNL     1      82.647   3.239   5.069  1.00  0.00     0.361 C 
HETATM    3  N1  UNL     1      82.300   3.870   6.323  1.00  0.00    -0.321 N 
ATOM      4  H1  UNL     1      82.514   4.814   6.644  1.00  0.00     0.165 HD
HETATM    5  C2  UNL     1      81.572   2.817   7.010  1.00  0.00     0.210 C 
HETATM    6  C9  UNL     1      82.338   1.630   6.575  1.00  0.00     0.182 C 
HETATM    7  O4  UNL     1      82.279   1.881   5.143  1.00  0.00    -0.295 OA
ENDROOT
BRANCH   5   8
HETATM    8  C3  UNL     1      81.292   3.052   8.391  1.00  0.00     0.249 C 
HETATM    9  O2  UNL     1      80.950   2.107   9.133  1.00  0.00    -0.271 OA
HETATM   10  N2  UNL     1      81.393   4.347   8.950  1.00  0.00    -0.302 N 
ATOM     11  H2  UNL     1      81.672   5.124   8.350  1.00  0.00     0.171 HD
BRANCH  10  12
HETATM   12  C4  UNL     1      81.116   4.603  10.340  1.00  0.00     0.176 C 
HETATM   13  S1  UNL     1      82.318   4.542  11.451  1.00  0.00    -0.041 SA
BRANCH  12  14
HETATM   14  N3  UNL     1      79.822   4.907  10.770  1.00  0.00    -0.358 N 
HETATM   15  C5  UNL     1      79.240   4.740  12.088  1.00  0.00     0.125 C 
HETATM   16  C6  UNL     1      78.161   5.779  12.201  1.00  0.00     0.021 C 
HETATM   17  C7  UNL     1      78.047   6.456  10.854  1.00  0.00     0.021 C 
HETATM   18  C8  UNL     1      78.768   5.467   9.957  1.00  0.00     0.125 C 
ENDBRANCH  12  14
ENDBRANCH  10  12
ENDBRANCH   5   8
BRANCH   6  19
HETATM   19  C10 UNL     1      83.779   1.552   6.870  1.00  0.00     0.120 C 
HETATM   20 BR1  UNL     1      84.540   0.316   5.546  1.00  0.00    -0.086 Br
BRANCH  19  21
HETATM   21  C11 UNL     1      84.199   1.014   8.192  1.00  0.00     0.159 C 
BRANCH  21  22
HETATM   22  O3  UNL     1      84.360  -0.382   8.197  1.00  0.00    -0.392 OA
ATOM     23  H3  UNL     1      85.259  -0.656   8.059  1.00  0.00     0.210 HD
ENDBRANCH  21  22
BRANCH  21  24
HETATM   24  C12 UNL     1      85.613   1.562   8.453  1.00  0.00     0.159 C 
HETATM   25 BR2  UNL     1      85.602   2.847   9.891  1.00  0.00    -0.076 Br
HETATM   26 BR3  UNL     1      86.837   0.163   8.891  1.00  0.00    -0.076 Br
ENDBRANCH  21  24
ENDBRANCH  19  21
ENDBRANCH   6  19
TORSDOF 7
ENDMDL
MODEL 2
REMARK VINA RESULT: -6.118764933      4.034      7.226
REMARK  7 active torsions:
REMARK  status: ('A' for Active; 'I' for Inactive)
REMARK    1  A    between atoms: C2_5  and  C3_6 
REMARK       I    between atoms: C3_6  and  N2_8 
REMARK    2  A    between atoms: N2_8  and  C4_10 
REMARK    3  A    between atoms: C4_10  and  N3_12 
REMARK    4  A    between atoms: C9_17  and  C10_18 
REMARK    5  A    between atoms: C10_18  and  C11_20 
REMARK    6  A    between atoms: C11_20  and  O3_21 
REMARK    7  A    between atoms: C11_20  and  C12_23 
ROOT
HETATM    1  O1  UNL     1      82.321   7.545  12.838  1.00  0.00    -0.238 OA
HETATM    2  C1  UNL     1      81.936   6.389  12.514  1.00  0.00     0.361 C 
HETATM    3  N1  UNL     1      82.667   5.523  11.616  1.00  0.00    -0.321 N 
ATOM      4  H1  UNL     1      83.496   5.733  11.060  1.00  0.00     0.165 HD
HETATM    5  C2  UNL     1      81.921   4.279  11.706  1.00  0.00     0.210 C 
HETATM    6  C9  UNL     1      80.542   4.800  11.819  1.00  0.00     0.182 C 
HETATM    7  O4  UNL     1      80.773   5.710  12.930  1.00  0.00    -0.295 OA
ENDROOT
BRANCH   5   8
HETATM    8  C3  UNL     1      82.258   3.280  10.743  1.00  0.00     0.249 C 
HETATM    9  O2  UNL     1      81.621   2.206  10.702  1.00  0.00    -0.271 OA
HETATM   10  N2  UNL     1      83.311   3.476   9.820  1.00  0.00    -0.302 N 
ATOM     11  H2  UNL     1      83.837   4.350   9.848  1.00  0.00     0.171 HD
BRANCH  10  12
HETATM   12  C4  UNL     1      83.665   2.479   8.842  1.00  0.00     0.176 C 
HETATM   13  S1  UNL     1      82.854   2.387   7.421  1.00  0.00    -0.041 SA
BRANCH  12  14
HETATM   14  N3  UNL     1      84.702   1.574   9.081  1.00  0.00    -0.358 N 
HETATM   15  C5  UNL     1      85.085   0.407   8.311  1.00  0.00     0.125 C 
HETATM   16  C6  UNL     1      86.553   0.209   8.556  1.00  0.00     0.021 C 
HETATM   17  C7  UNL     1      86.972   1.216   9.602  1.00  0.00     0.021 C 
HETATM   18  C8  UNL     1      85.632   1.623  10.185  1.00  0.00     0.125 C 
ENDBRANCH  12  14
ENDBRANCH  10  12
ENDBRANCH   5   8
BRANCH   6  19
HETATM   19  C10 UNL     1      80.004   5.661  10.752  1.00  0.00     0.120 C 
HETATM   20 BR1  UNL     1      78.335   6.422  11.455  1.00  0.00    -0.086 Br
BRANCH  19  21
HETATM   21  C11 UNL     1      79.630   5.028   9.459  1.00  0.00     0.159 C 
BRANCH  21  22
HETATM   22  O3  UNL     1      78.276   4.652   9.396  1.00  0.00    -0.392 OA
ATOM     23  H3  UNL     1      78.119   3.767   9.703  1.00  0.00     0.210 HD
ENDBRANCH  21  22
BRANCH  21  24
HETATM   24  C12 UNL     1      79.772   6.120   8.385  1.00  0.00     0.159 C 
HETATM   25 BR2  UNL     1      80.987   7.503   8.963  1.00  0.00    -0.076 Br
HETATM   26 BR3  UNL     1      80.405   5.400   6.732  1.00  0.00    -0.076 Br
ENDBRANCH  21  24
ENDBRANCH  19  21
ENDBRANCH   6  19
TORSDOF 7
ENDMDL
MODEL 3
REMARK VINA RESULT: -6.093999199      1.588      2.199
REMARK  7 active torsions:
REMARK  status: ('A' for Active; 'I' for Inactive)
REMARK    1  A    between atoms: C2_5  and  C3_6 
REMARK       I    between atoms: C3_6  and  N2_8 
REMARK    2  A    between atoms: N2_8  and  C4_10 
REMARK    3  A    between atoms: C4_10  and  N3_12 
REMARK    4  A    between atoms: C9_17  and  C10_18 
REMARK    5  A    between atoms: C10_18  and  C11_20 
REMARK    6  A    between atoms: C11_20  and  O3_21 
REMARK    7  A    between atoms: C11_20  and  C12_23 
ROOT
HETATM    1  O1  UNL     1      83.782   3.502   3.689  1.00  0.00    -0.238 OA
HETATM    2  C1  UNL     1      83.134   3.025   4.659  1.00  0.00     0.361 C 
HETATM    3  N1  UNL     1      82.713   3.805   5.802  1.00  0.00    -0.321 N 
ATOM      4  H1  UNL     1      82.944   4.770   6.037  1.00  0.00     0.165 HD
HETATM    5  C2  UNL     1      81.877   2.864   6.529  1.00  0.00     0.210 C 
HETATM    6  C9  UNL     1      82.620   1.607   6.295  1.00  0.00     0.182 C 
HETATM    7  O4  UNL     1      82.696   1.699   4.845  1.00  0.00    -0.295 OA
ENDROOT
BRANCH   5   8
HETATM    8  C3  UNL     1      81.492   3.262   7.845  1.00  0.00     0.249 C 
HETATM    9  O2  UNL     1      81.245   2.401   8.717  1.00  0.00    -0.271 OA
HETATM   10  N2  UNL     1      81.380   4.628   8.196  1.00  0.00    -0.302 N 
ATOM     11  H2  UNL     1      81.580   5.337   7.490  1.00  0.00     0.171 HD
BRANCH  10  12
HETATM   12  C4  UNL     1      80.994   5.048   9.518  1.00  0.00     0.176 C 
HETATM   13  S1  UNL     1      79.417   5.302   9.881  1.00  0.00    -0.041 SA
BRANCH  12  14
HETATM   14  N3  UNL     1      81.951   5.248  10.516  1.00  0.00    -0.358 N 
HETATM   15  C5  UNL     1      83.396   5.265  10.399  1.00  0.00     0.125 C 
HETATM   16  C6  UNL     1      83.894   6.146  11.509  1.00  0.00     0.021 C 
HETATM   17  C7  UNL     1      82.698   6.522  12.353  1.00  0.00     0.021 C 
HETATM   18  C8  UNL     1      81.680   5.486  11.915  1.00  0.00     0.125 C 
ENDBRANCH  12  14
ENDBRANCH  10  12
ENDBRANCH   5   8
BRANCH   6  19
HETATM   19  C10 UNL     1      84.025   1.507   6.726  1.00  0.00     0.120 C 
HETATM   20 BR1  UNL     1      84.868   0.196   5.530  1.00  0.00    -0.086 Br
BRANCH  19  21
HETATM   21  C11 UNL     1      84.305   1.016   8.102  1.00  0.00     0.159 C 
BRANCH  21  22
HETATM   22  O3  UNL     1      84.315  -0.386   8.200  1.00  0.00    -0.392 OA
ATOM     23  H3  UNL     1      84.769  -0.704   8.972  1.00  0.00     0.210 HD
ENDBRANCH  21  22
BRANCH  21  24
HETATM   24  C12 UNL     1      85.752   1.431   8.423  1.00  0.00     0.159 C 
HETATM   25 BR2  UNL     1      85.804   2.672   9.899  1.00  0.00    -0.076 Br
HETATM   26 BR3  UNL     1      86.836  -0.081   8.854  1.00  0.00    -0.076 Br
ENDBRANCH  21  24
ENDBRANCH  19  21
ENDBRANCH   6  19
TORSDOF 7
ENDMDL
MODEL 4
REMARK VINA RESULT: -6.034635006      3.947      6.965
REMARK  7 active torsions:
REMARK  status: ('A' for Active; 'I' for Inactive)
REMARK    1  A    between atoms: C2_5  and  C3_6 
REMARK       I    between atoms: C3_6  and  N2_8 
REMARK    2  A    between atoms: N2_8  and  C4_10 
REMARK    3  A    between atoms: C4_10  and  N3_12 
REMARK    4  A    between atoms: C9_17  and  C10_18 
REMARK    5  A    between atoms: C10_18  and  C11_20 
REMARK    6  A    between atoms: C11_20  and  O3_21 
REMARK    7  A    between atoms: C11_20  and  C12_23 
ROOT
HETATM    1  O1  UNL     1      81.170   5.602  12.903  1.00  0.00    -0.238 OA
HETATM    2  C1  UNL     1      81.036   4.751  11.983  1.00  0.00     0.361 C 
HETATM    3  N1  UNL     1      82.146   4.081  11.343  1.00  0.00    -0.321 N 
ATOM      4  H1  UNL     1      83.145   4.253  11.453  1.00  0.00     0.165 HD
HETATM    5  C2  UNL     1      81.477   3.102  10.503  1.00  0.00     0.210 C 
HETATM    6  C9  UNL     1      80.292   3.877  10.077  1.00  0.00     0.182 C 
HETATM    7  O4  UNL     1      79.843   4.281  11.400  1.00  0.00    -0.295 OA
ENDROOT
BRANCH   5   8
HETATM    8  C3  UNL     1      82.302   2.428   9.553  1.00  0.00     0.249 C 
HETATM    9  O2  UNL     1      81.977   1.300   9.124  1.00  0.00    -0.271 OA
HETATM   10  N2  UNL     1      83.498   3.012   9.075  1.00  0.00    -0.302 N 
ATOM     11  H2  UNL     1      83.771   3.932   9.421  1.00  0.00     0.171 HD
BRANCH  10  12
HETATM   12  C4  UNL     1      84.343   2.347   8.116  1.00  0.00     0.176 C 
HETATM   13  S1  UNL     1      83.920   2.293   6.535  1.00  0.00    -0.041 SA
BRANCH  12  14
HETATM   14  N3  UNL     1      85.536   1.738   8.512  1.00  0.00    -0.358 N 
HETATM   15  C5  UNL     1      86.431   2.106   9.592  1.00  0.00     0.125 C 
HETATM   16  C6  UNL     1      87.119   0.840  10.013  1.00  0.00     0.021 C 
HETATM   17  C7  UNL     1      86.696  -0.243   9.048  1.00  0.00     0.021 C 
HETATM   18  C8  UNL     1      86.139   0.576   7.899  1.00  0.00     0.125 C 
ENDBRANCH  12  14
ENDBRANCH  10  12
ENDBRANCH   5   8
BRANCH   6  19
HETATM   19  C10 UNL     1      80.482   5.148   9.355  1.00  0.00     0.120 C 
HETATM   20 BR1  UNL     1      78.751   6.075   9.423  1.00  0.00    -0.086 Br
BRANCH  19  21
HETATM   21  C11 UNL     1      80.838   5.091   7.912  1.00  0.00     0.159 C 
BRANCH  21  22
HETATM   22  O3  UNL     1      80.353   3.941   7.265  1.00  0.00    -0.392 OA
ATOM     23  H3  UNL     1      80.829   3.729   6.471  1.00  0.00     0.210 HD
ENDBRANCH  21  22
BRANCH  21  24
HETATM   24  C12 UNL     1      80.090   6.253   7.236  1.00  0.00     0.159 C 
HETATM   25 BR2  UNL     1      81.214   7.815   7.103  1.00  0.00    -0.076 Br
HETATM   26 BR3  UNL     1      79.492   5.777   5.485  1.00  0.00    -0.076 Br
ENDBRANCH  21  24
ENDBRANCH  19  21
ENDBRANCH   6  19
TORSDOF 7
ENDMDL
MODEL 5
REMARK VINA RESULT: -5.983381993     15.232     17.124
REMARK  7 active torsions:
REMARK  status: ('A' for Active; 'I' for Inactive)
REMARK    1  A    between atoms: C2_5  and  C3_6 
REMARK       I    between atoms: C3_6  and  N2_8 
REMARK    2  A    between atoms: N2_8  and  C4_10 
REMARK    3  A    between atoms: C4_10  and  N3_12 
REMARK    4  A    between atoms: C9_17  and  C10_18 
REMARK    5  A    between atoms: C10_18  and  C11_20 
REMARK    6  A    between atoms: C11_20  and  O3_21 
REMARK    7  A    between atoms: C11_20  and  C12_23 
ROOT
HETATM    1  O1  UNL     1      85.412   5.663  24.313  1.00  0.00    -0.238 OA
HETATM    2  C1  UNL     1      86.307   4.776  24.270  1.00  0.00     0.361 C 
HETATM    3  N1  UNL     1      86.460   3.845  23.174  1.00  0.00    -0.321 N 
ATOM      4  H1  UNL     1      85.851   3.701  22.369  1.00  0.00     0.165 HD
HETATM    5  C2  UNL     1      87.702   3.169  23.511  1.00  0.00     0.210 C 
HETATM    6  C9  UNL     1      87.576   3.092  24.982  1.00  0.00     0.182 C 
HETATM    7  O4  UNL     1      87.307   4.501  25.223  1.00  0.00    -0.295 OA
ENDROOT
BRANCH   5   8
HETATM    8  C3  UNL     1      88.012   2.012  22.733  1.00  0.00     0.249 C 
HETATM    9  O2  UNL     1      89.131   1.466  22.836  1.00  0.00    -0.271 OA
HETATM   10  N2  UNL     1      87.071   1.459  21.834  1.00  0.00    -0.302 N 
ATOM     11  H2  UNL     1      86.155   1.899  21.744  1.00  0.00     0.171 HD
BRANCH  10  12
HETATM   12  C4  UNL     1      87.365   0.292  21.042  1.00  0.00     0.176 C 
HETATM   13  S1  UNL     1      87.983   0.448  19.533  1.00  0.00    -0.041 SA
BRANCH  12  14
HETATM   14  N3  UNL     1      87.132  -0.992  21.540  1.00  0.00    -0.358 N 
HETATM   15  C5  UNL     1      85.927  -1.795  21.455  1.00  0.00     0.125 C 
HETATM   16  C6  UNL     1      86.377  -3.227  21.507  1.00  0.00     0.021 C 
HETATM   17  C7  UNL     1      87.865  -3.221  21.766  1.00  0.00     0.021 C 
HETATM   18  C8  UNL     1      88.080  -1.805  22.267  1.00  0.00     0.125 C 
ENDBRANCH  12  14
ENDBRANCH  10  12
ENDBRANCH   5   8
BRANCH   6  19
HETATM   19  C10 UNL     1      86.420   2.397  25.573  1.00  0.00     0.120 C 
HETATM   20 BR1  UNL     1      85.880   3.466  27.131  1.00  0.00    -0.086 Br
BRANCH  19  21
HETATM   21  C11 UNL     1      86.620   1.019  26.097  1.00  0.00     0.159 C 
BRANCH  21  22
HETATM   22  O3  UNL     1      85.784   0.711  27.184  1.00  0.00    -0.392 OA
ATOM     23  H3  UNL     1      86.069   1.107  28.000  1.00  0.00     0.210 HD
ENDBRANCH  21  22
BRANCH  21  24
HETATM   24  C12 UNL     1      86.162   0.062  24.982  1.00  0.00     0.159 C 
HETATM   25 BR2  UNL     1      86.097  -1.758  25.616  1.00  0.00    -0.076 Br
HETATM   26 BR3  UNL     1      84.438   0.540  24.311  1.00  0.00    -0.076 Br
ENDBRANCH  21  24
ENDBRANCH  19  21
ENDBRANCH   6  19
TORSDOF 7
ENDMDL
