MODEL 1
REMARK VINA RESULT: -3.488399761      0.000      0.000
REMARK  9 active torsions:
REMARK  status: ('A' for Active; 'I' for Inactive)
REMARK    1  A    between atoms: C2_2  and  C3_3 
REMARK    2  A    between atoms: C4_4  and  N1_5 
REMARK    3  A    between atoms: N2_13  and  C12_14 
REMARK    4  A    between atoms: C12_14  and  C13_15 
REMARK    5  A    between atoms: C13_15  and  C14_16 
REMARK    6  A    between atoms: N3_23  and  C21_24 
REMARK    7  A    between atoms: C21_24  and  C22_25 
REMARK    8  A    between atoms: C21_24  and  C26_29 
REMARK    9  A    between atoms: C22_25  and  C23_26 
REMARK       I    between atoms: C26_29  and  N4_31 
ROOT
HETATM    1  C3  UNL     1     -22.936   4.550  -7.003  1.00  0.00     0.074 C 
HETATM    2  C4  UNL     1     -23.108   5.437  -8.025  1.00  0.00     0.129 C 
HETATM    3  N2  UNL     1     -21.911   5.957  -8.594  1.00  0.00    -0.359 N 
HETATM    4  C18 UNL     1     -20.740   6.232  -7.780  1.00  0.00     0.100 C 
HETATM    5  C19 UNL     1     -19.481   5.954  -8.581  1.00  0.00     0.034 C 
HETATM    6  C20 UNL     1     -20.678   5.337  -6.561  1.00  0.00     0.149 C 
HETATM    7  N3  UNL     1     -21.576   4.203  -6.650  1.00  0.00    -0.362 N 
ENDROOT
BRANCH   7   8
HETATM    8  C21 UNL     1     -21.164   2.854  -6.474  1.00  0.00     0.177 C 
BRANCH   8   9
HETATM    9  C22 UNL     1     -22.261   1.815  -6.508  1.00  0.00     0.038 C 
BRANCH   9  10
HETATM   10  C23 UNL     1     -22.107   0.804  -7.589  1.00  0.00    -0.020 C 
HETATM   11  C24 UNL     1     -22.232  -0.579  -6.946  1.00  0.00     0.009 C 
HETATM   12  C25 UNL     1     -23.266   0.979  -8.573  1.00  0.00     0.009 C 
ENDBRANCH   9  10
ENDBRANCH   8   9
BRANCH   8  13
HETATM   13  C26 UNL     1     -20.409   2.680  -5.204  1.00  0.00     0.246 C 
HETATM   14  O1  UNL     1     -19.989   3.617  -4.538  1.00  0.00    -0.271 OA
HETATM   15  N4  UNL     1     -20.160   1.341  -4.739  1.00  0.00    -0.302 N 
HETATM   16  C27 UNL     1     -19.163   0.662  -5.210  1.00  0.00     0.203 C 
ATOM     17  H4  UNL     1     -20.771   0.925  -4.037  1.00  0.00     0.171 HD
HETATM   18  N5  UNL     1     -18.276   1.184  -6.188  1.00  0.00    -0.066 NA
HETATM   19  N6  UNL     1     -18.931  -0.661  -4.742  1.00  0.00    -0.066 NA
ENDBRANCH   8  13
ENDBRANCH   7   8
BRANCH   1  20
HETATM   20  C2  UNL     1     -24.085   4.005  -6.384  1.00  0.00     0.023 C 
HETATM   21  C1  UNL     1     -25.001   4.489  -5.593  1.00  0.00     0.013 C 
ENDBRANCH   1  20
BRANCH   2  22
HETATM   22  N1  UNL     1     -24.430   5.814  -8.463  1.00  0.00    -0.365 N 
HETATM   23  C5  UNL     1     -25.067   7.004  -7.941  1.00  0.00     0.125 C 
HETATM   24  C6  UNL     1     -26.560   6.996  -7.859  1.00  0.00     0.029 C 
HETATM   25  C7  UNL     1     -27.224   6.330  -9.001  1.00  0.00    -0.037 A 
HETATM   26  C8  UNL     1     -26.646   4.939  -9.148  1.00  0.00     0.029 C 
HETATM   27  C10 UNL     1     -27.996   6.992 -10.043  1.00  0.00     0.010 A 
HETATM   28  C11 UNL     1     -28.742   6.322  -8.944  1.00  0.00     0.010 A 
HETATM   29  C9  UNL     1     -25.154   5.026  -9.434  1.00  0.00     0.125 C 
ENDBRANCH   2  22
BRANCH   3  30
HETATM   30  C12 UNL     1     -21.817   6.186  -9.989  1.00  0.00     0.129 C 
BRANCH  30  31
HETATM   31  C13 UNL     1     -22.742   7.109 -10.667  1.00  0.00     0.047 C 
BRANCH  31  32
HETATM   32  C14 UNL     1     -23.087   6.788 -12.059  1.00  0.00    -0.023 C 
HETATM   33  C15 UNL     1     -24.213   7.182 -12.601  1.00  0.00    -0.091 C 
HETATM   34  C16 UNL     1     -25.202   7.975 -11.840  1.00  0.00     0.042 C 
HETATM   35  C17 UNL     1     -24.532   6.836 -14.028  1.00  0.00     0.042 C 
ENDBRANCH  31  32
ENDBRANCH  30  31
ENDBRANCH   3  30
TORSDOF 9
ENDMDL
MODEL 2
REMARK VINA RESULT: -3.078002004      9.180     13.485
REMARK  9 active torsions:
REMARK  status: ('A' for Active; 'I' for Inactive)
REMARK    1  A    between atoms: C2_2  and  C3_3 
REMARK    2  A    between atoms: C4_4  and  N1_5 
REMARK    3  A    between atoms: N2_13  and  C12_14 
REMARK    4  A    between atoms: C12_14  and  C13_15 
REMARK    5  A    between atoms: C13_15  and  C14_16 
REMARK    6  A    between atoms: N3_23  and  C21_24 
REMARK    7  A    between atoms: C21_24  and  C22_25 
REMARK    8  A    between atoms: C21_24  and  C26_29 
REMARK    9  A    between atoms: C22_25  and  C23_26 
REMARK       I    between atoms: C26_29  and  N4_31 
ROOT
HETATM    1  C3  UNL     1     -27.966  12.282 -15.446  1.00  0.00     0.074 C 
HETATM    2  C4  UNL     1     -27.073  11.576 -16.200  1.00  0.00     0.129 C 
HETATM    3  N2  UNL     1     -26.901  12.035 -17.536  1.00  0.00    -0.359 N 
HETATM    4  C18 UNL     1     -28.012  12.567 -18.305  1.00  0.00     0.100 C 
HETATM    5  C19 UNL     1     -27.517  13.670 -19.225  1.00  0.00     0.034 C 
HETATM    6  C20 UNL     1     -29.065  13.192 -17.415  1.00  0.00     0.149 C 
HETATM    7  N3  UNL     1     -28.592  13.431 -16.067  1.00  0.00    -0.362 N 
ENDROOT
BRANCH   7   8
HETATM    8  C21 UNL     1     -28.667  14.690 -15.414  1.00  0.00     0.177 C 
BRANCH   8   9
HETATM    9  C22 UNL     1     -27.396  15.175 -14.756  1.00  0.00     0.038 C 
BRANCH   9  10
HETATM   10  C23 UNL     1     -26.496  15.940 -15.661  1.00  0.00    -0.020 C 
HETATM   11  C24 UNL     1     -25.500  14.948 -16.266  1.00  0.00     0.009 C 
HETATM   12  C25 UNL     1     -27.343  16.519 -16.796  1.00  0.00     0.009 C 
ENDBRANCH   9  10
ENDBRANCH   8   9
BRANCH   8  13
HETATM   13  C26 UNL     1     -29.747  14.706 -14.391  1.00  0.00     0.246 C 
HETATM   14  O1  UNL     1     -30.866  15.155 -14.601  1.00  0.00    -0.271 OA
HETATM   15  N4  UNL     1     -29.457  14.165 -13.089  1.00  0.00    -0.302 N 
HETATM   16  C27 UNL     1     -28.858  14.891 -12.200  1.00  0.00     0.203 C 
ATOM     17  H4  UNL     1     -29.725  13.207 -12.865  1.00  0.00     0.171 HD
HETATM   18  N5  UNL     1     -28.460  16.232 -12.448  1.00  0.00    -0.066 NA
HETATM   19  N6  UNL     1     -28.577  14.342 -10.918  1.00  0.00    -0.066 NA
ENDBRANCH   8  13
ENDBRANCH   7   8
BRANCH   1  20
HETATM   20  C2  UNL     1     -28.193  11.872 -14.113  1.00  0.00     0.023 C 
HETATM   21  C1  UNL     1     -29.229  11.401 -13.476  1.00  0.00     0.013 C 
ENDBRANCH   1  20
BRANCH   2  22
HETATM   22  N1  UNL     1     -26.379  10.437 -15.649  1.00  0.00    -0.365 N 
HETATM   23  C5  UNL     1     -25.534  10.584 -14.483  1.00  0.00     0.125 C 
HETATM   24  C6  UNL     1     -24.372   9.650 -14.365  1.00  0.00     0.029 C 
HETATM   25  C7  UNL     1     -24.659   8.269 -14.813  1.00  0.00    -0.037 A 
HETATM   26  C8  UNL     1     -25.212   8.327 -16.219  1.00  0.00     0.029 C 
HETATM   27  C10 UNL     1     -24.773   7.100 -13.952  1.00  0.00     0.010 A 
HETATM   28  C11 UNL     1     -23.495   7.300 -14.687  1.00  0.00     0.010 A 
HETATM   29  C9  UNL     1     -26.509   9.123 -16.234  1.00  0.00     0.125 C 
ENDBRANCH   2  22
BRANCH   3  30
HETATM   30  C12 UNL     1     -25.622  12.016 -18.145  1.00  0.00     0.129 C 
BRANCH  30  31
HETATM   31  C13 UNL     1     -25.128  10.811 -18.831  1.00  0.00     0.047 C 
BRANCH  31  32
HETATM   32  C14 UNL     1     -25.089  10.861 -20.299  1.00  0.00    -0.023 C 
HETATM   33  C15 UNL     1     -26.152  10.629 -21.028  1.00  0.00    -0.091 C 
HETATM   34  C16 UNL     1     -27.457  10.306 -20.412  1.00  0.00     0.042 C 
HETATM   35  C17 UNL     1     -26.075  10.689 -22.527  1.00  0.00     0.042 C 
ENDBRANCH  31  32
ENDBRANCH  30  31
ENDBRANCH   3  30
TORSDOF 9
ENDMDL
MODEL 3
REMARK VINA RESULT: -2.084315700      7.868     13.123
REMARK  9 active torsions:
REMARK  status: ('A' for Active; 'I' for Inactive)
REMARK    1  A    between atoms: C2_2  and  C3_3 
REMARK    2  A    between atoms: C4_4  and  N1_5 
REMARK    3  A    between atoms: N2_13  and  C12_14 
REMARK    4  A    between atoms: C12_14  and  C13_15 
REMARK    5  A    between atoms: C13_15  and  C14_16 
REMARK    6  A    between atoms: N3_23  and  C21_24 
REMARK    7  A    between atoms: C21_24  and  C22_25 
REMARK    8  A    between atoms: C21_24  and  C26_29 
REMARK    9  A    between atoms: C22_25  and  C23_26 
REMARK       I    between atoms: C26_29  and  N4_31 
ROOT
HETATM    1  C3  UNL     1     -25.343  10.674 -16.573  1.00  0.00     0.074 C 
HETATM    2  C4  UNL     1     -25.450  10.952 -15.241  1.00  0.00     0.129 C 
HETATM    3  N2  UNL     1     -25.966  12.240 -14.922  1.00  0.00    -0.359 N 
HETATM    4  C18 UNL     1     -25.655  13.404 -15.732  1.00  0.00     0.100 C 
HETATM    5  C19 UNL     1     -26.847  14.346 -15.756  1.00  0.00     0.034 C 
HETATM    6  C20 UNL     1     -25.376  13.031 -17.172  1.00  0.00     0.149 C 
HETATM    7  N3  UNL     1     -25.807  11.687 -17.498  1.00  0.00    -0.362 N 
ENDROOT
BRANCH   7   8
HETATM    8  C21 UNL     1     -26.663  11.374 -18.588  1.00  0.00     0.177 C 
BRANCH   8   9
HETATM    9  C22 UNL     1     -26.407  12.130 -19.872  1.00  0.00     0.038 C 
BRANCH   9  10
HETATM   10  C23 UNL     1     -26.019  11.266 -21.019  1.00  0.00    -0.020 C 
HETATM   11  C24 UNL     1     -24.719  10.553 -20.640  1.00  0.00     0.009 C 
HETATM   12  C25 UNL     1     -27.107  10.207 -21.207  1.00  0.00     0.009 C 
ENDBRANCH   9  10
ENDBRANCH   8   9
BRANCH   8  13
HETATM   13  C26 UNL     1     -28.093  11.562 -18.225  1.00  0.00     0.246 C 
HETATM   14  O1  UNL     1     -28.957  10.723 -18.442  1.00  0.00    -0.271 OA
HETATM   15  N4  UNL     1     -28.476  12.793 -17.585  1.00  0.00    -0.302 N 
HETATM   16  C27 UNL     1     -28.709  13.851 -18.295  1.00  0.00     0.203 C 
ATOM     17  H4  UNL     1     -28.564  12.833 -16.570  1.00  0.00     0.171 HD
HETATM   18  N5  UNL     1     -28.605  13.861 -19.711  1.00  0.00    -0.066 NA
HETATM   19  N6  UNL     1     -29.086  15.061 -17.649  1.00  0.00    -0.066 NA
ENDBRANCH   8  13
ENDBRANCH   7   8
BRANCH   1  20
HETATM   20  C2  UNL     1     -24.826   9.417 -16.959  1.00  0.00     0.023 C 
HETATM   21  C1  UNL     1     -25.259   8.191 -16.858  1.00  0.00     0.013 C 
ENDBRANCH   1  20
BRANCH   2  22
HETATM   22  N1  UNL     1     -25.042   9.986 -14.249  1.00  0.00    -0.365 N 
HETATM   23  C5  UNL     1     -23.638   9.754 -13.983  1.00  0.00     0.125 C 
HETATM   24  C6  UNL     1     -23.251   8.384 -13.525  1.00  0.00     0.029 C 
HETATM   25  C7  UNL     1     -24.219   7.763 -12.594  1.00  0.00    -0.037 A 
HETATM   26  C8  UNL     1     -25.588   7.792 -13.236  1.00  0.00     0.029 C 
HETATM   27  C10 UNL     1     -24.003   7.525 -11.174  1.00  0.00     0.010 A 
HETATM   28  C11 UNL     1     -23.838   6.376 -12.105  1.00  0.00     0.010 A 
HETATM   29  C9  UNL     1     -26.011   9.231 -13.490  1.00  0.00     0.125 C 
ENDBRANCH   2  22
BRANCH   3  30
HETATM   30  C12 UNL     1     -26.834  12.414 -13.816  1.00  0.00     0.129 C 
BRANCH  30  31
HETATM   31  C13 UNL     1     -28.155  11.766 -13.783  1.00  0.00     0.047 C 
BRANCH  31  32
HETATM   32  C14 UNL     1     -29.244  12.458 -14.486  1.00  0.00    -0.023 C 
HETATM   33  C15 UNL     1     -29.840  13.507 -13.976  1.00  0.00    -0.091 C 
HETATM   34  C16 UNL     1     -29.448  14.056 -12.660  1.00  0.00     0.042 C 
HETATM   35  C17 UNL     1     -30.951  14.190 -14.724  1.00  0.00     0.042 C 
ENDBRANCH  31  32
ENDBRANCH  30  31
ENDBRANCH   3  30
TORSDOF 9
ENDMDL
MODEL 4
REMARK VINA RESULT: -2.021289178      9.070     13.683
REMARK  9 active torsions:
REMARK  status: ('A' for Active; 'I' for Inactive)
REMARK    1  A    between atoms: C2_2  and  C3_3 
REMARK    2  A    between atoms: C4_4  and  N1_5 
REMARK    3  A    between atoms: N2_13  and  C12_14 
REMARK    4  A    between atoms: C12_14  and  C13_15 
REMARK    5  A    between atoms: C13_15  and  C14_16 
REMARK    6  A    between atoms: N3_23  and  C21_24 
REMARK    7  A    between atoms: C21_24  and  C22_25 
REMARK    8  A    between atoms: C21_24  and  C26_29 
REMARK    9  A    between atoms: C22_25  and  C23_26 
REMARK       I    between atoms: C26_29  and  N4_31 
ROOT
HETATM    1  C3  UNL     1     -27.776  12.529 -15.295  1.00  0.00     0.074 C 
HETATM    2  C4  UNL     1     -26.969  11.765 -16.088  1.00  0.00     0.129 C 
HETATM    3  N2  UNL     1     -26.878  12.176 -17.447  1.00  0.00    -0.359 N 
HETATM    4  C18 UNL     1     -28.021  12.733 -18.150  1.00  0.00     0.100 C 
HETATM    5  C19 UNL     1     -27.552  13.786 -19.139  1.00  0.00     0.034 C 
HETATM    6  C20 UNL     1     -28.979  13.427 -17.207  1.00  0.00     0.149 C 
HETATM    7  N3  UNL     1     -28.399  13.685 -15.905  1.00  0.00    -0.362 N 
ENDROOT
BRANCH   7   8
HETATM    8  C21 UNL     1     -28.375  14.965 -15.290  1.00  0.00     0.177 C 
BRANCH   8   9
HETATM    9  C22 UNL     1     -27.043  15.411 -14.732  1.00  0.00     0.038 C 
BRANCH   9  10
HETATM   10  C23 UNL     1     -26.133  16.015 -15.742  1.00  0.00    -0.020 C 
HETATM   11  C24 UNL     1     -25.241  14.897 -16.286  1.00  0.00     0.009 C 
HETATM   12  C25 UNL     1     -26.987  16.548 -16.894  1.00  0.00     0.009 C 
ENDBRANCH   9  10
ENDBRANCH   8   9
BRANCH   8  13
HETATM   13  C26 UNL     1     -29.382  15.060 -14.199  1.00  0.00     0.246 C 
HETATM   14  O1  UNL     1     -29.087  15.240 -13.024  1.00  0.00    -0.271 OA
HETATM   15  N4  UNL     1     -30.774  14.934 -14.545  1.00  0.00    -0.302 N 
HETATM   16  C27 UNL     1     -31.307  13.762 -14.684  1.00  0.00     0.203 C 
ATOM     17  H4  UNL     1     -31.342  15.770 -14.681  1.00  0.00     0.171 HD
HETATM   18  N5  UNL     1     -30.571  12.560 -14.507  1.00  0.00    -0.066 NA
HETATM   19  N6  UNL     1     -32.683  13.653 -15.028  1.00  0.00    -0.066 NA
ENDBRANCH   8  13
ENDBRANCH   7   8
BRANCH   1  20
HETATM   20  C2  UNL     1     -27.920  12.169 -13.936  1.00  0.00     0.023 C 
HETATM   21  C1  UNL     1     -27.531  12.704 -12.812  1.00  0.00     0.013 C 
ENDBRANCH   1  20
BRANCH   2  22
HETATM   22  N1  UNL     1     -26.283  10.614 -15.553  1.00  0.00    -0.365 N 
HETATM   23  C5  UNL     1     -25.389  10.751 -14.423  1.00  0.00     0.125 C 
HETATM   24  C6  UNL     1     -24.247   9.789 -14.340  1.00  0.00     0.029 C 
HETATM   25  C7  UNL     1     -24.586   8.411 -14.761  1.00  0.00    -0.037 A 
HETATM   26  C8  UNL     1     -25.194   8.469 -16.145  1.00  0.00     0.029 C 
HETATM   27  C10 UNL     1     -24.695   7.254 -13.883  1.00  0.00     0.010 A 
HETATM   28  C11 UNL     1     -23.443   7.414 -14.671  1.00  0.00     0.010 A 
HETATM   29  C9  UNL     1     -26.469   9.298 -16.117  1.00  0.00     0.125 C 
ENDBRANCH   2  22
BRANCH   3  30
HETATM   30  C12 UNL     1     -25.650  12.086 -18.146  1.00  0.00     0.129 C 
BRANCH  30  31
HETATM   31  C13 UNL     1     -25.228  10.823 -18.775  1.00  0.00     0.047 C 
BRANCH  31  32
HETATM   32  C14 UNL     1     -25.298  10.764 -20.241  1.00  0.00    -0.023 C 
HETATM   33  C15 UNL     1     -26.424  10.542 -20.871  1.00  0.00    -0.091 C 
HETATM   34  C16 UNL     1     -27.693  10.341 -20.140  1.00  0.00     0.042 C 
HETATM   35  C17 UNL     1     -26.458  10.489 -22.373  1.00  0.00     0.042 C 
ENDBRANCH  31  32
ENDBRANCH  30  31
ENDBRANCH   3  30
TORSDOF 9
ENDMDL
MODEL 5
REMARK VINA RESULT: -2.012384886      8.262     13.504
REMARK  9 active torsions:
REMARK  status: ('A' for Active; 'I' for Inactive)
REMARK    1  A    between atoms: C2_2  and  C3_3 
REMARK    2  A    between atoms: C4_4  and  N1_5 
REMARK    3  A    between atoms: N2_13  and  C12_14 
REMARK    4  A    between atoms: C12_14  and  C13_15 
REMARK    5  A    between atoms: C13_15  and  C14_16 
REMARK    6  A    between atoms: N3_23  and  C21_24 
REMARK    7  A    between atoms: C21_24  and  C22_25 
REMARK    8  A    between atoms: C21_24  and  C26_29 
REMARK    9  A    between atoms: C22_25  and  C23_26 
REMARK       I    between atoms: C26_29  and  N4_31 
ROOT
HETATM    1  C3  UNL     1     -25.944  11.128 -16.494  1.00  0.00     0.074 C 
HETATM    2  C4  UNL     1     -25.835  11.300 -15.145  1.00  0.00     0.129 C 
HETATM    3  N2  UNL     1     -26.166  12.598 -14.663  1.00  0.00    -0.359 N 
HETATM    4  C18 UNL     1     -25.853  13.794 -15.427  1.00  0.00     0.100 C 
HETATM    5  C19 UNL     1     -26.934  14.839 -15.208  1.00  0.00     0.034 C 
HETATM    6  C20 UNL     1     -25.818  13.519 -16.915  1.00  0.00     0.149 C 
HETATM    7  N3  UNL     1     -26.427  12.253 -17.267  1.00  0.00    -0.362 N 
ENDROOT
BRANCH   7   8
HETATM    8  C21 UNL     1     -27.454  12.113 -18.239  1.00  0.00     0.177 C 
BRANCH   8   9
HETATM    9  C22 UNL     1     -27.394  10.870 -19.096  1.00  0.00     0.038 C 
BRANCH   9  10
HETATM   10  C23 UNL     1     -26.834  11.095 -20.455  1.00  0.00    -0.020 C 
HETATM   11  C24 UNL     1     -25.348  10.732 -20.407  1.00  0.00     0.009 C 
HETATM   12  C25 UNL     1     -27.529  10.133 -21.422  1.00  0.00     0.009 C 
ENDBRANCH   9  10
ENDBRANCH   8   9
BRANCH   8  13
HETATM   13  C26 UNL     1     -27.506  13.292 -19.145  1.00  0.00     0.246 C 
HETATM   14  O1  UNL     1     -26.510  13.806 -19.637  1.00  0.00    -0.271 OA
HETATM   15  N4  UNL     1     -28.794  13.853 -19.458  1.00  0.00    -0.302 N 
HETATM   16  C27 UNL     1     -29.357  14.687 -18.643  1.00  0.00     0.203 C 
ATOM     17  H4  UNL     1     -29.265  13.593 -20.324  1.00  0.00     0.171 HD
HETATM   18  N5  UNL     1     -28.753  15.091 -17.422  1.00  0.00    -0.066 NA
HETATM   19  N6  UNL     1     -30.630  15.232 -18.965  1.00  0.00    -0.066 NA
ENDBRANCH   8  13
ENDBRANCH   7   8
BRANCH   1  20
HETATM   20  C2  UNL     1     -25.618   9.865 -17.040  1.00  0.00     0.023 C 
HETATM   21  C1  UNL     1     -24.498   9.226 -17.235  1.00  0.00     0.013 C 
ENDBRANCH   1  20
BRANCH   2  22
HETATM   22  N1  UNL     1     -25.393  10.221 -14.295  1.00  0.00    -0.365 N 
HETATM   23  C5  UNL     1     -24.083  10.257 -13.681  1.00  0.00     0.125 C 
HETATM   24  C6  UNL     1     -23.419   8.943 -13.418  1.00  0.00     0.029 C 
HETATM   25  C7  UNL     1     -24.343   7.882 -12.959  1.00  0.00    -0.037 A 
HETATM   26  C8  UNL     1     -25.475   7.768 -13.955  1.00  0.00     0.029 C 
HETATM   27  C10 UNL     1     -24.393   7.318 -11.617  1.00  0.00     0.010 A 
HETATM   28  C11 UNL     1     -23.687   6.542 -12.672  1.00  0.00     0.010 A 
HETATM   29  C9  UNL     1     -26.239   9.082 -14.025  1.00  0.00     0.125 C 
ENDBRANCH   2  22
BRANCH   3  30
HETATM   30  C12 UNL     1     -26.848  12.757 -13.432  1.00  0.00     0.129 C 
BRANCH  30  31
HETATM   31  C13 UNL     1     -28.149  12.109 -13.199  1.00  0.00     0.047 C 
BRANCH  31  32
HETATM   32  C14 UNL     1     -29.241  12.483 -14.108  1.00  0.00    -0.023 C 
HETATM   33  C15 UNL     1     -29.880  13.620 -13.991  1.00  0.00    -0.091 C 
HETATM   34  C16 UNL     1     -29.535  14.596 -12.934  1.00  0.00     0.042 C 
HETATM   35  C17 UNL     1     -30.993  13.970 -14.939  1.00  0.00     0.042 C 
ENDBRANCH  31  32
ENDBRANCH  30  31
ENDBRANCH   3  30
TORSDOF 9
ENDMDL
