MODEL 1
REMARK VINA RESULT: -5.031349610      0.000      0.000
REMARK  9 active torsions:
REMARK  status: ('A' for Active; 'I' for Inactive)
REMARK    1  A    between atoms: C8_8  and  O1_9 
REMARK    2  A    between atoms: O1_9  and  C9_10 
REMARK    3  A    between atoms: C9_10  and  C10_11 
REMARK    4  A    between atoms: C10_11  and  C11_12 
REMARK    5  A    between atoms: C11_12  and  C12_13 
REMARK    6  A    between atoms: C12_13  and  C13_14 
REMARK    7  A    between atoms: C13_14  and  C14_15 
REMARK    8  A    between atoms: C14_15  and  C15_16 
REMARK    9  A    between atoms: C15_16  and  O2_18 
ROOT
HETATM    1  O1  UNL     1      38.352  71.198 106.517  1.00  0.00    -0.385 OA
ENDROOT
BRANCH   1   2
HETATM    2  C8  UNL     1      39.655  70.779 106.530  1.00  0.00     0.126 C 
HETATM    3  C7  UNL     1      40.594  71.889 106.007  1.00  0.00     0.033 C 
HETATM    4  C6  UNL     1      41.790  71.143 105.454  1.00  0.00     0.016 C 
HETATM    5  C4  UNL     1      41.467  69.672 105.573  1.00  0.00    -0.020 C 
HETATM    6  C3  UNL     1      41.873  68.906 104.366  1.00  0.00    -0.015 C 
HETATM    7  C5  UNL     1      41.987  69.087 106.834  1.00  0.00     0.020 C 
HETATM    8  C17 UNL     1      39.942  69.722 105.507  1.00  0.00     0.027 C 
HETATM    9  C2  UNL     1      41.112  67.879 103.999  1.00  0.00    -0.087 C 
HETATM   10  C1  UNL     1      41.491  67.071 102.772  1.00  0.00     0.043 C 
HETATM   11  C19 UNL     1      39.887  67.431 104.702  1.00  0.00     0.034 C 
HETATM   12  C18 UNL     1      39.390  68.380 105.761  1.00  0.00     0.012 C 
ENDBRANCH   1   2
BRANCH   1  13
HETATM   13  C9  UNL     1      37.962  71.772 105.342  1.00  0.00     0.168 C 
BRANCH  13  14
HETATM   14  C10 UNL     1      36.578  71.387 104.870  1.00  0.00     0.026 C 
BRANCH  14  15
HETATM   15  C11 UNL     1      36.753  70.530 103.643  1.00  0.00     0.002 C 
BRANCH  15  16
HETATM   16  C12 UNL     1      35.749  69.388 103.577  1.00  0.00     0.000 C 
BRANCH  16  17
HETATM   17  C13 UNL     1      36.418  68.051 103.567  1.00  0.00     0.006 C 
BRANCH  17  18
HETATM   18  C14 UNL     1      35.969  67.107 102.520  1.00  0.00     0.073 C 
BRANCH  18  19
HETATM   19  C15 UNL     1      37.032  66.741 101.549  1.00  0.00     0.199 C 
HETATM   20  C16 UNL     1      37.236  65.207 101.614  1.00  0.00     0.084 C 
HETATM   21  F1  UNL     1      38.216  67.363 101.758  1.00  0.00    -0.212 F 
BRANCH  19  22
HETATM   22  O2  UNL     1      36.632  66.950 100.214  1.00  0.00    -0.362 OA
ATOM     23  H2  UNL     1      37.368  67.133  99.641  1.00  0.00     0.213 HD
ENDBRANCH  19  22
ENDBRANCH  18  19
ENDBRANCH  17  18
ENDBRANCH  16  17
ENDBRANCH  15  16
ENDBRANCH  14  15
ENDBRANCH  13  14
ENDBRANCH   1  13
TORSDOF 9
ENDMDL
MODEL 2
REMARK VINA RESULT: -4.931369819      2.496      4.565
REMARK  9 active torsions:
REMARK  status: ('A' for Active; 'I' for Inactive)
REMARK    1  A    between atoms: C8_8  and  O1_9 
REMARK    2  A    between atoms: O1_9  and  C9_10 
REMARK    3  A    between atoms: C9_10  and  C10_11 
REMARK    4  A    between atoms: C10_11  and  C11_12 
REMARK    5  A    between atoms: C11_12  and  C12_13 
REMARK    6  A    between atoms: C12_13  and  C13_14 
REMARK    7  A    between atoms: C13_14  and  C14_15 
REMARK    8  A    between atoms: C14_15  and  C15_16 
REMARK    9  A    between atoms: C15_16  and  O2_18 
ROOT
HETATM    1  O1  UNL     1      38.225  67.669 104.827  1.00  0.00    -0.385 OA
ENDROOT
BRANCH   1   2
HETATM    2  C8  UNL     1      38.183  69.016 105.071  1.00  0.00     0.126 C 
HETATM    3  C7  UNL     1      38.322  69.305 106.583  1.00  0.00     0.033 C 
HETATM    4  C6  UNL     1      37.620  70.632 106.779  1.00  0.00     0.016 C 
HETATM    5  C4  UNL     1      37.025  71.002 105.440  1.00  0.00    -0.020 C 
HETATM    6  C3  UNL     1      35.653  71.556 105.566  1.00  0.00    -0.015 C 
HETATM    7  C5  UNL     1      37.932  71.871 104.648  1.00  0.00     0.020 C 
HETATM    8  C17 UNL     1      36.829  69.614 104.836  1.00  0.00     0.027 C 
HETATM    9  C2  UNL     1      34.783  71.285 104.597  1.00  0.00    -0.087 C 
HETATM   10  C1  UNL     1      33.370  71.831 104.689  1.00  0.00     0.043 C 
HETATM   11  C19 UNL     1      35.074  70.472 103.394  1.00  0.00     0.034 C 
HETATM   12  C18 UNL     1      36.389  69.739 103.435  1.00  0.00     0.012 C 
ENDBRANCH   1   2
BRANCH   1  13
HETATM   13  C9  UNL     1      37.557  66.915 105.747  1.00  0.00     0.168 C 
BRANCH  13  14
HETATM   14  C10 UNL     1      36.618  65.882 105.167  1.00  0.00     0.026 C 
BRANCH  14  15
HETATM   15  C11 UNL     1      35.219  66.420 105.324  1.00  0.00     0.002 C 
BRANCH  15  16
HETATM   16  C12 UNL     1      34.491  66.556 103.993  1.00  0.00     0.000 C 
BRANCH  16  17
HETATM   17  C13 UNL     1      34.888  65.491 103.023  1.00  0.00     0.006 C 
BRANCH  17  18
HETATM   18  C14 UNL     1      35.014  65.911 101.610  1.00  0.00     0.073 C 
BRANCH  18  19
HETATM   19  C15 UNL     1      36.414  66.155 101.181  1.00  0.00     0.199 C 
HETATM   20  C16 UNL     1      37.103  64.781 100.981  1.00  0.00     0.084 C 
HETATM   21  F1  UNL     1      37.142  66.902 102.045  1.00  0.00    -0.212 F 
BRANCH  19  22
HETATM   22  O2  UNL     1      36.488  66.733  99.898  1.00  0.00    -0.362 OA
ATOM     23  H2  UNL     1      37.303  66.526  99.455  1.00  0.00     0.213 HD
ENDBRANCH  19  22
ENDBRANCH  18  19
ENDBRANCH  17  18
ENDBRANCH  16  17
ENDBRANCH  15  16
ENDBRANCH  14  15
ENDBRANCH  13  14
ENDBRANCH   1  13
TORSDOF 9
ENDMDL
MODEL 3
REMARK VINA RESULT: -4.922584378      2.030      3.941
REMARK  9 active torsions:
REMARK  status: ('A' for Active; 'I' for Inactive)
REMARK    1  A    between atoms: C8_8  and  O1_9 
REMARK    2  A    between atoms: O1_9  and  C9_10 
REMARK    3  A    between atoms: C9_10  and  C10_11 
REMARK    4  A    between atoms: C10_11  and  C11_12 
REMARK    5  A    between atoms: C11_12  and  C12_13 
REMARK    6  A    between atoms: C12_13  and  C13_14 
REMARK    7  A    between atoms: C13_14  and  C14_15 
REMARK    8  A    between atoms: C14_15  and  C15_16 
REMARK    9  A    between atoms: C15_16  and  O2_18 
ROOT
HETATM    1  O1  UNL     1      36.984  67.860 104.530  1.00  0.00    -0.385 OA
ENDROOT
BRANCH   1   2
HETATM    2  C8  UNL     1      36.945  69.177 104.903  1.00  0.00     0.126 C 
HETATM    3  C7  UNL     1      36.476  70.066 103.729  1.00  0.00     0.033 C 
HETATM    4  C6  UNL     1      37.091  71.420 104.011  1.00  0.00     0.016 C 
HETATM    5  C4  UNL     1      37.955  71.248 105.238  1.00  0.00    -0.020 C 
HETATM    6  C3  UNL     1      39.256  71.955 105.116  1.00  0.00    -0.015 C 
HETATM    7  C5  UNL     1      37.226  71.587 106.486  1.00  0.00     0.020 C 
HETATM    8  C17 UNL     1      38.306  69.767 105.120  1.00  0.00     0.027 C 
HETATM    9  C2  UNL     1      40.321  71.397 105.685  1.00  0.00    -0.087 C 
HETATM   10  C1  UNL     1      41.669  72.086 105.581  1.00  0.00     0.043 C 
HETATM   11  C19 UNL     1      40.315  70.121 106.437  1.00  0.00     0.034 C 
HETATM   12  C18 UNL     1      39.037  69.331 106.322  1.00  0.00     0.012 C 
ENDBRANCH   1   2
BRANCH   1  13
HETATM   13  C9  UNL     1      35.791  67.209 104.653  1.00  0.00     0.168 C 
BRANCH  13  14
HETATM   14  C10 UNL     1      35.890  65.703 104.743  1.00  0.00     0.026 C 
BRANCH  14  15
HETATM   15  C11 UNL     1      34.883  65.136 103.777  1.00  0.00     0.002 C 
BRANCH  15  16
HETATM   16  C12 UNL     1      34.660  66.034 102.568  1.00  0.00     0.000 C 
BRANCH  16  17
HETATM   17  C13 UNL     1      35.212  65.434 101.314  1.00  0.00     0.006 C 
BRANCH  17  18
HETATM   18  C14 UNL     1      36.205  66.252 100.584  1.00  0.00     0.073 C 
BRANCH  18  19
HETATM   19  C15 UNL     1      37.563  66.222 101.185  1.00  0.00     0.199 C 
HETATM   20  C16 UNL     1      38.599  66.184 100.033  1.00  0.00     0.084 C 
HETATM   21  F1  UNL     1      37.780  65.180 102.022  1.00  0.00    -0.212 F 
BRANCH  19  22
HETATM   22  O2  UNL     1      37.879  67.422 101.853  1.00  0.00    -0.362 OA
ATOM     23  H2  UNL     1      38.793  67.661 101.751  1.00  0.00     0.213 HD
ENDBRANCH  19  22
ENDBRANCH  18  19
ENDBRANCH  17  18
ENDBRANCH  16  17
ENDBRANCH  15  16
ENDBRANCH  14  15
ENDBRANCH  13  14
ENDBRANCH   1  13
TORSDOF 9
ENDMDL
MODEL 4
REMARK VINA RESULT: -4.913980264      3.424      6.417
REMARK  9 active torsions:
REMARK  status: ('A' for Active; 'I' for Inactive)
REMARK    1  A    between atoms: C8_8  and  O1_9 
REMARK    2  A    between atoms: O1_9  and  C9_10 
REMARK    3  A    between atoms: C9_10  and  C10_11 
REMARK    4  A    between atoms: C10_11  and  C11_12 
REMARK    5  A    between atoms: C11_12  and  C12_13 
REMARK    6  A    between atoms: C12_13  and  C13_14 
REMARK    7  A    between atoms: C13_14  and  C14_15 
REMARK    8  A    between atoms: C14_15  and  C15_16 
REMARK    9  A    between atoms: C15_16  and  O2_18 
ROOT
HETATM    1  O1  UNL     1      34.613  70.224 103.956  1.00  0.00    -0.385 OA
ENDROOT
BRANCH   1   2
HETATM    2  C8  UNL     1      33.349  69.862 104.340  1.00  0.00     0.126 C 
HETATM    3  C7  UNL     1      32.787  70.854 105.383  1.00  0.00     0.033 C 
HETATM    4  C6  UNL     1      31.785  70.041 106.175  1.00  0.00     0.016 C 
HETATM    5  C4  UNL     1      31.876  68.626 105.653  1.00  0.00    -0.020 C 
HETATM    6  C3  UNL     1      31.835  67.618 106.744  1.00  0.00    -0.015 C 
HETATM    7  C5  UNL     1      30.882  68.362 104.582  1.00  0.00     0.020 C 
HETATM    8  C17 UNL     1      33.321  68.609 105.162  1.00  0.00     0.027 C 
HETATM    9  C2  UNL     1      32.554  66.509 106.590  1.00  0.00    -0.087 C 
HETATM   10  C1  UNL     1      32.541  65.456 107.682  1.00  0.00     0.043 C 
HETATM   11  C19 UNL     1      33.394  66.194 105.412  1.00  0.00     0.034 C 
HETATM   12  C18 UNL     1      33.592  67.343 104.458  1.00  0.00     0.012 C 
ENDBRANCH   1   2
BRANCH   1  13
HETATM   13  C9  UNL     1      35.322  70.881 104.919  1.00  0.00     0.168 C 
BRANCH  13  14
HETATM   14  C10 UNL     1      36.725  70.367 105.144  1.00  0.00     0.026 C 
BRANCH  14  15
HETATM   15  C11 UNL     1      37.008  69.366 104.054  1.00  0.00     0.002 C 
BRANCH  15  16
HETATM   16  C12 UNL     1      37.333  67.982 104.598  1.00  0.00     0.000 C 
BRANCH  16  17
HETATM   17  C13 UNL     1      37.132  66.913 103.572  1.00  0.00     0.006 C 
BRANCH  17  18
HETATM   18  C14 UNL     1      36.447  67.326 102.328  1.00  0.00     0.073 C 
BRANCH  18  19
HETATM   19  C15 UNL     1      36.357  66.250 101.309  1.00  0.00     0.199 C 
HETATM   20  C16 UNL     1      34.920  65.670 101.345  1.00  0.00     0.084 C 
HETATM   21  F1  UNL     1      37.252  65.247 101.475  1.00  0.00    -0.212 F 
BRANCH  19  22
HETATM   22  O2  UNL     1      36.463  66.747  99.994  1.00  0.00    -0.362 OA
ATOM     23  H2  UNL     1      36.280  66.081  99.341  1.00  0.00     0.213 HD
ENDBRANCH  19  22
ENDBRANCH  18  19
ENDBRANCH  17  18
ENDBRANCH  16  17
ENDBRANCH  15  16
ENDBRANCH  14  15
ENDBRANCH  13  14
ENDBRANCH   1  13
TORSDOF 9
ENDMDL
MODEL 5
REMARK VINA RESULT: -4.894234603      1.901      3.719
REMARK  9 active torsions:
REMARK  status: ('A' for Active; 'I' for Inactive)
REMARK    1  A    between atoms: C8_8  and  O1_9 
REMARK    2  A    between atoms: O1_9  and  C9_10 
REMARK    3  A    between atoms: C9_10  and  C10_11 
REMARK    4  A    between atoms: C10_11  and  C11_12 
REMARK    5  A    between atoms: C11_12  and  C12_13 
REMARK    6  A    between atoms: C12_13  and  C13_14 
REMARK    7  A    between atoms: C13_14  and  C14_15 
REMARK    8  A    between atoms: C14_15  and  C15_16 
REMARK    9  A    between atoms: C15_16  and  O2_18 
ROOT
HETATM    1  O1  UNL     1      35.997  69.651 103.949  1.00  0.00    -0.385 OA
ENDROOT
BRANCH   1   2
HETATM    2  C8  UNL     1      36.376  70.326 105.079  1.00  0.00     0.126 C 
HETATM    3  C7  UNL     1      35.785  71.754 105.090  1.00  0.00     0.033 C 
HETATM    4  C6  UNL     1      36.750  72.555 105.938  1.00  0.00     0.016 C 
HETATM    5  C4  UNL     1      37.886  71.623 106.288  1.00  0.00    -0.020 C 
HETATM    6  C3  UNL     1      39.212  72.285 106.186  1.00  0.00    -0.015 C 
HETATM    7  C5  UNL     1      37.672  70.949 107.594  1.00  0.00     0.020 C 
HETATM    8  C17 UNL     1      37.835  70.670 105.096  1.00  0.00     0.027 C 
HETATM    9  C2  UNL     1      40.242  71.549 105.779  1.00  0.00    -0.087 C 
HETATM   10  C1  UNL     1      41.614  72.188 105.660  1.00  0.00     0.043 C 
HETATM   11  C19 UNL     1      40.176  70.114 105.419  1.00  0.00     0.034 C 
HETATM   12  C18 UNL     1      38.780  69.560 105.305  1.00  0.00     0.012 C 
ENDBRANCH   1   2
BRANCH   1  13
HETATM   13  C9  UNL     1      34.856  68.917 104.094  1.00  0.00     0.168 C 
BRANCH  13  14
HETATM   14  C10 UNL     1      35.017  67.630 104.870  1.00  0.00     0.026 C 
BRANCH  14  15
HETATM   15  C11 UNL     1      34.170  66.591 104.183  1.00  0.00     0.002 C 
BRANCH  15  16
HETATM   16  C12 UNL     1      34.911  65.279 103.966  1.00  0.00     0.000 C 
BRANCH  16  17
HETATM   17  C13 UNL     1      34.855  64.830 102.541  1.00  0.00     0.006 C 
BRANCH  17  18
HETATM   18  C14 UNL     1      34.998  65.890 101.519  1.00  0.00     0.073 C 
BRANCH  18  19
HETATM   19  C15 UNL     1      36.407  66.270 101.246  1.00  0.00     0.199 C 
HETATM   20  C16 UNL     1      37.246  64.971 101.144  1.00  0.00     0.084 C 
HETATM   21  F1  UNL     1      36.955  67.088 102.176  1.00  0.00    -0.212 F 
BRANCH  19  22
HETATM   22  O2  UNL     1      36.568  66.850  99.971  1.00  0.00    -0.362 OA
ATOM     23  H2  UNL     1      36.486  67.797  99.992  1.00  0.00     0.213 HD
ENDBRANCH  19  22
ENDBRANCH  18  19
ENDBRANCH  17  18
ENDBRANCH  16  17
ENDBRANCH  15  16
ENDBRANCH  14  15
ENDBRANCH  13  14
ENDBRANCH   1  13
TORSDOF 9
ENDMDL
