MODEL 1
REMARK VINA RESULT: -7.327971446      0.000      0.000
REMARK  8 active torsions:
REMARK  status: ('A' for Active; 'I' for Inactive)
REMARK    1  A    between atoms: C2_2  and  C3_3 
REMARK       I    between atoms: C3_3  and  N1_5 
REMARK    2  A    between atoms: N1_5  and  C4_7 
REMARK    3  A    between atoms: C4_7  and  C5_8 
REMARK    4  A    between atoms: C5_8  and  C6_9 
REMARK    5  A    between atoms: C6_9  and  C7_10 
REMARK    6  A    between atoms: C7_10  and  O2_11 
REMARK    7  A    between atoms: C19_24  and  O3_25 
REMARK    8  A    between atoms: C26_33  and  O4_34 
ROOT
HETATM    1  C1  UNL     1      -4.178 -10.980  -6.294  1.00  0.00     0.026 C 
HETATM    2  C2  UNL     1      -5.291 -10.571  -7.275  1.00  0.00     0.044 C 
HETATM    3  C8  UNL     1      -4.543  -9.852  -8.380  1.00  0.00     0.019 C 
HETATM    4  C9  UNL     1      -4.036  -8.508  -7.950  1.00  0.00     0.002 C 
HETATM    5  C10 UNL     1      -5.254  -7.683  -7.684  1.00  0.00     0.010 C 
HETATM    6  C11 UNL     1      -6.031  -8.269  -6.572  1.00  0.00    -0.033 C 
HETATM    7  C12 UNL     1      -5.178  -8.000  -5.314  1.00  0.00     0.016 C 
HETATM    8  C13 UNL     1      -7.264  -7.488  -6.355  1.00  0.00    -0.001 C 
HETATM    9  C14 UNL     1      -7.215  -6.007  -6.523  1.00  0.00     0.012 C 
HETATM   10  C15 UNL     1      -8.705  -5.784  -6.518  1.00  0.00     0.005 C 
HETATM   11  C16 UNL     1      -9.224  -4.434  -6.503  1.00  0.00    -0.017 C 
HETATM   12  C17 UNL     1      -8.842  -3.804  -5.151  1.00  0.00     0.018 C 
HETATM   13  C18 UNL     1      -8.719  -3.493  -7.549  1.00  0.00     0.018 C 
HETATM   14  C19 UNL     1     -10.752  -4.546  -6.549  1.00  0.00     0.126 C 
HETATM   15  C20 UNL     1     -11.222  -5.963  -6.453  1.00  0.00     0.033 C 
HETATM   16  C21 UNL     1     -10.611  -6.927  -7.403  1.00  0.00     0.012 C 
HETATM   17  C22 UNL     1      -9.160  -6.696  -7.627  1.00  0.00    -0.035 C 
HETATM   18  C23 UNL     1      -8.975  -6.124  -9.005  1.00  0.00     0.016 C 
HETATM   19  C24 UNL     1      -8.253  -7.854  -7.478  1.00  0.00     0.001 C 
HETATM   20  C25 UNL     1      -8.805  -9.130  -7.015  1.00  0.00     0.038 C 
HETATM   21  C26 UNL     1      -7.685 -10.148  -7.086  1.00  0.00     0.124 C 
HETATM   22  C27 UNL     1      -6.347  -9.727  -6.628  1.00  0.00     0.040 C 
ENDROOT
BRANCH   2  23
HETATM   23  C3  UNL     1      -5.768 -11.833  -7.881  1.00  0.00     0.226 C 
HETATM   24  O1  UNL     1      -5.796 -12.920  -7.203  1.00  0.00    -0.273 OA
HETATM   25  N1  UNL     1      -6.221 -11.944  -9.222  1.00  0.00    -0.360 N 
ATOM     26  H1  UNL     1      -6.221 -11.110  -9.808  1.00  0.00     0.162 HD
BRANCH  25  27
HETATM   27  C4  UNL     1      -6.686 -13.203  -9.798  1.00  0.00     0.122 C 
BRANCH  27  28
HETATM   28  C5  UNL     1      -8.108 -13.469  -9.489  1.00  0.00     0.022 C 
BRANCH  28  29
HETATM   29  C6  UNL     1      -8.313 -14.782  -8.811  1.00  0.00     0.028 C 
BRANCH  29  30
HETATM   30  C7  UNL     1      -8.866 -14.733  -7.420  1.00  0.00     0.164 C 
BRANCH  30  31
HETATM   31  O2  UNL     1      -8.050 -14.234  -6.452  1.00  0.00    -0.401 OA
ATOM     32  H2  UNL     1      -8.038 -14.695  -5.622  1.00  0.00     0.209 HD
ENDBRANCH  30  31
ENDBRANCH  29  30
ENDBRANCH  28  29
ENDBRANCH  27  28
ENDBRANCH  25  27
ENDBRANCH   2  23
BRANCH  21  33
HETATM   33  O4  UNL     1      -8.187 -11.203  -6.267  1.00  0.00    -0.395 OA
ATOM     34  H4  UNL     1      -8.607 -11.768  -6.904  1.00  0.00     0.210 HD
ENDBRANCH  21  33
BRANCH  14  35
HETATM   35  O3  UNL     1     -11.281  -3.853  -7.638  1.00  0.00    -0.395 OA
ATOM     36  H3  UNL     1     -11.619  -4.449  -8.298  1.00  0.00     0.210 HD
ENDBRANCH  14  35
TORSDOF 8
ENDMDL
MODEL 2
REMARK VINA RESULT: -6.989545272      1.235      1.480
REMARK  8 active torsions:
REMARK  status: ('A' for Active; 'I' for Inactive)
REMARK    1  A    between atoms: C2_2  and  C3_3 
REMARK       I    between atoms: C3_3  and  N1_5 
REMARK    2  A    between atoms: N1_5  and  C4_7 
REMARK    3  A    between atoms: C4_7  and  C5_8 
REMARK    4  A    between atoms: C5_8  and  C6_9 
REMARK    5  A    between atoms: C6_9  and  C7_10 
REMARK    6  A    between atoms: C7_10  and  O2_11 
REMARK    7  A    between atoms: C19_24  and  O3_25 
REMARK    8  A    between atoms: C26_33  and  O4_34 
ROOT
HETATM    1  C1  UNL     1      -4.178 -11.010  -6.332  1.00  0.00     0.026 C 
HETATM    2  C2  UNL     1      -5.289 -10.596  -7.314  1.00  0.00     0.044 C 
HETATM    3  C8  UNL     1      -4.537  -9.889  -8.423  1.00  0.00     0.019 C 
HETATM    4  C9  UNL     1      -4.019  -8.547  -8.000  1.00  0.00     0.002 C 
HETATM    5  C10 UNL     1      -5.230  -7.711  -7.737  1.00  0.00     0.010 C 
HETATM    6  C11 UNL     1      -6.010  -8.285  -6.621  1.00  0.00    -0.033 C 
HETATM    7  C12 UNL     1      -5.153  -8.018  -5.365  1.00  0.00     0.016 C 
HETATM    8  C13 UNL     1      -7.236  -7.494  -6.405  1.00  0.00    -0.001 C 
HETATM    9  C14 UNL     1      -7.176  -6.014  -6.581  1.00  0.00     0.012 C 
HETATM   10  C15 UNL     1      -8.664  -5.780  -6.574  1.00  0.00     0.005 C 
HETATM   11  C16 UNL     1      -9.172  -4.425  -6.565  1.00  0.00    -0.017 C 
HETATM   12  C17 UNL     1      -8.783  -3.792  -5.216  1.00  0.00     0.018 C 
HETATM   13  C18 UNL     1      -8.661  -3.493  -7.616  1.00  0.00     0.018 C 
HETATM   14  C19 UNL     1     -10.701  -4.525  -6.608  1.00  0.00     0.126 C 
HETATM   15  C20 UNL     1     -11.182  -5.938  -6.504  1.00  0.00     0.033 C 
HETATM   16  C21 UNL     1     -10.580  -6.911  -7.450  1.00  0.00     0.012 C 
HETATM   17  C22 UNL     1      -9.128  -6.693  -7.677  1.00  0.00    -0.035 C 
HETATM   18  C23 UNL     1      -8.940  -6.129  -9.058  1.00  0.00     0.016 C 
HETATM   19  C24 UNL     1      -8.229  -7.857  -7.525  1.00  0.00     0.001 C 
HETATM   20  C25 UNL     1      -8.791  -9.127  -7.055  1.00  0.00     0.038 C 
HETATM   21  C26 UNL     1      -7.680 -10.154  -7.122  1.00  0.00     0.124 C 
HETATM   22  C27 UNL     1      -6.338  -9.741  -6.669  1.00  0.00     0.040 C 
ENDROOT
BRANCH   2  23
HETATM   23  C3  UNL     1      -5.777 -11.857  -7.913  1.00  0.00     0.226 C 
HETATM   24  O1  UNL     1      -5.862 -12.929  -7.215  1.00  0.00    -0.273 OA
HETATM   25  N1  UNL     1      -6.179 -11.985  -9.269  1.00  0.00    -0.360 N 
ATOM     26  H1  UNL     1      -6.133 -11.163  -9.871  1.00  0.00     0.162 HD
BRANCH  25  27
HETATM   27  C4  UNL     1      -6.657 -13.242  -9.837  1.00  0.00     0.122 C 
BRANCH  27  28
HETATM   28  C5  UNL     1      -8.124 -13.392  -9.714  1.00  0.00     0.022 C 
BRANCH  28  29
HETATM   29  C6  UNL     1      -8.873 -12.350 -10.473  1.00  0.00     0.028 C 
BRANCH  29  30
HETATM   30  C7  UNL     1      -9.581 -12.808 -11.711  1.00  0.00     0.164 C 
BRANCH  30  31
HETATM   31  O2  UNL     1      -8.882 -13.617 -12.554  1.00  0.00    -0.401 OA
ATOM     32  H2  UNL     1      -9.389 -14.191 -13.115  1.00  0.00     0.209 HD
ENDBRANCH  30  31
ENDBRANCH  29  30
ENDBRANCH  28  29
ENDBRANCH  27  28
ENDBRANCH  25  27
ENDBRANCH   2  23
BRANCH  21  33
HETATM   33  O4  UNL     1      -8.188 -11.201  -6.298  1.00  0.00    -0.395 OA
ATOM     34  H4  UNL     1      -8.357 -10.747  -5.480  1.00  0.00     0.210 HD
ENDBRANCH  21  33
BRANCH  14  35
HETATM   35  O3  UNL     1     -11.226  -3.833  -7.699  1.00  0.00    -0.395 OA
ATOM     36  H3  UNL     1     -12.061  -3.432  -7.486  1.00  0.00     0.210 HD
ENDBRANCH  14  35
TORSDOF 8
ENDMDL
MODEL 3
REMARK VINA RESULT: -6.490179805      2.477      4.444
REMARK  8 active torsions:
REMARK  status: ('A' for Active; 'I' for Inactive)
REMARK    1  A    between atoms: C2_2  and  C3_3 
REMARK       I    between atoms: C3_3  and  N1_5 
REMARK    2  A    between atoms: N1_5  and  C4_7 
REMARK    3  A    between atoms: C4_7  and  C5_8 
REMARK    4  A    between atoms: C5_8  and  C6_9 
REMARK    5  A    between atoms: C6_9  and  C7_10 
REMARK    6  A    between atoms: C7_10  and  O2_11 
REMARK    7  A    between atoms: C19_24  and  O3_25 
REMARK    8  A    between atoms: C26_33  and  O4_34 
ROOT
HETATM    1  C1  UNL     1      -9.452  -9.284 -11.416  1.00  0.00     0.026 C 
HETATM    2  C2  UNL     1      -9.075  -9.632  -9.965  1.00  0.00     0.044 C 
HETATM    3  C8  UNL     1     -10.313  -9.255  -9.177  1.00  0.00     0.019 C 
HETATM    4  C9  UNL     1     -10.497  -7.770  -9.074  1.00  0.00     0.002 C 
HETATM    5  C10 UNL     1      -9.340  -7.273  -8.269  1.00  0.00     0.010 C 
HETATM    6  C11 UNL     1      -8.074  -7.540  -8.983  1.00  0.00    -0.033 C 
HETATM    7  C12 UNL     1      -8.082  -6.560 -10.176  1.00  0.00     0.016 C 
HETATM    8  C13 UNL     1      -6.931  -7.106  -8.158  1.00  0.00    -0.001 C 
HETATM    9  C14 UNL     1      -7.068  -5.871  -7.332  1.00  0.00     0.012 C 
HETATM   10  C15 UNL     1      -5.828  -6.081  -6.503  1.00  0.00     0.005 C 
HETATM   11  C16 UNL     1      -5.392  -5.039  -5.599  1.00  0.00    -0.017 C 
HETATM   12  C17 UNL     1      -4.958  -3.834  -6.452  1.00  0.00     0.018 C 
HETATM   13  C18 UNL     1      -6.396  -4.510  -4.625  1.00  0.00     0.018 C 
HETATM   14  C19 UNL     1      -4.148  -5.571  -4.878  1.00  0.00     0.126 C 
HETATM   15  C20 UNL     1      -3.700  -6.894  -5.415  1.00  0.00     0.033 C 
HETATM   16  C21 UNL     1      -4.735  -7.956  -5.499  1.00  0.00     0.012 C 
HETATM   17  C22 UNL     1      -6.065  -7.452  -5.928  1.00  0.00    -0.035 C 
HETATM   18  C23 UNL     1      -6.988  -7.467  -4.741  1.00  0.00     0.016 C 
HETATM   19  C24 UNL     1      -6.734  -8.153  -7.045  1.00  0.00     0.001 C 
HETATM   20  C25 UNL     1      -6.014  -9.226  -7.738  1.00  0.00     0.038 C 
HETATM   21  C26 UNL     1      -6.981  -9.837  -8.731  1.00  0.00     0.124 C 
HETATM   22  C27 UNL     1      -7.839  -8.919  -9.506  1.00  0.00     0.040 C 
ENDROOT
BRANCH   2  23
HETATM   23  C3  UNL     1      -9.014 -11.109  -9.915  1.00  0.00     0.226 C 
HETATM   24  O1  UNL     1      -9.106 -11.735  -8.800  1.00  0.00    -0.273 OA
HETATM   25  N1  UNL     1      -8.853 -11.933 -11.060  1.00  0.00    -0.360 N 
ATOM     26  H1  UNL     1      -8.775 -11.488 -11.974  1.00  0.00     0.162 HD
BRANCH  25  27
HETATM   27  C4  UNL     1      -8.795 -13.390 -10.985  1.00  0.00     0.122 C 
BRANCH  27  28
HETATM   28  C5  UNL     1      -7.414 -13.888 -10.806  1.00  0.00     0.022 C 
BRANCH  28  29
HETATM   29  C6  UNL     1      -7.215 -14.571  -9.495  1.00  0.00     0.028 C 
BRANCH  29  30
HETATM   30  C7  UNL     1      -6.404 -13.833  -8.476  1.00  0.00     0.164 C 
BRANCH  30  31
HETATM   31  O2  UNL     1      -7.004 -13.576  -7.282  1.00  0.00    -0.401 OA
ATOM     32  H2  UNL     1      -6.872 -12.712  -6.913  1.00  0.00     0.209 HD
ENDBRANCH  30  31
ENDBRANCH  29  30
ENDBRANCH  28  29
ENDBRANCH  27  28
ENDBRANCH  25  27
ENDBRANCH   2  23
BRANCH  21  33
HETATM   33  O4  UNL     1      -6.107 -10.557  -9.598  1.00  0.00    -0.395 OA
ATOM     34  H4  UNL     1      -5.993 -11.377  -9.131  1.00  0.00     0.210 HD
ENDBRANCH  21  33
BRANCH  14  35
HETATM   35  O3  UNL     1      -4.316  -5.557  -3.493  1.00  0.00    -0.395 OA
ATOM     36  H3  UNL     1      -3.484  -5.635  -3.042  1.00  0.00     0.210 HD
ENDBRANCH  14  35
TORSDOF 8
ENDMDL
MODEL 4
REMARK VINA RESULT: -6.398771741      2.653      7.544
REMARK  8 active torsions:
REMARK  status: ('A' for Active; 'I' for Inactive)
REMARK    1  A    between atoms: C2_2  and  C3_3 
REMARK       I    between atoms: C3_3  and  N1_5 
REMARK    2  A    between atoms: N1_5  and  C4_7 
REMARK    3  A    between atoms: C4_7  and  C5_8 
REMARK    4  A    between atoms: C5_8  and  C6_9 
REMARK    5  A    between atoms: C6_9  and  C7_10 
REMARK    6  A    between atoms: C7_10  and  O2_11 
REMARK    7  A    between atoms: C19_24  and  O3_25 
REMARK    8  A    between atoms: C26_33  and  O4_34 
ROOT
HETATM    1  C1  UNL     1      -7.995  -5.635  -7.554  1.00  0.00     0.026 C 
HETATM    2  C2  UNL     1      -7.144  -6.871  -7.212  1.00  0.00     0.044 C 
HETATM    3  C8  UNL     1      -5.962  -6.761  -8.155  1.00  0.00     0.019 C 
HETATM    4  C9  UNL     1      -6.334  -7.057  -9.577  1.00  0.00     0.002 C 
HETATM    5  C10 UNL     1      -6.734  -8.497  -9.599  1.00  0.00     0.010 C 
HETATM    6  C11 UNL     1      -7.926  -8.705  -8.750  1.00  0.00    -0.033 C 
HETATM    7  C12 UNL     1      -9.081  -8.037  -9.526  1.00  0.00     0.016 C 
HETATM    8  C13 UNL     1      -8.279 -10.137  -8.723  1.00  0.00    -0.001 C 
HETATM    9  C14 UNL     1      -8.107 -10.943  -9.967  1.00  0.00     0.012 C 
HETATM   10  C15 UNL     1      -8.278 -12.293  -9.321  1.00  0.00     0.005 C 
HETATM   11  C16 UNL     1      -8.351 -13.475 -10.152  1.00  0.00    -0.017 C 
HETATM   12  C17 UNL     1      -9.653 -13.389 -10.970  1.00  0.00     0.018 C 
HETATM   13  C18 UNL     1      -7.256 -13.685 -11.147  1.00  0.00     0.018 C 
HETATM   14  C19 UNL     1      -8.476 -14.674  -9.205  1.00  0.00     0.126 C 
HETATM   15  C20 UNL     1      -8.624 -14.259  -7.775  1.00  0.00     0.033 C 
HETATM   16  C21 UNL     1      -7.612 -13.303  -7.258  1.00  0.00     0.012 C 
HETATM   17  C22 UNL     1      -7.227 -12.259  -8.243  1.00  0.00    -0.035 C 
HETATM   18  C23 UNL     1      -5.838 -12.555  -8.735  1.00  0.00     0.016 C 
HETATM   19  C24 UNL     1      -7.273 -10.850  -7.799  1.00  0.00     0.001 C 
HETATM   20  C25 UNL     1      -7.794 -10.547  -6.464  1.00  0.00     0.038 C 
HETATM   21  C26 UNL     1      -7.599  -9.061  -6.240  1.00  0.00     0.124 C 
HETATM   22  C27 UNL     1      -7.905  -8.153  -7.363  1.00  0.00     0.040 C 
ENDROOT
BRANCH   2  23
HETATM   23  C3  UNL     1      -6.594  -6.612  -5.863  1.00  0.00     0.226 C 
HETATM   24  O1  UNL     1      -7.362  -6.283  -4.891  1.00  0.00    -0.273 OA
HETATM   25  N1  UNL     1      -5.215  -6.703  -5.541  1.00  0.00    -0.360 N 
ATOM     26  H1  UNL     1      -4.558  -6.962  -6.277  1.00  0.00     0.162 HD
BRANCH  25  27
HETATM   27  C4  UNL     1      -4.696  -6.442  -4.201  1.00  0.00     0.122 C 
BRANCH  27  28
HETATM   28  C5  UNL     1      -4.084  -5.100  -4.088  1.00  0.00     0.022 C 
BRANCH  28  29
HETATM   29  C6  UNL     1      -3.380  -4.682  -5.334  1.00  0.00     0.028 C 
BRANCH  29  30
HETATM   30  C7  UNL     1      -3.944  -3.495  -6.051  1.00  0.00     0.164 C 
BRANCH  30  31
HETATM   31  O2  UNL     1      -5.274  -3.526  -6.339  1.00  0.00    -0.401 OA
ATOM     32  H2  UNL     1      -5.748  -2.707  -6.263  1.00  0.00     0.209 HD
ENDBRANCH  30  31
ENDBRANCH  29  30
ENDBRANCH  28  29
ENDBRANCH  27  28
ENDBRANCH  25  27
ENDBRANCH   2  23
BRANCH  21  33
HETATM   33  O4  UNL     1      -8.469  -8.807  -5.138  1.00  0.00    -0.395 OA
ATOM     34  H4  UNL     1      -8.592  -7.866  -5.194  1.00  0.00     0.210 HD
ENDBRANCH  21  33
BRANCH  14  35
HETATM   35  O3  UNL     1      -7.453 -15.599  -9.416  1.00  0.00    -0.395 OA
ATOM     36  H3  UNL     1      -7.335 -16.164  -8.661  1.00  0.00     0.210 HD
ENDBRANCH  14  35
TORSDOF 8
ENDMDL
MODEL 5
REMARK VINA RESULT: -6.354366096      2.420      7.289
REMARK  8 active torsions:
REMARK  status: ('A' for Active; 'I' for Inactive)
REMARK    1  A    between atoms: C2_2  and  C3_3 
REMARK       I    between atoms: C3_3  and  N1_5 
REMARK    2  A    between atoms: N1_5  and  C4_7 
REMARK    3  A    between atoms: C4_7  and  C5_8 
REMARK    4  A    between atoms: C5_8  and  C6_9 
REMARK    5  A    between atoms: C6_9  and  C7_10 
REMARK    6  A    between atoms: C7_10  and  O2_11 
REMARK    7  A    between atoms: C19_24  and  O3_25 
REMARK    8  A    between atoms: C26_33  and  O4_34 
ROOT
HETATM    1  C1  UNL     1      -9.668  -5.320  -7.991  1.00  0.00     0.026 C 
HETATM    2  C2  UNL     1      -8.533  -6.281  -7.596  1.00  0.00     0.044 C 
HETATM    3  C8  UNL     1      -7.438  -5.969  -8.596  1.00  0.00     0.019 C 
HETATM    4  C9  UNL     1      -7.761  -6.464  -9.974  1.00  0.00     0.002 C 
HETATM    5  C10 UNL     1      -7.798  -7.954  -9.870  1.00  0.00     0.010 C 
HETATM    6  C11 UNL     1      -8.882  -8.372  -8.955  1.00  0.00    -0.033 C 
HETATM    7  C12 UNL     1     -10.184  -8.070  -9.727  1.00  0.00     0.016 C 
HETATM    8  C13 UNL     1      -8.875  -9.840  -8.805  1.00  0.00    -0.001 C 
HETATM    9  C14 UNL     1      -8.542 -10.681  -9.991  1.00  0.00     0.012 C 
HETATM   10  C15 UNL     1      -8.363 -11.974  -9.239  1.00  0.00     0.005 C 
HETATM   11  C16 UNL     1      -8.166 -13.204  -9.975  1.00  0.00    -0.017 C 
HETATM   12  C17 UNL     1      -9.469 -13.503 -10.739  1.00  0.00     0.018 C 
HETATM   13  C18 UNL     1      -7.078 -13.226 -11.000  1.00  0.00     0.018 C 
HETATM   14  C19 UNL     1      -7.971 -14.314  -8.936  1.00  0.00     0.126 C 
HETATM   15  C20 UNL     1      -8.180 -13.828  -7.536  1.00  0.00     0.033 C 
HETATM   16  C21 UNL     1      -7.419 -12.617  -7.138  1.00  0.00     0.012 C 
HETATM   17  C22 UNL     1      -7.325 -11.597  -8.215  1.00  0.00    -0.035 C 
HETATM   18  C23 UNL     1      -5.918 -11.589  -8.745  1.00  0.00     0.016 C 
HETATM   19  C24 UNL     1      -7.702 -10.209  -7.877  1.00  0.00     0.001 C 
HETATM   20  C25 UNL     1      -8.248  -9.929  -6.545  1.00  0.00     0.038 C 
HETATM   21  C26 UNL     1      -8.416  -8.427  -6.443  1.00  0.00     0.124 C 
HETATM   22  C27 UNL     1      -8.962  -7.717  -7.616  1.00  0.00     0.040 C 
ENDROOT
BRANCH   2  23
HETATM   23  C3  UNL     1      -8.029  -5.785  -6.297  1.00  0.00     0.226 C 
HETATM   24  O1  UNL     1      -8.826  -5.592  -5.311  1.00  0.00    -0.273 OA
HETATM   25  N1  UNL     1      -6.665  -5.492  -6.037  1.00  0.00    -0.360 N 
ATOM     26  H1  UNL     1      -5.985  -5.628  -6.786  1.00  0.00     0.162 HD
BRANCH  25  27
HETATM   27  C4  UNL     1      -6.192  -5.003  -4.745  1.00  0.00     0.122 C 
BRANCH  27  28
HETATM   28  C5  UNL     1      -4.766  -5.319  -4.513  1.00  0.00     0.022 C 
BRANCH  28  29
HETATM   29  C6  UNL     1      -4.469  -6.773  -4.651  1.00  0.00     0.028 C 
BRANCH  29  30
HETATM   30  C7  UNL     1      -3.598  -7.168  -5.803  1.00  0.00     0.164 C 
BRANCH  30  31
HETATM   31  O2  UNL     1      -3.165  -8.458  -5.832  1.00  0.00    -0.401 OA
ATOM     32  H2  UNL     1      -3.306  -8.975  -5.048  1.00  0.00     0.209 HD
ENDBRANCH  30  31
ENDBRANCH  29  30
ENDBRANCH  28  29
ENDBRANCH  27  28
ENDBRANCH  25  27
ENDBRANCH   2  23
BRANCH  21  33
HETATM   33  O4  UNL     1      -9.293  -8.299  -5.326  1.00  0.00    -0.395 OA
ATOM     34  H4  UNL     1      -9.854  -9.060  -5.423  1.00  0.00     0.210 HD
ENDBRANCH  21  33
BRANCH  14  35
HETATM   35  O3  UNL     1      -6.759 -14.980  -9.123  1.00  0.00    -0.395 OA
ATOM     36  H3  UNL     1      -6.233 -14.971  -8.331  1.00  0.00     0.210 HD
ENDBRANCH  14  35
TORSDOF 8
ENDMDL
