MODEL 1
REMARK VINA RESULT: -4.172856666      0.000      0.000
REMARK  0 active torsions:
REMARK  status: ('A' for Active; 'I' for Inactive)
ROOT
HETATM    1  C1  UNL     1      86.498 -10.857  47.231  1.00  0.00     0.140 C 
HETATM    2  N1  UNL     1      87.696 -11.022  46.467  1.00  0.00    -0.149 NA
HETATM    3  N2  UNL     1      88.936 -11.107  47.024  1.00  0.00    -0.067 NA
HETATM    4  C2  UNL     1      88.586  -9.864  46.507  1.00  0.00     0.411 A 
HETATM    5  F1  UNL     1      88.305  -8.869  47.449  1.00  0.00    -0.167 F 
HETATM    6  F2  UNL     1      88.943  -9.433  45.246  1.00  0.00    -0.167 F 
ENDROOT
TORSDOF 0
ENDMDL
MODEL 2
REMARK VINA RESULT: -3.891209104      3.049      3.606
REMARK  0 active torsions:
REMARK  status: ('A' for Active; 'I' for Inactive)
ROOT
HETATM    1  C1  UNL     1      85.362 -13.311  45.589  1.00  0.00     0.140 C 
HETATM    2  N1  UNL     1      86.038 -12.158  46.096  1.00  0.00    -0.149 NA
HETATM    3  N2  UNL     1      87.246 -12.211  46.722  1.00  0.00    -0.067 NA
HETATM    4  C2  UNL     1      86.135 -12.122  47.552  1.00  0.00     0.411 A 
HETATM    5  F1  UNL     1      85.798 -13.288  48.248  1.00  0.00    -0.167 F 
HETATM    6  F2  UNL     1      85.668 -10.936  48.081  1.00  0.00    -0.167 F 
ENDROOT
TORSDOF 0
ENDMDL
MODEL 3
REMARK VINA RESULT: -3.858313578      2.464      3.173
REMARK  0 active torsions:
REMARK  status: ('A' for Active; 'I' for Inactive)
ROOT
HETATM    1  C1  UNL     1      88.431 -10.726  47.132  1.00  0.00     0.140 C 
HETATM    2  N1  UNL     1      87.535 -11.785  46.785  1.00  0.00    -0.149 NA
HETATM    3  N2  UNL     1      86.363 -11.590  46.119  1.00  0.00    -0.067 NA
HETATM    4  C2  UNL     1      86.261 -11.740  47.497  1.00  0.00     0.411 A 
HETATM    5  F1  UNL     1      85.969 -10.577  48.217  1.00  0.00    -0.167 F 
HETATM    6  F2  UNL     1      85.962 -12.937  48.117  1.00  0.00    -0.167 F 
ENDROOT
TORSDOF 0
ENDMDL
MODEL 4
REMARK VINA RESULT: -3.830849232      5.120      5.579
REMARK  0 active torsions:
REMARK  status: ('A' for Active; 'I' for Inactive)
ROOT
HETATM    1  C1  UNL     1      84.746 -12.410  42.991  1.00  0.00     0.140 C 
HETATM    2  N1  UNL     1      85.732 -13.058  43.797  1.00  0.00    -0.149 NA
HETATM    3  N2  UNL     1      85.977 -14.397  43.753  1.00  0.00    -0.067 NA
HETATM    4  C2  UNL     1      85.174 -13.960  44.802  1.00  0.00     0.411 A 
HETATM    5  F1  UNL     1      83.815 -14.273  44.701  1.00  0.00    -0.167 F 
HETATM    6  F2  UNL     1      85.651 -13.694  46.070  1.00  0.00    -0.167 F 
ENDROOT
TORSDOF 0
ENDMDL
MODEL 5
REMARK VINA RESULT: -3.771410744      5.759      6.155
REMARK  0 active torsions:
REMARK  status: ('A' for Active; 'I' for Inactive)
ROOT
HETATM    1  C1  UNL     1      84.507 -12.743  44.959  1.00  0.00     0.140 C 
HETATM    2  N1  UNL     1      85.578 -13.624  44.610  1.00  0.00    -0.149 NA
HETATM    3  N2  UNL     1      85.957 -13.871  43.325  1.00  0.00    -0.067 NA
HETATM    4  C2  UNL     1      85.145 -14.833  43.915  1.00  0.00     0.411 A 
HETATM    5  F1  UNL     1      83.822 -14.875  43.461  1.00  0.00    -0.167 F 
HETATM    6  F2  UNL     1      85.627 -15.982  44.509  1.00  0.00    -0.167 F 
ENDROOT
TORSDOF 0
ENDMDL
