MODEL 1
REMARK VINA RESULT: -3.977982209      0.000      0.000
REMARK  0 active torsions:
REMARK  status: ('A' for Active; 'I' for Inactive)
ROOT
HETATM    1  N1  UNL     1      89.663  -5.464  43.906  1.00  0.00    -0.066 NA
HETATM    2  C1  UNL     1      90.632  -4.455  43.681  1.00  0.00     0.248 C 
HETATM    3  F1  UNL     1      90.495  -3.210  44.215  1.00  0.00    -0.185 F 
HETATM    4  C2  UNL     1      91.670  -4.742  42.946  1.00  0.00     0.238 C 
HETATM    5  F2  UNL     1      91.824  -5.958  42.412  1.00  0.00    -0.188 F 
HETATM    6 CL1  UNL     1      92.888  -3.542  42.639  1.00  0.00    -0.047 Cl
ENDROOT
TORSDOF 0
ENDMDL
MODEL 2
REMARK VINA RESULT: -3.931113455      2.300      3.168
REMARK  0 active torsions:
REMARK  status: ('A' for Active; 'I' for Inactive)
ROOT
HETATM    1  N1  UNL     1      92.577  -3.704  42.690  1.00  0.00    -0.066 NA
HETATM    2  C1  UNL     1      91.654  -4.758  42.898  1.00  0.00     0.248 C 
HETATM    3  F1  UNL     1      91.879  -6.006  42.399  1.00  0.00    -0.185 F 
HETATM    4  C2  UNL     1      90.572  -4.513  43.584  1.00  0.00     0.238 C 
HETATM    5  F2  UNL     1      90.331  -3.296  44.082  1.00  0.00    -0.188 F 
HETATM    6 CL1  UNL     1      89.408  -5.771  43.868  1.00  0.00    -0.047 Cl
ENDROOT
TORSDOF 0
ENDMDL
MODEL 3
REMARK VINA RESULT: -3.878093199     12.212     12.456
REMARK  0 active torsions:
REMARK  status: ('A' for Active; 'I' for Inactive)
ROOT
HETATM    1  N1  UNL     1      86.012 -14.045  43.390  1.00  0.00    -0.066 NA
HETATM    2  C1  UNL     1      84.836 -14.288  44.143  1.00  0.00     0.248 C 
HETATM    3  F1  UNL     1      84.738 -13.906  45.446  1.00  0.00    -0.185 F 
HETATM    4  C2  UNL     1      83.836 -14.890  43.560  1.00  0.00     0.238 C 
HETATM    5  F2  UNL     1      83.911 -15.273  42.281  1.00  0.00    -0.188 F 
HETATM    6 CL1  UNL     1      82.371 -15.211  44.437  1.00  0.00    -0.047 Cl
ENDROOT
TORSDOF 0
ENDMDL
MODEL 4
REMARK VINA RESULT: -3.871998728      7.900      8.070
REMARK  0 active torsions:
REMARK  status: ('A' for Active; 'I' for Inactive)
ROOT
HETATM    1  N1  UNL     1      89.173 -11.113  46.821  1.00  0.00    -0.066 NA
HETATM    2  C1  UNL     1      88.201 -10.082  46.839  1.00  0.00     0.248 C 
HETATM    3  F1  UNL     1      88.490  -8.828  46.394  1.00  0.00    -0.185 F 
HETATM    4  C2  UNL     1      87.010 -10.358  47.294  1.00  0.00     0.238 C 
HETATM    5  F2  UNL     1      86.705 -11.582  47.735  1.00  0.00    -0.188 F 
HETATM    6 CL1  UNL     1      85.780  -9.131  47.337  1.00  0.00    -0.047 Cl
ENDROOT
TORSDOF 0
ENDMDL
MODEL 5
REMARK VINA RESULT: -3.842588521     12.135     12.441
REMARK  0 active torsions:
REMARK  status: ('A' for Active; 'I' for Inactive)
ROOT
HETATM    1  N1  UNL     1      85.935 -13.908  43.092  1.00  0.00    -0.066 NA
HETATM    2  C1  UNL     1      84.614 -14.420  43.152  1.00  0.00     0.248 C 
HETATM    3  F1  UNL     1      84.014 -14.961  42.056  1.00  0.00    -0.185 F 
HETATM    4  C2  UNL     1      83.976 -14.365  44.288  1.00  0.00     0.238 C 
HETATM    5  F2  UNL     1      84.547 -13.838  45.376  1.00  0.00    -0.188 F 
HETATM    6 CL1  UNL     1      82.356 -14.979  44.416  1.00  0.00    -0.047 Cl
ENDROOT
TORSDOF 0
ENDMDL
