MODEL 1
REMARK VINA RESULT: -6.360061597      0.000      0.000
REMARK  7 active torsions:
REMARK  status: ('A' for Active; 'I' for Inactive)
REMARK    1  A    between atoms: N1_1  and  C1_5 
REMARK    2  A    between atoms: N2_7  and  C3_8 
REMARK    3  A    between atoms: C3_8  and  C4_9 
REMARK    4  A    between atoms: C11_17  and  C12_18 
REMARK    5  A    between atoms: C12_18  and  C13_19 
REMARK    6  A    between atoms: C13_19  and  O2_20 
REMARK    7  A    between atoms: C14_22  and  C15_23 
ROOT
HETATM    1  C4  UNL     1      12.458  53.805  94.145  1.00  0.00     0.057 C 
HETATM    2  C5  UNL     1      13.364  52.751  94.676  1.00  0.00    -0.018 A 
HETATM    3  C6  UNL     1      14.023  52.958  95.883  1.00  0.00     0.018 A 
HETATM    4  C7  UNL     1      14.889  52.047  96.446  1.00  0.00    -0.043 A 
HETATM    5  C8  UNL     1      15.136  50.857  95.801  1.00  0.00     0.019 A 
HETATM    6  C9  UNL     1      14.484  50.639  94.596  1.00  0.00     0.053 A 
HETATM    7  C10 UNL     1      13.617  51.557  94.038  1.00  0.00     0.077 A 
HETATM    8  O1  UNL     1      12.965  51.317  92.815  1.00  0.00    -0.345 OA
HETATM    9  C11 UNL     1      11.763  52.072  92.629  1.00  0.00     0.136 C 
HETATM   10  C14 UNL     1      12.053  53.548  92.711  1.00  0.00     0.029 C 
HETATM   11  C21 UNL     1      16.078  50.075  96.591  1.00  0.00     0.160 C 
HETATM   12  O3  UNL     1      16.650  49.057  96.176  1.00  0.00    -0.292 OA
HETATM   13  C22 UNL     1      16.191  50.717  97.904  1.00  0.00     0.088 C 
HETATM   14  C23 UNL     1      15.679  52.107  97.731  1.00  0.00     0.047 C 
ENDROOT
BRANCH   1  15
HETATM   15  C3  UNL     1      11.224  53.933  94.989  1.00  0.00     0.285 C 
BRANCH  15  16
HETATM   16  N2  UNL     1      10.921  55.332  95.322  1.00  0.00     0.125 N 
HETATM   17  C1  UNL     1      12.000  56.094  95.944  1.00  0.00     0.445 A 
HETATM   18  C2  UNL     1      10.804  55.679  96.731  1.00  0.00     0.340 A 
BRANCH  17  19
HETATM   19  N1  UNL     1      12.071  57.514  95.585  1.00  0.00    -0.046 N 
ATOM     20  H13 UNL     1      11.141  57.930  95.630  1.00  0.00     0.277 HD
ATOM     21  H12 UNL     1      12.541  58.036  96.325  1.00  0.00     0.277 HD
ATOM     22  H11 UNL     1      12.502  57.727  94.685  1.00  0.00     0.277 HD
ENDBRANCH  17  19
ENDBRANCH  15  16
ENDBRANCH   1  15
BRANCH  10  23
HETATM   23  C15 UNL     1      13.157  53.893  91.750  1.00  0.00    -0.007 C 
HETATM   24  C16 UNL     1      12.635  54.374  90.423  1.00  0.00     0.005 C 
HETATM   25  C17 UNL     1      13.328  55.649  89.951  1.00  0.00     0.000 C 
HETATM   26  C18 UNL     1      14.792  55.371  89.839  1.00  0.00     0.000 C 
HETATM   27  C19 UNL     1      15.286  54.846  91.144  1.00  0.00     0.000 C 
HETATM   28  C20 UNL     1      14.193  54.839  92.232  1.00  0.00     0.005 C 
ENDBRANCH  10  23
BRANCH   9  29
HETATM   29  C12 UNL     1      10.909  51.595  91.517  1.00  0.00     0.059 C 
BRANCH  29  30
HETATM   30  C13 UNL     1      11.686  50.399  90.900  1.00  0.00     0.166 C 
BRANCH  30  31
HETATM   31  O2  UNL     1      12.668  50.853  90.053  1.00  0.00    -0.401 OA
ATOM     32  H2  UNL     1      13.254  50.143  89.815  1.00  0.00     0.209 HD
ENDBRANCH  30  31
ENDBRANCH  29  30
ENDBRANCH   9  29
TORSDOF 7
ENDMDL
MODEL 2
REMARK VINA RESULT: -6.214046440      2.377      5.722
REMARK  7 active torsions:
REMARK  status: ('A' for Active; 'I' for Inactive)
REMARK    1  A    between atoms: N1_1  and  C1_5 
REMARK    2  A    between atoms: N2_7  and  C3_8 
REMARK    3  A    between atoms: C3_8  and  C4_9 
REMARK    4  A    between atoms: C11_17  and  C12_18 
REMARK    5  A    between atoms: C12_18  and  C13_19 
REMARK    6  A    between atoms: C13_19  and  O2_20 
REMARK    7  A    between atoms: C14_22  and  C15_23 
ROOT
HETATM    1  C4  UNL     1      14.010  53.493  93.503  1.00  0.00     0.057 C 
HETATM    2  C5  UNL     1      12.898  54.235  94.156  1.00  0.00    -0.018 A 
HETATM    3  C6  UNL     1      13.137  55.498  94.688  1.00  0.00     0.018 A 
HETATM    4  C7  UNL     1      12.174  56.253  95.321  1.00  0.00    -0.043 A 
HETATM    5  C8  UNL     1      10.898  55.758  95.449  1.00  0.00     0.019 A 
HETATM    6  C9  UNL     1      10.647  54.499  94.923  1.00  0.00     0.053 A 
HETATM    7  C10 UNL     1      11.617  53.747  94.289  1.00  0.00     0.077 A 
HETATM    8  O1  UNL     1      11.344  52.473  93.761  1.00  0.00    -0.345 OA
HETATM    9  C11 UNL     1      12.244  52.057  92.728  1.00  0.00     0.136 C 
HETATM   10  C14 UNL     1      13.660  52.045  93.240  1.00  0.00     0.029 C 
HETATM   11  C21 UNL     1      10.076  56.736  96.149  1.00  0.00     0.160 C 
HETATM   12  O3  UNL     1       8.946  56.496  96.596  1.00  0.00    -0.292 OA
HETATM   13  C22 UNL     1      10.835  57.989  96.204  1.00  0.00     0.088 C 
HETATM   14  C23 UNL     1      12.257  57.624  95.948  1.00  0.00     0.047 C 
ENDROOT
BRANCH   1  15
HETATM   15  C3  UNL     1      14.411  54.144  92.213  1.00  0.00     0.285 C 
BRANCH  15  16
HETATM   16  N2  UNL     1      13.262  54.722  91.502  1.00  0.00     0.125 N 
HETATM   17  C1  UNL     1      13.044  54.249  90.138  1.00  0.00     0.445 A 
HETATM   18  C2  UNL     1      13.540  55.631  90.399  1.00  0.00     0.340 A 
BRANCH  17  19
HETATM   19  N1  UNL     1      11.644  54.138  89.714  1.00  0.00    -0.046 N 
ATOM     20  H13 UNL     1      11.052  54.706  90.321  1.00  0.00     0.277 HD
ATOM     21  H12 UNL     1      11.512  54.622  88.826  1.00  0.00     0.277 HD
ATOM     22  H11 UNL     1      11.270  53.192  89.651  1.00  0.00     0.277 HD
ENDBRANCH  17  19
ENDBRANCH  15  16
ENDBRANCH   1  15
BRANCH  10  23
HETATM   23  C15 UNL     1      13.730  51.218  94.494  1.00  0.00    -0.007 C 
HETATM   24  C16 UNL     1      14.327  49.857  94.253  1.00  0.00     0.005 C 
HETATM   25  C17 UNL     1      15.398  49.500  95.280  1.00  0.00     0.000 C 
HETATM   26  C18 UNL     1      14.774  49.536  96.637  1.00  0.00     0.000 C 
HETATM   27  C19 UNL     1      14.142  50.871  96.844  1.00  0.00     0.000 C 
HETATM   28  C20 UNL     1      14.396  51.836  95.667  1.00  0.00     0.005 C 
ENDBRANCH  10  23
BRANCH   9  29
HETATM   29  C12 UNL     1      11.779  50.884  91.950  1.00  0.00     0.059 C 
BRANCH  29  30
HETATM   30  C13 UNL     1      10.248  51.091  91.791  1.00  0.00     0.166 C 
BRANCH  30  31
HETATM   31  O2  UNL     1       9.982  52.348  91.304  1.00  0.00    -0.401 OA
ATOM     32  H2  UNL     1       9.334  52.305  90.611  1.00  0.00     0.209 HD
ENDBRANCH  30  31
ENDBRANCH  29  30
ENDBRANCH   9  29
TORSDOF 7
ENDMDL
MODEL 3
REMARK VINA RESULT: -6.139727614      8.678     12.579
REMARK  7 active torsions:
REMARK  status: ('A' for Active; 'I' for Inactive)
REMARK    1  A    between atoms: N1_1  and  C1_5 
REMARK    2  A    between atoms: N2_7  and  C3_8 
REMARK    3  A    between atoms: C3_8  and  C4_9 
REMARK    4  A    between atoms: C11_17  and  C12_18 
REMARK    5  A    between atoms: C12_18  and  C13_19 
REMARK    6  A    between atoms: C13_19  and  O2_20 
REMARK    7  A    between atoms: C14_22  and  C15_23 
ROOT
HETATM    1  C4  UNL     1      12.446  49.564  83.564  1.00  0.00     0.057 C 
HETATM    2  C5  UNL     1      11.236  50.073  82.862  1.00  0.00    -0.018 A 
HETATM    3  C6  UNL     1      10.448  49.192  82.129  1.00  0.00     0.018 A 
HETATM    4  C7  UNL     1       9.320  49.573  81.437  1.00  0.00    -0.043 A 
HETATM    5  C8  UNL     1       8.925  50.890  81.454  1.00  0.00     0.019 A 
HETATM    6  C9  UNL     1       9.703  51.779  82.182  1.00  0.00     0.053 A 
HETATM    7  C10 UNL     1      10.834  51.391  82.873  1.00  0.00     0.077 A 
HETATM    8  O1  UNL     1      11.609  52.306  83.607  1.00  0.00    -0.345 OA
HETATM    9  C11 UNL     1      12.398  51.713  84.643  1.00  0.00     0.136 C 
HETATM   10  C14 UNL     1      13.332  50.682  84.067  1.00  0.00     0.029 C 
HETATM   11  C21 UNL     1       7.716  51.035  80.654  1.00  0.00     0.160 C 
HETATM   12  O3  UNL     1       7.242  52.126  80.309  1.00  0.00    -0.292 OA
HETATM   13  C22 UNL     1       7.216  49.687  80.366  1.00  0.00     0.088 C 
HETATM   14  C23 UNL     1       8.360  48.761  80.602  1.00  0.00     0.047 C 
ENDROOT
BRANCH   1  15
HETATM   15  C3  UNL     1      12.071  48.679  84.715  1.00  0.00     0.285 C 
BRANCH  15  16
HETATM   16  N2  UNL     1      13.179  48.503  85.664  1.00  0.00     0.125 N 
HETATM   17  C1  UNL     1      13.174  47.265  86.439  1.00  0.00     0.445 A 
HETATM   18  C2  UNL     1      12.867  48.574  87.085  1.00  0.00     0.340 A 
BRANCH  17  19
HETATM   19  N1  UNL     1      14.490  46.693  86.741  1.00  0.00    -0.046 N 
ATOM     20  H13 UNL     1      15.165  47.441  86.899  1.00  0.00     0.277 HD
ATOM     21  H12 UNL     1      14.476  46.262  87.666  1.00  0.00     0.277 HD
ATOM     22  H11 UNL     1      14.858  46.033  86.057  1.00  0.00     0.277 HD
ENDBRANCH  17  19
ENDBRANCH  15  16
ENDBRANCH   1  15
BRANCH  10  23
HETATM   23  C15 UNL     1      14.133  51.301  82.955  1.00  0.00    -0.007 C 
HETATM   24  C16 UNL     1      15.399  51.947  83.448  1.00  0.00     0.005 C 
HETATM   25  C17 UNL     1      16.617  51.556  82.616  1.00  0.00     0.000 C 
HETATM   26  C18 UNL     1      16.368  51.967  81.201  1.00  0.00     0.000 C 
HETATM   27  C19 UNL     1      15.085  51.362  80.741  1.00  0.00     0.000 C 
HETATM   28  C20 UNL     1      14.456  50.431  81.798  1.00  0.00     0.005 C 
ENDBRANCH  10  23
BRANCH   9  29
HETATM   29  C12 UNL     1      12.953  52.682  85.617  1.00  0.00     0.059 C 
BRANCH  29  30
HETATM   30  C13 UNL     1      11.782  52.985  86.593  1.00  0.00     0.166 C 
BRANCH  30  31
HETATM   31  O2  UNL     1      10.858  53.806  85.992  1.00  0.00    -0.401 OA
ATOM     32  H2  UNL     1      10.665  53.499  85.113  1.00  0.00     0.209 HD
ENDBRANCH  30  31
ENDBRANCH  29  30
ENDBRANCH   9  29
TORSDOF 7
ENDMDL
MODEL 4
REMARK VINA RESULT: -5.924107560      1.153      1.258
REMARK  7 active torsions:
REMARK  status: ('A' for Active; 'I' for Inactive)
REMARK    1  A    between atoms: N1_1  and  C1_5 
REMARK    2  A    between atoms: N2_7  and  C3_8 
REMARK    3  A    between atoms: C3_8  and  C4_9 
REMARK    4  A    between atoms: C11_17  and  C12_18 
REMARK    5  A    between atoms: C12_18  and  C13_19 
REMARK    6  A    between atoms: C13_19  and  O2_20 
REMARK    7  A    between atoms: C14_22  and  C15_23 
ROOT
HETATM    1  C4  UNL     1      12.615  53.009  94.795  1.00  0.00     0.057 C 
HETATM    2  C5  UNL     1      13.762  52.202  95.294  1.00  0.00    -0.018 A 
HETATM    3  C6  UNL     1      14.389  52.566  96.482  1.00  0.00     0.018 A 
HETATM    4  C7  UNL     1      15.464  51.888  97.015  1.00  0.00    -0.043 A 
HETATM    5  C8  UNL     1      15.966  50.788  96.360  1.00  0.00     0.019 A 
HETATM    6  C9  UNL     1      15.348  50.416  95.174  1.00  0.00     0.053 A 
HETATM    7  C10 UNL     1      14.271  51.099  94.646  1.00  0.00     0.077 A 
HETATM    8  O1  UNL     1      13.657  50.705  93.444  1.00  0.00    -0.345 OA
HETATM    9  C11 UNL     1      12.305  51.153  93.297  1.00  0.00     0.136 C 
HETATM   10  C14 UNL     1      12.240  52.656  93.373  1.00  0.00     0.029 C 
HETATM   11  C21 UNL     1      17.090  50.255  97.118  1.00  0.00     0.160 C 
HETATM   12  O3  UNL     1      17.874  49.401  96.683  1.00  0.00    -0.292 OA
HETATM   13  C22 UNL     1      17.088  50.913  98.428  1.00  0.00     0.088 C 
HETATM   14  C23 UNL     1      16.256  52.141  98.275  1.00  0.00     0.047 C 
ENDROOT
BRANCH   1  15
HETATM   15  C3  UNL     1      11.413  52.844  95.677  1.00  0.00     0.285 C 
BRANCH  15  16
HETATM   16  N2  UNL     1      10.978  54.118  96.267  1.00  0.00     0.125 N 
HETATM   17  C1  UNL     1      10.604  55.169  95.325  1.00  0.00     0.445 A 
HETATM   18  C2  UNL     1      11.863  55.265  96.119  1.00  0.00     0.340 A 
BRANCH  17  19
HETATM   19  N1  UNL     1       9.509  56.049  95.748  1.00  0.00    -0.046 N 
ATOM     20  H13 UNL     1       9.136  55.731  96.643  1.00  0.00     0.277 HD
ATOM     21  H12 UNL     1       9.881  56.959  96.019  1.00  0.00     0.277 HD
ATOM     22  H11 UNL     1       8.750  56.171  95.079  1.00  0.00     0.277 HD
ENDBRANCH  17  19
ENDBRANCH  15  16
ENDBRANCH   1  15
BRANCH  10  23
HETATM   23  C15 UNL     1      13.200  53.248  92.380  1.00  0.00    -0.007 C 
HETATM   24  C16 UNL     1      12.609  53.353  91.000  1.00  0.00     0.005 C 
HETATM   25  C17 UNL     1      12.837  54.724  90.370  1.00  0.00     0.000 C 
HETATM   26  C18 UNL     1      14.310  54.966  90.299  1.00  0.00     0.000 C 
HETATM   27  C19 UNL     1      14.892  54.808  91.662  1.00  0.00     0.000 C 
HETATM   28  C20 UNL     1      13.818  54.548  92.739  1.00  0.00     0.005 C 
ENDBRANCH  10  23
BRANCH   9  29
HETATM   29  C12 UNL     1      11.555  50.482  92.210  1.00  0.00     0.059 C 
BRANCH  29  30
HETATM   30  C13 UNL     1      12.523  49.393  91.668  1.00  0.00     0.166 C 
BRANCH  30  31
HETATM   31  O2  UNL     1      13.370  49.931  90.729  1.00  0.00    -0.401 OA
ATOM     32  H2  UNL     1      13.899  50.619  91.116  1.00  0.00     0.209 HD
ENDBRANCH  30  31
ENDBRANCH  29  30
ENDBRANCH   9  29
TORSDOF 7
ENDMDL
MODEL 5
REMARK VINA RESULT: -5.906895756      7.630     11.422
REMARK  7 active torsions:
REMARK  status: ('A' for Active; 'I' for Inactive)
REMARK    1  A    between atoms: N1_1  and  C1_5 
REMARK    2  A    between atoms: N2_7  and  C3_8 
REMARK    3  A    between atoms: C3_8  and  C4_9 
REMARK    4  A    between atoms: C11_17  and  C12_18 
REMARK    5  A    between atoms: C12_18  and  C13_19 
REMARK    6  A    between atoms: C13_19  and  O2_20 
REMARK    7  A    between atoms: C14_22  and  C15_23 
ROOT
HETATM    1  C4  UNL     1      12.175  50.510  85.124  1.00  0.00     0.057 C 
HETATM    2  C5  UNL     1      10.884  51.117  84.698  1.00  0.00    -0.018 A 
HETATM    3  C6  UNL     1       9.780  50.298  84.486  1.00  0.00     0.018 A 
HETATM    4  C7  UNL     1       8.550  50.767  84.079  1.00  0.00    -0.043 A 
HETATM    5  C8  UNL     1       8.374  52.113  83.864  1.00  0.00     0.019 A 
HETATM    6  C9  UNL     1       9.468  52.941  84.072  1.00  0.00     0.053 A 
HETATM    7  C10 UNL     1      10.698  52.464  84.480  1.00  0.00     0.077 A 
HETATM    8  O1  UNL     1      11.796  53.318  84.688  1.00  0.00    -0.345 OA
HETATM    9  C11 UNL     1      12.796  52.791  85.566  1.00  0.00     0.136 C 
HETATM   10  C14 UNL     1      13.327  51.487  85.034  1.00  0.00     0.029 C 
HETATM   11  C21 UNL     1       7.000  52.352  83.443  1.00  0.00     0.160 C 
HETATM   12  O3  UNL     1       6.596  53.427  82.978  1.00  0.00    -0.292 OA
HETATM   13  C22 UNL     1       6.247  51.116  83.678  1.00  0.00     0.088 C 
HETATM   14  C23 UNL     1       7.261  50.030  83.804  1.00  0.00     0.047 C 
ENDROOT
BRANCH   1  15
HETATM   15  C3  UNL     1      12.088  49.981  86.525  1.00  0.00     0.285 C 
BRANCH  15  16
HETATM   16  N2  UNL     1      12.236  48.519  86.576  1.00  0.00     0.125 N 
HETATM   17  C1  UNL     1      13.591  48.003  86.411  1.00  0.00     0.445 A 
HETATM   18  C2  UNL     1      12.571  47.833  85.336  1.00  0.00     0.340 A 
BRANCH  17  19
HETATM   19  N1  UNL     1      13.917  46.800  87.183  1.00  0.00    -0.046 N 
ATOM     20  H13 UNL     1      14.906  46.805  87.432  1.00  0.00     0.277 HD
ATOM     21  H12 UNL     1      13.496  46.858  88.110  1.00  0.00     0.277 HD
ATOM     22  H11 UNL     1      13.674  45.910  86.748  1.00  0.00     0.277 HD
ENDBRANCH  17  19
ENDBRANCH  15  16
ENDBRANCH   1  15
BRANCH  10  23
HETATM   23  C15 UNL     1      13.786  51.677  83.615  1.00  0.00    -0.007 C 
HETATM   24  C16 UNL     1      15.174  52.252  83.531  1.00  0.00     0.005 C 
HETATM   25  C17 UNL     1      16.062  51.494  82.549  1.00  0.00     0.000 C 
HETATM   26  C18 UNL     1      15.419  51.549  81.201  1.00  0.00     0.000 C 
HETATM   27  C19 UNL     1      14.027  51.025  81.307  1.00  0.00     0.000 C 
HETATM   28  C20 UNL     1      13.699  50.497  82.719  1.00  0.00     0.005 C 
ENDBRANCH  10  23
BRANCH   9  29
HETATM   29  C12 UNL     1      13.776  53.794  86.045  1.00  0.00     0.059 C 
BRANCH  29  30
HETATM   30  C13 UNL     1      13.554  53.870  87.581  1.00  0.00     0.166 C 
BRANCH  30  31
HETATM   31  O2  UNL     1      12.291  53.435  87.904  1.00  0.00    -0.401 OA
ATOM     32  H2  UNL     1      11.638  53.919  87.412  1.00  0.00     0.209 HD
ENDBRANCH  30  31
ENDBRANCH  29  30
ENDBRANCH   9  29
TORSDOF 7
ENDMDL
