MODEL 1
REMARK VINA RESULT: -6.114007601      0.000      0.000
REMARK  7 active torsions:
REMARK  status: ('A' for Active; 'I' for Inactive)
REMARK    1  A    between atoms: C2_2  and  C3_3 
REMARK    2  A    between atoms: C2_2  and  C6_7 
REMARK    3  A    between atoms: C3_3  and  N1_4 
REMARK    4  A    between atoms: C10_12  and  O2_13 
REMARK    5  A    between atoms: C14_18  and  O3_19 
REMARK    6  A    between atoms: O3_19  and  C15_20 
REMARK       I    between atoms: C15_20  and  N2_22 
REMARK    7  A    between atoms: N2_22  and  C16_24 
ROOT
HETATM    1  C6  UNL     1      11.923  51.144  84.965  1.00  0.00    -0.056 C 
HETATM    2  C7  UNL     1      11.432  50.206  83.855  1.00  0.00     0.070 C 
HETATM    3  C8  UNL     1      10.161  50.593  83.240  1.00  0.00     0.158 A 
HETATM    4  O1  UNL     1       9.016  50.032  84.033  1.00  0.00    -0.372 OA
HETATM    5  C9  UNL     1       9.177  51.360  83.847  1.00  0.00     0.187 A 
HETATM    6  C10 UNL     1       9.701  52.313  84.851  1.00  0.00     0.103 C 
HETATM    7  C11 UNL     1       8.716  52.919  85.772  1.00  0.00     0.022 C 
HETATM    8  C12 UNL     1       7.350  52.300  85.800  1.00  0.00     0.013 C 
HETATM    9  C13 UNL     1       9.434  52.989  87.068  1.00  0.00     0.041 C 
HETATM   10  C14 UNL     1      10.949  52.777  86.704  1.00  0.00     0.149 C 
HETATM   11  C20 UNL     1      10.822  51.707  85.708  1.00  0.00     0.041 C 
HETATM   12  C21 UNL     1      10.197  50.550  86.539  1.00  0.00     0.026 C 
ENDROOT
BRANCH  10  13
HETATM   13  O3  UNL     1      11.442  52.358  87.992  1.00  0.00    -0.297 OA
BRANCH  13  14
HETATM   14  C15 UNL     1      11.726  53.278  88.954  1.00  0.00     0.361 C 
HETATM   15  O4  UNL     1      10.849  53.614  89.776  1.00  0.00    -0.238 OA
HETATM   16  N2  UNL     1      13.006  53.869  89.041  1.00  0.00    -0.332 N 
ATOM     17  H2  UNL     1      13.737  53.610  88.379  1.00  0.00     0.165 HD
BRANCH  16  18
HETATM   18  C16 UNL     1      13.280  54.859  90.091  1.00  0.00     0.086 C 
HETATM   19  C17 UNL     1      13.558  54.152  91.396  1.00  0.00     0.025 C 
HETATM   20  C18 UNL     1      14.867  54.924  91.463  1.00  0.00     0.004 C 
HETATM   21  C19 UNL     1      14.687  55.425  90.034  1.00  0.00     0.025 C 
ENDBRANCH  16  18
ENDBRANCH  13  14
ENDBRANCH  10  13
BRANCH   1  22
HETATM   22  C2  UNL     1      13.124  51.827  84.458  1.00  0.00    -0.043 C 
HETATM   23  C1  UNL     1      13.678  52.988  85.168  1.00  0.00     0.050 C 
BRANCH  22  24
HETATM   24  C3  UNL     1      14.174  50.935  83.873  1.00  0.00     0.091 C 
BRANCH  24  25
HETATM   25  N1  UNL     1      14.727  51.255  82.633  1.00  0.00    -0.398 N 
HETATM   26  C4  UNL     1      14.051  50.994  81.433  1.00  0.00     0.148 C 
HETATM   27  C5  UNL     1      16.028  51.783  82.550  1.00  0.00     0.148 C 
ENDBRANCH  24  25
ENDBRANCH  22  24
ENDBRANCH   1  22
BRANCH   6  28
HETATM   28  O2  UNL     1      10.221  53.391  84.128  1.00  0.00    -0.386 OA
ATOM     29  H2  UNL     1       9.763  54.162  84.441  1.00  0.00     0.210 HD
ENDBRANCH   6  28
TORSDOF 7
ENDMDL
MODEL 2
REMARK VINA RESULT: -6.109060478      1.095      1.221
REMARK  7 active torsions:
REMARK  status: ('A' for Active; 'I' for Inactive)
REMARK    1  A    between atoms: C2_2  and  C3_3 
REMARK    2  A    between atoms: C2_2  and  C6_7 
REMARK    3  A    between atoms: C3_3  and  N1_4 
REMARK    4  A    between atoms: C10_12  and  O2_13 
REMARK    5  A    between atoms: C14_18  and  O3_19 
REMARK    6  A    between atoms: O3_19  and  C15_20 
REMARK       I    between atoms: C15_20  and  N2_22 
REMARK    7  A    between atoms: N2_22  and  C16_24 
ROOT
HETATM    1  C6  UNL     1      12.535  51.142  85.098  1.00  0.00    -0.056 C 
HETATM    2  C7  UNL     1      11.889  50.149  84.123  1.00  0.00     0.070 C 
HETATM    3  C8  UNL     1      10.507  50.460  83.752  1.00  0.00     0.158 A 
HETATM    4  O1  UNL     1       9.562  49.875  84.761  1.00  0.00    -0.372 OA
HETATM    5  C9  UNL     1       9.620  51.202  84.517  1.00  0.00     0.187 A 
HETATM    6  C10 UNL     1      10.277  52.208  85.382  1.00  0.00     0.103 C 
HETATM    7  C11 UNL     1       9.455  52.799  86.459  1.00  0.00     0.022 C 
HETATM    8  C12 UNL     1       8.151  52.122  86.760  1.00  0.00     0.013 C 
HETATM    9  C13 UNL     1      10.401  52.941  87.593  1.00  0.00     0.041 C 
HETATM   10  C14 UNL     1      11.828  52.784  86.953  1.00  0.00     0.149 C 
HETATM   11  C20 UNL     1      11.568  51.679  86.023  1.00  0.00     0.041 C 
HETATM   12  C21 UNL     1      11.168  50.522  86.984  1.00  0.00     0.026 C 
ENDROOT
BRANCH  10  13
HETATM   13  O3  UNL     1      12.575  52.427  88.133  1.00  0.00    -0.297 OA
BRANCH  13  14
HETATM   14  C15 UNL     1      13.004  53.390  88.994  1.00  0.00     0.361 C 
HETATM   15  O4  UNL     1      13.711  54.331  88.578  1.00  0.00    -0.238 OA
HETATM   16  N2  UNL     1      12.662  53.347  90.364  1.00  0.00    -0.332 N 
ATOM     17  H2  UNL     1      12.085  52.587  90.725  1.00  0.00     0.165 HD
BRANCH  16  18
HETATM   18  C16 UNL     1      13.142  54.402  91.267  1.00  0.00     0.086 C 
HETATM   19  C17 UNL     1      12.507  54.235  92.626  1.00  0.00     0.025 C 
HETATM   20  C18 UNL     1      13.911  54.226  93.212  1.00  0.00     0.004 C 
HETATM   21  C19 UNL     1      14.530  54.137  91.820  1.00  0.00     0.025 C 
ENDBRANCH  16  18
ENDBRANCH  13  14
ENDBRANCH  10  13
BRANCH   1  22
HETATM   22  C2  UNL     1      13.584  51.859  84.357  1.00  0.00    -0.043 C 
HETATM   23  C1  UNL     1      14.219  53.055  84.931  1.00  0.00     0.050 C 
BRANCH  22  24
HETATM   24  C3  UNL     1      14.534  50.997  83.586  1.00  0.00     0.091 C 
BRANCH  24  25
HETATM   25  N1  UNL     1      14.815  51.311  82.256  1.00  0.00    -0.398 N 
HETATM   26  C4  UNL     1      13.912  51.028  81.224  1.00  0.00     0.148 C 
HETATM   27  C5  UNL     1      16.063  51.856  81.903  1.00  0.00     0.148 C 
ENDBRANCH  24  25
ENDBRANCH  22  24
ENDBRANCH   1  22
BRANCH   6  28
HETATM   28  O2  UNL     1      10.598  53.285  84.549  1.00  0.00    -0.386 OA
ATOM     29  H2  UNL     1      10.663  52.928  83.671  1.00  0.00     0.210 HD
ENDBRANCH   6  28
TORSDOF 7
ENDMDL
MODEL 3
REMARK VINA RESULT: -5.933002942      2.352      6.082
REMARK  7 active torsions:
REMARK  status: ('A' for Active; 'I' for Inactive)
REMARK    1  A    between atoms: C2_2  and  C3_3 
REMARK    2  A    between atoms: C2_2  and  C6_7 
REMARK    3  A    between atoms: C3_3  and  N1_4 
REMARK    4  A    between atoms: C10_12  and  O2_13 
REMARK    5  A    between atoms: C14_18  and  O3_19 
REMARK    6  A    between atoms: O3_19  and  C15_20 
REMARK       I    between atoms: C15_20  and  N2_22 
REMARK    7  A    between atoms: N2_22  and  C16_24 
ROOT
HETATM    1  C6  UNL     1      10.676  52.385  84.473  1.00  0.00    -0.056 C 
HETATM    2  C7  UNL     1       9.775  53.376  85.220  1.00  0.00     0.070 C 
HETATM    3  C8  UNL     1       8.487  52.832  85.653  1.00  0.00     0.158 A 
HETATM    4  O1  UNL     1       7.479  52.960  84.548  1.00  0.00    -0.372 OA
HETATM    5  C9  UNL     1       7.830  51.762  85.064  1.00  0.00     0.187 A 
HETATM    6  C10 UNL     1       8.740  50.784  84.427  1.00  0.00     0.103 C 
HETATM    7  C11 UNL     1       8.126  49.809  83.500  1.00  0.00     0.022 C 
HETATM    8  C12 UNL     1       6.716  50.085  83.068  1.00  0.00     0.013 C 
HETATM    9  C13 UNL     1       9.130  49.664  82.418  1.00  0.00     0.041 C 
HETATM   10  C14 UNL     1      10.452  50.279  83.006  1.00  0.00     0.149 C 
HETATM   11  C20 UNL     1       9.902  51.458  83.684  1.00  0.00     0.041 C 
HETATM   12  C21 UNL     1       9.291  52.267  82.504  1.00  0.00     0.026 C 
ENDROOT
BRANCH  10  13
HETATM   13  O3  UNL     1      11.149  50.552  81.775  1.00  0.00    -0.297 OA
BRANCH  13  14
HETATM   14  C15 UNL     1      12.461  50.214  81.636  1.00  0.00     0.361 C 
HETATM   15  O4  UNL     1      12.813  49.020  81.735  1.00  0.00    -0.238 OA
HETATM   16  N2  UNL     1      13.444  51.196  81.381  1.00  0.00    -0.332 N 
ATOM     17  H2  UNL     1      13.179  52.177  81.297  1.00  0.00     0.165 HD
BRANCH  16  18
HETATM   18  C16 UNL     1      14.850  50.797  81.237  1.00  0.00     0.086 C 
HETATM   19  C17 UNL     1      15.618  51.888  80.532  1.00  0.00     0.025 C 
HETATM   20  C18 UNL     1      16.585  51.882  81.706  1.00  0.00     0.004 C 
HETATM   21  C19 UNL     1      15.660  50.972  82.509  1.00  0.00     0.025 C 
ENDBRANCH  16  18
ENDBRANCH  13  14
ENDBRANCH  10  13
BRANCH   1  22
HETATM   22  C2  UNL     1      11.827  52.101  85.344  1.00  0.00    -0.043 C 
HETATM   23  C1  UNL     1      13.195  52.130  84.806  1.00  0.00     0.050 C 
BRANCH  22  24
HETATM   24  C3  UNL     1      11.728  52.634  86.739  1.00  0.00     0.091 C 
BRANCH  24  25
HETATM   25  N1  UNL     1      11.923  51.769  87.816  1.00  0.00    -0.398 N 
HETATM   26  C4  UNL     1      11.798  50.380  87.679  1.00  0.00     0.148 C 
HETATM   27  C5  UNL     1      12.176  52.281  89.101  1.00  0.00     0.148 C 
ENDBRANCH  24  25
ENDBRANCH  22  24
ENDBRANCH   1  22
BRANCH   6  28
HETATM   28  O2  UNL     1       9.261  50.006  85.466  1.00  0.00    -0.386 OA
ATOM     29  H2  UNL     1       8.709  49.235  85.519  1.00  0.00     0.210 HD
ENDBRANCH   6  28
TORSDOF 7
ENDMDL
MODEL 4
REMARK VINA RESULT: -5.927993453      2.721      6.105
REMARK  7 active torsions:
REMARK  status: ('A' for Active; 'I' for Inactive)
REMARK    1  A    between atoms: C2_2  and  C3_3 
REMARK    2  A    between atoms: C2_2  and  C6_7 
REMARK    3  A    between atoms: C3_3  and  N1_4 
REMARK    4  A    between atoms: C10_12  and  O2_13 
REMARK    5  A    between atoms: C14_18  and  O3_19 
REMARK    6  A    between atoms: O3_19  and  C15_20 
REMARK       I    between atoms: C15_20  and  N2_22 
REMARK    7  A    between atoms: N2_22  and  C16_24 
ROOT
HETATM    1  C6  UNL     1      10.771  51.937  83.692  1.00  0.00    -0.056 C 
HETATM    2  C7  UNL     1      10.001  53.077  84.371  1.00  0.00     0.070 C 
HETATM    3  C8  UNL     1       8.611  52.765  84.711  1.00  0.00     0.158 A 
HETATM    4  O1  UNL     1       7.721  53.046  83.535  1.00  0.00    -0.372 OA
HETATM    5  C9  UNL     1       7.826  51.814  84.077  1.00  0.00     0.187 A 
HETATM    6  C10 UNL     1       8.599  50.687  83.508  1.00  0.00     0.103 C 
HETATM    7  C11 UNL     1       7.896  49.817  82.541  1.00  0.00     0.022 C 
HETATM    8  C12 UNL     1       6.588  50.321  82.008  1.00  0.00     0.013 C 
HETATM    9  C13 UNL     1       8.935  49.490  81.534  1.00  0.00     0.041 C 
HETATM   10  C14 UNL     1      10.298  49.880  82.215  1.00  0.00     0.149 C 
HETATM   11  C20 UNL     1       9.909  51.144  82.851  1.00  0.00     0.041 C 
HETATM   12  C21 UNL     1       9.529  52.029  81.628  1.00  0.00     0.026 C 
ENDROOT
BRANCH  10  13
HETATM   13  O3  UNL     1      11.117  50.014  81.038  1.00  0.00    -0.297 OA
BRANCH  13  14
HETATM   14  C15 UNL     1      12.462  49.818  81.108  1.00  0.00     0.361 C 
HETATM   15  O4  UNL     1      12.928  48.660  81.067  1.00  0.00    -0.238 OA
HETATM   16  N2  UNL     1      13.353  50.908  81.229  1.00  0.00    -0.332 N 
ATOM     17  H2  UNL     1      12.993  51.862  81.265  1.00  0.00     0.165 HD
BRANCH  16  18
HETATM   18  C16 UNL     1      14.799  50.661  81.302  1.00  0.00     0.086 C 
HETATM   19  C17 UNL     1      15.544  51.827  80.700  1.00  0.00     0.025 C 
HETATM   20  C18 UNL     1      16.319  51.925  82.006  1.00  0.00     0.004 C 
HETATM   21  C19 UNL     1      15.386  50.923  82.678  1.00  0.00     0.025 C 
ENDBRANCH  16  18
ENDBRANCH  13  14
ENDBRANCH  10  13
BRANCH   1  22
HETATM   22  C2  UNL     1      11.792  51.475  84.645  1.00  0.00    -0.043 C 
HETATM   23  C1  UNL     1      12.260  50.081  84.619  1.00  0.00     0.050 C 
BRANCH  22  24
HETATM   24  C3  UNL     1      12.878  52.457  84.956  1.00  0.00     0.091 C 
BRANCH  24  25
HETATM   25  N1  UNL     1      12.961  52.999  86.238  1.00  0.00    -0.398 N 
HETATM   26  C4  UNL     1      12.110  52.585  87.271  1.00  0.00     0.148 C 
HETATM   27  C5  UNL     1      13.861  54.044  86.511  1.00  0.00     0.148 C 
ENDBRANCH  24  25
ENDBRANCH  22  24
ENDBRANCH   1  22
BRANCH   6  28
HETATM   28  O2  UNL     1       8.906  49.846  84.583  1.00  0.00    -0.386 OA
ATOM     29  H2  UNL     1       8.171  49.250  84.668  1.00  0.00     0.210 HD
ENDBRANCH   6  28
TORSDOF 7
ENDMDL
MODEL 5
REMARK VINA RESULT: -5.891574462      2.955      5.706
REMARK  7 active torsions:
REMARK  status: ('A' for Active; 'I' for Inactive)
REMARK    1  A    between atoms: C2_2  and  C3_3 
REMARK    2  A    between atoms: C2_2  and  C6_7 
REMARK    3  A    between atoms: C3_3  and  N1_4 
REMARK    4  A    between atoms: C10_12  and  O2_13 
REMARK    5  A    between atoms: C14_18  and  O3_19 
REMARK    6  A    between atoms: O3_19  and  C15_20 
REMARK       I    between atoms: C15_20  and  N2_22 
REMARK    7  A    between atoms: N2_22  and  C16_24 
ROOT
HETATM    1  C6  UNL     1       9.234  50.846  83.884  1.00  0.00    -0.056 C 
HETATM    2  C7  UNL     1       7.725  50.795  84.159  1.00  0.00     0.070 C 
HETATM    3  C8  UNL     1       7.208  51.904  84.962  1.00  0.00     0.158 A 
HETATM    4  O1  UNL     1       7.347  51.588  86.423  1.00  0.00    -0.372 OA
HETATM    5  C9  UNL     1       7.949  52.658  85.860  1.00  0.00     0.187 A 
HETATM    6  C10 UNL     1       9.385  52.754  85.513  1.00  0.00     0.103 C 
HETATM    7  C11 UNL     1      10.295  53.242  86.571  1.00  0.00     0.022 C 
HETATM    8  C12 UNL     1       9.737  53.309  87.961  1.00  0.00     0.013 C 
HETATM    9  C13 UNL     1      11.521  52.427  86.391  1.00  0.00     0.041 C 
HETATM   10  C14 UNL     1      11.376  51.785  84.963  1.00  0.00     0.149 C 
HETATM   11  C20 UNL     1       9.954  51.427  84.991  1.00  0.00     0.041 C 
HETATM   12  C21 UNL     1       9.890  50.403  86.161  1.00  0.00     0.026 C 
ENDROOT
BRANCH  10  13
HETATM   13  O3  UNL     1      12.288  50.680  85.112  1.00  0.00    -0.297 OA
BRANCH  13  14
HETATM   14  C15 UNL     1      13.118  50.329  84.091  1.00  0.00     0.361 C 
HETATM   15  O4  UNL     1      13.036  49.193  83.580  1.00  0.00    -0.238 OA
HETATM   16  N2  UNL     1      14.081  51.234  83.591  1.00  0.00    -0.332 N 
ATOM     17  H2  UNL     1      14.166  52.168  83.994  1.00  0.00     0.165 HD
BRANCH  16  18
HETATM   18  C16 UNL     1      14.961  50.825  82.489  1.00  0.00     0.086 C 
HETATM   19  C17 UNL     1      14.399  51.320  81.179  1.00  0.00     0.025 C 
HETATM   20  C18 UNL     1      15.744  51.984  80.924  1.00  0.00     0.004 C 
HETATM   21  C19 UNL     1      16.199  51.693  82.351  1.00  0.00     0.025 C 
ENDBRANCH  16  18
ENDBRANCH  13  14
ENDBRANCH  10  13
BRANCH   1  22
HETATM   22  C2  UNL     1       9.405  51.109  82.446  1.00  0.00    -0.043 C 
HETATM   23  C1  UNL     1      10.531  50.517  81.709  1.00  0.00     0.050 C 
BRANCH  22  24
HETATM   24  C3  UNL     1       8.142  51.173  81.647  1.00  0.00     0.091 C 
BRANCH  24  25
HETATM   25  N1  UNL     1       7.834  52.340  80.948  1.00  0.00    -0.398 N 
HETATM   26  C4  UNL     1       7.328  53.475  81.594  1.00  0.00     0.148 C 
HETATM   27  C5  UNL     1       7.952  52.381  79.547  1.00  0.00     0.148 C 
ENDBRANCH  24  25
ENDBRANCH  22  24
ENDBRANCH   1  22
BRANCH   6  28
HETATM   28  O2  UNL     1       9.474  53.712  84.498  1.00  0.00    -0.386 OA
ATOM     29  H2  UNL     1      10.340  54.095  84.574  1.00  0.00     0.210 HD
ENDBRANCH   6  28
TORSDOF 7
ENDMDL
