MODEL 1
REMARK VINA RESULT: -6.768406148      0.000      0.000
REMARK  5 active torsions:
REMARK  status: ('A' for Active; 'I' for Inactive)
REMARK    1  A    between atoms: C10_15  and  O2_16 
REMARK    2  A    between atoms: O2_16  and  C11_17 
REMARK    3  A    between atoms: C11_17  and  C12_18 
REMARK    4  A    between atoms: C12_18  and  C13_19 
REMARK    5  A    between atoms: C13_19  and  N3_20 
ROOT
HETATM    1  O1  UNL     1      11.807  55.832 100.826  1.00  0.00    -0.247 OA
HETATM    2  C1  UNL     1      11.162  55.700  99.755  1.00  0.00     0.324 C 
HETATM    3  N1  UNL     1       9.833  55.209  99.784  1.00  0.00    -0.288 N 
ATOM      4  H1  UNL     1       9.379  54.953 100.662  1.00  0.00     0.172 HD
HETATM    5  C2  UNL     1       9.149  55.088  98.521  1.00  0.00     0.157 A 
HETATM    6  S1  UNL     1       7.597  54.479  98.149  1.00  0.00    -0.064 SA
HETATM    7  C3  UNL     1       7.663  54.654  96.457  1.00  0.00     0.070 A 
HETATM    8  C4  UNL     1       8.901  55.185  96.268  1.00  0.00     0.103 A 
HETATM    9  N2  UNL     1       9.653  55.403  97.343  1.00  0.00    -0.305 N 
HETATM   10  C5  UNL     1      11.002  56.022  97.270  1.00  0.00     0.144 C 
HETATM   11  C6  UNL     1      10.759  57.411  96.705  1.00  0.00     0.064 C 
HETATM   12  C7  UNL     1      11.712  57.583  95.559  1.00  0.00     0.044 C 
HETATM   13  C8  UNL     1      12.205  56.211  95.239  1.00  0.00    -0.045 A 
HETATM   14  C9  UNL     1      12.954  55.767  94.170  1.00  0.00     0.044 A 
HETATM   15  C10 UNL     1      13.333  54.446  94.013  1.00  0.00     0.069 A 
HETATM   16  C19 UNL     1      12.908  53.564  95.017  1.00  0.00     0.037 A 
HETATM   17  C20 UNL     1      12.158  54.017  96.082  1.00  0.00     0.015 A 
HETATM   18  C21 UNL     1      11.796  55.335  96.212  1.00  0.00    -0.003 A 
HETATM   19  N4  UNL     1      11.669  56.011  98.484  1.00  0.00    -0.311 N 
ATOM     20  H4  UNL     1      12.657  56.260  98.449  1.00  0.00     0.167 HD
ENDROOT
BRANCH  15  21
HETATM   21  O2  UNL     1      14.087  53.973  92.949  1.00  0.00    -0.351 OA
BRANCH  21  22
HETATM   22  C11 UNL     1      14.305  54.820  91.850  1.00  0.00     0.177 C 
BRANCH  22  23
HETATM   23  C12 UNL     1      13.634  54.297  90.590  1.00  0.00     0.046 C 
BRANCH  23  24
HETATM   24  C13 UNL     1      12.258  54.831  90.404  1.00  0.00     0.124 C 
BRANCH  24  25
HETATM   25  N3  UNL     1      11.322  53.768  90.243  1.00  0.00    -0.393 N 
HETATM   26  C14 UNL     1      11.095  52.978  91.412  1.00  0.00     0.122 C 
HETATM   27  C15 UNL     1      10.038  53.685  92.234  1.00  0.00     0.020 C 
HETATM   28  C16 UNL     1       8.763  53.725  91.440  1.00  0.00     0.007 C 
HETATM   29  C17 UNL     1       9.000  54.530  90.159  1.00  0.00     0.044 C 
HETATM   30  C18 UNL     1      10.197  53.958  89.417  1.00  0.00     0.058 C 
ENDBRANCH  24  25
ENDBRANCH  23  24
ENDBRANCH  22  23
ENDBRANCH  21  22
ENDBRANCH  15  21
TORSDOF 5
ENDMDL
MODEL 2
REMARK VINA RESULT: -6.683313600      5.566      8.779
REMARK  5 active torsions:
REMARK  status: ('A' for Active; 'I' for Inactive)
REMARK    1  A    between atoms: C10_15  and  O2_16 
REMARK    2  A    between atoms: O2_16  and  C11_17 
REMARK    3  A    between atoms: C11_17  and  C12_18 
REMARK    4  A    between atoms: C12_18  and  C13_19 
REMARK    5  A    between atoms: C13_19  and  N3_20 
ROOT
HETATM    1  O1  UNL     1      14.208  56.547  90.577  1.00  0.00    -0.247 OA
HETATM    2  C1  UNL     1      13.538  55.492  90.717  1.00  0.00     0.324 C 
HETATM    3  N1  UNL     1      13.872  54.572  91.742  1.00  0.00    -0.288 N 
ATOM      4  H1  UNL     1      14.653  54.742  92.376  1.00  0.00     0.172 HD
HETATM    5  C2  UNL     1      13.060  53.386  91.849  1.00  0.00     0.157 A 
HETATM    6  S1  UNL     1      13.193  52.036  92.888  1.00  0.00    -0.064 SA
HETATM    7  C3  UNL     1      11.892  51.124  92.276  1.00  0.00     0.070 A 
HETATM    8  C4  UNL     1      11.416  51.926  91.286  1.00  0.00     0.103 A 
HETATM    9  N2  UNL     1      12.030  53.089  91.081  1.00  0.00    -0.305 N 
HETATM   10  C5  UNL     1      11.574  54.071  90.063  1.00  0.00     0.144 C 
HETATM   11  C6  UNL     1      10.177  54.468  90.508  1.00  0.00     0.064 C 
HETATM   12  C7  UNL     1       9.284  54.316  89.312  1.00  0.00     0.044 C 
HETATM   13  C8  UNL     1      10.061  53.499  88.333  1.00  0.00    -0.045 A 
HETATM   14  C9  UNL     1       9.658  52.916  87.151  1.00  0.00     0.044 A 
HETATM   15  C10 UNL     1      10.508  52.177  86.348  1.00  0.00     0.069 A 
HETATM   16  C19 UNL     1      11.827  52.050  86.807  1.00  0.00     0.037 A 
HETATM   17  C20 UNL     1      12.221  52.637  87.991  1.00  0.00     0.015 A 
HETATM   18  C21 UNL     1      11.355  53.365  88.769  1.00  0.00    -0.003 A 
HETATM   19  N4  UNL     1      12.446  55.136  89.911  1.00  0.00    -0.311 N 
ATOM     20  H4  UNL     1      12.271  55.741  89.108  1.00  0.00     0.167 HD
ENDROOT
BRANCH  15  21
HETATM   21  O2  UNL     1      10.129  51.580  85.154  1.00  0.00    -0.351 OA
BRANCH  21  22
HETATM   22  C11 UNL     1      10.746  52.002  83.965  1.00  0.00     0.177 C 
BRANCH  22  23
HETATM   23  C12 UNL     1      11.272  50.830  83.154  1.00  0.00     0.046 C 
BRANCH  23  24
HETATM   24  C13 UNL     1      12.247  51.241  82.108  1.00  0.00     0.124 C 
BRANCH  24  25
HETATM   25  N3  UNL     1      13.520  50.642  82.342  1.00  0.00    -0.393 N 
HETATM   26  C14 UNL     1      14.276  50.345  81.167  1.00  0.00     0.122 C 
HETATM   27  C15 UNL     1      15.022  51.604  80.782  1.00  0.00     0.020 C 
HETATM   28  C16 UNL     1      15.984  51.944  81.884  1.00  0.00     0.007 C 
HETATM   29  C17 UNL     1      15.194  52.223  83.166  1.00  0.00     0.044 C 
HETATM   30  C18 UNL     1      14.277  51.045  83.459  1.00  0.00     0.058 C 
ENDBRANCH  24  25
ENDBRANCH  23  24
ENDBRANCH  22  23
ENDBRANCH  21  22
ENDBRANCH  15  21
TORSDOF 5
ENDMDL
MODEL 3
REMARK VINA RESULT: -6.636256910      2.551      6.812
REMARK  5 active torsions:
REMARK  status: ('A' for Active; 'I' for Inactive)
REMARK    1  A    between atoms: C10_15  and  O2_16 
REMARK    2  A    between atoms: O2_16  and  C11_17 
REMARK    3  A    between atoms: C11_17  and  C12_18 
REMARK    4  A    between atoms: C12_18  and  C13_19 
REMARK    5  A    between atoms: C13_19  and  N3_20 
ROOT
HETATM    1  O1  UNL     1      15.306  56.235  90.511  1.00  0.00    -0.247 OA
HETATM    2  C1  UNL     1      14.298  55.595  90.908  1.00  0.00     0.324 C 
HETATM    3  N1  UNL     1      13.182  55.428  90.051  1.00  0.00    -0.288 N 
ATOM      4  H1  UNL     1      13.172  55.819  89.109  1.00  0.00     0.172 HD
HETATM    5  C2  UNL     1      12.064  54.680  90.568  1.00  0.00     0.157 A 
HETATM    6  S1  UNL     1      10.540  54.336  89.876  1.00  0.00    -0.064 SA
HETATM    7  C3  UNL     1       9.860  53.487  91.186  1.00  0.00     0.070 A 
HETATM    8  C4  UNL     1      10.865  53.514  92.103  1.00  0.00     0.103 A 
HETATM    9  N2  UNL     1      11.995  54.133  91.766  1.00  0.00    -0.305 N 
HETATM   10  C5  UNL     1      13.179  54.188  92.661  1.00  0.00     0.144 C 
HETATM   11  C6  UNL     1      13.595  52.738  92.841  1.00  0.00     0.064 C 
HETATM   12  C7  UNL     1      13.736  52.510  94.317  1.00  0.00     0.044 C 
HETATM   13  C8  UNL     1      13.054  53.668  94.968  1.00  0.00    -0.045 A 
HETATM   14  C9  UNL     1      12.731  53.873  96.293  1.00  0.00     0.044 A 
HETATM   15  C10 UNL     1      12.089  55.013  96.743  1.00  0.00     0.069 A 
HETATM   16  C19 UNL     1      11.777  55.967  95.763  1.00  0.00     0.037 A 
HETATM   17  C20 UNL     1      12.104  55.752  94.441  1.00  0.00     0.015 A 
HETATM   18  C21 UNL     1      12.742  54.611  94.022  1.00  0.00    -0.003 A 
HETATM   19  N4  UNL     1      14.183  55.012  92.180  1.00  0.00    -0.311 N 
ATOM     20  H4  UNL     1      14.937  55.222  92.835  1.00  0.00     0.167 HD
ENDROOT
BRANCH  15  21
HETATM   21  O2  UNL     1      11.753  55.246  98.069  1.00  0.00    -0.351 OA
BRANCH  21  22
HETATM   22  C11 UNL     1      10.764  56.201  98.355  1.00  0.00     0.177 C 
BRANCH  22  23
HETATM   23  C12 UNL     1       9.410  55.557  98.605  1.00  0.00     0.046 C 
BRANCH  23  24
HETATM   24  C13 UNL     1       8.274  56.418  98.182  1.00  0.00     0.124 C 
BRANCH  24  25
HETATM   25  N3  UNL     1       8.334  56.682  96.782  1.00  0.00    -0.393 N 
HETATM   26  C14 UNL     1       7.689  55.714  95.954  1.00  0.00     0.122 C 
HETATM   27  C15 UNL     1       6.223  56.086  95.885  1.00  0.00     0.020 C 
HETATM   28  C16 UNL     1       6.103  57.427  95.219  1.00  0.00     0.007 C 
HETATM   29  C17 UNL     1       6.829  58.473  96.070  1.00  0.00     0.044 C 
HETATM   30  C18 UNL     1       8.256  58.012  96.327  1.00  0.00     0.058 C 
ENDBRANCH  24  25
ENDBRANCH  23  24
ENDBRANCH  22  23
ENDBRANCH  21  22
ENDBRANCH  15  21
TORSDOF 5
ENDMDL
MODEL 4
REMARK VINA RESULT: -6.598091416      6.857     12.205
REMARK  5 active torsions:
REMARK  status: ('A' for Active; 'I' for Inactive)
REMARK    1  A    between atoms: C10_15  and  O2_16 
REMARK    2  A    between atoms: O2_16  and  C11_17 
REMARK    3  A    between atoms: C11_17  and  C12_18 
REMARK    4  A    between atoms: C12_18  and  C13_19 
REMARK    5  A    between atoms: C13_19  and  N3_20 
ROOT
HETATM    1  O1  UNL     1      16.063  51.553  82.247  1.00  0.00    -0.247 OA
HETATM    2  C1  UNL     1      14.838  51.286  82.341  1.00  0.00     0.324 C 
HETATM    3  N1  UNL     1      14.039  51.204  81.173  1.00  0.00    -0.288 N 
ATOM      4  H1  UNL     1      14.435  51.360  80.246  1.00  0.00     0.172 HD
HETATM    5  C2  UNL     1      12.644  50.889  81.352  1.00  0.00     0.157 A 
HETATM    6  S1  UNL     1      11.373  50.777  80.216  1.00  0.00    -0.064 SA
HETATM    7  C3  UNL     1      10.102  50.443  81.300  1.00  0.00     0.070 A 
HETATM    8  C4  UNL     1      10.740  50.434  82.501  1.00  0.00     0.103 A 
HETATM    9  N2  UNL     1      12.051  50.665  82.509  1.00  0.00    -0.305 N 
HETATM   10  C5  UNL     1      12.865  50.634  83.751  1.00  0.00     0.144 C 
HETATM   11  C6  UNL     1      12.742  49.207  84.258  1.00  0.00     0.064 C 
HETATM   12  C7  UNL     1      12.352  49.296  85.704  1.00  0.00     0.044 C 
HETATM   13  C8  UNL     1      11.894  50.702  85.910  1.00  0.00    -0.045 A 
HETATM   14  C9  UNL     1      11.265  51.278  86.994  1.00  0.00     0.044 A 
HETATM   15  C10 UNL     1      10.898  52.611  87.029  1.00  0.00     0.069 A 
HETATM   16  C19 UNL     1      11.205  53.362  85.886  1.00  0.00     0.037 A 
HETATM   17  C20 UNL     1      11.835  52.777  84.807  1.00  0.00     0.015 A 
HETATM   18  C21 UNL     1      12.188  51.450  84.799  1.00  0.00    -0.003 A 
HETATM   19  N4  UNL     1      14.170  51.056  83.553  1.00  0.00    -0.311 N 
ATOM     20  H4  UNL     1      14.716  51.221  84.399  1.00  0.00     0.167 HD
ENDROOT
BRANCH  15  21
HETATM   21  O2  UNL     1      10.264  53.216  88.105  1.00  0.00    -0.351 OA
BRANCH  21  22
HETATM   22  C11 UNL     1      10.165  52.507  89.314  1.00  0.00     0.177 C 
BRANCH  22  23
HETATM   23  C12 UNL     1      10.329  53.418  90.519  1.00  0.00     0.046 C 
BRANCH  23  24
HETATM   24  C13 UNL     1      11.358  54.472  90.313  1.00  0.00     0.124 C 
BRANCH  24  25
HETATM   25  N3  UNL     1      12.668  53.909  90.335  1.00  0.00    -0.393 N 
HETATM   26  C14 UNL     1      13.481  54.219  89.202  1.00  0.00     0.122 C 
HETATM   27  C15 UNL     1      14.133  55.558  89.469  1.00  0.00     0.020 C 
HETATM   28  C16 UNL     1      15.030  55.422  90.667  1.00  0.00     0.007 C 
HETATM   29  C17 UNL     1      14.181  55.045  91.884  1.00  0.00     0.044 C 
HETATM   30  C18 UNL     1      13.356  53.809  91.561  1.00  0.00     0.058 C 
ENDBRANCH  24  25
ENDBRANCH  23  24
ENDBRANCH  22  23
ENDBRANCH  21  22
ENDBRANCH  15  21
TORSDOF 5
ENDMDL
MODEL 5
REMARK VINA RESULT: -6.558402877      2.418      6.649
REMARK  5 active torsions:
REMARK  status: ('A' for Active; 'I' for Inactive)
REMARK    1  A    between atoms: C10_15  and  O2_16 
REMARK    2  A    between atoms: O2_16  and  C11_17 
REMARK    3  A    between atoms: C11_17  and  C12_18 
REMARK    4  A    between atoms: C12_18  and  C13_19 
REMARK    5  A    between atoms: C13_19  and  N3_20 
ROOT
HETATM    1  O1  UNL     1      15.304  56.241  90.514  1.00  0.00    -0.247 OA
HETATM    2  C1  UNL     1      14.299  55.601  90.915  1.00  0.00     0.324 C 
HETATM    3  N1  UNL     1      13.190  55.410  90.054  1.00  0.00    -0.288 N 
ATOM      4  H1  UNL     1      13.182  55.785  89.105  1.00  0.00     0.172 HD
HETATM    5  C2  UNL     1      12.074  54.663  90.576  1.00  0.00     0.157 A 
HETATM    6  S1  UNL     1      10.557  54.295  89.880  1.00  0.00    -0.064 SA
HETATM    7  C3  UNL     1       9.875  53.463  91.200  1.00  0.00     0.070 A 
HETATM    8  C4  UNL     1      10.874  53.514  92.123  1.00  0.00     0.103 A 
HETATM    9  N2  UNL     1      12.001  54.136  91.783  1.00  0.00    -0.305 N 
HETATM   10  C5  UNL     1      13.178  54.216  92.685  1.00  0.00     0.144 C 
HETATM   11  C6  UNL     1      13.604  52.773  92.893  1.00  0.00     0.064 C 
HETATM   12  C7  UNL     1      13.737  52.572  94.373  1.00  0.00     0.044 C 
HETATM   13  C8  UNL     1      13.042  53.735  95.000  1.00  0.00    -0.045 A 
HETATM   14  C9  UNL     1      12.709  53.961  96.319  1.00  0.00     0.044 A 
HETATM   15  C10 UNL     1      12.054  55.103  96.744  1.00  0.00     0.069 A 
HETATM   16  C19 UNL     1      11.742  56.037  95.746  1.00  0.00     0.037 A 
HETATM   17  C20 UNL     1      12.079  55.802  94.430  1.00  0.00     0.015 A 
HETATM   18  C21 UNL     1      12.729  54.659  94.035  1.00  0.00    -0.003 A 
HETATM   19  N4  UNL     1      14.179  55.039  92.196  1.00  0.00    -0.311 N 
ATOM     20  H4  UNL     1      14.927  55.267  92.852  1.00  0.00     0.167 HD
ENDROOT
BRANCH  15  21
HETATM   21  O2  UNL     1      11.707  55.356  98.063  1.00  0.00    -0.351 OA
BRANCH  21  22
HETATM   22  C11 UNL     1      10.793  56.387  98.333  1.00  0.00     0.177 C 
BRANCH  22  23
HETATM   23  C12 UNL     1       9.395  55.849  98.593  1.00  0.00     0.046 C 
BRANCH  23  24
HETATM   24  C13 UNL     1       8.461  56.092  97.462  1.00  0.00     0.124 C 
BRANCH  24  25
HETATM   25  N3  UNL     1       7.787  54.890  97.097  1.00  0.00    -0.393 N 
HETATM   26  C14 UNL     1       7.415  54.797  95.721  1.00  0.00     0.122 C 
HETATM   27  C15 UNL     1       8.614  54.266  94.965  1.00  0.00     0.020 C 
HETATM   28  C16 UNL     1       8.916  52.881  95.463  1.00  0.00     0.007 C 
HETATM   29  C17 UNL     1       9.274  52.954  96.950  1.00  0.00     0.044 C 
HETATM   30  C18 UNL     1       8.165  53.676  97.701  1.00  0.00     0.058 C 
ENDBRANCH  24  25
ENDBRANCH  23  24
ENDBRANCH  22  23
ENDBRANCH  21  22
ENDBRANCH  15  21
TORSDOF 5
ENDMDL
