MODEL 1
REMARK VINA RESULT: -6.720655466      0.000      0.000
REMARK  8 active torsions:
REMARK  status: ('A' for Active; 'I' for Inactive)
REMARK    1  A    between atoms: N2_7  and  C6_8 
REMARK    2  A    between atoms: C6_8  and  C7_10 
REMARK    3  A    between atoms: C7_10  and  C8_11 
REMARK    4  A    between atoms: C13_16  and  C14_17 
REMARK    5  A    between atoms: C14_17  and  C15_18 
REMARK    6  A    between atoms: C15_18  and  O1_19 
REMARK    7  A    between atoms: C18_23  and  N3_24 
REMARK    8  A    between atoms: C20_26  and  O2_27 
ROOT
HETATM    1  N1  UNL     1      -6.689  32.290   6.942  1.00  0.00    -0.195 NA
HETATM    2  C1  UNL     1      -5.861  32.117   7.742  1.00  0.00     0.084 C 
HETATM    3  C2  UNL     1      -4.855  31.868   8.743  1.00  0.00     0.192 C 
HETATM    4  C3  UNL     1      -5.511  31.448  10.067  1.00  0.00     0.042 C 
HETATM    5  C4  UNL     1      -4.504  31.849  11.097  1.00  0.00     0.023 C 
HETATM    6  C5  UNL     1      -3.422  32.603  10.391  1.00  0.00     0.125 C 
HETATM    7  N2  UNL     1      -4.064  32.994   9.130  1.00  0.00    -0.358 N 
ENDROOT
BRANCH   7   8
HETATM    8  C6  UNL     1      -3.828  34.256   8.547  1.00  0.00     0.077 C 
HETATM    9  S1  UNL     1      -2.925  34.350   7.198  1.00  0.00    -0.066 SA
BRANCH   8  10
HETATM   10  C7  UNL     1      -4.408  35.493   9.112  1.00  0.00     0.074 C 
BRANCH  10  11
HETATM   11  C8  UNL     1      -4.308  36.625   8.150  1.00  0.00    -0.004 C 
HETATM   12  C9  UNL     1      -3.540  37.811   8.577  1.00  0.00     0.005 C 
HETATM   13  C10 UNL     1      -4.321  38.818   9.387  1.00  0.00     0.000 C 
HETATM   14  C11 UNL     1      -5.668  39.127   8.813  1.00  0.00     0.000 C 
HETATM   15  C12 UNL     1      -6.363  37.868   8.429  1.00  0.00     0.005 C 
HETATM   16  C13 UNL     1      -5.657  36.967   7.489  1.00  0.00    -0.007 C 
BRANCH  16  17
HETATM   17  C14 UNL     1      -5.347  37.422   6.138  1.00  0.00     0.043 C 
BRANCH  17  18
HETATM   18  C15 UNL     1      -5.811  36.764   4.922  1.00  0.00     0.058 C 
HETATM   19  C16 UNL     1      -6.445  37.611   3.879  1.00  0.00     0.040 C 
HETATM   20  C17 UNL     1      -5.880  37.460   2.488  1.00  0.00     0.038 C 
HETATM   21  C18 UNL     1      -5.569  36.082   2.067  1.00  0.00     0.223 C 
HETATM   22  C22 UNL     1      -5.713  35.065   3.210  1.00  0.00     0.038 C 
HETATM   23  C23 UNL     1      -4.878  35.704   4.335  1.00  0.00     0.040 C 
BRANCH  18  24
HETATM   24  O1  UNL     1      -6.871  35.900   5.390  1.00  0.00    -0.390 OA
ATOM     25  H1  UNL     1      -7.291  35.611   4.589  1.00  0.00     0.210 HD
ENDBRANCH  18  24
BRANCH  21  26
HETATM   26  N3  UNL     1      -6.198  35.563   0.919  1.00  0.00     0.098 N 
HETATM   27  C19 UNL     1      -7.214  34.566   1.081  1.00  0.00     0.306 C 
HETATM   28  C20 UNL     1      -6.879  34.103  -0.346  1.00  0.00     0.174 C 
HETATM   29  C21 UNL     1      -5.508  34.679   0.046  1.00  0.00     0.306 C 
BRANCH  28  30
HETATM   30  O2  UNL     1      -6.909  32.733  -0.503  1.00  0.00    -0.392 OA
ATOM     31  H2  UNL     1      -7.700  32.330  -0.164  1.00  0.00     0.210 HD
ENDBRANCH  28  30
ENDBRANCH  21  26
ENDBRANCH  17  18
ENDBRANCH  16  17
ENDBRANCH  10  11
ENDBRANCH   8  10
ENDBRANCH   7   8
TORSDOF 8
ENDMDL
MODEL 2
REMARK VINA RESULT: -6.700571394      2.890      8.447
REMARK  8 active torsions:
REMARK  status: ('A' for Active; 'I' for Inactive)
REMARK    1  A    between atoms: N2_7  and  C6_8 
REMARK    2  A    between atoms: C6_8  and  C7_10 
REMARK    3  A    between atoms: C7_10  and  C8_11 
REMARK    4  A    between atoms: C13_16  and  C14_17 
REMARK    5  A    between atoms: C14_17  and  C15_18 
REMARK    6  A    between atoms: C15_18  and  O1_19 
REMARK    7  A    between atoms: C18_23  and  N3_24 
REMARK    8  A    between atoms: C20_26  and  O2_27 
ROOT
HETATM    1  N1  UNL     1      -7.565  32.088   0.616  1.00  0.00    -0.195 NA
HETATM    2  C1  UNL     1      -7.550  32.992  -0.117  1.00  0.00     0.084 C 
HETATM    3  C2  UNL     1      -7.566  34.099  -1.041  1.00  0.00     0.192 C 
HETATM    4  C3  UNL     1      -7.896  33.605  -2.459  1.00  0.00     0.042 C 
HETATM    5  C4  UNL     1      -7.268  34.637  -3.340  1.00  0.00     0.023 C 
HETATM    6  C5  UNL     1      -6.489  35.560  -2.459  1.00  0.00     0.125 C 
HETATM    7  N2  UNL     1      -6.323  34.777  -1.228  1.00  0.00    -0.358 N 
ENDROOT
BRANCH   7   8
HETATM    8  C6  UNL     1      -5.120  34.813  -0.493  1.00  0.00     0.077 C 
HETATM    9  S1  UNL     1      -3.931  33.768  -0.870  1.00  0.00    -0.066 SA
BRANCH   8  10
HETATM   10  C7  UNL     1      -4.898  35.796   0.587  1.00  0.00     0.074 C 
BRANCH  10  11
HETATM   11  C8  UNL     1      -5.961  35.707   1.625  1.00  0.00    -0.004 C 
HETATM   12  C9  UNL     1      -7.146  36.571   1.457  1.00  0.00     0.005 C 
HETATM   13  C10 UNL     1      -6.996  37.971   2.002  1.00  0.00     0.000 C 
HETATM   14  C11 UNL     1      -6.389  38.015   3.369  1.00  0.00     0.000 C 
HETATM   15  C12 UNL     1      -5.197  37.124   3.429  1.00  0.00     0.005 C 
HETATM   16  C13 UNL     1      -5.398  35.704   3.059  1.00  0.00    -0.007 C 
BRANCH  16  17
HETATM   17  C14 UNL     1      -6.292  34.864   3.849  1.00  0.00     0.043 C 
BRANCH  17  18
HETATM   18  C15 UNL     1      -6.148  34.629   5.281  1.00  0.00     0.058 C 
HETATM   19  C16 UNL     1      -6.903  33.493   5.872  1.00  0.00     0.040 C 
HETATM   20  C17 UNL     1      -6.086  32.533   6.699  1.00  0.00     0.038 C 
HETATM   21  C18 UNL     1      -5.081  33.143   7.589  1.00  0.00     0.223 C 
HETATM   22  C22 UNL     1      -4.933  34.657   7.366  1.00  0.00     0.038 C 
HETATM   23  C23 UNL     1      -4.731  34.753   5.842  1.00  0.00     0.040 C 
BRANCH  18  24
HETATM   24  O1  UNL     1      -6.733  35.809   5.876  1.00  0.00    -0.390 OA
ATOM     25  H1  UNL     1      -5.987  36.380   6.017  1.00  0.00     0.210 HD
ENDBRANCH  18  24
BRANCH  21  26
HETATM   26  N3  UNL     1      -5.159  32.897   8.973  1.00  0.00     0.098 N 
HETATM   27  C19 UNL     1      -4.043  33.249   9.800  1.00  0.00     0.306 C 
HETATM   28  C20 UNL     1      -4.535  32.176  10.786  1.00  0.00     0.174 C 
HETATM   29  C21 UNL     1      -5.085  31.572   9.484  1.00  0.00     0.306 C 
BRANCH  28  30
HETATM   30  O2  UNL     1      -3.515  31.458  11.373  1.00  0.00    -0.392 OA
ATOM     31  H2  UNL     1      -3.747  30.557  11.566  1.00  0.00     0.210 HD
ENDBRANCH  28  30
ENDBRANCH  21  26
ENDBRANCH  17  18
ENDBRANCH  16  17
ENDBRANCH  10  11
ENDBRANCH   8  10
ENDBRANCH   7   8
TORSDOF 8
ENDMDL
MODEL 3
REMARK VINA RESULT: -6.589009155      2.477      7.651
REMARK  8 active torsions:
REMARK  status: ('A' for Active; 'I' for Inactive)
REMARK    1  A    between atoms: N2_7  and  C6_8 
REMARK    2  A    between atoms: C6_8  and  C7_10 
REMARK    3  A    between atoms: C7_10  and  C8_11 
REMARK    4  A    between atoms: C13_16  and  C14_17 
REMARK    5  A    between atoms: C14_17  and  C15_18 
REMARK    6  A    between atoms: C15_18  and  O1_19 
REMARK    7  A    between atoms: C18_23  and  N3_24 
REMARK    8  A    between atoms: C20_26  and  O2_27 
ROOT
HETATM    1  N1  UNL     1      -7.457  33.215   2.821  1.00  0.00    -0.195 NA
HETATM    2  C1  UNL     1      -7.592  33.647   1.749  1.00  0.00     0.084 C 
HETATM    3  C2  UNL     1      -7.789  34.155   0.415  1.00  0.00     0.192 C 
HETATM    4  C3  UNL     1      -7.896  32.995  -0.588  1.00  0.00     0.042 C 
HETATM    5  C4  UNL     1      -7.452  33.608  -1.877  1.00  0.00     0.023 C 
HETATM    6  C5  UNL     1      -6.966  34.989  -1.569  1.00  0.00     0.125 C 
HETATM    7  N2  UNL     1      -6.719  34.934  -0.123  1.00  0.00    -0.358 N 
ENDROOT
BRANCH   7   8
HETATM    8  C6  UNL     1      -5.611  35.587   0.456  1.00  0.00     0.077 C 
HETATM    9  S1  UNL     1      -4.232  34.755   0.683  1.00  0.00    -0.066 SA
BRANCH   8  10
HETATM   10  C7  UNL     1      -5.660  37.015   0.832  1.00  0.00     0.074 C 
BRANCH  10  11
HETATM   11  C8  UNL     1      -6.403  37.214   2.106  1.00  0.00    -0.004 C 
HETATM   12  C9  UNL     1      -7.586  38.096   2.070  1.00  0.00     0.005 C 
HETATM   13  C10 UNL     1      -7.289  39.567   2.236  1.00  0.00     0.000 C 
HETATM   14  C11 UNL     1      -6.334  39.860   3.350  1.00  0.00     0.000 C 
HETATM   15  C12 UNL     1      -5.174  38.928   3.289  1.00  0.00     0.005 C 
HETATM   16  C13 UNL     1      -5.473  37.477   3.306  1.00  0.00    -0.007 C 
BRANCH  16  17
HETATM   17  C14 UNL     1      -6.123  36.881   4.467  1.00  0.00     0.043 C 
BRANCH  17  18
HETATM   18  C15 UNL     1      -5.650  35.682   5.149  1.00  0.00     0.058 C 
HETATM   19  C16 UNL     1      -4.373  35.777   5.904  1.00  0.00     0.040 C 
HETATM   20  C17 UNL     1      -4.427  35.294   7.332  1.00  0.00     0.038 C 
HETATM   21  C18 UNL     1      -5.198  34.058   7.565  1.00  0.00     0.223 C 
HETATM   22  C22 UNL     1      -5.961  33.591   6.315  1.00  0.00     0.038 C 
HETATM   23  C23 UNL     1      -6.713  34.865   5.886  1.00  0.00     0.040 C 
BRANCH  18  24
HETATM   24  O1  UNL     1      -5.370  34.767   4.066  1.00  0.00    -0.390 OA
ATOM     25  H1  UNL     1      -4.608  34.289   4.371  1.00  0.00     0.210 HD
ENDBRANCH  18  24
BRANCH  21  26
HETATM   26  N3  UNL     1      -4.547  32.948   8.136  1.00  0.00     0.098 N 
HETATM   27  C19 UNL     1      -5.319  31.783   8.450  1.00  0.00     0.306 C 
HETATM   28  C20 UNL     1      -4.247  31.451   9.501  1.00  0.00     0.174 C 
HETATM   29  C21 UNL     1      -4.098  32.980   9.485  1.00  0.00     0.306 C 
BRANCH  28  30
HETATM   30  O2  UNL     1      -4.762  30.930  10.669  1.00  0.00    -0.392 OA
ATOM     31  H2  UNL     1      -4.387  30.090  10.909  1.00  0.00     0.210 HD
ENDBRANCH  28  30
ENDBRANCH  21  26
ENDBRANCH  17  18
ENDBRANCH  16  17
ENDBRANCH  10  11
ENDBRANCH   8  10
ENDBRANCH   7   8
TORSDOF 8
ENDMDL
MODEL 4
REMARK VINA RESULT: -6.474235649      3.024      7.900
REMARK  8 active torsions:
REMARK  status: ('A' for Active; 'I' for Inactive)
REMARK    1  A    between atoms: N2_7  and  C6_8 
REMARK    2  A    between atoms: C6_8  and  C7_10 
REMARK    3  A    between atoms: C7_10  and  C8_11 
REMARK    4  A    between atoms: C13_16  and  C14_17 
REMARK    5  A    between atoms: C14_17  and  C15_18 
REMARK    6  A    between atoms: C15_18  and  O1_19 
REMARK    7  A    between atoms: C18_23  and  N3_24 
REMARK    8  A    between atoms: C20_26  and  O2_27 
ROOT
HETATM    1  N1  UNL     1      -7.438  33.172   2.952  1.00  0.00    -0.195 NA
HETATM    2  C1  UNL     1      -7.606  33.546   1.863  1.00  0.00     0.084 C 
HETATM    3  C2  UNL     1      -7.831  33.975   0.505  1.00  0.00     0.192 C 
HETATM    4  C3  UNL     1      -7.383  32.884  -0.480  1.00  0.00     0.042 C 
HETATM    5  C4  UNL     1      -7.064  33.649  -1.724  1.00  0.00     0.023 C 
HETATM    6  C5  UNL     1      -7.169  35.104  -1.391  1.00  0.00     0.125 C 
HETATM    7  N2  UNL     1      -7.080  35.112   0.074  1.00  0.00    -0.358 N 
ENDROOT
BRANCH   7   8
HETATM    8  C6  UNL     1      -6.370  36.119   0.760  1.00  0.00     0.077 C 
HETATM    9  S1  UNL     1      -7.143  37.489   1.175  1.00  0.00    -0.066 SA
BRANCH   8  10
HETATM   10  C7  UNL     1      -4.953  35.948   1.141  1.00  0.00     0.074 C 
BRANCH  10  11
HETATM   11  C8  UNL     1      -4.686  36.508   2.494  1.00  0.00    -0.004 C 
HETATM   12  C9  UNL     1      -3.661  37.565   2.601  1.00  0.00     0.005 C 
HETATM   13  C10 UNL     1      -2.242  37.065   2.736  1.00  0.00     0.000 C 
HETATM   14  C11 UNL     1      -2.094  35.959   3.731  1.00  0.00     0.000 C 
HETATM   15  C12 UNL     1      -3.163  34.942   3.531  1.00  0.00     0.005 C 
HETATM   16  C13 UNL     1      -4.564  35.419   3.577  1.00  0.00    -0.007 C 
BRANCH  16  17
HETATM   17  C14 UNL     1      -5.096  36.001   4.805  1.00  0.00     0.043 C 
BRANCH  17  18
HETATM   18  C15 UNL     1      -5.240  35.278   6.063  1.00  0.00     0.058 C 
HETATM   19  C16 UNL     1      -6.409  34.370   6.205  1.00  0.00     0.040 C 
HETATM   20  C17 UNL     1      -6.088  32.965   6.649  1.00  0.00     0.038 C 
HETATM   21  C18 UNL     1      -5.070  32.841   7.709  1.00  0.00     0.223 C 
HETATM   22  C22 UNL     1      -4.390  34.179   8.037  1.00  0.00     0.038 C 
HETATM   23  C23 UNL     1      -3.958  34.686   6.648  1.00  0.00     0.040 C 
BRANCH  18  24
HETATM   24  O1  UNL     1      -5.469  36.327   7.030  1.00  0.00    -0.390 OA
ATOM     25  H1  UNL     1      -6.073  36.910   6.586  1.00  0.00     0.210 HD
ENDBRANCH  18  24
BRANCH  21  26
HETATM   26  N3  UNL     1      -5.418  32.204   8.915  1.00  0.00     0.098 N 
HETATM   27  C19 UNL     1      -4.866  32.700  10.141  1.00  0.00     0.306 C 
HETATM   28  C20 UNL     1      -5.080  31.291  10.716  1.00  0.00     0.174 C 
HETATM   29  C21 UNL     1      -4.904  30.918   9.236  1.00  0.00     0.306 C 
BRANCH  28  30
HETATM   30  O2  UNL     1      -4.060  30.873  11.545  1.00  0.00    -0.392 OA
ATOM     31  H2  UNL     1      -3.208  31.219  11.303  1.00  0.00     0.210 HD
ENDBRANCH  28  30
ENDBRANCH  21  26
ENDBRANCH  17  18
ENDBRANCH  16  17
ENDBRANCH  10  11
ENDBRANCH   8  10
ENDBRANCH   7   8
TORSDOF 8
ENDMDL
MODEL 5
REMARK VINA RESULT: -6.444283291      0.721      1.668
REMARK  8 active torsions:
REMARK  status: ('A' for Active; 'I' for Inactive)
REMARK    1  A    between atoms: N2_7  and  C6_8 
REMARK    2  A    between atoms: C6_8  and  C7_10 
REMARK    3  A    between atoms: C7_10  and  C8_11 
REMARK    4  A    between atoms: C13_16  and  C14_17 
REMARK    5  A    between atoms: C14_17  and  C15_18 
REMARK    6  A    between atoms: C15_18  and  O1_19 
REMARK    7  A    between atoms: C18_23  and  N3_24 
REMARK    8  A    between atoms: C20_26  and  O2_27 
ROOT
HETATM    1  N1  UNL     1      -2.659  32.887  11.750  1.00  0.00    -0.195 NA
HETATM    2  C1  UNL     1      -3.530  32.747  10.991  1.00  0.00     0.084 C 
HETATM    3  C2  UNL     1      -4.618  32.539  10.069  1.00  0.00     0.192 C 
HETATM    4  C3  UNL     1      -4.594  31.100   9.531  1.00  0.00     0.042 C 
HETATM    5  C4  UNL     1      -5.282  31.212   8.208  1.00  0.00     0.023 C 
HETATM    6  C5  UNL     1      -5.523  32.666   7.954  1.00  0.00     0.125 C 
HETATM    7  N2  UNL     1      -4.583  33.320   8.872  1.00  0.00    -0.358 N 
ENDROOT
BRANCH   7   8
HETATM    8  C6  UNL     1      -3.881  34.484   8.496  1.00  0.00     0.077 C 
HETATM    9  S1  UNL     1      -2.786  34.395   7.297  1.00  0.00    -0.066 SA
BRANCH   8  10
HETATM   10  C7  UNL     1      -4.137  35.788   9.141  1.00  0.00     0.074 C 
BRANCH  10  11
HETATM   11  C8  UNL     1      -4.163  36.890   8.140  1.00  0.00    -0.004 C 
HETATM   12  C9  UNL     1      -3.499  38.156   8.508  1.00  0.00     0.005 C 
HETATM   13  C10 UNL     1      -4.352  39.115   9.304  1.00  0.00     0.000 C 
HETATM   14  C11 UNL     1      -5.733  39.280   8.754  1.00  0.00     0.000 C 
HETATM   15  C12 UNL     1      -6.318  37.949   8.429  1.00  0.00     0.005 C 
HETATM   16  C13 UNL     1      -5.552  37.084   7.502  1.00  0.00    -0.007 C 
BRANCH  16  17
HETATM   17  C14 UNL     1      -5.315  37.518   6.130  1.00  0.00     0.043 C 
BRANCH  17  18
HETATM   18  C15 UNL     1      -5.822  36.827   4.950  1.00  0.00     0.058 C 
HETATM   19  C16 UNL     1      -6.438  37.653   3.879  1.00  0.00     0.040 C 
HETATM   20  C17 UNL     1      -5.900  37.420   2.489  1.00  0.00     0.038 C 
HETATM   21  C18 UNL     1      -5.649  36.014   2.124  1.00  0.00     0.223 C 
HETATM   22  C22 UNL     1      -5.816  35.053   3.312  1.00  0.00     0.038 C 
HETATM   23  C23 UNL     1      -4.940  35.706   4.397  1.00  0.00     0.040 C 
BRANCH  18  24
HETATM   24  O1  UNL     1      -6.908  36.027   5.469  1.00  0.00    -0.390 OA
ATOM     25  H1  UNL     1      -6.503  35.183   5.632  1.00  0.00     0.210 HD
ENDBRANCH  18  24
BRANCH  21  26
HETATM   26  N3  UNL     1      -6.316  35.471   1.008  1.00  0.00     0.098 N 
HETATM   27  C19 UNL     1      -7.261  34.415   1.216  1.00  0.00     0.306 C 
HETATM   28  C20 UNL     1      -6.986  33.988  -0.234  1.00  0.00     0.174 C 
HETATM   29  C21 UNL     1      -5.630  34.638   0.083  1.00  0.00     0.306 C 
BRANCH  28  30
HETATM   30  O2  UNL     1      -6.947  32.621  -0.409  1.00  0.00    -0.392 OA
ATOM     31  H2  UNL     1      -7.648  32.288  -0.958  1.00  0.00     0.210 HD
ENDBRANCH  28  30
ENDBRANCH  21  26
ENDBRANCH  17  18
ENDBRANCH  16  17
ENDBRANCH  10  11
ENDBRANCH   8  10
ENDBRANCH   7   8
TORSDOF 8
ENDMDL
