MODEL 1
REMARK VINA RESULT: -7.746255861      0.000      0.000
REMARK  7 active torsions:
REMARK  status: ('A' for Active; 'I' for Inactive)
REMARK       I    between atoms: C1_2  and  N1_3 
REMARK       I    between atoms: C1_2  and  N4_12 
REMARK    1  A    between atoms: N1_3  and  C2_5 
REMARK    2  A    between atoms: N4_12  and  C4_14 
REMARK    3  A    between atoms: C7_17  and  C8_18 
REMARK    4  A    between atoms: C8_18  and  C9_19 
REMARK    5  A    between atoms: C9_19  and  N5_20 
REMARK    6  A    between atoms: C12_23  and  O3_24 
REMARK    7  A    between atoms: C12_23  and  C13_26 
ROOT
HETATM    1  C4  UNL     1      -6.253  36.328  -0.074  1.00  0.00     0.086 C 
HETATM    2  C5  UNL     1      -5.268  35.309   0.426  1.00  0.00     0.026 C 
HETATM    3  C6  UNL     1      -5.411  35.138   1.944  1.00  0.00     0.007 C 
HETATM    4  C7  UNL     1      -5.195  36.508   2.528  1.00  0.00    -0.013 C 
HETATM    5  C21 UNL     1      -6.474  37.306   2.244  1.00  0.00     0.007 C 
HETATM    6  C22 UNL     1      -7.144  36.893   0.980  1.00  0.00     0.026 C 
ENDROOT
BRANCH   4   7
HETATM    7  C8  UNL     1      -4.843  36.534   3.975  1.00  0.00     0.034 C 
BRANCH   7   8
HETATM    8  C9  UNL     1      -6.010  36.956   4.794  1.00  0.00     0.272 C 
BRANCH   8   9
HETATM    9  N5  UNL     1      -6.190  36.094   5.978  1.00  0.00     0.088 N 
HETATM   10  C10 UNL     1      -5.082  36.394   6.858  1.00  0.00     0.275 C 
HETATM   11  C11 UNL     1      -4.949  35.370   7.982  1.00  0.00     0.068 C 
HETATM   12  C12 UNL     1      -4.726  34.035   7.324  1.00  0.00     0.065 C 
HETATM   13  C19 UNL     1      -5.976  33.710   6.539  1.00  0.00     0.068 C 
HETATM   14  C20 UNL     1      -6.147  34.740   5.476  1.00  0.00     0.275 C 
BRANCH  12  15
HETATM   15  O3  UNL     1      -3.676  34.099   6.392  1.00  0.00    -0.389 OA
ATOM     16  H3  UNL     1      -3.995  33.971   5.506  1.00  0.00     0.210 HD
ENDBRANCH  12  15
BRANCH  12  17
HETATM   17  C13 UNL     1      -4.382  33.015   8.343  1.00  0.00     0.020 C 
HETATM   18  C14 UNL     1      -4.350  33.589   9.755  1.00  0.00     0.007 C 
HETATM   19  C15 UNL     1      -3.910  32.472  10.679  1.00  0.00     0.000 C 
HETATM   20  C16 UNL     1      -4.778  31.262  10.593  1.00  0.00     0.000 C 
HETATM   21  C17 UNL     1      -4.913  30.791   9.162  1.00  0.00     0.000 C 
HETATM   22  C18 UNL     1      -5.496  31.974   8.378  1.00  0.00     0.007 C 
ENDBRANCH  12  17
ENDBRANCH   8   9
ENDBRANCH   7   8
ENDBRANCH   4   7
BRANCH   1  23
HETATM   23  N4  UNL     1      -7.111  35.686  -1.054  1.00  0.00    -0.338 N 
HETATM   24  C1  UNL     1      -7.010  35.955  -2.444  1.00  0.00     0.322 C 
HETATM   25  O1  UNL     1      -6.158  36.772  -2.870  1.00  0.00    -0.247 OA
HETATM   26  N1  UNL     1      -7.857  35.320  -3.389  1.00  0.00    -0.292 N 
ATOM     27  H1  UNL     1      -7.652  34.370  -3.697  1.00  0.00     0.172 HD
ATOM     28  H4  UNL     1      -7.811  35.017  -0.732  1.00  0.00     0.164 HD
BRANCH  26  29
HETATM   29  C2  UNL     1      -8.882  35.940  -3.859  1.00  0.00     0.148 A 
HETATM   30  C3  UNL     1     -10.075  35.362  -4.222  1.00  0.00     0.166 A 
HETATM   31  N2  UNL     1     -10.873  36.364  -4.660  1.00  0.00    -0.249 N 
HETATM   32  O2  UNL     1     -10.201  37.467  -4.566  1.00  0.00    -0.156 OA
ATOM     33  H2  UNL     1     -11.829  36.268  -5.004  1.00  0.00     0.196 HD
HETATM   34  N3  UNL     1      -9.008  37.256  -4.092  1.00  0.00    -0.224 N 
ATOM     35  H3  UNL     1      -8.293  37.965  -3.926  1.00  0.00     0.198 HD
ENDBRANCH  26  29
ENDBRANCH   1  23
TORSDOF 7
ENDMDL
MODEL 2
REMARK VINA RESULT: -7.660912565      0.913      1.204
REMARK  7 active torsions:
REMARK  status: ('A' for Active; 'I' for Inactive)
REMARK       I    between atoms: C1_2  and  N1_3 
REMARK       I    between atoms: C1_2  and  N4_12 
REMARK    1  A    between atoms: N1_3  and  C2_5 
REMARK    2  A    between atoms: N4_12  and  C4_14 
REMARK    3  A    between atoms: C7_17  and  C8_18 
REMARK    4  A    between atoms: C8_18  and  C9_19 
REMARK    5  A    between atoms: C9_19  and  N5_20 
REMARK    6  A    between atoms: C12_23  and  O3_24 
REMARK    7  A    between atoms: C12_23  and  C13_26 
ROOT
HETATM    1  C4  UNL     1      -6.293  36.220  -0.123  1.00  0.00     0.086 C 
HETATM    2  C5  UNL     1      -5.815  35.115   0.777  1.00  0.00     0.026 C 
HETATM    3  C6  UNL     1      -6.360  35.319   2.197  1.00  0.00     0.007 C 
HETATM    4  C7  UNL     1      -5.880  36.681   2.624  1.00  0.00    -0.013 C 
HETATM    5  C21 UNL     1      -6.748  37.699   1.874  1.00  0.00     0.007 C 
HETATM    6  C22 UNL     1      -7.192  37.209   0.540  1.00  0.00     0.026 C 
ENDROOT
BRANCH   4   7
HETATM    7  C8  UNL     1      -5.890  36.927   4.093  1.00  0.00     0.034 C 
BRANCH   7   8
HETATM    8  C9  UNL     1      -4.543  36.688   4.675  1.00  0.00     0.272 C 
BRANCH   8   9
HETATM    9  N5  UNL     1      -4.395  35.304   5.165  1.00  0.00     0.088 N 
HETATM   10  C10 UNL     1      -5.593  35.021   5.924  1.00  0.00     0.275 C 
HETATM   11  C11 UNL     1      -5.459  33.747   6.753  1.00  0.00     0.068 C 
HETATM   12  C12 UNL     1      -4.305  33.965   7.693  1.00  0.00     0.065 C 
HETATM   13  C19 UNL     1      -3.061  34.106   6.846  1.00  0.00     0.068 C 
HETATM   14  C20 UNL     1      -3.208  35.314   5.989  1.00  0.00     0.275 C 
BRANCH  12  15
HETATM   15  O3  UNL     1      -4.445  35.172   8.398  1.00  0.00    -0.389 OA
ATOM     16  H3  UNL     1      -4.132  35.087   9.291  1.00  0.00     0.210 HD
ENDBRANCH  12  15
BRANCH  12  17
HETATM   17  C13 UNL     1      -4.232  32.858   8.676  1.00  0.00     0.020 C 
HETATM   18  C14 UNL     1      -4.353  33.348  10.115  1.00  0.00     0.007 C 
HETATM   19  C15 UNL     1      -4.181  32.139  11.012  1.00  0.00     0.000 C 
HETATM   20  C16 UNL     1      -5.152  31.046  10.717  1.00  0.00     0.000 C 
HETATM   21  C17 UNL     1      -5.118  30.671   9.251  1.00  0.00     0.000 C 
HETATM   22  C18 UNL     1      -5.444  31.954   8.477  1.00  0.00     0.007 C 
ENDBRANCH  12  17
ENDBRANCH   8   9
ENDBRANCH   7   8
ENDBRANCH   4   7
BRANCH   1  23
HETATM   23  N4  UNL     1      -7.048  35.624  -1.210  1.00  0.00    -0.338 N 
HETATM   24  C1  UNL     1      -7.000  36.131  -2.535  1.00  0.00     0.322 C 
HETATM   25  O1  UNL     1      -6.288  37.129  -2.805  1.00  0.00    -0.247 OA
HETATM   26  N1  UNL     1      -7.745  35.538  -3.587  1.00  0.00    -0.292 N 
ATOM     27  H1  UNL     1      -7.397  34.695  -4.043  1.00  0.00     0.172 HD
ATOM     28  H4  UNL     1      -7.634  34.812  -1.015  1.00  0.00     0.164 HD
BRANCH  26  29
HETATM   29  C2  UNL     1      -8.858  36.062  -3.968  1.00  0.00     0.148 A 
HETATM   30  C3  UNL     1     -10.030  35.382  -4.198  1.00  0.00     0.166 A 
HETATM   31  N2  UNL     1     -10.943  36.305  -4.579  1.00  0.00    -0.249 N 
HETATM   32  O2  UNL     1     -10.356  37.460  -4.577  1.00  0.00    -0.156 OA
ATOM     33  H2  UNL     1     -11.917  36.124  -4.824  1.00  0.00     0.196 HD
HETATM   34  N3  UNL     1      -9.110  37.356  -4.218  1.00  0.00    -0.224 N 
ATOM     35  H3  UNL     1      -8.442  38.123  -4.139  1.00  0.00     0.198 HD
ENDBRANCH  26  29
ENDBRANCH   1  23
TORSDOF 7
ENDMDL
MODEL 3
REMARK VINA RESULT: -7.623832153      0.905      1.207
REMARK  7 active torsions:
REMARK  status: ('A' for Active; 'I' for Inactive)
REMARK       I    between atoms: C1_2  and  N1_3 
REMARK       I    between atoms: C1_2  and  N4_12 
REMARK    1  A    between atoms: N1_3  and  C2_5 
REMARK    2  A    between atoms: N4_12  and  C4_14 
REMARK    3  A    between atoms: C7_17  and  C8_18 
REMARK    4  A    between atoms: C8_18  and  C9_19 
REMARK    5  A    between atoms: C9_19  and  N5_20 
REMARK    6  A    between atoms: C12_23  and  O3_24 
REMARK    7  A    between atoms: C12_23  and  C13_26 
ROOT
HETATM    1  C4  UNL     1      -6.271  36.187   0.283  1.00  0.00     0.086 C 
HETATM    2  C5  UNL     1      -5.681  35.080   1.110  1.00  0.00     0.026 C 
HETATM    3  C6  UNL     1      -6.157  35.199   2.565  1.00  0.00     0.007 C 
HETATM    4  C7  UNL     1      -5.733  36.570   3.019  1.00  0.00    -0.013 C 
HETATM    5  C21 UNL     1      -6.698  37.562   2.358  1.00  0.00     0.007 C 
HETATM    6  C22 UNL     1      -7.186  37.096   1.031  1.00  0.00     0.026 C 
ENDROOT
BRANCH   4   7
HETATM    7  C8  UNL     1      -5.675  36.760   4.495  1.00  0.00     0.034 C 
BRANCH   7   8
HETATM    8  C9  UNL     1      -4.339  37.266   4.909  1.00  0.00     0.272 C 
BRANCH   8   9
HETATM    9  N5  UNL     1      -3.792  36.502   6.046  1.00  0.00     0.088 N 
HETATM   10  C10 UNL     1      -3.420  35.210   5.514  1.00  0.00     0.275 C 
HETATM   11  C11 UNL     1      -3.127  34.198   6.618  1.00  0.00     0.068 C 
HETATM   12  C12 UNL     1      -4.388  34.068   7.428  1.00  0.00     0.065 C 
HETATM   13  C19 UNL     1      -4.641  35.409   8.077  1.00  0.00     0.068 C 
HETATM   14  C20 UNL     1      -4.869  36.417   7.005  1.00  0.00     0.275 C 
BRANCH  12  15
HETATM   15  O3  UNL     1      -5.496  33.809   6.604  1.00  0.00    -0.389 OA
ATOM     16  H3  UNL     1      -6.184  33.364   7.084  1.00  0.00     0.210 HD
ENDBRANCH  12  15
BRANCH  12  17
HETATM   17  C13 UNL     1      -4.259  32.954   8.397  1.00  0.00     0.020 C 
HETATM   18  C14 UNL     1      -4.317  33.430   9.844  1.00  0.00     0.007 C 
HETATM   19  C15 UNL     1      -4.093  32.216  10.722  1.00  0.00     0.000 C 
HETATM   20  C16 UNL     1      -5.065  31.115  10.461  1.00  0.00     0.000 C 
HETATM   21  C17 UNL     1      -5.095  30.753   8.993  1.00  0.00     0.000 C 
HETATM   22  C18 UNL     1      -5.469  32.039   8.245  1.00  0.00     0.007 C 
ENDBRANCH  12  17
ENDBRANCH   8   9
ENDBRANCH   7   8
ENDBRANCH   4   7
BRANCH   1  23
HETATM   23  N4  UNL     1      -7.050  35.588  -0.786  1.00  0.00    -0.338 N 
HETATM   24  C1  UNL     1      -6.845  35.917  -2.152  1.00  0.00     0.322 C 
HETATM   25  O1  UNL     1      -5.966  36.752  -2.476  1.00  0.00    -0.247 OA
HETATM   26  N1  UNL     1      -7.615  35.323  -3.185  1.00  0.00    -0.292 N 
ATOM     27  H1  UNL     1      -7.384  34.388  -3.517  1.00  0.00     0.172 HD
ATOM     28  H4  UNL     1      -7.770  34.906  -0.547  1.00  0.00     0.164 HD
BRANCH  26  29
HETATM   29  C2  UNL     1      -8.605  35.963  -3.704  1.00  0.00     0.148 A 
HETATM   30  C3  UNL     1      -9.762  35.401  -4.187  1.00  0.00     0.166 A 
HETATM   31  N2  UNL     1     -10.528  36.421  -4.639  1.00  0.00    -0.249 N 
HETATM   32  O2  UNL     1      -9.873  37.520  -4.438  1.00  0.00    -0.156 OA
ATOM     33  H2  UNL     1     -11.454  36.339  -5.061  1.00  0.00     0.196 HD
HETATM   34  N3  UNL     1      -8.720  37.288  -3.881  1.00  0.00    -0.224 N 
ATOM     35  H3  UNL     1      -8.026  37.990  -3.625  1.00  0.00     0.198 HD
ENDBRANCH  26  29
ENDBRANCH   1  23
TORSDOF 7
ENDMDL
MODEL 4
REMARK VINA RESULT: -7.498675742      2.768      3.565
REMARK  7 active torsions:
REMARK  status: ('A' for Active; 'I' for Inactive)
REMARK       I    between atoms: C1_2  and  N1_3 
REMARK       I    between atoms: C1_2  and  N4_12 
REMARK    1  A    between atoms: N1_3  and  C2_5 
REMARK    2  A    between atoms: N4_12  and  C4_14 
REMARK    3  A    between atoms: C7_17  and  C8_18 
REMARK    4  A    between atoms: C8_18  and  C9_19 
REMARK    5  A    between atoms: C9_19  and  N5_20 
REMARK    6  A    between atoms: C12_23  and  O3_24 
REMARK    7  A    between atoms: C12_23  and  C13_26 
ROOT
HETATM    1  C4  UNL     1      -6.783  35.542   1.541  1.00  0.00     0.086 C 
HETATM    2  C5  UNL     1      -6.962  37.022   1.738  1.00  0.00     0.026 C 
HETATM    3  C6  UNL     1      -5.965  37.539   2.784  1.00  0.00     0.007 C 
HETATM    4  C7  UNL     1      -6.235  36.738   4.031  1.00  0.00    -0.013 C 
HETATM    5  C21 UNL     1      -5.642  35.345   3.786  1.00  0.00     0.007 C 
HETATM    6  C22 UNL     1      -5.687  34.940   2.354  1.00  0.00     0.026 C 
ENDROOT
BRANCH   4   7
HETATM    7  C8  UNL     1      -5.724  37.338   5.294  1.00  0.00     0.034 C 
BRANCH   7   8
HETATM    8  C9  UNL     1      -4.238  37.291   5.336  1.00  0.00     0.272 C 
BRANCH   8   9
HETATM    9  N5  UNL     1      -3.746  36.512   6.488  1.00  0.00     0.088 N 
HETATM   10  C10 UNL     1      -3.277  35.256   5.945  1.00  0.00     0.275 C 
HETATM   11  C11 UNL     1      -3.026  34.218   7.036  1.00  0.00     0.068 C 
HETATM   12  C12 UNL     1      -4.338  34.007   7.741  1.00  0.00     0.065 C 
HETATM   13  C19 UNL     1      -4.701  35.313   8.410  1.00  0.00     0.068 C 
HETATM   14  C20 UNL     1      -4.890  36.348   7.356  1.00  0.00     0.275 C 
BRANCH  12  15
HETATM   15  O3  UNL     1      -5.367  33.731   6.824  1.00  0.00    -0.389 OA
ATOM     16  H3  UNL     1      -5.952  33.061   7.157  1.00  0.00     0.210 HD
ENDBRANCH  12  15
BRANCH  12  17
HETATM   17  C13 UNL     1      -4.235  32.866   8.681  1.00  0.00     0.020 C 
HETATM   18  C14 UNL     1      -4.319  33.303  10.139  1.00  0.00     0.007 C 
HETATM   19  C15 UNL     1      -4.119  32.064  10.987  1.00  0.00     0.000 C 
HETATM   20  C16 UNL     1      -5.092  30.977  10.678  1.00  0.00     0.000 C 
HETATM   21  C17 UNL     1      -5.096  30.655   9.199  1.00  0.00     0.000 C 
HETATM   22  C18 UNL     1      -5.448  31.964   8.480  1.00  0.00     0.007 C 
ENDBRANCH  12  17
ENDBRANCH   8   9
ENDBRANCH   7   8
ENDBRANCH   4   7
BRANCH   1  23
HETATM   23  N4  UNL     1      -6.455  35.307   0.147  1.00  0.00    -0.338 N 
HETATM   24  C1  UNL     1      -6.653  34.047  -0.477  1.00  0.00     0.322 C 
HETATM   25  O1  UNL     1      -7.127  33.085   0.175  1.00  0.00    -0.247 OA
HETATM   26  N1  UNL     1      -6.327  33.832  -1.841  1.00  0.00    -0.292 N 
ATOM     27  H1  UNL     1      -6.967  34.141  -2.571  1.00  0.00     0.172 HD
ATOM     28  H4  UNL     1      -6.069  36.073  -0.404  1.00  0.00     0.164 HD
BRANCH  26  29
HETATM   29  C2  UNL     1      -5.225  33.247  -2.158  1.00  0.00     0.148 A 
HETATM   30  C3  UNL     1      -4.660  33.219  -3.411  1.00  0.00     0.166 A 
HETATM   31  N2  UNL     1      -3.516  32.503  -3.304  1.00  0.00    -0.249 N 
HETATM   32  O2  UNL     1      -3.405  32.129  -2.070  1.00  0.00    -0.156 OA
ATOM     33  H2  UNL     1      -2.862  32.297  -4.059  1.00  0.00     0.196 HD
HETATM   34  N3  UNL     1      -4.405  32.553  -1.354  1.00  0.00    -0.224 N 
ATOM     35  H3  UNL     1      -4.542  32.388  -0.356  1.00  0.00     0.198 HD
ENDBRANCH  26  29
ENDBRANCH   1  23
TORSDOF 7
ENDMDL
MODEL 5
REMARK VINA RESULT: -7.327920135      1.812      2.342
REMARK  7 active torsions:
REMARK  status: ('A' for Active; 'I' for Inactive)
REMARK       I    between atoms: C1_2  and  N1_3 
REMARK       I    between atoms: C1_2  and  N4_12 
REMARK    1  A    between atoms: N1_3  and  C2_5 
REMARK    2  A    between atoms: N4_12  and  C4_14 
REMARK    3  A    between atoms: C7_17  and  C8_18 
REMARK    4  A    between atoms: C8_18  and  C9_19 
REMARK    5  A    between atoms: C9_19  and  N5_20 
REMARK    6  A    between atoms: C12_23  and  O3_24 
REMARK    7  A    between atoms: C12_23  and  C13_26 
ROOT
HETATM    1  C4  UNL     1      -5.913  34.990   1.047  1.00  0.00     0.086 C 
HETATM    2  C5  UNL     1      -6.604  35.422   2.310  1.00  0.00     0.026 C 
HETATM    3  C6  UNL     1      -6.043  36.770   2.784  1.00  0.00     0.007 C 
HETATM    4  C7  UNL     1      -4.564  36.553   2.961  1.00  0.00    -0.013 C 
HETATM    5  C21 UNL     1      -3.961  36.513   1.551  1.00  0.00     0.007 C 
HETATM    6  C22 UNL     1      -4.900  35.959   0.537  1.00  0.00     0.026 C 
ENDROOT
BRANCH   4   7
HETATM    7  C8  UNL     1      -3.875  37.552   3.824  1.00  0.00     0.034 C 
BRANCH   7   8
HETATM    8  C9  UNL     1      -4.147  37.282   5.261  1.00  0.00     0.272 C 
BRANCH   8   9
HETATM    9  N5  UNL     1      -4.090  35.840   5.569  1.00  0.00     0.088 N 
HETATM   10  C10 UNL     1      -5.312  35.538   6.280  1.00  0.00     0.275 C 
HETATM   11  C11 UNL     1      -5.266  34.162   6.939  1.00  0.00     0.068 C 
HETATM   12  C12 UNL     1      -4.111  34.184   7.903  1.00  0.00     0.065 C 
HETATM   13  C19 UNL     1      -2.851  34.355   7.085  1.00  0.00     0.068 C 
HETATM   14  C20 UNL     1      -2.914  35.670   6.391  1.00  0.00     0.275 C 
BRANCH  12  15
HETATM   15  O3  UNL     1      -4.185  35.297   8.757  1.00  0.00    -0.389 OA
ATOM     16  H3  UNL     1      -3.834  35.094   9.616  1.00  0.00     0.210 HD
ENDBRANCH  12  15
BRANCH  12  17
HETATM   17  C13 UNL     1      -4.118  32.957   8.735  1.00  0.00     0.020 C 
HETATM   18  C14 UNL     1      -4.271  33.262  10.221  1.00  0.00     0.007 C 
HETATM   19  C15 UNL     1      -4.180  31.941  10.957  1.00  0.00     0.000 C 
HETATM   20  C16 UNL     1      -5.181  30.939  10.492  1.00  0.00     0.000 C 
HETATM   21  C17 UNL     1      -5.110  30.755   8.992  1.00  0.00     0.000 C 
HETATM   22  C18 UNL     1      -5.357  32.141   8.382  1.00  0.00     0.007 C 
ENDBRANCH  12  17
ENDBRANCH   8   9
ENDBRANCH   7   8
ENDBRANCH   4   7
BRANCH   1  23
HETATM   23  N4  UNL     1      -6.917  34.842   0.009  1.00  0.00    -0.338 N 
HETATM   24  C1  UNL     1      -6.873  33.793  -0.946  1.00  0.00     0.322 C 
HETATM   25  O1  UNL     1      -5.944  32.949  -0.916  1.00  0.00    -0.247 OA
HETATM   26  N1  UNL     1      -7.861  33.662  -1.955  1.00  0.00    -0.292 N 
ATOM     27  H1  UNL     1      -8.761  33.237  -1.733  1.00  0.00     0.172 HD
ATOM     28  H4  UNL     1      -7.682  35.516  -0.036  1.00  0.00     0.164 HD
BRANCH  26  29
HETATM   29  C2  UNL     1      -7.625  34.077  -3.151  1.00  0.00     0.148 A 
HETATM   30  C3  UNL     1      -8.403  34.955  -3.866  1.00  0.00     0.166 A 
HETATM   31  N2  UNL     1      -7.798  35.119  -5.066  1.00  0.00    -0.249 N 
HETATM   32  O2  UNL     1      -6.729  34.388  -5.067  1.00  0.00    -0.156 OA
ATOM     33  H2  UNL     1      -8.124  35.711  -5.830  1.00  0.00     0.196 HD
HETATM   34  N3  UNL     1      -6.591  33.750  -3.941  1.00  0.00    -0.224 N 
ATOM     35  H3  UNL     1      -5.830  33.113  -3.702  1.00  0.00     0.198 HD
ENDBRANCH  26  29
ENDBRANCH   1  23
TORSDOF 7
ENDMDL
