MODEL 1
REMARK VINA RESULT: -6.701754667      0.000      0.000
REMARK  12 active torsions:
REMARK  status: ('A' for Active; 'I' for Inactive)
REMARK    1  A    between atoms: C2_2  and  C3_3 
REMARK    2  A    between atoms: C3_3  and  C4_4 
REMARK    3  A    between atoms: C5_7  and  O1_8 
REMARK    4  A    between atoms: C13_20  and  C14_21 
REMARK    5  A    between atoms: C14_21  and  C15_22 
REMARK    6  A    between atoms: C25_37  and  C26_38 
REMARK    7  A    between atoms: C26_38  and  C27_39 
REMARK    8  A    between atoms: C27_39  and  C28_40 
REMARK    9  A    between atoms: C28_40  and  C29_41 
REMARK   10  A    between atoms: C29_41  and  C30_42 
REMARK   11  A    between atoms: C30_42  and  C31_43 
REMARK   12  A    between atoms: C31_43  and  N4_44 
ROOT
HETATM    1  C4  UNL     1      10.324  52.392  86.179  1.00  0.00     0.063 C 
HETATM    2  N1  UNL     1      11.491  52.312  86.979  1.00  0.00    -0.340 N 
ATOM      3  H1  UNL     1      12.258  51.839  86.502  1.00  0.00     0.167 HD
HETATM    4  C5  UNL     1      11.840  52.727  88.268  1.00  0.00     0.120 C 
HETATM    5  C6  UNL     1      11.949  54.100  88.775  1.00  0.00     0.073 C 
HETATM    6  C7  UNL     1      13.101  54.893  88.132  1.00  0.00     0.013 C 
HETATM    7  C8  UNL     1      14.432  54.597  88.766  1.00  0.00     0.001 C 
HETATM    8  C9  UNL     1      14.381  55.235  90.133  1.00  0.00     0.001 C 
HETATM    9  C10 UNL     1      12.972  55.480  90.596  1.00  0.00     0.015 C 
HETATM   10  C11 UNL     1      12.009  54.329  90.215  1.00  0.00     0.089 C 
HETATM   11  C12 UNL     1      12.307  53.271  91.158  1.00  0.00     0.223 C 
HETATM   12  O2  UNL     1      13.509  52.878  91.253  1.00  0.00    -0.273 OA
HETATM   13  N2  UNL     1      11.408  52.593  92.016  1.00  0.00    -0.347 N 
ATOM     14  H2  UNL     1      11.610  51.618  92.235  1.00  0.00     0.163 HD
HETATM   15  C13 UNL     1      10.237  53.173  92.602  1.00  0.00     0.188 C 
HETATM   16  C21 UNL     1       9.179  52.128  92.663  1.00  0.00     0.282 C 
HETATM   17  O3  UNL     1       9.520  51.083  93.281  1.00  0.00    -0.263 OA
HETATM   18  O4  UNL     1       7.979  52.294  92.111  1.00  0.00    -0.305 OA
HETATM   19  C22 UNL     1       7.534  52.502  90.798  1.00  0.00     0.220 C 
HETATM   20  C23 UNL     1       7.918  53.865  90.382  1.00  0.00     0.050 C 
HETATM   21  C24 UNL     1       7.939  51.381  89.944  1.00  0.00     0.251 C 
HETATM   22  O5  UNL     1       7.728  50.245  90.533  1.00  0.00    -0.270 OA
HETATM   23  N3  UNL     1       8.488  51.316  88.668  1.00  0.00    -0.325 N 
ATOM     24  H3  UNL     1       9.365  50.796  88.631  1.00  0.00     0.169 HD
HETATM   25  C25 UNL     1       8.077  51.826  87.400  1.00  0.00     0.064 C 
HETATM   26  C32 UNL     1       9.058  52.816  86.803  1.00  0.00     0.216 C 
HETATM   27  O6  UNL     1       8.706  53.980  86.885  1.00  0.00    -0.284 OA
ENDROOT
BRANCH  25  28
HETATM   28  C26 UNL     1       6.653  52.227  87.223  1.00  0.00     0.061 C 
BRANCH  28  29
HETATM   29  C27 UNL     1       6.039  51.601  86.006  1.00  0.00     0.006 C 
BRANCH  29  30
HETATM   30  C28 UNL     1       6.147  52.488  84.778  1.00  0.00     0.000 C 
BRANCH  30  31
HETATM   31  C29 UNL     1       7.037  51.924  83.745  1.00  0.00     0.002 C 
BRANCH  31  32
HETATM   32  C30 UNL     1       7.471  52.852  82.658  1.00  0.00     0.027 C 
BRANCH  32  33
HETATM   33  C31 UNL     1       8.251  52.230  81.564  1.00  0.00     0.229 C 
BRANCH  33  34
HETATM   34  N4  UNL     1       9.506  52.855  81.265  1.00  0.00    -0.079 N 
ATOM     35  H43 UNL     1       9.400  53.869  81.264  1.00  0.00     0.274 HD
ATOM     36  H42 UNL     1      10.148  52.741  82.049  1.00  0.00     0.274 HD
ATOM     37  H41 UNL     1       9.955  52.550  80.401  1.00  0.00     0.274 HD
ENDBRANCH  33  34
ENDBRANCH  32  33
ENDBRANCH  31  32
ENDBRANCH  30  31
ENDBRANCH  29  30
ENDBRANCH  28  29
ENDBRANCH  25  28
BRANCH   1  38
HETATM   38  C3  UNL     1      10.518  52.951  84.790  1.00  0.00     0.061 C 
BRANCH  38  39
HETATM   39  C2  UNL     1      11.838  53.507  84.451  1.00  0.00     0.002 C 
HETATM   40  C1  UNL     1      12.509  52.480  83.513  1.00  0.00     0.005 C 
ENDBRANCH  38  39
ENDBRANCH   1  38
BRANCH   4  41
HETATM   41  O1  UNL     1      12.090  51.737  89.075  1.00  0.00    -0.349 OA
ATOM     42  H1  UNL     1      12.839  51.893  89.639  1.00  0.00     0.219 HD
ENDBRANCH   4  41
BRANCH  15  43
HETATM   43  C14 UNL     1      10.448  53.584  94.047  1.00  0.00     0.074 C 
BRANCH  43  44
HETATM   44  C15 UNL     1      10.517  55.010  94.296  1.00  0.00    -0.056 A 
HETATM   45  C16 UNL     1       9.408  55.719  94.686  1.00  0.00     0.007 A 
HETATM   46  C17 UNL     1       9.457  57.092  94.927  1.00  0.00     0.001 A 
HETATM   47  C18 UNL     1      10.630  57.759  94.777  1.00  0.00     0.000 A 
HETATM   48  C19 UNL     1      11.756  57.082  94.390  1.00  0.00     0.001 A 
HETATM   49  C20 UNL     1      11.700  55.703  94.149  1.00  0.00     0.007 A 
ENDBRANCH  43  44
ENDBRANCH  15  43
TORSDOF 12
ENDMDL
MODEL 2
REMARK VINA RESULT: -6.694171905      1.350      2.241
REMARK  12 active torsions:
REMARK  status: ('A' for Active; 'I' for Inactive)
REMARK    1  A    between atoms: C2_2  and  C3_3 
REMARK    2  A    between atoms: C3_3  and  C4_4 
REMARK    3  A    between atoms: C5_7  and  O1_8 
REMARK    4  A    between atoms: C13_20  and  C14_21 
REMARK    5  A    between atoms: C14_21  and  C15_22 
REMARK    6  A    between atoms: C25_37  and  C26_38 
REMARK    7  A    between atoms: C26_38  and  C27_39 
REMARK    8  A    between atoms: C27_39  and  C28_40 
REMARK    9  A    between atoms: C28_40  and  C29_41 
REMARK   10  A    between atoms: C29_41  and  C30_42 
REMARK   11  A    between atoms: C30_42  and  C31_43 
REMARK   12  A    between atoms: C31_43  and  N4_44 
ROOT
HETATM    1  C4  UNL     1      10.185  52.324  86.315  1.00  0.00     0.063 C 
HETATM    2  N1  UNL     1      11.374  52.247  87.083  1.00  0.00    -0.340 N 
ATOM      3  H1  UNL     1      12.126  51.768  86.587  1.00  0.00     0.167 HD
HETATM    4  C5  UNL     1      11.761  52.671  88.357  1.00  0.00     0.120 C 
HETATM    5  C6  UNL     1      11.889  54.048  88.850  1.00  0.00     0.073 C 
HETATM    6  C7  UNL     1      13.024  54.832  88.168  1.00  0.00     0.013 C 
HETATM    7  C8  UNL     1      14.372  54.536  88.767  1.00  0.00     0.001 C 
HETATM    8  C9  UNL     1      14.362  55.185  90.129  1.00  0.00     0.001 C 
HETATM    9  C10 UNL     1      12.967  55.438  90.630  1.00  0.00     0.015 C 
HETATM   10  C11 UNL     1      11.991  54.287  90.286  1.00  0.00     0.089 C 
HETATM   11  C12 UNL     1      12.312  53.236  91.229  1.00  0.00     0.223 C 
HETATM   12  O2  UNL     1      13.516  52.840  91.292  1.00  0.00    -0.273 OA
HETATM   13  N2  UNL     1      11.437  52.568  92.118  1.00  0.00    -0.347 N 
ATOM     14  H2  UNL     1      11.642  51.594  92.338  1.00  0.00     0.163 HD
HETATM   15  C13 UNL     1      10.284  53.156  92.732  1.00  0.00     0.188 C 
HETATM   16  C21 UNL     1       9.226  52.115  92.831  1.00  0.00     0.282 C 
HETATM   17  O3  UNL     1       9.581  51.074  93.448  1.00  0.00    -0.263 OA
HETATM   18  O4  UNL     1       8.010  52.280  92.313  1.00  0.00    -0.305 OA
HETATM   19  C22 UNL     1       7.529  52.479  91.011  1.00  0.00     0.220 C 
HETATM   20  C23 UNL     1       7.905  53.838  90.574  1.00  0.00     0.050 C 
HETATM   21  C24 UNL     1       7.906  51.350  90.156  1.00  0.00     0.251 C 
HETATM   22  O5  UNL     1       7.708  50.220  90.759  1.00  0.00    -0.270 OA
HETATM   23  N3  UNL     1       8.418  51.273  88.865  1.00  0.00    -0.325 N 
ATOM     24  H3  UNL     1       9.292  50.750  88.807  1.00  0.00     0.169 HD
HETATM   25  C25 UNL     1       7.972  51.775  87.605  1.00  0.00     0.064 C 
HETATM   26  C32 UNL     1       8.938  52.757  86.973  1.00  0.00     0.216 C 
HETATM   27  O6  UNL     1       8.592  53.923  87.055  1.00  0.00    -0.284 OA
ENDROOT
BRANCH  25  28
HETATM   28  C26 UNL     1       6.544  52.179  87.466  1.00  0.00     0.061 C 
BRANCH  28  29
HETATM   29  C27 UNL     1       6.132  52.302  86.029  1.00  0.00     0.006 C 
BRANCH  29  30
HETATM   30  C28 UNL     1       5.315  53.554  85.762  1.00  0.00     0.000 C 
BRANCH  30  31
HETATM   31  C29 UNL     1       4.734  54.127  86.991  1.00  0.00     0.002 C 
BRANCH  31  32
HETATM   32  C30 UNL     1       5.060  55.556  87.282  1.00  0.00     0.027 C 
BRANCH  32  33
HETATM   33  C31 UNL     1       5.496  55.840  88.668  1.00  0.00     0.229 C 
BRANCH  33  34
HETATM   34  N4  UNL     1       6.608  56.735  88.797  1.00  0.00    -0.079 N 
ATOM     35  H43 UNL     1       7.410  56.241  89.188  1.00  0.00     0.274 HD
ATOM     36  H42 UNL     1       6.974  56.972  87.875  1.00  0.00     0.274 HD
ATOM     37  H41 UNL     1       6.429  57.587  89.329  1.00  0.00     0.274 HD
ENDBRANCH  33  34
ENDBRANCH  32  33
ENDBRANCH  31  32
ENDBRANCH  30  31
ENDBRANCH  29  30
ENDBRANCH  28  29
ENDBRANCH  25  28
BRANCH   1  38
HETATM   38  C3  UNL     1      10.341  52.871  84.917  1.00  0.00     0.061 C 
BRANCH  38  39
HETATM   39  C2  UNL     1      11.640  53.454  84.549  1.00  0.00     0.002 C 
HETATM   40  C1  UNL     1      12.279  52.476  83.538  1.00  0.00     0.005 C 
ENDBRANCH  38  39
ENDBRANCH   1  38
BRANCH   4  41
HETATM   41  O1  UNL     1      12.031  51.686  89.165  1.00  0.00    -0.349 OA
ATOM     42  H1  UNL     1      11.857  51.891  90.077  1.00  0.00     0.219 HD
ENDBRANCH   4  41
BRANCH  15  43
HETATM   43  C14 UNL     1      10.538  53.578  94.167  1.00  0.00     0.074 C 
BRANCH  43  44
HETATM   44  C15 UNL     1      10.499  55.004  94.424  1.00  0.00    -0.056 A 
HETATM   45  C16 UNL     1       9.356  55.615  94.877  1.00  0.00     0.007 A 
HETATM   46  C17 UNL     1       9.302  56.985  95.127  1.00  0.00     0.001 A 
HETATM   47  C18 UNL     1      10.405  57.750  94.922  1.00  0.00     0.000 A 
HETATM   48  C19 UNL     1      11.562  57.173  94.471  1.00  0.00     0.001 A 
HETATM   49  C20 UNL     1      11.610  55.795  94.222  1.00  0.00     0.007 A 
ENDBRANCH  43  44
ENDBRANCH  15  43
TORSDOF 12
ENDMDL
MODEL 3
REMARK VINA RESULT: -6.385992615      3.621      6.504
REMARK  12 active torsions:
REMARK  status: ('A' for Active; 'I' for Inactive)
REMARK    1  A    between atoms: C2_2  and  C3_3 
REMARK    2  A    between atoms: C3_3  and  C4_4 
REMARK    3  A    between atoms: C5_7  and  O1_8 
REMARK    4  A    between atoms: C13_20  and  C14_21 
REMARK    5  A    between atoms: C14_21  and  C15_22 
REMARK    6  A    between atoms: C25_37  and  C26_38 
REMARK    7  A    between atoms: C26_38  and  C27_39 
REMARK    8  A    between atoms: C27_39  and  C28_40 
REMARK    9  A    between atoms: C28_40  and  C29_41 
REMARK   10  A    between atoms: C29_41  and  C30_42 
REMARK   11  A    between atoms: C30_42  and  C31_43 
REMARK   12  A    between atoms: C31_43  and  N4_44 
ROOT
HETATM    1  C4  UNL     1      10.663  48.166  82.889  1.00  0.00     0.063 C 
HETATM    2  N1  UNL     1      10.255  47.845  84.207  1.00  0.00    -0.340 N 
ATOM      3  H1  UNL     1       9.734  46.968  84.250  1.00  0.00     0.167 HD
HETATM    4  C5  UNL     1      10.395  48.443  85.463  1.00  0.00     0.120 C 
HETATM    5  C6  UNL     1      11.631  48.669  86.222  1.00  0.00     0.073 C 
HETATM    6  C7  UNL     1      12.299  47.364  86.692  1.00  0.00     0.013 C 
HETATM    7  C8  UNL     1      11.677  46.815  87.947  1.00  0.00     0.001 C 
HETATM    8  C9  UNL     1      12.092  47.756  89.051  1.00  0.00     0.001 C 
HETATM    9  C10 UNL     1      12.506  49.103  88.526  1.00  0.00     0.015 C 
HETATM   10  C11 UNL     1      11.617  49.588  87.356  1.00  0.00     0.089 C 
HETATM   11  C12 UNL     1      10.389  50.031  87.983  1.00  0.00     0.223 C 
HETATM   12  O2  UNL     1       9.781  49.216  88.741  1.00  0.00    -0.273 OA
HETATM   13  N2  UNL     1       9.755  51.290  87.860  1.00  0.00    -0.347 N 
ATOM     14  H2  UNL     1       8.737  51.313  87.921  1.00  0.00     0.163 HD
HETATM   15  C13 UNL     1      10.433  52.535  87.657  1.00  0.00     0.188 C 
HETATM   16  C21 UNL     1       9.595  53.384  86.768  1.00  0.00     0.282 C 
HETATM   17  O3  UNL     1       8.422  53.576  87.192  1.00  0.00    -0.263 OA
HETATM   18  O4  UNL     1      10.054  53.895  85.627  1.00  0.00    -0.305 OA
HETATM   19  C22 UNL     1      10.540  53.334  84.438  1.00  0.00     0.220 C 
HETATM   20  C23 UNL     1      11.863  52.736  84.707  1.00  0.00     0.050 C 
HETATM   21  C24 UNL     1       9.513  52.489  83.822  1.00  0.00     0.251 C 
HETATM   22  O5  UNL     1       8.354  53.071  83.844  1.00  0.00    -0.270 OA
HETATM   23  N3  UNL     1       9.552  51.226  83.242  1.00  0.00    -0.325 N 
ATOM     24  H3  UNL     1       8.898  50.567  83.663  1.00  0.00     0.169 HD
HETATM   25  C25 UNL     1      10.319  50.663  82.178  1.00  0.00     0.064 C 
HETATM   26  C32 UNL     1      11.201  49.511  82.616  1.00  0.00     0.216 C 
HETATM   27  O6  UNL     1      12.382  49.796  82.719  1.00  0.00    -0.284 OA
ENDROOT
BRANCH  25  28
HETATM   28  C26 UNL     1      10.988  51.586  81.218  1.00  0.00     0.061 C 
BRANCH  28  29
HETATM   29  C27 UNL     1      10.998  51.035  79.822  1.00  0.00     0.006 C 
BRANCH  29  30
HETATM   30  C28 UNL     1      12.377  50.570  79.390  1.00  0.00     0.000 C 
BRANCH  30  31
HETATM   31  C29 UNL     1      13.432  51.554  79.697  1.00  0.00     0.002 C 
BRANCH  31  32
HETATM   32  C30 UNL     1      14.747  51.006  80.145  1.00  0.00     0.027 C 
BRANCH  32  33
HETATM   33  C31 UNL     1      15.381  51.720  81.277  1.00  0.00     0.229 C 
BRANCH  33  34
HETATM   34  N4  UNL     1      14.479  52.270  82.246  1.00  0.00    -0.079 N 
ATOM     35  H43 UNL     1      14.764  51.993  83.185  1.00  0.00     0.274 HD
ATOM     36  H42 UNL     1      14.607  53.280  82.308  1.00  0.00     0.274 HD
ATOM     37  H41 UNL     1      13.492  52.053  82.102  1.00  0.00     0.274 HD
ENDBRANCH  33  34
ENDBRANCH  32  33
ENDBRANCH  31  32
ENDBRANCH  30  31
ENDBRANCH  29  30
ENDBRANCH  28  29
ENDBRANCH  25  28
BRANCH   1  38
HETATM   38  C3  UNL     1      11.389  47.073  82.143  1.00  0.00     0.061 C 
BRANCH  38  39
HETATM   39  C2  UNL     1      11.355  47.104  80.672  1.00  0.00     0.002 C 
HETATM   40  C1  UNL     1       9.862  47.157  80.278  1.00  0.00     0.005 C 
ENDBRANCH  38  39
ENDBRANCH   1  38
BRANCH   4  41
HETATM   41  O1  UNL     1       9.262  48.828  85.977  1.00  0.00    -0.349 OA
ATOM     42  H1  UNL     1       9.081  48.432  86.822  1.00  0.00     0.219 HD
ENDBRANCH   4  41
BRANCH  15  43
HETATM   43  C14 UNL     1      10.570  53.341  88.935  1.00  0.00     0.074 C 
BRANCH  43  44
HETATM   44  C15 UNL     1      11.873  53.926  89.178  1.00  0.00    -0.056 A 
HETATM   45  C16 UNL     1      12.312  54.182  90.454  1.00  0.00     0.007 A 
HETATM   46  C17 UNL     1      13.562  54.747  90.704  1.00  0.00     0.001 A 
HETATM   47  C18 UNL     1      14.380  55.056  89.667  1.00  0.00     0.000 A 
HETATM   48  C19 UNL     1      13.974  54.813  88.381  1.00  0.00     0.001 A 
HETATM   49  C20 UNL     1      12.717  54.246  88.136  1.00  0.00     0.007 A 
ENDBRANCH  43  44
ENDBRANCH  15  43
TORSDOF 12
ENDMDL
MODEL 4
REMARK VINA RESULT: -6.350650564      1.461      3.056
REMARK  12 active torsions:
REMARK  status: ('A' for Active; 'I' for Inactive)
REMARK    1  A    between atoms: C2_2  and  C3_3 
REMARK    2  A    between atoms: C3_3  and  C4_4 
REMARK    3  A    between atoms: C5_7  and  O1_8 
REMARK    4  A    between atoms: C13_20  and  C14_21 
REMARK    5  A    between atoms: C14_21  and  C15_22 
REMARK    6  A    between atoms: C25_37  and  C26_38 
REMARK    7  A    between atoms: C26_38  and  C27_39 
REMARK    8  A    between atoms: C27_39  and  C28_40 
REMARK    9  A    between atoms: C28_40  and  C29_41 
REMARK   10  A    between atoms: C29_41  and  C30_42 
REMARK   11  A    between atoms: C30_42  and  C31_43 
REMARK   12  A    between atoms: C31_43  and  N4_44 
ROOT
HETATM    1  C4  UNL     1      10.276  52.326  86.263  1.00  0.00     0.063 C 
HETATM    2  N1  UNL     1      11.442  52.238  87.064  1.00  0.00    -0.340 N 
ATOM      3  H1  UNL     1      12.204  51.755  86.588  1.00  0.00     0.167 HD
HETATM    4  C5  UNL     1      11.797  52.656  88.350  1.00  0.00     0.120 C 
HETATM    5  C6  UNL     1      11.920  54.030  88.850  1.00  0.00     0.073 C 
HETATM    6  C7  UNL     1      13.079  54.809  88.202  1.00  0.00     0.013 C 
HETATM    7  C8  UNL     1      14.408  54.502  88.837  1.00  0.00     0.001 C 
HETATM    8  C9  UNL     1      14.365  55.147  90.201  1.00  0.00     0.001 C 
HETATM    9  C10 UNL     1      12.958  55.408  90.664  1.00  0.00     0.015 C 
HETATM   10  C11 UNL     1      11.984  54.265  90.289  1.00  0.00     0.089 C 
HETATM   11  C12 UNL     1      12.271  53.209  91.237  1.00  0.00     0.223 C 
HETATM   12  O2  UNL     1      13.470  52.804  91.333  1.00  0.00    -0.273 OA
HETATM   13  N2  UNL     1      11.367  52.544  92.099  1.00  0.00    -0.347 N 
ATOM     14  H2  UNL     1      11.560  51.568  92.322  1.00  0.00     0.163 HD
HETATM   15  C13 UNL     1      10.202  53.138  92.683  1.00  0.00     0.188 C 
HETATM   16  C21 UNL     1       9.134  52.104  92.750  1.00  0.00     0.282 C 
HETATM   17  O3  UNL     1       9.464  51.058  93.373  1.00  0.00    -0.263 OA
HETATM   18  O4  UNL     1       7.935  52.279  92.198  1.00  0.00    -0.305 OA
HETATM   19  C22 UNL     1       7.491  52.486  90.884  1.00  0.00     0.220 C 
HETATM   20  C23 UNL     1       7.888  53.843  90.462  1.00  0.00     0.050 C 
HETATM   21  C24 UNL     1       7.884  51.357  90.036  1.00  0.00     0.251 C 
HETATM   22  O5  UNL     1       7.662  50.226  90.630  1.00  0.00    -0.270 OA
HETATM   23  N3  UNL     1       8.432  51.280  88.760  1.00  0.00    -0.325 N 
ATOM     24  H3  UNL     1       9.303  50.751  88.724  1.00  0.00     0.169 HD
HETATM   25  C25 UNL     1       8.024  51.789  87.489  1.00  0.00     0.064 C 
HETATM   26  C32 UNL     1       9.014  52.766  86.887  1.00  0.00     0.216 C 
HETATM   27  O6  UNL     1       8.674  53.933  86.963  1.00  0.00    -0.284 OA
ENDROOT
BRANCH  25  28
HETATM   28  C26 UNL     1       6.604  52.203  87.312  1.00  0.00     0.061 C 
BRANCH  28  29
HETATM   29  C27 UNL     1       5.715  51.039  86.985  1.00  0.00     0.006 C 
BRANCH  29  30
HETATM   30  C28 UNL     1       4.741  50.718  88.103  1.00  0.00     0.000 C 
BRANCH  30  31
HETATM   31  C29 UNL     1       4.270  51.923  88.812  1.00  0.00     0.002 C 
BRANCH  31  32
HETATM   32  C30 UNL     1       4.027  51.784  90.279  1.00  0.00     0.027 C 
BRANCH  32  33
HETATM   33  C31 UNL     1       3.958  50.393  90.783  1.00  0.00     0.229 C 
BRANCH  33  34
HETATM   34  N4  UNL     1       4.890  50.064  91.822  1.00  0.00    -0.079 N 
ATOM     35  H43 UNL     1       5.842  50.253  91.509  1.00  0.00     0.274 HD
ATOM     36  H42 UNL     1       4.814  50.736  92.585  1.00  0.00     0.274 HD
ATOM     37  H41 UNL     1       4.825  49.114  92.187  1.00  0.00     0.274 HD
ENDBRANCH  33  34
ENDBRANCH  32  33
ENDBRANCH  31  32
ENDBRANCH  30  31
ENDBRANCH  29  30
ENDBRANCH  28  29
ENDBRANCH  25  28
BRANCH   1  38
HETATM   38  C3  UNL     1      10.474  52.876  84.872  1.00  0.00     0.061 C 
BRANCH  38  39
HETATM   39  C2  UNL     1      11.784  53.460  84.545  1.00  0.00     0.002 C 
HETATM   40  C1  UNL     1      12.448  52.491  83.541  1.00  0.00     0.005 C 
ENDBRANCH  38  39
ENDBRANCH   1  38
BRANCH   4  41
HETATM   41  O1  UNL     1      12.038  51.667  89.162  1.00  0.00    -0.349 OA
ATOM     42  H1  UNL     1      11.405  50.961  89.090  1.00  0.00     0.219 HD
ENDBRANCH   4  41
BRANCH  15  43
HETATM   43  C14 UNL     1      10.419  53.554  94.126  1.00  0.00     0.074 C 
BRANCH  43  44
HETATM   44  C15 UNL     1      10.413  54.981  94.382  1.00  0.00    -0.056 A 
HETATM   45  C16 UNL     1      11.555  55.732  94.250  1.00  0.00     0.007 A 
HETATM   46  C17 UNL     1      11.566  57.104  94.495  1.00  0.00     0.001 A 
HETATM   47  C18 UNL     1      10.422  57.730  94.873  1.00  0.00     0.000 A 
HETATM   48  C19 UNL     1       9.265  57.010  95.013  1.00  0.00     0.001 A 
HETATM   49  C20 UNL     1       9.260  55.631  94.766  1.00  0.00     0.007 A 
ENDBRANCH  43  44
ENDBRANCH  15  43
TORSDOF 12
ENDMDL
MODEL 5
REMARK VINA RESULT: -6.346909722      1.339      2.387
REMARK  12 active torsions:
REMARK  status: ('A' for Active; 'I' for Inactive)
REMARK    1  A    between atoms: C2_2  and  C3_3 
REMARK    2  A    between atoms: C3_3  and  C4_4 
REMARK    3  A    between atoms: C5_7  and  O1_8 
REMARK    4  A    between atoms: C13_20  and  C14_21 
REMARK    5  A    between atoms: C14_21  and  C15_22 
REMARK    6  A    between atoms: C25_37  and  C26_38 
REMARK    7  A    between atoms: C26_38  and  C27_39 
REMARK    8  A    between atoms: C27_39  and  C28_40 
REMARK    9  A    between atoms: C28_40  and  C29_41 
REMARK   10  A    between atoms: C29_41  and  C30_42 
REMARK   11  A    between atoms: C30_42  and  C31_43 
REMARK   12  A    between atoms: C31_43  and  N4_44 
ROOT
HETATM    1  C4  UNL     1      10.329  52.387  86.186  1.00  0.00     0.063 C 
HETATM    2  N1  UNL     1      11.493  52.306  86.992  1.00  0.00    -0.340 N 
ATOM      3  H1  UNL     1      12.261  51.830  86.518  1.00  0.00     0.167 HD
HETATM    4  C5  UNL     1      11.839  52.724  88.280  1.00  0.00     0.120 C 
HETATM    5  C6  UNL     1      11.949  54.098  88.785  1.00  0.00     0.073 C 
HETATM    6  C7  UNL     1      13.106  54.886  88.144  1.00  0.00     0.013 C 
HETATM    7  C8  UNL     1      14.434  54.588  88.784  1.00  0.00     0.001 C 
HETATM    8  C9  UNL     1      14.380  55.230  90.149  1.00  0.00     0.001 C 
HETATM    9  C10 UNL     1      12.969  55.479  90.606  1.00  0.00     0.015 C 
HETATM   10  C11 UNL     1      12.005  54.329  90.225  1.00  0.00     0.089 C 
HETATM   11  C12 UNL     1      12.296  53.274  91.171  1.00  0.00     0.223 C 
HETATM   12  O2  UNL     1      13.497  52.878  91.271  1.00  0.00    -0.273 OA
HETATM   13  N2  UNL     1      11.393  52.600  92.028  1.00  0.00    -0.347 N 
ATOM     14  H2  UNL     1      11.592  51.625  92.249  1.00  0.00     0.163 HD
HETATM   15  C13 UNL     1      10.221  53.184  92.607  1.00  0.00     0.188 C 
HETATM   16  C21 UNL     1       9.160  52.142  92.667  1.00  0.00     0.282 C 
HETATM   17  O3  UNL     1       9.496  51.097  93.289  1.00  0.00    -0.263 OA
HETATM   18  O4  UNL     1       7.962  52.309  92.110  1.00  0.00    -0.305 OA
HETATM   19  C22 UNL     1       7.523  52.516  90.795  1.00  0.00     0.220 C 
HETATM   20  C23 UNL     1       7.912  53.877  90.377  1.00  0.00     0.050 C 
HETATM   21  C24 UNL     1       7.928  51.392  89.946  1.00  0.00     0.251 C 
HETATM   22  O5  UNL     1       7.712  50.258  90.536  1.00  0.00    -0.270 OA
HETATM   23  N3  UNL     1       8.482  51.322  88.672  1.00  0.00    -0.325 N 
ATOM     24  H3  UNL     1       9.357  50.799  88.639  1.00  0.00     0.169 HD
HETATM   25  C25 UNL     1       8.077  51.831  87.401  1.00  0.00     0.064 C 
HETATM   26  C32 UNL     1       9.062  52.816  86.806  1.00  0.00     0.216 C 
HETATM   27  O6  UNL     1       8.713  53.981  86.883  1.00  0.00    -0.284 OA
ENDROOT
BRANCH  25  28
HETATM   28  C26 UNL     1       6.654  52.235  87.218  1.00  0.00     0.061 C 
BRANCH  28  29
HETATM   29  C27 UNL     1       6.058  51.647  85.973  1.00  0.00     0.006 C 
BRANCH  29  30
HETATM   30  C28 UNL     1       5.941  50.135  86.042  1.00  0.00     0.000 C 
BRANCH  30  31
HETATM   31  C29 UNL     1       5.093  49.679  87.160  1.00  0.00     0.002 C 
BRANCH  31  32
HETATM   32  C30 UNL     1       5.686  48.658  88.075  1.00  0.00     0.027 C 
BRANCH  32  33
HETATM   33  C31 UNL     1       7.004  48.124  87.664  1.00  0.00     0.229 C 
BRANCH  33  34
HETATM   34  N4  UNL     1       7.908  47.816  88.734  1.00  0.00    -0.079 N 
ATOM     35  H43 UNL     1       7.612  46.962  89.206  1.00  0.00     0.274 HD
ATOM     36  H42 UNL     1       8.805  47.513  88.355  1.00  0.00     0.274 HD
ATOM     37  H41 UNL     1       8.052  48.560  89.417  1.00  0.00     0.274 HD
ENDBRANCH  33  34
ENDBRANCH  32  33
ENDBRANCH  31  32
ENDBRANCH  30  31
ENDBRANCH  29  30
ENDBRANCH  28  29
ENDBRANCH  25  28
BRANCH   1  38
HETATM   38  C3  UNL     1      10.530  52.942  84.797  1.00  0.00     0.061 C 
BRANCH  38  39
HETATM   39  C2  UNL     1      11.852  53.494  84.462  1.00  0.00     0.002 C 
HETATM   40  C1  UNL     1      12.511  52.477  83.503  1.00  0.00     0.005 C 
ENDBRANCH  38  39
ENDBRANCH   1  38
BRANCH   4  41
HETATM   41  O1  UNL     1      12.083  51.734  89.091  1.00  0.00    -0.349 OA
ATOM     42  H1  UNL     1      11.299  51.375  89.489  1.00  0.00     0.219 HD
ENDBRANCH   4  41
BRANCH  15  43
HETATM   43  C14 UNL     1      10.428  53.598  94.052  1.00  0.00     0.074 C 
BRANCH  43  44
HETATM   44  C15 UNL     1      10.497  55.025  94.299  1.00  0.00    -0.056 A 
HETATM   45  C16 UNL     1      11.673  55.717  94.146  1.00  0.00     0.007 A 
HETATM   46  C17 UNL     1      11.756  57.089  94.382  1.00  0.00     0.001 A 
HETATM   47  C18 UNL     1      10.651  57.773  94.772  1.00  0.00     0.000 A 
HETATM   48  C19 UNL     1       9.461  57.113  94.933  1.00  0.00     0.001 A 
HETATM   49  C20 UNL     1       9.384  55.735  94.695  1.00  0.00     0.007 A 
ENDBRANCH  43  44
ENDBRANCH  15  43
TORSDOF 12
ENDMDL
