MODEL 1
REMARK VINA RESULT: -7.752272505      0.000      0.000
REMARK  16 active torsions:
REMARK  status: ('A' for Active; 'I' for Inactive)
REMARK    1  A    between atoms: C2_2  and  C3_3 
REMARK    2  A    between atoms: C3_3  and  C4_4 
REMARK    3  A    between atoms: C4_4  and  N1_5 
REMARK    4  A    between atoms: N1_5  and  C5_7 
REMARK    5  A    between atoms: C6_10  and  N3_11 
REMARK    6  A    between atoms: N3_11  and  C7_13 
REMARK    7  A    between atoms: C9_15  and  O1_16 
REMARK    8  A    between atoms: O1_16  and  C10_17 
REMARK    9  A    between atoms: C17_24  and  C18_25 
REMARK   10  A    between atoms: C18_25  and  O2_26 
REMARK   11  A    between atoms: C18_25  and  N4_28 
REMARK   12  A    between atoms: N5_31  and  C21_32 
REMARK   13  A    between atoms: C21_32  and  C22_33 
REMARK   14  A    between atoms: C22_33  and  O3_34 
REMARK   15  A    between atoms: C26_41  and  N7_42 
REMARK   16  A    between atoms: N7_42  and  C27_44 
ROOT
HETATM    1  C7  UNL     1      12.976  53.895  91.502  1.00  0.00     0.052 A 
HETATM    2  C8  UNL     1      12.440  54.966  92.225  1.00  0.00     0.066 A 
HETATM    3  C9  UNL     1      12.306  54.894  93.585  1.00  0.00     0.072 A 
HETATM    4  C16 UNL     1      12.726  53.709  94.203  1.00  0.00     0.052 A 
HETATM    5  C17 UNL     1      13.253  52.630  93.571  1.00  0.00     0.019 A 
HETATM    6  C25 UNL     1      13.370  52.759  92.173  1.00  0.00     0.046 A 
ENDROOT
BRANCH   1   7
HETATM    7  N3  UNL     1      13.122  53.947  90.092  1.00  0.00    -0.191 N 
ATOM      8  H3  UNL     1      14.038  54.207  89.725  1.00  0.00     0.184 HD
BRANCH   7   9
HETATM    9  C6  UNL     1      12.195  53.694  89.243  1.00  0.00     0.711 A 
HETATM   10  N2  UNL     1      12.492  53.742  87.911  1.00  0.00    -0.021 N 
HETATM   11  C5  UNL     1      11.599  53.493  86.957  1.00  0.00     0.707 A 
ATOM     12  H2  UNL     1      13.445  53.982  87.634  1.00  0.00     0.203 HD
HETATM   13  N8  UNL     1      10.314  53.170  87.317  1.00  0.00    -0.022 N 
HETATM   14  C26 UNL     1       9.976  53.111  88.609  1.00  0.00     0.707 A 
ATOM     15  H8  UNL     1       9.616  52.975  86.598  1.00  0.00     0.203 HD
HETATM   16  N6  UNL     1      10.933  53.376  89.547  1.00  0.00    -0.021 N 
ATOM     17  H6  UNL     1      10.670  53.329  90.531  1.00  0.00     0.203 HD
BRANCH  11  18
HETATM   18  N1  UNL     1      11.836  53.535  85.694  1.00  0.00    -0.225 N 
ATOM     19  H1  UNL     1      11.039  53.340  85.088  1.00  0.00     0.177 HD
BRANCH  18  20
HETATM   20  C4  UNL     1      13.056  53.816  85.030  1.00  0.00     0.138 C 
BRANCH  20  21
HETATM   21  C3  UNL     1      13.188  53.085  83.700  1.00  0.00     0.020 C 
BRANCH  21  22
HETATM   22  C2  UNL     1      14.543  53.485  83.113  1.00  0.00    -0.003 C 
HETATM   23  C1  UNL     1      14.999  52.544  82.035  1.00  0.00     0.005 C 
ENDBRANCH  21  22
ENDBRANCH  20  21
ENDBRANCH  18  20
ENDBRANCH  11  18
BRANCH  14  24
HETATM   24  N7  UNL     1       8.785  52.814  88.963  1.00  0.00    -0.220 N 
ATOM     25  H7  UNL     1       8.634  52.026  89.592  1.00  0.00     0.178 HD
BRANCH  24  26
HETATM   26  C27 UNL     1       7.655  53.566  88.494  1.00  0.00     0.099 C 
HETATM   27  C28 UNL     1       7.818  55.049  88.820  1.00  0.00     0.026 C 
HETATM   28  C29 UNL     1       6.504  55.770  88.666  1.00  0.00     0.002 C 
HETATM   29  C30 UNL     1       5.549  55.299  89.719  1.00  0.00     0.000 C 
HETATM   30  C31 UNL     1       5.909  53.925  90.249  1.00  0.00     0.002 C 
HETATM   31  C32 UNL     1       6.383  53.026  89.122  1.00  0.00     0.026 C 
ENDBRANCH  24  26
ENDBRANCH  14  24
ENDBRANCH   7   9
ENDBRANCH   1   7
BRANCH   3  32
HETATM   32  O1  UNL     1      11.786  55.926  94.305  1.00  0.00    -0.346 OA
BRANCH  32  33
HETATM   33  C10 UNL     1      10.525  56.467  94.337  1.00  0.00     0.129 C 
HETATM   34  C11 UNL     1      10.534  57.915  94.789  1.00  0.00     0.032 C 
HETATM   35  C12 UNL     1       9.577  58.186  95.894  1.00  0.00     0.002 C 
HETATM   36  C13 UNL     1       8.165  57.710  95.610  1.00  0.00     0.000 C 
HETATM   37  C14 UNL     1       8.175  56.335  94.973  1.00  0.00     0.002 C 
HETATM   38  C15 UNL     1       9.556  55.712  95.218  1.00  0.00     0.032 C 
ENDBRANCH  32  33
ENDBRANCH   3  32
BRANCH   5  39
HETATM   39  C18 UNL     1      13.676  51.387  94.171  1.00  0.00     0.148 C 
BRANCH  39  40
HETATM   40  O2  UNL     1      13.346  50.321  93.484  1.00  0.00    -0.346 OA
ATOM     41  H2  UNL     1      14.060  49.709  93.351  1.00  0.00     0.219 HD
ENDBRANCH  39  40
BRANCH  39  42
HETATM   42  N4  UNL     1      14.360  51.101  95.335  1.00  0.00    -0.358 N 
HETATM   43  C19 UNL     1      15.661  50.422  95.241  1.00  0.00     0.145 C 
HETATM   44  C20 UNL     1      16.644  51.308  96.027  1.00  0.00     0.141 C 
HETATM   45  N5  UNL     1      16.258  51.267  97.390  1.00  0.00    -0.388 N 
HETATM   46  C23 UNL     1      14.951  50.797  97.666  1.00  0.00     0.141 C 
HETATM   47  C24 UNL     1      13.932  51.380  96.663  1.00  0.00     0.145 C 
BRANCH  45  48
HETATM   48  C21 UNL     1      17.291  50.899  98.267  1.00  0.00     0.084 C 
BRANCH  48  49
HETATM   49  C22 UNL     1      18.068  52.019  98.873  1.00  0.00     0.208 C 
BRANCH  49  50
HETATM   50  O3  UNL     1      19.223  52.324  98.208  1.00  0.00    -0.396 OA
ATOM     51  H3  UNL     1      19.980  51.827  98.494  1.00  0.00     0.209 HD
ENDBRANCH  49  50
ENDBRANCH  48  49
ENDBRANCH  45  48
ENDBRANCH  39  42
ENDBRANCH   5  39
TORSDOF 16
ENDMDL
MODEL 2
REMARK VINA RESULT: -7.498041765      2.477      4.493
REMARK  16 active torsions:
REMARK  status: ('A' for Active; 'I' for Inactive)
REMARK    1  A    between atoms: C2_2  and  C3_3 
REMARK    2  A    between atoms: C3_3  and  C4_4 
REMARK    3  A    between atoms: C4_4  and  N1_5 
REMARK    4  A    between atoms: N1_5  and  C5_7 
REMARK    5  A    between atoms: C6_10  and  N3_11 
REMARK    6  A    between atoms: N3_11  and  C7_13 
REMARK    7  A    between atoms: C9_15  and  O1_16 
REMARK    8  A    between atoms: O1_16  and  C10_17 
REMARK    9  A    between atoms: C17_24  and  C18_25 
REMARK   10  A    between atoms: C18_25  and  O2_26 
REMARK   11  A    between atoms: C18_25  and  N4_28 
REMARK   12  A    between atoms: N5_31  and  C21_32 
REMARK   13  A    between atoms: C21_32  and  C22_33 
REMARK   14  A    between atoms: C22_33  and  O3_34 
REMARK   15  A    between atoms: C26_41  and  N7_42 
REMARK   16  A    between atoms: N7_42  and  C27_44 
ROOT
HETATM    1  C7  UNL     1      11.142  51.444  90.936  1.00  0.00     0.052 A 
HETATM    2  C8  UNL     1      10.290  52.266  91.682  1.00  0.00     0.066 A 
HETATM    3  C9  UNL     1      10.619  52.640  92.956  1.00  0.00     0.072 A 
HETATM    4  C16 UNL     1      11.834  52.164  93.465  1.00  0.00     0.052 A 
HETATM    5  C17 UNL     1      12.710  51.366  92.803  1.00  0.00     0.019 A 
HETATM    6  C25 UNL     1      12.323  51.012  91.497  1.00  0.00     0.046 A 
ENDROOT
BRANCH   1   7
HETATM    7  N3  UNL     1      10.819  51.042  89.615  1.00  0.00    -0.191 N 
ATOM      8  H3  UNL     1      10.331  50.153  89.500  1.00  0.00     0.184 HD
BRANCH   7   9
HETATM    9  C6  UNL     1      11.092  51.706  88.552  1.00  0.00     0.711 A 
HETATM   10  N2  UNL     1      11.915  52.792  88.648  1.00  0.00    -0.021 N 
HETATM   11  C5  UNL     1      12.258  53.540  87.603  1.00  0.00     0.707 A 
ATOM     12  H2  UNL     1      12.285  53.041  89.566  1.00  0.00     0.203 HD
HETATM   13  N8  UNL     1      11.766  53.215  86.363  1.00  0.00    -0.022 N 
HETATM   14  C26 UNL     1      10.956  52.161  86.220  1.00  0.00     0.707 A 
ATOM     15  H8  UNL     1      12.018  53.778  85.550  1.00  0.00     0.203 HD
HETATM   16  N6  UNL     1      10.637  51.427  87.326  1.00  0.00    -0.021 N 
ATOM     17  H6  UNL     1      10.019  50.624  87.211  1.00  0.00     0.203 HD
BRANCH  11  18
HETATM   18  N1  UNL     1      13.022  54.573  87.652  1.00  0.00    -0.225 N 
ATOM     19  H1  UNL     1      13.512  54.801  86.788  1.00  0.00     0.177 HD
BRANCH  18  20
HETATM   20  C4  UNL     1      13.274  55.436  88.747  1.00  0.00     0.138 C 
BRANCH  20  21
HETATM   21  C3  UNL     1      14.541  55.067  89.510  1.00  0.00     0.020 C 
BRANCH  21  22
HETATM   22  C2  UNL     1      14.093  54.312  90.763  1.00  0.00    -0.003 C 
HETATM   23  C1  UNL     1      12.959  54.999  91.470  1.00  0.00     0.005 C 
ENDBRANCH  21  22
ENDBRANCH  20  21
ENDBRANCH  18  20
ENDBRANCH  11  18
BRANCH  14  24
HETATM   24  N7  UNL     1      10.487  51.844  85.074  1.00  0.00    -0.220 N 
ATOM     25  H7  UNL     1       9.492  51.640  84.982  1.00  0.00     0.178 HD
BRANCH  24  26
HETATM   26  C27 UNL     1      11.331  51.769  83.915  1.00  0.00     0.099 C 
HETATM   27  C28 UNL     1      10.508  51.910  82.636  1.00  0.00     0.026 C 
HETATM   28  C29 UNL     1      11.313  51.472  81.440  1.00  0.00     0.002 C 
HETATM   29  C30 UNL     1      11.561  49.998  81.517  1.00  0.00     0.000 C 
HETATM   30  C31 UNL     1      11.463  49.471  82.935  1.00  0.00     0.002 C 
HETATM   31  C32 UNL     1      12.085  50.452  83.913  1.00  0.00     0.026 C 
ENDBRANCH  24  26
ENDBRANCH  14  24
ENDBRANCH   7   9
ENDBRANCH   1   7
BRANCH   3  32
HETATM   32  O1  UNL     1       9.802  53.439  93.697  1.00  0.00    -0.346 OA
BRANCH  32  33
HETATM   33  C10 UNL     1      10.072  54.520  94.499  1.00  0.00     0.129 C 
HETATM   34  C11 UNL     1       8.829  55.046  95.189  1.00  0.00     0.032 C 
HETATM   35  C12 UNL     1       8.639  56.510  95.013  1.00  0.00     0.002 C 
HETATM   36  C13 UNL     1       9.859  57.333  95.380  1.00  0.00     0.000 C 
HETATM   37  C14 UNL     1      11.125  56.691  94.850  1.00  0.00     0.002 C 
HETATM   38  C15 UNL     1      10.723  55.676  93.772  1.00  0.00     0.032 C 
ENDBRANCH  32  33
ENDBRANCH   3  32
BRANCH   5  39
HETATM   39  C18 UNL     1      13.959  50.839  93.302  1.00  0.00     0.148 C 
BRANCH  39  40
HETATM   40  O2  UNL     1      14.672  50.208  92.402  1.00  0.00    -0.346 OA
ATOM     41  H2  UNL     1      14.278  49.402  92.090  1.00  0.00     0.219 HD
ENDBRANCH  39  40
BRANCH  39  42
HETATM   42  N4  UNL     1      14.549  50.868  94.550  1.00  0.00    -0.358 N 
HETATM   43  C19 UNL     1      15.431  49.759  94.940  1.00  0.00     0.145 C 
HETATM   44  C20 UNL     1      16.754  50.418  95.369  1.00  0.00     0.141 C 
HETATM   45  N5  UNL     1      16.496  51.168  96.542  1.00  0.00    -0.388 N 
HETATM   46  C23 UNL     1      15.138  51.458  96.826  1.00  0.00     0.141 C 
HETATM   47  C24 UNL     1      14.385  51.872  95.544  1.00  0.00     0.145 C 
BRANCH  45  48
HETATM   48  C21 UNL     1      17.344  50.860  97.618  1.00  0.00     0.084 C 
BRANCH  48  49
HETATM   49  C22 UNL     1      17.872  52.020  98.392  1.00  0.00     0.208 C 
BRANCH  49  50
HETATM   50  O3  UNL     1      19.194  52.287  98.170  1.00  0.00    -0.396 OA
ATOM     51  H3  UNL     1      19.776  51.963  98.847  1.00  0.00     0.209 HD
ENDBRANCH  49  50
ENDBRANCH  48  49
ENDBRANCH  45  48
ENDBRANCH  39  42
ENDBRANCH   5  39
TORSDOF 16
ENDMDL
MODEL 3
REMARK VINA RESULT: -7.368297459      5.592     13.196
REMARK  16 active torsions:
REMARK  status: ('A' for Active; 'I' for Inactive)
REMARK    1  A    between atoms: C2_2  and  C3_3 
REMARK    2  A    between atoms: C3_3  and  C4_4 
REMARK    3  A    between atoms: C4_4  and  N1_5 
REMARK    4  A    between atoms: N1_5  and  C5_7 
REMARK    5  A    between atoms: C6_10  and  N3_11 
REMARK    6  A    between atoms: N3_11  and  C7_13 
REMARK    7  A    between atoms: C9_15  and  O1_16 
REMARK    8  A    between atoms: O1_16  and  C10_17 
REMARK    9  A    between atoms: C17_24  and  C18_25 
REMARK   10  A    between atoms: C18_25  and  O2_26 
REMARK   11  A    between atoms: C18_25  and  N4_28 
REMARK   12  A    between atoms: N5_31  and  C21_32 
REMARK   13  A    between atoms: C21_32  and  C22_33 
REMARK   14  A    between atoms: C22_33  and  O3_34 
REMARK   15  A    between atoms: C26_41  and  N7_42 
REMARK   16  A    between atoms: N7_42  and  C27_44 
ROOT
HETATM    1  C7  UNL     1      10.581  50.898  84.905  1.00  0.00     0.052 A 
HETATM    2  C8  UNL     1      11.729  50.579  84.172  1.00  0.00     0.066 A 
HETATM    3  C9  UNL     1      11.887  51.029  82.890  1.00  0.00     0.072 A 
HETATM    4  C16 UNL     1      10.854  51.813  82.359  1.00  0.00     0.052 A 
HETATM    5  C17 UNL     1       9.714  52.164  83.008  1.00  0.00     0.019 A 
HETATM    6  C25 UNL     1       9.604  51.675  84.323  1.00  0.00     0.046 A 
ENDROOT
BRANCH   1   7
HETATM    7  N3  UNL     1      10.396  50.441  86.235  1.00  0.00    -0.191 N 
ATOM      8  H3  UNL     1       9.859  49.583  86.366  1.00  0.00     0.184 HD
BRANCH   7   9
HETATM    9  C6  UNL     1      10.850  51.020  87.286  1.00  0.00     0.711 A 
HETATM   10  N2  UNL     1      11.229  52.329  87.204  1.00  0.00    -0.021 N 
HETATM   11  C5  UNL     1      11.708  53.014  88.240  1.00  0.00     0.707 A 
ATOM     12  H2  UNL     1      11.141  52.805  86.306  1.00  0.00     0.203 HD
HETATM   13  N8  UNL     1      11.832  52.384  89.454  1.00  0.00    -0.022 N 
HETATM   14  C26 UNL     1      11.474  51.102  89.581  1.00  0.00     0.707 A 
ATOM     15  H8  UNL     1      12.197  52.894  90.258  1.00  0.00     0.203 HD
HETATM   16  N6  UNL     1      10.989  50.447  88.486  1.00  0.00    -0.021 N 
ATOM     17  H6  UNL     1      10.717  49.470  88.590  1.00  0.00     0.203 HD
BRANCH  11  18
HETATM   18  N1  UNL     1      12.083  54.243  88.203  1.00  0.00    -0.225 N 
ATOM     19  H1  UNL     1      11.336  54.929  88.098  1.00  0.00     0.177 HD
BRANCH  18  20
HETATM   20  C4  UNL     1      13.395  54.772  88.289  1.00  0.00     0.138 C 
BRANCH  20  21
HETATM   21  C3  UNL     1      13.604  55.633  89.528  1.00  0.00     0.020 C 
BRANCH  21  22
HETATM   22  C2  UNL     1      14.059  54.690  90.644  1.00  0.00    -0.003 C 
HETATM   23  C1  UNL     1      13.145  54.731  91.836  1.00  0.00     0.005 C 
ENDBRANCH  21  22
ENDBRANCH  20  21
ENDBRANCH  18  20
ENDBRANCH  11  18
BRANCH  14  24
HETATM   24  N7  UNL     1      11.585  50.499  90.702  1.00  0.00    -0.220 N 
ATOM     25  H7  UNL     1      11.191  49.564  90.806  1.00  0.00     0.178 HD
BRANCH  24  26
HETATM   26  C27 UNL     1      12.250  51.109  91.819  1.00  0.00     0.099 C 
HETATM   27  C28 UNL     1      13.581  50.415  92.101  1.00  0.00     0.026 C 
HETATM   28  C29 UNL     1      14.097  50.799  93.464  1.00  0.00     0.002 C 
HETATM   29  C30 UNL     1      13.195  50.233  94.517  1.00  0.00     0.000 C 
HETATM   30  C31 UNL     1      11.802  49.950  93.990  1.00  0.00     0.002 C 
HETATM   31  C32 UNL     1      11.356  51.050  93.044  1.00  0.00     0.026 C 
ENDBRANCH  24  26
ENDBRANCH  14  24
ENDBRANCH   7   9
ENDBRANCH   1   7
BRANCH   3  32
HETATM   32  O1  UNL     1      12.997  50.728  82.161  1.00  0.00    -0.346 OA
BRANCH  32  33
HETATM   33  C10 UNL     1      13.611  51.388  81.126  1.00  0.00     0.129 C 
HETATM   34  C11 UNL     1      13.321  50.745  79.784  1.00  0.00     0.032 C 
HETATM   35  C12 UNL     1      14.549  50.469  78.993  1.00  0.00     0.002 C 
HETATM   36  C13 UNL     1      15.461  51.671  78.838  1.00  0.00     0.000 C 
HETATM   37  C14 UNL     1      15.588  52.426  80.147  1.00  0.00     0.002 C 
HETATM   38  C15 UNL     1      15.111  51.499  81.273  1.00  0.00     0.032 C 
ENDBRANCH  32  33
ENDBRANCH   3  32
BRANCH   5  39
HETATM   39  C18 UNL     1       8.621  52.950  82.487  1.00  0.00     0.148 C 
BRANCH  39  40
HETATM   40  O2  UNL     1       8.402  54.064  83.141  1.00  0.00    -0.346 OA
ATOM     41  H2  UNL     1       8.662  54.035  84.054  1.00  0.00     0.219 HD
ENDBRANCH  39  40
BRANCH  39  42
HETATM   42  N4  UNL     1       7.755  52.754  81.430  1.00  0.00    -0.358 N 
HETATM   43  C19 UNL     1       6.372  53.238  81.551  1.00  0.00     0.145 C 
HETATM   44  C20 UNL     1       6.137  54.126  80.316  1.00  0.00     0.141 C 
HETATM   45  N5  UNL     1       6.179  53.287  79.175  1.00  0.00    -0.388 N 
HETATM   46  C23 UNL     1       6.765  52.009  79.346  1.00  0.00     0.141 C 
HETATM   47  C24 UNL     1       8.048  52.101  80.200  1.00  0.00     0.145 C 
BRANCH  45  48
HETATM   48  C21 UNL     1       5.051  53.390  78.345  1.00  0.00     0.084 C 
BRANCH  48  49
HETATM   49  C22 UNL     1       5.265  54.044  77.022  1.00  0.00     0.208 C 
BRANCH  49  50
HETATM   50  O3  UNL     1       5.640  55.355  77.098  1.00  0.00    -0.396 OA
ATOM     51  H3  UNL     1       5.099  55.946  76.588  1.00  0.00     0.209 HD
ENDBRANCH  49  50
ENDBRANCH  48  49
ENDBRANCH  45  48
ENDBRANCH  39  42
ENDBRANCH   5  39
TORSDOF 16
ENDMDL
MODEL 4
REMARK VINA RESULT: -7.323562822      1.007      4.590
REMARK  16 active torsions:
REMARK  status: ('A' for Active; 'I' for Inactive)
REMARK    1  A    between atoms: C2_2  and  C3_3 
REMARK    2  A    between atoms: C3_3  and  C4_4 
REMARK    3  A    between atoms: C4_4  and  N1_5 
REMARK    4  A    between atoms: N1_5  and  C5_7 
REMARK    5  A    between atoms: C6_10  and  N3_11 
REMARK    6  A    between atoms: N3_11  and  C7_13 
REMARK    7  A    between atoms: C9_15  and  O1_16 
REMARK    8  A    between atoms: O1_16  and  C10_17 
REMARK    9  A    between atoms: C17_24  and  C18_25 
REMARK   10  A    between atoms: C18_25  and  O2_26 
REMARK   11  A    between atoms: C18_25  and  N4_28 
REMARK   12  A    between atoms: N5_31  and  C21_32 
REMARK   13  A    between atoms: C21_32  and  C22_33 
REMARK   14  A    between atoms: C22_33  and  O3_34 
REMARK   15  A    between atoms: C26_41  and  N7_42 
REMARK   16  A    between atoms: N7_42  and  C27_44 
ROOT
HETATM    1  C7  UNL     1      12.810  53.894  91.368  1.00  0.00     0.052 A 
HETATM    2  C8  UNL     1      12.419  55.054  92.045  1.00  0.00     0.066 A 
HETATM    3  C9  UNL     1      12.415  55.098  93.412  1.00  0.00     0.072 A 
HETATM    4  C16 UNL     1      12.816  53.938  94.087  1.00  0.00     0.052 A 
HETATM    5  C17 UNL     1      13.207  52.777  93.501  1.00  0.00     0.019 A 
HETATM    6  C25 UNL     1      13.194  52.788  92.093  1.00  0.00     0.046 A 
ENDROOT
BRANCH   1   7
HETATM    7  N3  UNL     1      12.820  53.826  89.952  1.00  0.00    -0.191 N 
ATOM      8  H3  UNL     1      13.728  53.756  89.491  1.00  0.00     0.184 HD
BRANCH   7   9
HETATM    9  C6  UNL     1      11.778  53.845  89.203  1.00  0.00     0.711 A 
HETATM   10  N2  UNL     1      10.590  54.253  89.740  1.00  0.00    -0.021 N 
HETATM   11  C5  UNL     1       9.458  54.309  89.043  1.00  0.00     0.707 A 
ATOM     12  H2  UNL     1      10.570  54.526  90.723  1.00  0.00     0.203 HD
HETATM   13  N8  UNL     1       9.474  53.943  87.719  1.00  0.00    -0.022 N 
HETATM   14  C26 UNL     1      10.613  53.536  87.151  1.00  0.00     0.707 A 
ATOM     15  H8  UNL     1       8.615  53.980  87.170  1.00  0.00     0.203 HD
HETATM   16  N6  UNL     1      11.746  53.498  87.913  1.00  0.00    -0.021 N 
ATOM     17  H6  UNL     1      12.612  53.188  87.474  1.00  0.00     0.203 HD
BRANCH  11  18
HETATM   18  N1  UNL     1       8.320  54.679  89.511  1.00  0.00    -0.225 N 
ATOM     19  H1  UNL     1       8.342  55.118  90.431  1.00  0.00     0.177 HD
BRANCH  18  20
HETATM   20  C4  UNL     1       7.037  54.558  88.920  1.00  0.00     0.138 C 
BRANCH  20  21
HETATM   21  C3  UNL     1       6.043  55.584  89.451  1.00  0.00     0.020 C 
BRANCH  21  22
HETATM   22  C2  UNL     1       5.768  56.559  88.304  1.00  0.00    -0.003 C 
HETATM   23  C1  UNL     1       6.221  57.956  88.621  1.00  0.00     0.005 C 
ENDBRANCH  21  22
ENDBRANCH  20  21
ENDBRANCH  18  20
ENDBRANCH  11  18
BRANCH  14  24
HETATM   24  N7  UNL     1      10.646  53.190  85.922  1.00  0.00    -0.220 N 
ATOM     25  H7  UNL     1       9.815  53.320  85.345  1.00  0.00     0.178 HD
BRANCH  24  26
HETATM   26  C27 UNL     1      11.827  52.621  85.335  1.00  0.00     0.099 C 
HETATM   27  C28 UNL     1      12.490  53.613  84.381  1.00  0.00     0.026 C 
HETATM   28  C29 UNL     1      13.492  52.910  83.503  1.00  0.00     0.002 C 
HETATM   29  C30 UNL     1      12.778  51.979  82.574  1.00  0.00     0.000 C 
HETATM   30  C31 UNL     1      11.415  51.575  83.101  1.00  0.00     0.002 C 
HETATM   31  C32 UNL     1      11.470  51.342  84.600  1.00  0.00     0.026 C 
ENDBRANCH  24  26
ENDBRANCH  14  24
ENDBRANCH   7   9
ENDBRANCH   1   7
BRANCH   3  32
HETATM   32  O1  UNL     1      12.037  56.218  94.088  1.00  0.00    -0.346 OA
BRANCH  32  33
HETATM   33  C10 UNL     1      11.008  56.445  94.968  1.00  0.00     0.129 C 
HETATM   34  C11 UNL     1       9.914  55.402  94.851  1.00  0.00     0.032 C 
HETATM   35  C12 UNL     1       8.559  55.994  94.693  1.00  0.00     0.002 C 
HETATM   36  C13 UNL     1       8.218  57.030  95.748  1.00  0.00     0.000 C 
HETATM   37  C14 UNL     1       9.393  57.952  96.001  1.00  0.00     0.002 C 
HETATM   38  C15 UNL     1      10.368  57.808  94.824  1.00  0.00     0.032 C 
ENDBRANCH  32  33
ENDBRANCH   3  32
BRANCH   5  39
HETATM   39  C18 UNL     1      13.604  51.557  94.163  1.00  0.00     0.148 C 
BRANCH  39  40
HETATM   40  O2  UNL     1      13.375  50.471  93.466  1.00  0.00    -0.346 OA
ATOM     41  H2  UNL     1      14.137  50.133  93.012  1.00  0.00     0.219 HD
ENDBRANCH  39  40
BRANCH  39  42
HETATM   42  N4  UNL     1      14.179  51.310  95.393  1.00  0.00    -0.358 N 
HETATM   43  C19 UNL     1      15.453  50.577  95.443  1.00  0.00     0.145 C 
HETATM   44  C20 UNL     1      16.406  51.467  96.262  1.00  0.00     0.141 C 
HETATM   45  N5  UNL     1      15.909  51.516  97.587  1.00  0.00    -0.388 N 
HETATM   46  C23 UNL     1      14.565  51.113  97.778  1.00  0.00     0.141 C 
HETATM   47  C24 UNL     1      13.657  51.678  96.664  1.00  0.00     0.145 C 
BRANCH  45  48
HETATM   48  C21 UNL     1      16.850  51.159  98.566  1.00  0.00     0.084 C 
BRANCH  48  49
HETATM   49  C22 UNL     1      18.284  51.270  98.171  1.00  0.00     0.208 C 
BRANCH  49  50
HETATM   50  O3  UNL     1      18.874  52.450  98.527  1.00  0.00    -0.396 OA
ATOM     51  H3  UNL     1      19.358  52.413  99.344  1.00  0.00     0.209 HD
ENDBRANCH  49  50
ENDBRANCH  48  49
ENDBRANCH  45  48
ENDBRANCH  39  42
ENDBRANCH   5  39
TORSDOF 16
ENDMDL
MODEL 5
REMARK VINA RESULT: -7.273804035      4.054      9.207
REMARK  16 active torsions:
REMARK  status: ('A' for Active; 'I' for Inactive)
REMARK    1  A    between atoms: C2_2  and  C3_3 
REMARK    2  A    between atoms: C3_3  and  C4_4 
REMARK    3  A    between atoms: C4_4  and  N1_5 
REMARK    4  A    between atoms: N1_5  and  C5_7 
REMARK    5  A    between atoms: C6_10  and  N3_11 
REMARK    6  A    between atoms: N3_11  and  C7_13 
REMARK    7  A    between atoms: C9_15  and  O1_16 
REMARK    8  A    between atoms: O1_16  and  C10_17 
REMARK    9  A    between atoms: C17_24  and  C18_25 
REMARK   10  A    between atoms: C18_25  and  O2_26 
REMARK   11  A    between atoms: C18_25  and  N4_28 
REMARK   12  A    between atoms: N5_31  and  C21_32 
REMARK   13  A    between atoms: C21_32  and  C22_33 
REMARK   14  A    between atoms: C22_33  and  O3_34 
REMARK   15  A    between atoms: C26_41  and  N7_42 
REMARK   16  A    between atoms: N7_42  and  C27_44 
ROOT
HETATM    1  C7  UNL     1      10.640  50.949  84.965  1.00  0.00     0.052 A 
HETATM    2  C8  UNL     1      11.133  51.070  83.661  1.00  0.00     0.066 A 
HETATM    3  C9  UNL     1      11.907  50.084  83.113  1.00  0.00     0.072 A 
HETATM    4  C16 UNL     1      12.175  48.967  83.913  1.00  0.00     0.052 A 
HETATM    5  C17 UNL     1      11.733  48.779  85.183  1.00  0.00     0.019 A 
HETATM    6  C25 UNL     1      10.941  49.823  85.698  1.00  0.00     0.046 A 
ENDROOT
BRANCH   1   7
HETATM    7  N3  UNL     1       9.838  51.960  85.554  1.00  0.00    -0.191 N 
ATOM      8  H3  UNL     1       8.924  52.137  85.137  1.00  0.00     0.184 HD
BRANCH   7   9
HETATM    9  C6  UNL     1      10.171  52.669  86.571  1.00  0.00     0.711 A 
HETATM   10  N2  UNL     1      11.467  53.084  86.688  1.00  0.00    -0.021 N 
HETATM   11  C5  UNL     1      11.905  53.824  87.703  1.00  0.00     0.707 A 
ATOM     12  H2  UNL     1      12.131  52.812  85.962  1.00  0.00     0.203 HD
HETATM   13  N8  UNL     1      11.020  54.194  88.686  1.00  0.00    -0.022 N 
HETATM   14  C26 UNL     1       9.741  53.811  88.614  1.00  0.00     0.707 A 
ATOM     15  H8  UNL     1      11.339  54.762  89.472  1.00  0.00     0.203 HD
HETATM   16  N6  UNL     1       9.346  53.053  87.550  1.00  0.00    -0.021 N 
ATOM     17  H6  UNL     1       8.369  52.764  87.500  1.00  0.00     0.203 HD
BRANCH  11  18
HETATM   18  N1  UNL     1      13.116  54.227  87.855  1.00  0.00    -0.225 N 
ATOM     19  H1  UNL     1      13.832  53.651  87.413  1.00  0.00     0.177 HD
BRANCH  18  20
HETATM   20  C4  UNL     1      13.589  55.366  88.553  1.00  0.00     0.138 C 
BRANCH  20  21
HETATM   21  C3  UNL     1      14.645  55.022  89.596  1.00  0.00     0.020 C 
BRANCH  21  22
HETATM   22  C2  UNL     1      13.935  54.226  90.693  1.00  0.00    -0.003 C 
HETATM   23  C1  UNL     1      13.090  55.098  91.577  1.00  0.00     0.005 C 
ENDBRANCH  21  22
ENDBRANCH  20  21
ENDBRANCH  18  20
ENDBRANCH  11  18
BRANCH  14  24
HETATM   24  N7  UNL     1       8.905  54.144  89.520  1.00  0.00    -0.220 N 
ATOM     25  H7  UNL     1       8.452  55.057  89.469  1.00  0.00     0.178 HD
BRANCH  24  26
HETATM   26  C27 UNL     1       8.588  53.263  90.608  1.00  0.00     0.099 C 
HETATM   27  C28 UNL     1       7.227  53.609  91.208  1.00  0.00     0.026 C 
HETATM   28  C29 UNL     1       7.058  52.946  92.551  1.00  0.00     0.002 C 
HETATM   29  C30 UNL     1       8.018  53.548  93.530  1.00  0.00     0.000 C 
HETATM   30  C31 UNL     1       9.208  54.192  92.847  1.00  0.00     0.002 C 
HETATM   31  C32 UNL     1       9.669  53.350  91.671  1.00  0.00     0.026 C 
ENDBRANCH  24  26
ENDBRANCH  14  24
ENDBRANCH   7   9
ENDBRANCH   1   7
BRANCH   3  32
HETATM   32  O1  UNL     1      12.396  50.185  81.846  1.00  0.00    -0.346 OA
BRANCH  32  33
HETATM   33  C10 UNL     1      13.164  51.149  81.242  1.00  0.00     0.129 C 
HETATM   34  C11 UNL     1      13.265  50.945  79.743  1.00  0.00     0.032 C 
HETATM   35  C12 UNL     1      14.667  50.959  79.247  1.00  0.00     0.002 C 
HETATM   36  C13 UNL     1      15.460  52.175  79.689  1.00  0.00     0.000 C 
HETATM   37  C14 UNL     1      15.198  52.491  81.148  1.00  0.00     0.002 C 
HETATM   38  C15 UNL     1      14.568  51.249  81.793  1.00  0.00     0.032 C 
ENDBRANCH  32  33
ENDBRANCH   3  32
BRANCH   5  39
HETATM   39  C18 UNL     1      12.007  47.653  86.045  1.00  0.00     0.148 C 
BRANCH  39  40
HETATM   40  O2  UNL     1      12.128  46.512  85.412  1.00  0.00    -0.346 OA
ATOM     41  H2  UNL     1      11.315  46.178  85.054  1.00  0.00     0.219 HD
ENDBRANCH  39  40
BRANCH  39  42
HETATM   42  N4  UNL     1      12.163  47.543  87.411  1.00  0.00    -0.358 N 
HETATM   43  C19 UNL     1      13.291  48.236  88.051  1.00  0.00     0.145 C 
HETATM   44  C20 UNL     1      12.667  49.092  89.168  1.00  0.00     0.141 C 
HETATM   45  N5  UNL     1      12.130  48.206  90.134  1.00  0.00    -0.388 N 
HETATM   46  C23 UNL     1      11.937  46.863  89.727  1.00  0.00     0.141 C 
HETATM   47  C24 UNL     1      11.343  46.798  88.304  1.00  0.00     0.145 C 
BRANCH  45  48
HETATM   48  C21 UNL     1      12.582  48.441  91.442  1.00  0.00     0.084 C 
BRANCH  48  49
HETATM   49  C22 UNL     1      13.086  49.815  91.726  1.00  0.00     0.208 C 
BRANCH  49  50
HETATM   50  O3  UNL     1      14.371  49.857  92.189  1.00  0.00    -0.396 OA
ATOM     51  H3  UNL     1      14.532  50.537  92.832  1.00  0.00     0.209 HD
ENDBRANCH  49  50
ENDBRANCH  48  49
ENDBRANCH  45  48
ENDBRANCH  39  42
ENDBRANCH   5  39
TORSDOF 16
ENDMDL
