MODEL 1
REMARK VINA RESULT: -6.193341782      0.000      0.000
REMARK  8 active torsions:
REMARK  status: ('A' for Active; 'I' for Inactive)
REMARK    1  A    between atoms: C2_2  and  C3_3 
REMARK    2  A    between atoms: C3_3  and  N1_4 
REMARK    3  A    between atoms: N1_4  and  C4_7 
REMARK    4  A    between atoms: C4_7  and  C5_8 
REMARK    5  A    between atoms: C5_8  and  N2_9 
REMARK    6  A    between atoms: N2_9  and  C6_11 
REMARK    7  A    between atoms: C9_18  and  N5_19 
REMARK    8  A    between atoms: N5_19  and  C10_21 
ROOT
HETATM    1  C6  UNL     1      21.055 -24.278 -20.034  1.00  0.00     0.694 A 
HETATM    2  N3  UNL     1      21.587 -25.241 -19.272  1.00  0.00    -0.180 N 
ATOM      3  H3  UNL     1      21.946 -25.005 -18.347  1.00  0.00     0.185 HD
HETATM    4  C7  UNL     1      21.659 -26.518 -19.703  1.00  0.00     0.109 A 
HETATM    5  C8  UNL     1      22.267 -27.533 -18.795  1.00  0.00     0.090 C 
HETATM    6  N4  UNL     1      21.197 -26.854 -20.908  1.00  0.00    -0.180 N 
ATOM      7  H4  UNL     1      21.252 -27.820 -21.232  1.00  0.00     0.185 HD
HETATM    8  C9  UNL     1      20.657 -25.901 -21.692  1.00  0.00     0.698 A 
HETATM    9  N6  UNL     1      20.595 -24.631 -21.243  1.00  0.00    -0.022 N 
ATOM     10  H6  UNL     1      20.184 -23.916 -21.843  1.00  0.00     0.203 HD
ENDROOT
BRANCH   1  11
HETATM   11  N2  UNL     1      21.008 -23.078 -19.585  1.00  0.00    -0.224 N 
ATOM     12  H2  UNL     1      21.696 -22.396 -19.905  1.00  0.00     0.177 HD
BRANCH  11  13
HETATM   13  C5  UNL     1      19.997 -22.674 -18.634  1.00  0.00     0.165 C 
BRANCH  13  14
HETATM   14  C4  UNL     1      18.675 -22.620 -19.385  1.00  0.00     0.252 C 
BRANCH  14  15
HETATM   15  N1  UNL     1      18.746 -21.782 -20.563  1.00  0.00    -0.071 N 
ATOM     16  H12 UNL     1      19.704 -21.523 -20.799  1.00  0.00     0.277 HD
ATOM     17  H11 UNL     1      18.381 -20.845 -20.396  1.00  0.00     0.277 HD
BRANCH  15  18
HETATM   18  C3  UNL     1      18.069 -22.450 -21.658  1.00  0.00     0.259 C 
BRANCH  18  19
HETATM   19  C2  UNL     1      16.967 -23.306 -21.146  1.00  0.00    -0.010 C 
HETATM   20  C1  UNL     1      15.736 -23.152 -21.566  1.00  0.00     0.008 C 
ENDBRANCH  18  19
ENDBRANCH  15  18
ENDBRANCH  14  15
ENDBRANCH  13  14
ENDBRANCH  11  13
ENDBRANCH   1  11
BRANCH   8  21
HETATM   21  N5  UNL     1      20.194 -26.157 -22.864  1.00  0.00    -0.191 N 
ATOM     22  H5  UNL     1      20.828 -26.302 -23.649  1.00  0.00     0.184 HD
BRANCH  21  23
HETATM   23  C10 UNL     1      18.792 -26.235 -23.049  1.00  0.00     0.049 A 
HETATM   24  C11 UNL     1      18.034 -27.052 -22.205  1.00  0.00     0.030 A 
HETATM   25  C12 UNL     1      16.667 -27.159 -22.352  1.00  0.00     0.002 A 
HETATM   26  C13 UNL     1      15.995 -26.463 -23.334  1.00  0.00     0.000 A 
HETATM   27  C14 UNL     1      16.756 -25.648 -24.175  1.00  0.00     0.002 A 
HETATM   28  C15 UNL     1      18.132 -25.538 -24.032  1.00  0.00     0.030 A 
ENDBRANCH  21  23
ENDBRANCH   8  21
TORSDOF 8
ENDMDL
MODEL 2
REMARK VINA RESULT: -6.191632129      1.793      4.332
REMARK  8 active torsions:
REMARK  status: ('A' for Active; 'I' for Inactive)
REMARK    1  A    between atoms: C2_2  and  C3_3 
REMARK    2  A    between atoms: C3_3  and  N1_4 
REMARK    3  A    between atoms: N1_4  and  C4_7 
REMARK    4  A    between atoms: C4_7  and  C5_8 
REMARK    5  A    between atoms: C5_8  and  N2_9 
REMARK    6  A    between atoms: N2_9  and  C6_11 
REMARK    7  A    between atoms: C9_18  and  N5_19 
REMARK    8  A    between atoms: N5_19  and  C10_21 
ROOT
HETATM    1  C6  UNL     1      18.032 -22.827 -21.022  1.00  0.00     0.694 A 
HETATM    2  N3  UNL     1      17.694 -22.459 -19.781  1.00  0.00    -0.180 N 
ATOM      3  H3  UNL     1      16.834 -21.931 -19.633  1.00  0.00     0.185 HD
HETATM    4  C7  UNL     1      18.468 -22.772 -18.721  1.00  0.00     0.109 A 
HETATM    5  C8  UNL     1      18.023 -22.324 -17.369  1.00  0.00     0.090 C 
HETATM    6  N4  UNL     1      19.597 -23.461 -18.885  1.00  0.00    -0.180 N 
ATOM      7  H4  UNL     1      20.181 -23.696 -18.082  1.00  0.00     0.185 HD
HETATM    8  C9  UNL     1      19.957 -23.843 -20.126  1.00  0.00     0.698 A 
HETATM    9  N6  UNL     1      19.170 -23.521 -21.172  1.00  0.00    -0.022 N 
ATOM     10  H6  UNL     1      19.450 -23.814 -22.108  1.00  0.00     0.203 HD
ENDROOT
BRANCH   1  11
HETATM   11  N2  UNL     1      17.268 -22.508 -22.001  1.00  0.00    -0.224 N 
ATOM     12  H2  UNL     1      17.659 -22.012 -22.801  1.00  0.00     0.177 HD
BRANCH  11  13
HETATM   13  C5  UNL     1      15.860 -22.839 -21.989  1.00  0.00     0.165 C 
BRANCH  13  14
HETATM   14  C4  UNL     1      15.757 -24.349 -22.136  1.00  0.00     0.252 C 
BRANCH  14  15
HETATM   15  N1  UNL     1      15.493 -24.753 -23.501  1.00  0.00    -0.071 N 
ATOM     16  H12 UNL     1      15.726 -24.022 -24.174  1.00  0.00     0.277 HD
ATOM     17  H11 UNL     1      14.495 -24.818 -23.701  1.00  0.00     0.277 HD
BRANCH  15  18
HETATM   18  C3  UNL     1      16.192 -25.995 -23.769  1.00  0.00     0.259 C 
BRANCH  18  19
HETATM   19  C2  UNL     1      17.642 -25.851 -23.473  1.00  0.00    -0.010 C 
HETATM   20  C1  UNL     1      18.496 -25.513 -24.405  1.00  0.00     0.008 C 
ENDBRANCH  18  19
ENDBRANCH  15  18
ENDBRANCH  14  15
ENDBRANCH  13  14
ENDBRANCH  11  13
ENDBRANCH   1  11
BRANCH   8  21
HETATM   21  N5  UNL     1      21.033 -24.509 -20.354  1.00  0.00    -0.191 N 
ATOM     22  H5  UNL     1      21.936 -24.156 -20.038  1.00  0.00     0.184 HD
BRANCH  21  23
HETATM   23  C10 UNL     1      20.947 -25.739 -21.050  1.00  0.00     0.049 A 
HETATM   24  C11 UNL     1      20.185 -26.780 -20.510  1.00  0.00     0.030 A 
HETATM   25  C12 UNL     1      20.077 -27.995 -21.154  1.00  0.00     0.002 A 
HETATM   26  C13 UNL     1      20.713 -28.230 -22.354  1.00  0.00     0.000 A 
HETATM   27  C14 UNL     1      21.474 -27.187 -22.890  1.00  0.00     0.002 A 
HETATM   28  C15 UNL     1      21.587 -25.964 -22.246  1.00  0.00     0.030 A 
ENDBRANCH  21  23
ENDBRANCH   8  21
TORSDOF 8
ENDMDL
MODEL 3
REMARK VINA RESULT: -6.057190420      0.908      1.469
REMARK  8 active torsions:
REMARK  status: ('A' for Active; 'I' for Inactive)
REMARK    1  A    between atoms: C2_2  and  C3_3 
REMARK    2  A    between atoms: C3_3  and  N1_4 
REMARK    3  A    between atoms: N1_4  and  C4_7 
REMARK    4  A    between atoms: C4_7  and  C5_8 
REMARK    5  A    between atoms: C5_8  and  N2_9 
REMARK    6  A    between atoms: N2_9  and  C6_11 
REMARK    7  A    between atoms: C9_18  and  N5_19 
REMARK    8  A    between atoms: N5_19  and  C10_21 
ROOT
HETATM    1  C6  UNL     1      20.498 -24.033 -19.973  1.00  0.00     0.694 A 
HETATM    2  N3  UNL     1      21.235 -24.944 -19.327  1.00  0.00    -0.180 N 
ATOM      3  H3  UNL     1      21.618 -24.718 -18.410  1.00  0.00     0.185 HD
HETATM    4  C7  UNL     1      21.482 -26.157 -19.865  1.00  0.00     0.109 A 
HETATM    5  C8  UNL     1      22.313 -27.117 -19.083  1.00  0.00     0.090 C 
HETATM    6  N4  UNL     1      20.993 -26.480 -21.063  1.00  0.00    -0.180 N 
ATOM      7  H4  UNL     1      21.181 -27.397 -21.468  1.00  0.00     0.185 HD
HETATM    8  C9  UNL     1      20.247 -25.578 -21.731  1.00  0.00     0.698 A 
HETATM    9  N6  UNL     1      20.012 -24.372 -21.177  1.00  0.00    -0.022 N 
ATOM     10  H6  UNL     1      19.447 -23.696 -21.689  1.00  0.00     0.203 HD
ENDROOT
BRANCH   1  11
HETATM   11  N2  UNL     1      20.288 -22.893 -19.425  1.00  0.00    -0.224 N 
ATOM     12  H2  UNL     1      20.983 -22.512 -18.782  1.00  0.00     0.177 HD
BRANCH  11  13
HETATM   13  C5  UNL     1      19.086 -22.140 -19.702  1.00  0.00     0.165 C 
BRANCH  13  14
HETATM   14  C4  UNL     1      18.041 -22.580 -18.688  1.00  0.00     0.252 C 
BRANCH  14  15
HETATM   15  N1  UNL     1      16.704 -22.586 -19.242  1.00  0.00    -0.071 N 
ATOM     16  H12 UNL     1      16.504 -21.746 -19.785  1.00  0.00     0.277 HD
ATOM     17  H11 UNL     1      15.987 -22.468 -18.527  1.00  0.00     0.277 HD
BRANCH  15  18
HETATM   18  C3  UNL     1      16.520 -23.800 -20.014  1.00  0.00     0.259 C 
BRANCH  18  19
HETATM   19  C2  UNL     1      15.732 -23.521 -21.243  1.00  0.00    -0.010 C 
HETATM   20  C1  UNL     1      16.230 -22.811 -22.224  1.00  0.00     0.008 C 
ENDBRANCH  18  19
ENDBRANCH  15  18
ENDBRANCH  14  15
ENDBRANCH  13  14
ENDBRANCH  11  13
ENDBRANCH   1  11
BRANCH   8  21
HETATM   21  N5  UNL     1      19.747 -25.825 -22.889  1.00  0.00    -0.191 N 
ATOM     22  H5  UNL     1      20.337 -25.810 -23.721  1.00  0.00     0.184 HD
BRANCH  21  23
HETATM   23  C10 UNL     1      18.366 -26.118 -22.995  1.00  0.00     0.049 A 
HETATM   24  C11 UNL     1      17.638 -25.610 -24.075  1.00  0.00     0.030 A 
HETATM   25  C12 UNL     1      16.290 -25.869 -24.214  1.00  0.00     0.002 A 
HETATM   26  C13 UNL     1      15.610 -26.640 -23.296  1.00  0.00     0.000 A 
HETATM   27  C14 UNL     1      16.341 -27.147 -22.218  1.00  0.00     0.002 A 
HETATM   28  C15 UNL     1      17.696 -26.888 -22.073  1.00  0.00     0.030 A 
ENDBRANCH  21  23
ENDBRANCH   8  21
TORSDOF 8
ENDMDL
MODEL 4
REMARK VINA RESULT: -6.048598508      1.808      4.497
REMARK  8 active torsions:
REMARK  status: ('A' for Active; 'I' for Inactive)
REMARK    1  A    between atoms: C2_2  and  C3_3 
REMARK    2  A    between atoms: C3_3  and  N1_4 
REMARK    3  A    between atoms: N1_4  and  C4_7 
REMARK    4  A    between atoms: C4_7  and  C5_8 
REMARK    5  A    between atoms: C5_8  and  N2_9 
REMARK    6  A    between atoms: N2_9  and  C6_11 
REMARK    7  A    between atoms: C9_18  and  N5_19 
REMARK    8  A    between atoms: N5_19  and  C10_21 
ROOT
HETATM    1  C6  UNL     1      18.052 -23.453 -21.491  1.00  0.00     0.694 A 
HETATM    2  N3  UNL     1      16.775 -23.854 -21.495  1.00  0.00    -0.180 N 
ATOM      3  H3  UNL     1      16.096 -23.364 -20.913  1.00  0.00     0.185 HD
HETATM    4  C7  UNL     1      16.368 -24.893 -22.253  1.00  0.00     0.109 A 
HETATM    5  C8  UNL     1      14.929 -25.280 -22.202  1.00  0.00     0.090 C 
HETATM    6  N4  UNL     1      17.234 -25.552 -23.023  1.00  0.00    -0.180 N 
ATOM      7  H4  UNL     1      16.925 -26.338 -23.595  1.00  0.00     0.185 HD
HETATM    8  C9  UNL     1      18.526 -25.166 -23.035  1.00  0.00     0.698 A 
HETATM    9  N6  UNL     1      18.912 -24.125 -22.270  1.00  0.00    -0.022 N 
ATOM     10  H6  UNL     1      19.891 -23.839 -22.286  1.00  0.00     0.203 HD
ENDROOT
BRANCH   1  11
HETATM   11  N2  UNL     1      18.395 -22.461 -20.755  1.00  0.00    -0.224 N 
ATOM     12  H2  UNL     1      18.868 -21.663 -21.179  1.00  0.00     0.177 HD
BRANCH  11  13
HETATM   13  C5  UNL     1      18.124 -22.454 -19.335  1.00  0.00     0.165 C 
BRANCH  13  14
HETATM   14  C4  UNL     1      19.385 -22.940 -18.638  1.00  0.00     0.252 C 
BRANCH  14  15
HETATM   15  N1  UNL     1      20.590 -22.473 -19.292  1.00  0.00    -0.071 N 
ATOM     16  H12 UNL     1      20.843 -21.526 -19.009  1.00  0.00     0.277 HD
ATOM     17  H11 UNL     1      20.448 -22.293 -20.285  1.00  0.00     0.277 HD
BRANCH  15  18
HETATM   18  C3  UNL     1      21.656 -23.425 -19.050  1.00  0.00     0.259 C 
BRANCH  18  19
HETATM   19  C2  UNL     1      21.292 -24.763 -19.585  1.00  0.00    -0.010 C 
HETATM   20  C1  UNL     1      21.662 -25.862 -18.977  1.00  0.00     0.008 C 
ENDBRANCH  18  19
ENDBRANCH  15  18
ENDBRANCH  14  15
ENDBRANCH  13  14
ENDBRANCH  11  13
ENDBRANCH   1  11
BRANCH   8  21
HETATM   21  N5  UNL     1      19.412 -25.757 -23.754  1.00  0.00    -0.191 N 
ATOM     22  H5  UNL     1      19.380 -25.692 -24.771  1.00  0.00     0.184 HD
BRANCH  21  23
HETATM   23  C10 UNL     1      20.433 -26.501 -23.114  1.00  0.00     0.049 A 
HETATM   24  C11 UNL     1      20.089 -27.615 -22.342  1.00  0.00     0.030 A 
HETATM   25  C12 UNL     1      21.052 -28.365 -21.700  1.00  0.00     0.002 A 
HETATM   26  C13 UNL     1      22.390 -28.048 -21.796  1.00  0.00     0.000 A 
HETATM   27  C14 UNL     1      22.730 -26.934 -22.569  1.00  0.00     0.002 A 
HETATM   28  C15 UNL     1      21.765 -26.176 -23.216  1.00  0.00     0.030 A 
ENDBRANCH  21  23
ENDBRANCH   8  21
TORSDOF 8
ENDMDL
MODEL 5
REMARK VINA RESULT: -5.991234985      1.955      6.157
REMARK  8 active torsions:
REMARK  status: ('A' for Active; 'I' for Inactive)
REMARK    1  A    between atoms: C2_2  and  C3_3 
REMARK    2  A    between atoms: C3_3  and  N1_4 
REMARK    3  A    between atoms: N1_4  and  C4_7 
REMARK    4  A    between atoms: C4_7  and  C5_8 
REMARK    5  A    between atoms: C5_8  and  N2_9 
REMARK    6  A    between atoms: N2_9  and  C6_11 
REMARK    7  A    between atoms: C9_18  and  N5_19 
REMARK    8  A    between atoms: N5_19  and  C10_21 
ROOT
HETATM    1  C6  UNL     1      17.741 -23.787 -22.645  1.00  0.00     0.694 A 
HETATM    2  N3  UNL     1      16.478 -23.692 -22.214  1.00  0.00    -0.180 N 
ATOM      3  H3  UNL     1      15.719 -24.003 -22.819  1.00  0.00     0.185 HD
HETATM    4  C7  UNL     1      16.189 -23.192 -20.995  1.00  0.00     0.109 A 
HETATM    5  C8  UNL     1      14.756 -23.117 -20.587  1.00  0.00     0.090 C 
HETATM    6  N4  UNL     1      17.161 -22.777 -20.183  1.00  0.00    -0.180 N 
ATOM      7  H4  UNL     1      16.941 -22.400 -19.261  1.00  0.00     0.185 HD
HETATM    8  C9  UNL     1      18.441 -22.865 -20.596  1.00  0.00     0.698 A 
HETATM    9  N6  UNL     1      18.710 -23.367 -21.818  1.00  0.00    -0.022 N 
ATOM     10  H6  UNL     1      19.681 -23.429 -22.123  1.00  0.00     0.203 HD
ENDROOT
BRANCH   1  11
HETATM   11  N2  UNL     1      17.971 -24.268 -23.811  1.00  0.00    -0.224 N 
ATOM     12  H2  UNL     1      18.001 -23.640 -24.615  1.00  0.00     0.177 HD
BRANCH  11  13
HETATM   13  C5  UNL     1      18.187 -25.684 -24.007  1.00  0.00     0.165 C 
BRANCH  13  14
HETATM   14  C4  UNL     1      19.139 -25.830 -25.185  1.00  0.00     0.252 C 
BRANCH  14  15
HETATM   15  N1  UNL     1      20.456 -26.272 -24.777  1.00  0.00    -0.071 N 
ATOM     16  H12 UNL     1      21.180 -25.586 -24.991  1.00  0.00     0.277 HD
ATOM     17  H11 UNL     1      20.806 -27.035 -25.355  1.00  0.00     0.277 HD
BRANCH  15  18
HETATM   18  C3  UNL     1      20.421 -26.618 -23.369  1.00  0.00     0.259 C 
BRANCH  18  19
HETATM   19  C2  UNL     1      21.710 -26.270 -22.714  1.00  0.00    -0.010 C 
HETATM   20  C1  UNL     1      22.473 -27.191 -22.183  1.00  0.00     0.008 C 
ENDBRANCH  18  19
ENDBRANCH  15  18
ENDBRANCH  14  15
ENDBRANCH  13  14
ENDBRANCH  11  13
ENDBRANCH   1  11
BRANCH   8  21
HETATM   21  N5  UNL     1      19.427 -22.483 -19.863  1.00  0.00    -0.191 N 
ATOM     22  H5  UNL     1      19.744 -21.514 -19.889  1.00  0.00     0.184 HD
BRANCH  21  23
HETATM   23  C10 UNL     1      20.064 -23.425 -19.021  1.00  0.00     0.049 A 
HETATM   24  C11 UNL     1      19.731 -23.467 -17.664  1.00  0.00     0.030 A 
HETATM   25  C12 UNL     1      20.330 -24.367 -16.808  1.00  0.00     0.002 A 
HETATM   26  C13 UNL     1      21.278 -25.261 -17.256  1.00  0.00     0.000 A 
HETATM   27  C14 UNL     1      21.608 -25.217 -18.613  1.00  0.00     0.002 A 
HETATM   28  C15 UNL     1      21.009 -24.313 -19.478  1.00  0.00     0.030 A 
ENDBRANCH  21  23
ENDBRANCH   8  21
TORSDOF 8
ENDMDL
