MODEL 1
REMARK VINA RESULT: -7.469891167      0.000      0.000
REMARK  5 active torsions:
REMARK  status: ('A' for Active; 'I' for Inactive)
REMARK       I    between atoms: C1_2  and  N1_3 
REMARK    1  A    between atoms: C1_2  and  O2_13 
REMARK    2  A    between atoms: N1_3  and  C2_5 
REMARK    3  A    between atoms: O2_13  and  C7_14 
REMARK    4  A    between atoms: C7_14  and  C8_15 
REMARK    5  A    between atoms: C8_15  and  N3_16 
REMARK       I    between atoms: N3_16  and  C9_18 
REMARK       I    between atoms: C9_18  and  N4_20 
ROOT
HETATM    1  O2  UNL     1      12.784  45.397 -36.641  1.00  0.00    -0.302 OA
ENDROOT
BRANCH   1   2
HETATM    2  C1  UNL     1      13.592  44.819 -37.612  1.00  0.00     0.360 C 
HETATM    3  O1  UNL     1      13.053  44.456 -38.687  1.00  0.00    -0.239 OA
HETATM    4  N1  UNL     1      14.965  44.669 -37.348  1.00  0.00    -0.332 N 
ATOM      5  H1  UNL     1      15.361  44.977 -36.460  1.00  0.00     0.165 HD
BRANCH   4   6
HETATM    6  C2  UNL     1      15.804  44.065 -38.363  1.00  0.00     0.089 C 
HETATM    7  C3  UNL     1      16.171  42.637 -37.958  1.00  0.00     0.052 C 
HETATM    8  C4  UNL     1      17.144  42.144 -39.037  1.00  0.00     0.234 C 
HETATM    9  N2  UNL     1      18.428  42.800 -38.904  1.00  0.00    -0.075 N 
HETATM   10  C5  UNL     1      18.321  44.061 -38.199  1.00  0.00     0.234 C 
ATOM     11  H22 UNL     1      19.114  42.187 -38.464  1.00  0.00     0.277 HD
ATOM     12  H21 UNL     1      18.878  42.921 -39.811  1.00  0.00     0.277 HD
HETATM   13  C6  UNL     1      17.071  44.824 -38.578  1.00  0.00     0.052 C 
ENDBRANCH   4   6
ENDBRANCH   1   2
BRANCH   1  14
HETATM   14  C7  UNL     1      11.949  44.652 -35.776  1.00  0.00     0.200 C 
BRANCH  14  15
HETATM   15  C8  UNL     1      11.378  45.574 -34.735  1.00  0.00     0.151 C 
BRANCH  15  16
HETATM   16  N3  UNL     1      10.450  46.532 -35.319  1.00  0.00    -0.341 N 
HETATM   17  C9  UNL     1      10.636  47.925 -35.145  1.00  0.00     0.318 C 
HETATM   18  O3  UNL     1      11.627  48.319 -34.470  1.00  0.00    -0.247 OA
HETATM   19  N4  UNL     1       9.730  48.846 -35.716  1.00  0.00    -0.330 N 
HETATM   20  C10 UNL     1       8.609  48.344 -36.482  1.00  0.00     0.153 C 
HETATM   21  C13 UNL     1       9.963  50.261 -35.508  1.00  0.00     0.153 C 
HETATM   22  C11 UNL     1       7.836  49.532 -36.994  1.00  0.00     0.187 C 
HETATM   23  O4  UNL     1       8.763  50.393 -37.597  1.00  0.00    -0.388 OA
HETATM   24  C12 UNL     1       9.370  51.124 -36.571  1.00  0.00     0.187 C 
ATOM     25  H3  UNL     1       9.654  46.195 -35.861  1.00  0.00     0.164 HD
ENDBRANCH  15  16
ENDBRANCH  14  15
ENDBRANCH   1  14
TORSDOF 5
ENDMDL
MODEL 2
REMARK VINA RESULT: -7.412651564      2.363      3.250
REMARK  5 active torsions:
REMARK  status: ('A' for Active; 'I' for Inactive)
REMARK       I    between atoms: C1_2  and  N1_3 
REMARK    1  A    between atoms: C1_2  and  O2_13 
REMARK    2  A    between atoms: N1_3  and  C2_5 
REMARK    3  A    between atoms: O2_13  and  C7_14 
REMARK    4  A    between atoms: C7_14  and  C8_15 
REMARK    5  A    between atoms: C8_15  and  N3_16 
REMARK       I    between atoms: N3_16  and  C9_18 
REMARK       I    between atoms: C9_18  and  N4_20 
ROOT
HETATM    1  O2  UNL     1      10.391  45.126 -33.561  1.00  0.00    -0.302 OA
ENDROOT
BRANCH   1   2
HETATM    2  C1  UNL     1      11.204  44.402 -34.423  1.00  0.00     0.360 C 
HETATM    3  O1  UNL     1      11.526  43.234 -34.089  1.00  0.00    -0.239 OA
HETATM    4  N1  UNL     1      11.626  45.005 -35.621  1.00  0.00    -0.332 N 
ATOM      5  H1  UNL     1      11.342  45.957 -35.853  1.00  0.00     0.165 HD
BRANCH   4   6
HETATM    6  C2  UNL     1      12.475  44.248 -36.518  1.00  0.00     0.089 C 
HETATM    7  C3  UNL     1      13.821  44.955 -36.688  1.00  0.00     0.052 C 
HETATM    8  C4  UNL     1      14.584  44.133 -37.736  1.00  0.00     0.234 C 
HETATM    9  N2  UNL     1      14.009  44.325 -39.050  1.00  0.00    -0.075 N 
HETATM   10  C5  UNL     1      12.632  44.766 -38.981  1.00  0.00     0.234 C 
ATOM     11  H22 UNL     1      14.574  44.963 -39.612  1.00  0.00     0.277 HD
ATOM     12  H21 UNL     1      14.101  43.485 -39.621  1.00  0.00     0.277 HD
HETATM   13  C6  UNL     1      11.867  44.080 -37.870  1.00  0.00     0.052 C 
ENDBRANCH   4   6
ENDBRANCH   1   2
BRANCH   1  14
HETATM   14  C7  UNL     1      10.889  45.955 -32.530  1.00  0.00     0.200 C 
BRANCH  14  15
HETATM   15  C8  UNL     1      11.396  47.235 -33.135  1.00  0.00     0.151 C 
BRANCH  15  16
HETATM   16  N3  UNL     1      10.454  47.782 -34.100  1.00  0.00    -0.341 N 
HETATM   17  C9  UNL     1      10.559  49.123 -34.543  1.00  0.00     0.318 C 
HETATM   18  O3  UNL     1      11.491  49.837 -34.079  1.00  0.00    -0.247 OA
HETATM   19  N4  UNL     1       9.640  49.644 -35.479  1.00  0.00    -0.330 N 
HETATM   20  C10 UNL     1       8.588  48.785 -35.982  1.00  0.00     0.153 C 
HETATM   21  C13 UNL     1       9.790  51.023 -35.899  1.00  0.00     0.153 C 
HETATM   22  C11 UNL     1       7.785  49.580 -36.978  1.00  0.00     0.187 C 
HETATM   23  O4  UNL     1       8.699  50.160 -37.870  1.00  0.00    -0.388 OA
HETATM   24  C12 UNL     1       9.211  51.301 -37.246  1.00  0.00     0.187 C 
ATOM     25  H3  UNL     1       9.707  47.190 -34.464  1.00  0.00     0.164 HD
ENDBRANCH  15  16
ENDBRANCH  14  15
ENDBRANCH   1  14
TORSDOF 5
ENDMDL
MODEL 3
REMARK VINA RESULT: -6.639211125      2.369      8.994
REMARK  5 active torsions:
REMARK  status: ('A' for Active; 'I' for Inactive)
REMARK       I    between atoms: C1_2  and  N1_3 
REMARK    1  A    between atoms: C1_2  and  O2_13 
REMARK    2  A    between atoms: N1_3  and  C2_5 
REMARK    3  A    between atoms: O2_13  and  C7_14 
REMARK    4  A    between atoms: C7_14  and  C8_15 
REMARK    5  A    between atoms: C8_15  and  N3_16 
REMARK       I    between atoms: N3_16  and  C9_18 
REMARK       I    between atoms: C9_18  and  N4_20 
ROOT
HETATM    1  O2  UNL     1      12.958  44.367 -36.355  1.00  0.00    -0.302 OA
ENDROOT
BRANCH   1   2
HETATM    2  C1  UNL     1      11.908  45.027 -35.731  1.00  0.00     0.360 C 
HETATM    3  O1  UNL     1      10.969  44.335 -35.266  1.00  0.00    -0.239 OA
HETATM    4  N1  UNL     1      11.945  46.431 -35.651  1.00  0.00    -0.332 N 
ATOM      5  H1  UNL     1      12.728  46.955 -36.042  1.00  0.00     0.165 HD
BRANCH   4   6
HETATM    6  C2  UNL     1      10.848  47.118 -35.000  1.00  0.00     0.089 C 
HETATM    7  C3  UNL     1       9.896  47.696 -36.049  1.00  0.00     0.052 C 
HETATM    8  C4  UNL     1       8.849  48.489 -35.256  1.00  0.00     0.234 C 
HETATM    9  N2  UNL     1       9.429  49.703 -34.719  1.00  0.00    -0.075 N 
HETATM   10  C5  UNL     1      10.868  49.607 -34.597  1.00  0.00     0.234 C 
ATOM     11  H22 UNL     1       9.157  50.517 -35.270  1.00  0.00     0.277 HD
ATOM     12  H21 UNL     1       8.997  49.958 -33.831  1.00  0.00     0.277 HD
HETATM   13  C6  UNL     1      11.313  48.238 -34.131  1.00  0.00     0.052 C 
ENDBRANCH   4   6
ENDBRANCH   1   2
BRANCH   1  14
HETATM   14  C7  UNL     1      13.953  45.025 -37.114  1.00  0.00     0.200 C 
BRANCH  14  15
HETATM   15  C8  UNL     1      14.658  44.015 -37.976  1.00  0.00     0.151 C 
BRANCH  15  16
HETATM   16  N3  UNL     1      16.078  44.312 -38.099  1.00  0.00    -0.341 N 
HETATM   17  C9  UNL     1      16.815  43.893 -39.233  1.00  0.00     0.318 C 
HETATM   18  O3  UNL     1      16.212  43.253 -40.138  1.00  0.00    -0.247 OA
HETATM   19  N4  UNL     1      18.192  44.186 -39.342  1.00  0.00    -0.330 N 
HETATM   20  C10 UNL     1      18.839  44.923 -38.276  1.00  0.00     0.153 C 
HETATM   21  C13 UNL     1      18.902  43.734 -40.522  1.00  0.00     0.153 C 
HETATM   22  C11 UNL     1      20.281  45.121 -38.666  1.00  0.00     0.187 C 
HETATM   23  O4  UNL     1      20.284  45.633 -39.972  1.00  0.00    -0.388 OA
HETATM   24  C12 UNL     1      20.111  44.549 -40.837  1.00  0.00     0.187 C 
ATOM     25  H3  UNL     1      16.549  44.829 -37.357  1.00  0.00     0.164 HD
ENDBRANCH  15  16
ENDBRANCH  14  15
ENDBRANCH   1  14
TORSDOF 5
ENDMDL
MODEL 4
REMARK VINA RESULT: -6.555263144      1.953      8.643
REMARK  5 active torsions:
REMARK  status: ('A' for Active; 'I' for Inactive)
REMARK       I    between atoms: C1_2  and  N1_3 
REMARK    1  A    between atoms: C1_2  and  O2_13 
REMARK    2  A    between atoms: N1_3  and  C2_5 
REMARK    3  A    between atoms: O2_13  and  C7_14 
REMARK    4  A    between atoms: C7_14  and  C8_15 
REMARK    5  A    between atoms: C8_15  and  N3_16 
REMARK       I    between atoms: N3_16  and  C9_18 
REMARK       I    between atoms: C9_18  and  N4_20 
ROOT
HETATM    1  O2  UNL     1      11.215  45.025 -34.927  1.00  0.00    -0.302 OA
ENDROOT
BRANCH   1   2
HETATM    2  C1  UNL     1      10.216  45.987 -34.851  1.00  0.00     0.360 C 
HETATM    3  O1  UNL     1       9.220  45.746 -34.124  1.00  0.00    -0.239 OA
HETATM    4  N1  UNL     1      10.366  47.177 -35.585  1.00  0.00    -0.332 N 
ATOM      5  H1  UNL     1      11.193  47.331 -36.163  1.00  0.00     0.165 HD
BRANCH   4   6
HETATM    6  C2  UNL     1       9.322  48.178 -35.504  1.00  0.00     0.089 C 
HETATM    7  C3  UNL     1       8.751  48.453 -36.896  1.00  0.00     0.052 C 
HETATM    8  C4  UNL     1       7.747  49.598 -36.705  1.00  0.00     0.234 C 
HETATM    9  N2  UNL     1       8.439  50.844 -36.446  1.00  0.00    -0.075 N 
HETATM   10  C5  UNL     1       9.770  50.625 -35.919  1.00  0.00     0.234 C 
ATOM     11  H22 UNL     1       8.462  51.434 -37.277  1.00  0.00     0.277 HD
ATOM     12  H21 UNL     1       7.893  51.450 -35.834  1.00  0.00     0.277 HD
HETATM   13  C6  UNL     1       9.816  49.470 -34.943  1.00  0.00     0.052 C 
ENDBRANCH   4   6
ENDBRANCH   1   2
BRANCH   1  14
HETATM   14  C7  UNL     1      12.553  45.316 -35.281  1.00  0.00     0.200 C 
BRANCH  14  15
HETATM   15  C8  UNL     1      12.832  44.750 -36.645  1.00  0.00     0.151 C 
BRANCH  15  16
HETATM   16  N3  UNL     1      14.260  44.612 -36.887  1.00  0.00    -0.341 N 
HETATM   17  C9  UNL     1      14.747  44.119 -38.123  1.00  0.00     0.318 C 
HETATM   18  O3  UNL     1      13.910  43.799 -39.012  1.00  0.00    -0.247 OA
HETATM   19  N4  UNL     1      16.135  43.989 -38.348  1.00  0.00    -0.330 N 
HETATM   20  C10 UNL     1      17.054  44.370 -37.295  1.00  0.00     0.153 C 
HETATM   21  C13 UNL     1      16.581  43.478 -39.628  1.00  0.00     0.153 C 
HETATM   22  C11 UNL     1      18.453  44.161 -37.813  1.00  0.00     0.187 C 
HETATM   23  O4  UNL     1      18.524  44.791 -39.064  1.00  0.00    -0.388 OA
HETATM   24  C12 UNL     1      17.959  43.916 -39.996  1.00  0.00     0.187 C 
ATOM     25  H3  UNL     1      14.922  44.875 -36.156  1.00  0.00     0.164 HD
ENDBRANCH  15  16
ENDBRANCH  14  15
ENDBRANCH   1  14
TORSDOF 5
ENDMDL
MODEL 5
REMARK VINA RESULT: -6.480321352      3.171      9.804
REMARK  5 active torsions:
REMARK  status: ('A' for Active; 'I' for Inactive)
REMARK       I    between atoms: C1_2  and  N1_3 
REMARK    1  A    between atoms: C1_2  and  O2_13 
REMARK    2  A    between atoms: N1_3  and  C2_5 
REMARK    3  A    between atoms: O2_13  and  C7_14 
REMARK    4  A    between atoms: C7_14  and  C8_15 
REMARK    5  A    between atoms: C8_15  and  N3_16 
REMARK       I    between atoms: N3_16  and  C9_18 
REMARK       I    between atoms: C9_18  and  N4_20 
ROOT
HETATM    1  O2  UNL     1      14.333  44.585 -37.827  1.00  0.00    -0.302 OA
ENDROOT
BRANCH   1   2
HETATM    2  C1  UNL     1      13.046  44.563 -37.306  1.00  0.00     0.360 C 
HETATM    3  O1  UNL     1      12.110  44.197 -38.060  1.00  0.00    -0.239 OA
HETATM    4  N1  UNL     1      12.853  44.949 -35.967  1.00  0.00    -0.332 N 
ATOM      5  H1  UNL     1      13.642  45.239 -35.390  1.00  0.00     0.165 HD
BRANCH   4   6
HETATM    6  C2  UNL     1      11.509  44.925 -35.426  1.00  0.00     0.089 C 
HETATM    7  C3  UNL     1      11.074  46.340 -35.041  1.00  0.00     0.052 C 
HETATM    8  C4  UNL     1       9.698  46.179 -34.380  1.00  0.00     0.234 C 
HETATM    9  N2  UNL     1       9.829  45.571 -33.073  1.00  0.00    -0.075 N 
HETATM   10  C5  UNL     1      11.059  44.816 -32.947  1.00  0.00     0.234 C 
ATOM     11  H22 UNL     1       9.744  46.266 -32.331  1.00  0.00     0.277 HD
ATOM     12  H21 UNL     1       9.017  44.996 -32.848  1.00  0.00     0.277 HD
HETATM   13  C6  UNL     1      11.399  44.062 -34.214  1.00  0.00     0.052 C 
ENDBRANCH   4   6
ENDBRANCH   1   2
BRANCH   1  14
HETATM   14  C7  UNL     1      14.774  43.716 -38.853  1.00  0.00     0.200 C 
BRANCH  14  15
HETATM   15  C8  UNL     1      16.278  43.697 -38.863  1.00  0.00     0.151 C 
BRANCH  15  16
HETATM   16  N3  UNL     1      16.804  42.514 -38.200  1.00  0.00    -0.341 N 
HETATM   17  C9  UNL     1      17.867  41.771 -38.768  1.00  0.00     0.318 C 
HETATM   18  O3  UNL     1      18.350  42.160 -39.867  1.00  0.00    -0.247 OA
HETATM   19  N4  UNL     1      18.370  40.624 -38.116  1.00  0.00    -0.330 N 
HETATM   20  C10 UNL     1      17.782  40.219 -36.855  1.00  0.00     0.153 C 
HETATM   21  C13 UNL     1      19.458  39.898 -38.739  1.00  0.00     0.153 C 
HETATM   22  C11 UNL     1      18.525  39.000 -36.375  1.00  0.00     0.187 C 
HETATM   23  O4  UNL     1      19.893  39.302 -36.443  1.00  0.00    -0.388 OA
HETATM   24  C12 UNL     1      20.287  39.121 -37.772  1.00  0.00     0.187 C 
ATOM     25  H3  UNL     1      16.400  42.214 -37.312  1.00  0.00     0.164 HD
ENDBRANCH  15  16
ENDBRANCH  14  15
ENDBRANCH   1  14
TORSDOF 5
ENDMDL
