MODEL 1
REMARK VINA RESULT: -7.289045917      0.000      0.000
REMARK  13 active torsions:
REMARK  status: ('A' for Active; 'I' for Inactive)
REMARK    1  A    between atoms: O1_2  and  C2_3 
REMARK    2  A    between atoms: C2_3  and  C3_5 
REMARK    3  A    between atoms: C3_5  and  N1_6 
REMARK    4  A    between atoms: C3_5  and  C13_17 
REMARK    5  A    between atoms: N1_6  and  C4_8 
REMARK    6  A    between atoms: C4_8  and  C6_10 
REMARK    7  A    between atoms: C13_17  and  O3_18 
REMARK    8  A    between atoms: C13_17  and  C14_20 
REMARK    9  A    between atoms: C14_20  and  O4_21 
REMARK   10  A    between atoms: C14_20  and  C15_23 
REMARK   11  A    between atoms: C15_23  and  O5_24 
REMARK   12  A    between atoms: C15_23  and  C16_26 
REMARK   13  A    between atoms: C16_26  and  O6_28 
ROOT
HETATM    1  C3  UNL     1     -35.785 -45.676  11.684  1.00  0.00     0.209 C 
ENDROOT
BRANCH   1   2
HETATM    2  C2  UNL     1     -34.563 -44.823  11.771  1.00  0.00     0.283 C 
HETATM    3  O2  UNL     1     -34.709 -43.555  11.917  1.00  0.00    -0.263 OA
BRANCH   2   4
HETATM    4  O1  UNL     1     -33.289 -45.268  11.714  1.00  0.00    -0.325 OA
HETATM    5  C1  UNL     1     -32.255 -44.946  10.839  1.00  0.00     0.213 C 
ENDBRANCH   2   4
ENDBRANCH   1   2
BRANCH   1   6
HETATM    6  N1  UNL     1     -36.406 -45.614  12.968  1.00  0.00    -0.399 N 
ATOM      7  H1  UNL     1     -35.837 -45.461  13.801  1.00  0.00     0.154 HD
BRANCH   6   8
HETATM    8  C4  UNL     1     -37.789 -45.762  13.087  1.00  0.00     0.106 C 
HETATM    9  C5  UNL     1     -38.652 -45.350  11.920  1.00  0.00     0.037 C 
BRANCH   8  10
HETATM   10  C6  UNL     1     -38.254 -44.855  14.222  1.00  0.00    -0.036 A 
HETATM   11  C7  UNL     1     -39.141 -43.856  13.952  1.00  0.00     0.009 A 
HETATM   12  C8  UNL     1     -39.555 -43.019  14.998  1.00  0.00     0.001 A 
HETATM   13  C9  UNL     1     -39.056 -43.227  16.276  1.00  0.00     0.007 A 
HETATM   14  C10 UNL     1     -38.166 -44.232  16.544  1.00  0.00    -0.061 A 
HETATM   15  C11 UNL     1     -37.617 -44.461  17.903  1.00  0.00     0.048 C 
HETATM   16  C12 UNL     1     -37.782 -45.036  15.479  1.00  0.00     0.016 A 
ENDBRANCH   8  10
ENDBRANCH   6   8
ENDBRANCH   1   6
BRANCH   1  17
HETATM   17  C13 UNL     1     -35.590 -47.079  11.292  1.00  0.00     0.181 C 
BRANCH  17  18
HETATM   18  O3  UNL     1     -34.549 -47.660  11.997  1.00  0.00    -0.390 OA
ATOM     19  H3  UNL     1     -34.695 -48.589  12.128  1.00  0.00     0.210 HD
ENDBRANCH  17  18
BRANCH  17  20
HETATM   20  C14 UNL     1     -35.541 -47.427   9.862  1.00  0.00     0.180 C 
BRANCH  20  21
HETATM   21  O4  UNL     1     -34.539 -46.917   9.093  1.00  0.00    -0.390 OA
ATOM     22  H4  UNL     1     -33.653 -47.234   9.224  1.00  0.00     0.210 HD
ENDBRANCH  20  21
BRANCH  20  23
HETATM   23  C15 UNL     1     -35.446 -48.947   9.782  1.00  0.00     0.177 C 
BRANCH  23  24
HETATM   24  O5  UNL     1     -34.120 -49.309   9.668  1.00  0.00    -0.390 OA
ATOM     25  H5  UNL     1     -33.944 -49.565   8.770  1.00  0.00     0.210 HD
ENDBRANCH  23  24
BRANCH  23  26
HETATM   26  C16 UNL     1     -36.320 -49.475   8.656  1.00  0.00     0.145 C 
HETATM   27  C17 UNL     1     -36.987 -50.747   9.118  1.00  0.00     0.042 C 
BRANCH  26  28
HETATM   28  O6  UNL     1     -37.253 -48.513   8.273  1.00  0.00    -0.393 OA
ATOM     29  H6  UNL     1     -37.300 -48.457   7.326  1.00  0.00     0.210 HD
ENDBRANCH  26  28
ENDBRANCH  23  26
ENDBRANCH  20  23
ENDBRANCH  17  20
ENDBRANCH   1  17
TORSDOF 13
ENDMDL
MODEL 2
REMARK VINA RESULT: -6.842848741      1.184      1.332
REMARK  13 active torsions:
REMARK  status: ('A' for Active; 'I' for Inactive)
REMARK    1  A    between atoms: O1_2  and  C2_3 
REMARK    2  A    between atoms: C2_3  and  C3_5 
REMARK    3  A    between atoms: C3_5  and  N1_6 
REMARK    4  A    between atoms: C3_5  and  C13_17 
REMARK    5  A    between atoms: N1_6  and  C4_8 
REMARK    6  A    between atoms: C4_8  and  C6_10 
REMARK    7  A    between atoms: C13_17  and  O3_18 
REMARK    8  A    between atoms: C13_17  and  C14_20 
REMARK    9  A    between atoms: C14_20  and  O4_21 
REMARK   10  A    between atoms: C14_20  and  C15_23 
REMARK   11  A    between atoms: C15_23  and  O5_24 
REMARK   12  A    between atoms: C15_23  and  C16_26 
REMARK   13  A    between atoms: C16_26  and  O6_28 
ROOT
HETATM    1  C3  UNL     1     -35.571 -45.629  11.795  1.00  0.00     0.209 C 
ENDROOT
BRANCH   1   2
HETATM    2  C2  UNL     1     -34.890 -44.382  11.335  1.00  0.00     0.283 C 
HETATM    3  O2  UNL     1     -35.513 -43.611  10.517  1.00  0.00    -0.263 OA
BRANCH   2   4
HETATM    4  O1  UNL     1     -33.658 -43.975  11.708  1.00  0.00    -0.325 OA
HETATM    5  C1  UNL     1     -32.417 -44.184  11.115  1.00  0.00     0.213 C 
ENDBRANCH   2   4
ENDBRANCH   1   2
BRANCH   1   6
HETATM    6  N1  UNL     1     -36.246 -45.291  13.006  1.00  0.00    -0.399 N 
ATOM      7  H1  UNL     1     -35.759 -44.763  13.730  1.00  0.00     0.154 HD
BRANCH   6   8
HETATM    8  C4  UNL     1     -37.572 -45.681  13.202  1.00  0.00     0.106 C 
HETATM    9  C5  UNL     1     -38.540 -45.515  12.057  1.00  0.00     0.037 C 
BRANCH   8  10
HETATM   10  C6  UNL     1     -38.155 -44.797  14.302  1.00  0.00    -0.036 A 
HETATM   11  C7  UNL     1     -39.082 -43.854  13.973  1.00  0.00     0.009 A 
HETATM   12  C8  UNL     1     -39.604 -43.037  14.987  1.00  0.00     0.001 A 
HETATM   13  C9  UNL     1     -39.169 -43.209  16.293  1.00  0.00     0.007 A 
HETATM   14  C10 UNL     1     -38.238 -44.158  16.619  1.00  0.00    -0.061 A 
HETATM   15  C11 UNL     1     -37.755 -44.347  18.009  1.00  0.00     0.048 C 
HETATM   16  C12 UNL     1     -37.746 -44.943  15.585  1.00  0.00     0.016 A 
ENDBRANCH   8  10
ENDBRANCH   6   8
ENDBRANCH   1   6
BRANCH   1  17
HETATM   17  C13 UNL     1     -34.720 -46.808  12.012  1.00  0.00     0.181 C 
BRANCH  17  18
HETATM   18  O3  UNL     1     -33.589 -46.487  12.743  1.00  0.00    -0.390 OA
ATOM     19  H3  UNL     1     -33.271 -47.234  13.235  1.00  0.00     0.210 HD
ENDBRANCH  17  18
BRANCH  17  20
HETATM   20  C14 UNL     1     -34.402 -47.685  10.873  1.00  0.00     0.180 C 
BRANCH  20  21
HETATM   21  O4  UNL     1     -33.097 -47.951  10.588  1.00  0.00    -0.390 OA
ATOM     22  H4  UNL     1     -32.419 -47.454  11.032  1.00  0.00     0.210 HD
ENDBRANCH  20  21
BRANCH  20  23
HETATM   23  C15 UNL     1     -35.087 -49.021  11.141  1.00  0.00     0.177 C 
BRANCH  23  24
HETATM   24  O5  UNL     1     -34.180 -49.886  11.716  1.00  0.00    -0.390 OA
ATOM     25  H5  UNL     1     -34.621 -50.699  11.935  1.00  0.00     0.210 HD
ENDBRANCH  23  24
BRANCH  23  26
HETATM   26  C16 UNL     1     -35.720 -49.560   9.868  1.00  0.00     0.145 C 
HETATM   27  C17 UNL     1     -36.212 -48.396   9.043  1.00  0.00     0.042 C 
BRANCH  26  28
HETATM   28  O6  UNL     1     -34.806 -50.342   9.165  1.00  0.00    -0.393 OA
ATOM     29  H6  UNL     1     -34.797 -50.096   8.248  1.00  0.00     0.210 HD
ENDBRANCH  26  28
ENDBRANCH  23  26
ENDBRANCH  20  23
ENDBRANCH  17  20
ENDBRANCH   1  17
TORSDOF 13
ENDMDL
MODEL 3
REMARK VINA RESULT: -6.563051207      1.410      2.161
REMARK  13 active torsions:
REMARK  status: ('A' for Active; 'I' for Inactive)
REMARK    1  A    between atoms: O1_2  and  C2_3 
REMARK    2  A    between atoms: C2_3  and  C3_5 
REMARK    3  A    between atoms: C3_5  and  N1_6 
REMARK    4  A    between atoms: C3_5  and  C13_17 
REMARK    5  A    between atoms: N1_6  and  C4_8 
REMARK    6  A    between atoms: C4_8  and  C6_10 
REMARK    7  A    between atoms: C13_17  and  O3_18 
REMARK    8  A    between atoms: C13_17  and  C14_20 
REMARK    9  A    between atoms: C14_20  and  O4_21 
REMARK   10  A    between atoms: C14_20  and  C15_23 
REMARK   11  A    between atoms: C15_23  and  O5_24 
REMARK   12  A    between atoms: C15_23  and  C16_26 
REMARK   13  A    between atoms: C16_26  and  O6_28 
ROOT
HETATM    1  C3  UNL     1     -35.405 -46.910  10.584  1.00  0.00     0.209 C 
ENDROOT
BRANCH   1   2
HETATM    2  C2  UNL     1     -34.144 -46.306  10.062  1.00  0.00     0.283 C 
HETATM    3  O2  UNL     1     -34.151 -45.799   8.881  1.00  0.00    -0.263 OA
BRANCH   2   4
HETATM    4  O1  UNL     1     -32.972 -46.233  10.729  1.00  0.00    -0.325 OA
HETATM    5  C1  UNL     1     -32.124 -45.153  10.954  1.00  0.00     0.213 C 
ENDBRANCH   2   4
ENDBRANCH   1   2
BRANCH   1   6
HETATM    6  N1  UNL     1     -35.699 -46.230  11.804  1.00  0.00    -0.399 N 
ATOM      7  H1  UNL     1     -35.669 -46.737  12.689  1.00  0.00     0.154 HD
BRANCH   6   8
HETATM    8  C4  UNL     1     -36.026 -44.873  11.790  1.00  0.00     0.106 C 
HETATM    9  C5  UNL     1     -34.962 -43.880  12.187  1.00  0.00     0.037 C 
BRANCH   8  10
HETATM   10  C6  UNL     1     -37.131 -44.655  12.820  1.00  0.00    -0.036 A 
HETATM   11  C7  UNL     1     -38.414 -44.488  12.392  1.00  0.00     0.009 A 
HETATM   12  C8  UNL     1     -39.421 -44.276  13.344  1.00  0.00     0.001 A 
HETATM   13  C9  UNL     1     -39.091 -44.242  14.691  1.00  0.00     0.007 A 
HETATM   14  C10 UNL     1     -37.801 -44.410  15.118  1.00  0.00    -0.061 A 
HETATM   15  C11 UNL     1     -37.431 -44.367  16.553  1.00  0.00     0.048 C 
HETATM   16  C12 UNL     1     -36.835 -44.616  14.142  1.00  0.00     0.016 A 
ENDBRANCH   8  10
ENDBRANCH   6   8
ENDBRANCH   1   6
BRANCH   1  17
HETATM   17  C13 UNL     1     -35.400 -48.363  10.813  1.00  0.00     0.181 C 
BRANCH  17  18
HETATM   18  O3  UNL     1     -34.475 -48.718  11.780  1.00  0.00    -0.390 OA
ATOM     19  H3  UNL     1     -33.895 -47.995  11.987  1.00  0.00     0.210 HD
ENDBRANCH  17  18
BRANCH  17  20
HETATM   20  C14 UNL     1     -35.356 -49.273   9.656  1.00  0.00     0.180 C 
BRANCH  20  21
HETATM   21  O4  UNL     1     -34.169 -49.847   9.313  1.00  0.00    -0.390 OA
ATOM     22  H4  UNL     1     -34.160 -50.517   8.639  1.00  0.00     0.210 HD
ENDBRANCH  20  21
BRANCH  20  23
HETATM   23  C15 UNL     1     -36.338 -50.403   9.948  1.00  0.00     0.177 C 
BRANCH  23  24
HETATM   24  O5  UNL     1     -35.645 -51.592  10.033  1.00  0.00    -0.390 OA
ATOM     25  H5  UNL     1     -36.122 -52.190  10.596  1.00  0.00     0.210 HD
ENDBRANCH  23  24
BRANCH  23  26
HETATM   26  C16 UNL     1     -37.451 -50.420   8.912  1.00  0.00     0.145 C 
HETATM   27  C17 UNL     1     -37.014 -49.605   7.719  1.00  0.00     0.042 C 
BRANCH  26  28
HETATM   28  O6  UNL     1     -37.763 -51.730   8.556  1.00  0.00    -0.393 OA
ATOM     29  H6  UNL     1     -38.702 -51.831   8.456  1.00  0.00     0.210 HD
ENDBRANCH  26  28
ENDBRANCH  23  26
ENDBRANCH  20  23
ENDBRANCH  17  20
ENDBRANCH   1  17
TORSDOF 13
ENDMDL
MODEL 4
REMARK VINA RESULT: -6.408548821      1.280      2.101
REMARK  13 active torsions:
REMARK  status: ('A' for Active; 'I' for Inactive)
REMARK    1  A    between atoms: O1_2  and  C2_3 
REMARK    2  A    between atoms: C2_3  and  C3_5 
REMARK    3  A    between atoms: C3_5  and  N1_6 
REMARK    4  A    between atoms: C3_5  and  C13_17 
REMARK    5  A    between atoms: N1_6  and  C4_8 
REMARK    6  A    between atoms: C4_8  and  C6_10 
REMARK    7  A    between atoms: C13_17  and  O3_18 
REMARK    8  A    between atoms: C13_17  and  C14_20 
REMARK    9  A    between atoms: C14_20  and  O4_21 
REMARK   10  A    between atoms: C14_20  and  C15_23 
REMARK   11  A    between atoms: C15_23  and  O5_24 
REMARK   12  A    between atoms: C15_23  and  C16_26 
REMARK   13  A    between atoms: C16_26  and  O6_28 
ROOT
HETATM    1  C3  UNL     1     -35.070 -46.758  11.190  1.00  0.00     0.209 C 
ENDROOT
BRANCH   1   2
HETATM    2  C2  UNL     1     -33.719 -46.148  11.366  1.00  0.00     0.283 C 
HETATM    3  O2  UNL     1     -32.708 -46.733  10.829  1.00  0.00    -0.263 OA
BRANCH   2   4
HETATM    4  O1  UNL     1     -33.452 -45.011  12.044  1.00  0.00    -0.325 OA
HETATM    5  C1  UNL     1     -33.324 -43.699  11.599  1.00  0.00     0.213 C 
ENDBRANCH   2   4
ENDBRANCH   1   2
BRANCH   1   6
HETATM    6  N1  UNL     1     -35.875 -46.258  12.256  1.00  0.00    -0.399 N 
ATOM      7  H1  UNL     1     -35.624 -46.464  13.223  1.00  0.00     0.154 HD
BRANCH   6   8
HETATM    8  C4  UNL     1     -37.006 -45.487  11.981  1.00  0.00     0.106 C 
HETATM    9  C5  UNL     1     -36.826 -44.218  11.184  1.00  0.00     0.037 C 
BRANCH   8  10
HETATM   10  C6  UNL     1     -37.572 -45.004  13.313  1.00  0.00    -0.036 A 
HETATM   11  C7  UNL     1     -36.903 -45.299  14.464  1.00  0.00     0.009 A 
HETATM   12  C8  UNL     1     -37.435 -44.861  15.685  1.00  0.00     0.001 A 
HETATM   13  C9  UNL     1     -38.621 -44.141  15.694  1.00  0.00     0.007 A 
HETATM   14  C10 UNL     1     -39.289 -43.846  14.536  1.00  0.00    -0.061 A 
HETATM   15  C11 UNL     1     -40.563 -43.086  14.530  1.00  0.00     0.048 C 
HETATM   16  C12 UNL     1     -38.728 -44.300  13.350  1.00  0.00     0.016 A 
ENDBRANCH   8  10
ENDBRANCH   6   8
ENDBRANCH   1   6
BRANCH   1  17
HETATM   17  C13 UNL     1     -35.137 -48.227  11.162  1.00  0.00     0.181 C 
BRANCH  17  18
HETATM   18  O3  UNL     1     -34.205 -48.790  12.017  1.00  0.00    -0.390 OA
ATOM     19  H3  UNL     1     -33.515 -49.230  11.535  1.00  0.00     0.210 HD
ENDBRANCH  17  18
BRANCH  17  20
HETATM   20  C14 UNL     1     -35.175 -48.920   9.864  1.00  0.00     0.180 C 
BRANCH  20  21
HETATM   21  O4  UNL     1     -34.003 -49.305   9.286  1.00  0.00    -0.390 OA
ATOM     22  H4  UNL     1     -33.965 -50.140   8.835  1.00  0.00     0.210 HD
ENDBRANCH  20  21
BRANCH  20  23
HETATM   23  C15 UNL     1     -36.017 -50.177  10.061  1.00  0.00     0.177 C 
BRANCH  23  24
HETATM   24  O5  UNL     1     -35.216 -51.181  10.563  1.00  0.00    -0.390 OA
ATOM     25  H5  UNL     1     -35.752 -51.946  10.740  1.00  0.00     0.210 HD
ENDBRANCH  23  24
BRANCH  23  26
HETATM   26  C16 UNL     1     -36.723 -50.551   8.768  1.00  0.00     0.145 C 
HETATM   27  C17 UNL     1     -37.493 -51.830   8.990  1.00  0.00     0.042 C 
BRANCH  26  28
HETATM   28  O6  UNL     1     -37.554 -49.514   8.350  1.00  0.00    -0.393 OA
ATOM     29  H6  UNL     1     -37.496 -49.401   7.409  1.00  0.00     0.210 HD
ENDBRANCH  26  28
ENDBRANCH  23  26
ENDBRANCH  20  23
ENDBRANCH  17  20
ENDBRANCH   1  17
TORSDOF 13
ENDMDL
MODEL 5
REMARK VINA RESULT: -6.372225166      6.429      9.527
REMARK  13 active torsions:
REMARK  status: ('A' for Active; 'I' for Inactive)
REMARK    1  A    between atoms: O1_2  and  C2_3 
REMARK    2  A    between atoms: C2_3  and  C3_5 
REMARK    3  A    between atoms: C3_5  and  N1_6 
REMARK    4  A    between atoms: C3_5  and  C13_17 
REMARK    5  A    between atoms: N1_6  and  C4_8 
REMARK    6  A    between atoms: C4_8  and  C6_10 
REMARK    7  A    between atoms: C13_17  and  O3_18 
REMARK    8  A    between atoms: C13_17  and  C14_20 
REMARK    9  A    between atoms: C14_20  and  O4_21 
REMARK   10  A    between atoms: C14_20  and  C15_23 
REMARK   11  A    between atoms: C15_23  and  O5_24 
REMARK   12  A    between atoms: C15_23  and  C16_26 
REMARK   13  A    between atoms: C16_26  and  O6_28 
ROOT
HETATM    1  C3  UNL     1     -37.845 -41.586  18.416  1.00  0.00     0.209 C 
ENDROOT
BRANCH   1   2
HETATM    2  C2  UNL     1     -39.023 -41.379  19.309  1.00  0.00     0.283 C 
HETATM    3  O2  UNL     1     -40.124 -40.972  18.785  1.00  0.00    -0.263 OA
BRANCH   2   4
HETATM    4  O1  UNL     1     -39.045 -41.588  20.642  1.00  0.00    -0.325 OA
HETATM    5  C1  UNL     1     -39.701 -42.557  21.396  1.00  0.00     0.213 C 
ENDBRANCH   2   4
ENDBRANCH   1   2
BRANCH   1   6
HETATM    6  N1  UNL     1     -37.577 -42.988  18.427  1.00  0.00    -0.399 N 
ATOM      7  H1  UNL     1     -36.640 -43.325  18.647  1.00  0.00     0.154 HD
BRANCH   6   8
HETATM    8  C4  UNL     1     -38.594 -43.899  18.137  1.00  0.00     0.106 C 
HETATM    9  C5  UNL     1     -38.382 -45.345  18.512  1.00  0.00     0.037 C 
BRANCH   8  10
HETATM   10  C6  UNL     1     -38.761 -43.937  16.621  1.00  0.00    -0.036 A 
HETATM   11  C7  UNL     1     -39.833 -43.313  16.056  1.00  0.00     0.009 A 
HETATM   12  C8  UNL     1     -39.986 -43.362  14.662  1.00  0.00     0.001 A 
HETATM   13  C9  UNL     1     -39.049 -44.040  13.897  1.00  0.00     0.007 A 
HETATM   14  C10 UNL     1     -37.973 -44.665  14.468  1.00  0.00    -0.061 A 
HETATM   15  C11 UNL     1     -36.968 -45.402  13.664  1.00  0.00     0.048 C 
HETATM   16  C12 UNL     1     -37.861 -44.593  15.850  1.00  0.00     0.016 A 
ENDBRANCH   8  10
ENDBRANCH   6   8
ENDBRANCH   1   6
BRANCH   1  17
HETATM   17  C13 UNL     1     -36.620 -40.843  18.749  1.00  0.00     0.181 C 
BRANCH  17  18
HETATM   18  O3  UNL     1     -36.311 -40.956  20.093  1.00  0.00    -0.390 OA
ATOM     19  H3  UNL     1     -35.784 -40.224  20.390  1.00  0.00     0.210 HD
ENDBRANCH  17  18
BRANCH  17  20
HETATM   20  C14 UNL     1     -36.465 -39.459  18.268  1.00  0.00     0.180 C 
BRANCH  20  21
HETATM   21  O4  UNL     1     -37.183 -38.469  18.867  1.00  0.00    -0.390 OA
ATOM     22  H4  UNL     1     -37.145 -38.380  19.812  1.00  0.00     0.210 HD
ENDBRANCH  20  21
BRANCH  20  23
HETATM   23  C15 UNL     1     -34.990 -39.104  18.418  1.00  0.00     0.177 C 
BRANCH  23  24
HETATM   24  O5  UNL     1     -34.881 -37.917  19.110  1.00  0.00    -0.390 OA
ATOM     25  H5  UNL     1     -33.960 -37.711  19.231  1.00  0.00     0.210 HD
ENDBRANCH  23  24
BRANCH  23  26
HETATM   26  C16 UNL     1     -34.308 -39.082  17.059  1.00  0.00     0.145 C 
HETATM   27  C17 UNL     1     -35.329 -38.713  16.011  1.00  0.00     0.042 C 
BRANCH  26  28
HETATM   28  O6  UNL     1     -33.234 -38.194  17.069  1.00  0.00    -0.393 OA
ATOM     29  H6  UNL     1     -32.979 -37.992  17.961  1.00  0.00     0.210 HD
ENDBRANCH  26  28
ENDBRANCH  23  26
ENDBRANCH  20  23
ENDBRANCH  17  20
ENDBRANCH   1  17
TORSDOF 13
ENDMDL
