MODEL 1
REMARK VINA RESULT: -7.657084224      0.000      0.000
REMARK  19 active torsions:
REMARK  status: ('A' for Active; 'I' for Inactive)
REMARK    1  A    between atoms: C2_2  and  C3_3 
REMARK    2  A    between atoms: C2_2  and  C5_9 
REMARK    3  A    between atoms: C3_3  and  O1_4 
REMARK    4  A    between atoms: C3_3  and  C4_6 
REMARK    5  A    between atoms: C4_6  and  O2_7 
REMARK    6  A    between atoms: C5_9  and  N1_10 
REMARK    7  A    between atoms: C5_9  and  C7_22 
REMARK    8  A    between atoms: N1_10  and  C6_12 
REMARK    9  A    between atoms: C6_12  and  O3_18 
REMARK   10  A    between atoms: N2_13  and  N3_15 
REMARK   11  A    between atoms: O3_18  and  N4_19 
REMARK   12  A    between atoms: C7_22  and  O4_23 
REMARK   13  A    between atoms: C7_22  and  C8_25 
REMARK   14  A    between atoms: C8_25  and  N5_26 
REMARK   15  A    between atoms: C10_28  and  O5_29 
REMARK   16  A    between atoms: C11_31  and  C12_32 
REMARK   17  A    between atoms: C16_40  and  N8_41 
REMARK   18  A    between atoms: C17_46  and  N10_47 
REMARK   19  A    between atoms: N11_50  and  N12_51 
ROOT
HETATM    1  N5  UNL     1      22.215  33.794 -20.683  1.00  0.00    -0.298 N 
HETATM    2  C9  UNL     1      21.062  33.250 -21.074  1.00  0.00     0.149 A 
HETATM    3  C10 UNL     1      20.083  34.219 -21.108  1.00  0.00     0.113 A 
HETATM    4  C11 UNL     1      20.683  35.382 -20.721  1.00  0.00     0.111 A 
HETATM    5  N13 UNL     1      21.952  35.088 -20.476  1.00  0.00    -0.294 N 
ATOM      6  H13 UNL     1      22.646  35.769 -20.167  1.00  0.00     0.187 HD
ENDROOT
BRANCH   1   7
HETATM    7  C8  UNL     1      23.525  33.228 -20.485  1.00  0.00     0.182 C 
BRANCH   7   8
HETATM    8  C7  UNL     1      24.479  33.460 -21.602  1.00  0.00     0.161 C 
BRANCH   8   9
HETATM    9  C5  UNL     1      25.754  34.155 -21.120  1.00  0.00     0.121 C 
BRANCH   9  10
HETATM   10  C2  UNL     1      25.499  35.611 -20.966  1.00  0.00     0.038 C 
HETATM   11  C1  UNL     1      26.754  36.346 -21.513  1.00  0.00     0.015 C 
BRANCH  10  12
HETATM   12  C3  UNL     1      25.438  36.106 -19.536  1.00  0.00     0.147 C 
BRANCH  12  13
HETATM   13  O1  UNL     1      26.809  36.422 -19.242  1.00  0.00    -0.393 OA
ATOM     14  H1  UNL     1      26.909  37.298 -19.596  1.00  0.00     0.210 HD
ENDBRANCH  12  13
BRANCH  12  15
HETATM   15  C4  UNL     1      24.724  37.387 -19.296  1.00  0.00     0.196 C 
BRANCH  15  16
HETATM   16  O2  UNL     1      23.438  37.437 -19.829  1.00  0.00    -0.398 OA
ATOM     17  H2  UNL     1      22.751  37.555 -19.184  1.00  0.00     0.209 HD
ENDBRANCH  15  16
ENDBRANCH  12  15
ENDBRANCH  10  12
ENDBRANCH   9  10
BRANCH   9  18
HETATM   18  N1  UNL     1      26.180  33.478 -19.902  1.00  0.00    -0.346 N 
ATOM     19  H1  UNL     1      25.482  33.099 -19.261  1.00  0.00     0.163 HD
BRANCH  18  20
HETATM   20  C6  UNL     1      27.571  33.341 -19.601  1.00  0.00     0.257 C 
HETATM   21  N2  UNL     1      28.369  32.814 -20.450  1.00  0.00    -0.270 N 
ATOM     22  H2  UNL     1      27.977  32.500 -21.338  1.00  0.00     0.190 HD
BRANCH  21  23
HETATM   23  N3  UNL     1      29.716  32.642 -20.254  1.00  0.00    -0.342 N 
ATOM     24  H32 UNL     1      30.050  32.714 -19.293  1.00  0.00     0.176 HD
ATOM     25  H31 UNL     1      30.391  32.449 -20.994  1.00  0.00     0.176 HD
ENDBRANCH  21  23
BRANCH  20  26
HETATM   26  O3  UNL     1      28.104  33.766 -18.399  1.00  0.00    -0.206 OA
BRANCH  26  27
HETATM   27  N4  UNL     1      27.340  34.070 -17.299  1.00  0.00    -0.302 N 
ATOM     28  H42 UNL     1      26.631  34.795 -17.408  1.00  0.00     0.184 HD
ATOM     29  H41 UNL     1      27.450  33.611 -16.395  1.00  0.00     0.184 HD
ENDBRANCH  26  27
ENDBRANCH  20  26
ENDBRANCH  18  20
ENDBRANCH   9  18
ENDBRANCH   8   9
BRANCH   8  30
HETATM   30  O4  UNL     1      23.861  34.035 -22.661  1.00  0.00    -0.392 OA
ATOM     31  H4  UNL     1      23.008  33.681 -22.881  1.00  0.00     0.210 HD
ENDBRANCH   8  30
ENDBRANCH   7   8
ENDBRANCH   1   7
BRANCH   3  32
HETATM   32  O5  UNL     1      18.779  33.972 -21.475  1.00  0.00    -0.357 OA
ATOM     33  H5  UNL     1      18.234  33.309 -21.066  1.00  0.00     0.218 HD
ENDBRANCH   3  32
BRANCH   4  34
HETATM   34  C12 UNL     1      20.080  36.696 -20.591  1.00  0.00     0.079 A 
HETATM   35  C13 UNL     1      18.857  36.964 -21.205  1.00  0.00     0.121 A 
HETATM   36  N6  UNL     1      18.243  38.152 -21.128  1.00  0.00    -0.346 N 
HETATM   37  C14 UNL     1      18.792  39.166 -20.435  1.00  0.00     0.175 A 
ATOM     38  H6  UNL     1      17.349  38.290 -21.600  1.00  0.00     0.167 HD
HETATM   39  C15 UNL     1      20.002  38.917 -19.821  1.00  0.00     0.124 A 
HETATM   40  N11 UNL     1      18.161  40.351 -20.368  1.00  0.00    -0.074 N 
HETATM   41  N7  UNL     1      20.614  37.715 -19.905  1.00  0.00    -0.347 N 
HETATM   42  C16 UNL     1      20.570  39.964 -19.104  1.00  0.00     0.145 A 
ATOM     43  H7  UNL     1      21.508  37.581 -19.432  1.00  0.00     0.166 HD
HETATM   44  N9  UNL     1      19.918  41.127 -19.058  1.00  0.00    -0.173 N 
HETATM   45  C17 UNL     1      18.738  41.359 -19.662  1.00  0.00     0.700 A 
ATOM     46  H9  UNL     1      20.342  41.890 -18.530  1.00  0.00     0.186 HD
BRANCH  42  47
HETATM   47  N8  UNL     1      21.709  39.773 -18.509  1.00  0.00    -0.383 N 
ATOM     48  H82 UNL     1      21.789  39.294 -17.612  1.00  0.00     0.157 HD
ATOM     49  H81 UNL     1      22.562  40.114 -18.953  1.00  0.00     0.157 HD
ENDBRANCH  42  47
BRANCH  45  50
HETATM   50  N10 UNL     1      18.142  42.506 -19.588  1.00  0.00    -0.233 N 
ATOM     51 2H10 UNL     1      18.433  43.177 -18.877  1.00  0.00     0.174 HD
ATOM     52 1H10 UNL     1      17.387  42.765 -20.223  1.00  0.00     0.174 HD
ENDBRANCH  45  50
BRANCH  40  53
HETATM   53  N12 UNL     1      16.944  40.604 -20.987  1.00  0.00    -0.322 N 
ATOM     54 2H12 UNL     1      16.264  39.846 -21.032  1.00  0.00     0.178 HD
ATOM     55 1H12 UNL     1      16.698  41.507 -21.393  1.00  0.00     0.178 HD
ENDBRANCH  40  53
ENDBRANCH   4  34
TORSDOF 19
ENDMDL
MODEL 2
REMARK VINA RESULT: -7.502780659      1.095      1.286
REMARK  19 active torsions:
REMARK  status: ('A' for Active; 'I' for Inactive)
REMARK    1  A    between atoms: C2_2  and  C3_3 
REMARK    2  A    between atoms: C2_2  and  C5_9 
REMARK    3  A    between atoms: C3_3  and  O1_4 
REMARK    4  A    between atoms: C3_3  and  C4_6 
REMARK    5  A    between atoms: C4_6  and  O2_7 
REMARK    6  A    between atoms: C5_9  and  N1_10 
REMARK    7  A    between atoms: C5_9  and  C7_22 
REMARK    8  A    between atoms: N1_10  and  C6_12 
REMARK    9  A    between atoms: C6_12  and  O3_18 
REMARK   10  A    between atoms: N2_13  and  N3_15 
REMARK   11  A    between atoms: O3_18  and  N4_19 
REMARK   12  A    between atoms: C7_22  and  O4_23 
REMARK   13  A    between atoms: C7_22  and  C8_25 
REMARK   14  A    between atoms: C8_25  and  N5_26 
REMARK   15  A    between atoms: C10_28  and  O5_29 
REMARK   16  A    between atoms: C11_31  and  C12_32 
REMARK   17  A    between atoms: C16_40  and  N8_41 
REMARK   18  A    between atoms: C17_46  and  N10_47 
REMARK   19  A    between atoms: N11_50  and  N12_51 
ROOT
HETATM    1  N5  UNL     1      22.586  33.884 -21.212  1.00  0.00    -0.298 N 
HETATM    2  C9  UNL     1      21.416  33.245 -21.232  1.00  0.00     0.149 A 
HETATM    3  C10 UNL     1      20.391  34.151 -21.067  1.00  0.00     0.113 A 
HETATM    4  C11 UNL     1      20.981  35.376 -20.946  1.00  0.00     0.111 A 
HETATM    5  N13 UNL     1      22.289  35.176 -21.037  1.00  0.00    -0.294 N 
ATOM      6  H13 UNL     1      22.984  35.920 -20.981  1.00  0.00     0.187 HD
ENDROOT
BRANCH   1   7
HETATM    7  C8  UNL     1      23.941  33.412 -21.341  1.00  0.00     0.182 C 
BRANCH   7   8
HETATM    8  C7  UNL     1      24.704  34.006 -22.470  1.00  0.00     0.161 C 
BRANCH   8   9
HETATM    9  C5  UNL     1      25.953  34.743 -21.984  1.00  0.00     0.121 C 
BRANCH   9  10
HETATM   10  C2  UNL     1      25.571  36.083 -21.470  1.00  0.00     0.038 C 
HETATM   11  C1  UNL     1      26.504  37.113 -22.165  1.00  0.00     0.015 C 
BRANCH  10  12
HETATM   12  C3  UNL     1      25.871  36.321 -20.004  1.00  0.00     0.147 C 
BRANCH  12  13
HETATM   13  O1  UNL     1      27.065  37.120 -20.042  1.00  0.00    -0.393 OA
ATOM     14  H1  UNL     1      27.753  36.486 -19.876  1.00  0.00     0.210 HD
ENDBRANCH  12  13
BRANCH  12  15
HETATM   15  C4  UNL     1      24.909  37.164 -19.248  1.00  0.00     0.196 C 
BRANCH  15  16
HETATM   16  O2  UNL     1      23.723  37.433 -19.926  1.00  0.00    -0.398 OA
ATOM     17  H2  UNL     1      23.610  38.343 -20.173  1.00  0.00     0.209 HD
ENDBRANCH  15  16
ENDBRANCH  12  15
ENDBRANCH  10  12
ENDBRANCH   9  10
BRANCH   9  18
HETATM   18  N1  UNL     1      26.609  33.880 -21.009  1.00  0.00    -0.346 N 
ATOM     19  H1  UNL     1      26.097  33.560 -20.187  1.00  0.00     0.163 HD
BRANCH  18  20
HETATM   20  C6  UNL     1      27.969  33.480 -21.200  1.00  0.00     0.257 C 
HETATM   21  N2  UNL     1      28.500  32.604 -20.433  1.00  0.00    -0.270 N 
ATOM     22  H2  UNL     1      27.922  32.211 -19.691  1.00  0.00     0.190 HD
BRANCH  21  23
HETATM   23  N3  UNL     1      29.793  32.156 -20.538  1.00  0.00    -0.342 N 
ATOM     24  H32 UNL     1      30.423  32.711 -21.117  1.00  0.00     0.176 HD
ATOM     25  H31 UNL     1      30.156  31.320 -20.081  1.00  0.00     0.176 HD
ENDBRANCH  21  23
BRANCH  20  26
HETATM   26  O3  UNL     1      28.753  34.012 -22.205  1.00  0.00    -0.206 OA
BRANCH  26  27
HETATM   27  N4  UNL     1      29.479  35.170 -22.064  1.00  0.00    -0.302 N 
ATOM     28  H42 UNL     1      29.022  36.043 -22.327  1.00  0.00     0.184 HD
ATOM     29  H41 UNL     1      30.436  35.193 -21.714  1.00  0.00     0.184 HD
ENDBRANCH  26  27
ENDBRANCH  20  26
ENDBRANCH  18  20
ENDBRANCH   9  18
ENDBRANCH   8   9
BRANCH   8  30
HETATM   30  O4  UNL     1      23.891  34.709 -23.293  1.00  0.00    -0.392 OA
ATOM     31  H4  UNL     1      23.565  34.238 -24.051  1.00  0.00     0.210 HD
ENDBRANCH   8  30
ENDBRANCH   7   8
ENDBRANCH   1   7
BRANCH   3  32
HETATM   32  O5  UNL     1      19.060  33.800 -21.043  1.00  0.00    -0.357 OA
ATOM     33  H5  UNL     1      18.605  33.518 -20.259  1.00  0.00     0.218 HD
ENDBRANCH   3  32
BRANCH   4  34
HETATM   34  C12 UNL     1      20.335  36.662 -20.751  1.00  0.00     0.079 A 
HETATM   35  C13 UNL     1      19.064  36.888 -21.278  1.00  0.00     0.121 A 
HETATM   36  N6  UNL     1      18.408  38.048 -21.139  1.00  0.00    -0.346 N 
HETATM   37  C14 UNL     1      18.961  39.073 -20.466  1.00  0.00     0.175 A 
ATOM     38  H6  UNL     1      17.480  38.156 -21.547  1.00  0.00     0.167 HD
HETATM   39  C15 UNL     1      20.218  38.865 -19.937  1.00  0.00     0.124 A 
HETATM   40  N11 UNL     1      18.288  40.229 -20.334  1.00  0.00    -0.074 N 
HETATM   41  N7  UNL     1      20.872  37.692 -20.084  1.00  0.00    -0.347 N 
HETATM   42  C16 UNL     1      20.790  39.924 -19.241  1.00  0.00     0.145 A 
ATOM     43  H7  UNL     1      21.801  37.587 -19.675  1.00  0.00     0.166 HD
HETATM   44  N9  UNL     1      20.096  41.058 -19.130  1.00  0.00    -0.173 N 
HETATM   45  C17 UNL     1      18.870  41.250 -19.650  1.00  0.00     0.700 A 
ATOM     46  H9  UNL     1      20.523  41.830 -18.618  1.00  0.00     0.186 HD
BRANCH  42  47
HETATM   47  N8  UNL     1      21.974  39.772 -18.727  1.00  0.00    -0.383 N 
ATOM     48  H82 UNL     1      22.329  38.867 -18.418  1.00  0.00     0.157 HD
ATOM     49  H81 UNL     1      22.577  40.588 -18.625  1.00  0.00     0.157 HD
ENDBRANCH  42  47
BRANCH  45  50
HETATM   50  N10 UNL     1      18.234  42.369 -19.516  1.00  0.00    -0.233 N 
ATOM     51 2H10 UNL     1      18.668  43.233 -19.839  1.00  0.00     0.174 HD
ATOM     52 1H10 UNL     1      17.305  42.418 -19.096  1.00  0.00     0.174 HD
ENDBRANCH  45  50
BRANCH  40  53
HETATM   53  N12 UNL     1      17.023  40.440 -20.866  1.00  0.00    -0.322 N 
ATOM     54 2H12 UNL     1      16.341  39.685 -20.793  1.00  0.00     0.178 HD
ATOM     55 1H12 UNL     1      16.744  41.310 -21.321  1.00  0.00     0.178 HD
ENDBRANCH  40  53
ENDBRANCH   4  34
TORSDOF 19
ENDMDL
MODEL 3
REMARK VINA RESULT: -7.300958793      1.054      1.821
REMARK  19 active torsions:
REMARK  status: ('A' for Active; 'I' for Inactive)
REMARK    1  A    between atoms: C2_2  and  C3_3 
REMARK    2  A    between atoms: C2_2  and  C5_9 
REMARK    3  A    between atoms: C3_3  and  O1_4 
REMARK    4  A    between atoms: C3_3  and  C4_6 
REMARK    5  A    between atoms: C4_6  and  O2_7 
REMARK    6  A    between atoms: C5_9  and  N1_10 
REMARK    7  A    between atoms: C5_9  and  C7_22 
REMARK    8  A    between atoms: N1_10  and  C6_12 
REMARK    9  A    between atoms: C6_12  and  O3_18 
REMARK   10  A    between atoms: N2_13  and  N3_15 
REMARK   11  A    between atoms: O3_18  and  N4_19 
REMARK   12  A    between atoms: C7_22  and  O4_23 
REMARK   13  A    between atoms: C7_22  and  C8_25 
REMARK   14  A    between atoms: C8_25  and  N5_26 
REMARK   15  A    between atoms: C10_28  and  O5_29 
REMARK   16  A    between atoms: C11_31  and  C12_32 
REMARK   17  A    between atoms: C16_40  and  N8_41 
REMARK   18  A    between atoms: C17_46  and  N10_47 
REMARK   19  A    between atoms: N11_50  and  N12_51 
ROOT
HETATM    1  N5  UNL     1      22.644  33.649 -21.046  1.00  0.00    -0.298 N 
HETATM    2  C9  UNL     1      21.389  33.204 -21.101  1.00  0.00     0.149 A 
HETATM    3  C10 UNL     1      20.517  34.266 -21.002  1.00  0.00     0.113 A 
HETATM    4  C11 UNL     1      21.290  35.384 -20.886  1.00  0.00     0.111 A 
HETATM    5  N13 UNL     1      22.551  34.977 -20.916  1.00  0.00    -0.294 N 
ATOM      6  H13 UNL     1      23.354  35.602 -20.848  1.00  0.00     0.187 HD
ENDROOT
BRANCH   1   7
HETATM    7  C8  UNL     1      23.910  32.964 -21.104  1.00  0.00     0.182 C 
BRANCH   7   8
HETATM    8  C7  UNL     1      24.793  33.379 -22.227  1.00  0.00     0.161 C 
BRANCH   8   9
HETATM    9  C5  UNL     1      26.090  34.012 -21.721  1.00  0.00     0.121 C 
BRANCH   9  10
HETATM   10  C2  UNL     1      25.991  35.491 -21.812  1.00  0.00     0.038 C 
HETATM   11  C1  UNL     1      27.059  35.950 -22.843  1.00  0.00     0.015 C 
BRANCH  10  12
HETATM   12  C3  UNL     1      26.409  36.243 -20.565  1.00  0.00     0.147 C 
BRANCH  12  13
HETATM   13  O1  UNL     1      26.971  37.457 -21.091  1.00  0.00    -0.393 OA
ATOM     14  H1  UNL     1      26.577  38.130 -20.548  1.00  0.00     0.210 HD
ENDBRANCH  12  13
BRANCH  12  15
HETATM   15  C4  UNL     1      25.323  36.719 -19.669  1.00  0.00     0.196 C 
BRANCH  15  16
HETATM   16  O2  UNL     1      24.840  35.753 -18.789  1.00  0.00    -0.398 OA
ATOM     17  H2  UNL     1      24.275  36.094 -18.105  1.00  0.00     0.209 HD
ENDBRANCH  15  16
ENDBRANCH  12  15
ENDBRANCH  10  12
ENDBRANCH   9  10
BRANCH   9  18
HETATM   18  N1  UNL     1      26.325  33.497 -20.377  1.00  0.00    -0.346 N 
ATOM     19  H1  UNL     1      25.534  33.308 -19.761  1.00  0.00     0.163 HD
BRANCH  18  20
HETATM   20  C6  UNL     1      27.658  33.258 -19.918  1.00  0.00     0.257 C 
HETATM   21  N2  UNL     1      28.489  32.617 -20.650  1.00  0.00    -0.270 N 
ATOM     22  H2  UNL     1      28.165  32.288 -21.559  1.00  0.00     0.190 HD
BRANCH  21  23
HETATM   23  N3  UNL     1      29.787  32.340 -20.298  1.00  0.00    -0.342 N 
ATOM     24  H32 UNL     1      30.002  32.351 -19.302  1.00  0.00     0.176 HD
ATOM     25  H31 UNL     1      30.534  32.128 -20.959  1.00  0.00     0.176 HD
ENDBRANCH  21  23
BRANCH  20  26
HETATM   26  O3  UNL     1      28.099  33.702 -18.686  1.00  0.00    -0.206 OA
BRANCH  26  27
HETATM   27  N4  UNL     1      27.252  34.081 -17.673  1.00  0.00    -0.302 N 
ATOM     28  H42 UNL     1      26.706  34.931 -17.813  1.00  0.00     0.184 HD
ATOM     29  H41 UNL     1      27.148  33.557 -16.804  1.00  0.00     0.184 HD
ENDBRANCH  26  27
ENDBRANCH  20  26
ENDBRANCH  18  20
ENDBRANCH   9  18
ENDBRANCH   8   9
BRANCH   8  30
HETATM   30  O4  UNL     1      24.108  34.099 -23.146  1.00  0.00    -0.392 OA
ATOM     31  H4  UNL     1      23.173  33.935 -23.184  1.00  0.00     0.210 HD
ENDBRANCH   8  30
ENDBRANCH   7   8
ENDBRANCH   1   7
BRANCH   3  32
HETATM   32  O5  UNL     1      19.147  34.132 -21.027  1.00  0.00    -0.357 OA
ATOM     33  H5  UNL     1      18.560  34.624 -20.464  1.00  0.00     0.218 HD
ENDBRANCH   3  32
BRANCH   4  34
HETATM   34  C12 UNL     1      20.851  36.762 -20.751  1.00  0.00     0.079 A 
HETATM   35  C13 UNL     1      21.791  37.792 -20.720  1.00  0.00     0.121 A 
HETATM   36  N6  UNL     1      21.459  39.084 -20.597  1.00  0.00    -0.346 N 
HETATM   37  C14 UNL     1      20.169  39.455 -20.496  1.00  0.00     0.175 A 
ATOM     38  H6  UNL     1      22.191  39.794 -20.579  1.00  0.00     0.167 HD
HETATM   39  C15 UNL     1      19.227  38.448 -20.526  1.00  0.00     0.124 A 
HETATM   40  N11 UNL     1      19.855  40.757 -20.376  1.00  0.00    -0.074 N 
HETATM   41  N7  UNL     1      19.572  37.148 -20.650  1.00  0.00    -0.347 N 
HETATM   42  C16 UNL     1      17.895  38.832 -20.423  1.00  0.00     0.145 A 
ATOM     43  H7  UNL     1      18.838  36.440 -20.667  1.00  0.00     0.166 HD
HETATM   44  N9  UNL     1      17.617  40.131 -20.303  1.00  0.00    -0.173 N 
HETATM   45  C17 UNL     1      18.545  41.105 -20.275  1.00  0.00     0.700 A 
ATOM     46  H9  UNL     1      16.637  40.404 -20.228  1.00  0.00     0.186 HD
BRANCH  42  47
HETATM   47  N8  UNL     1      16.974  37.915 -20.447  1.00  0.00    -0.383 N 
ATOM     48  H82 UNL     1      17.084  37.010 -19.990  1.00  0.00     0.157 HD
ATOM     49  H81 UNL     1      16.102  38.104 -20.941  1.00  0.00     0.157 HD
ENDBRANCH  42  47
BRANCH  45  50
HETATM   50  N10 UNL     1      18.226  42.354 -20.157  1.00  0.00    -0.233 N 
ATOM     51 2H10 UNL     1      17.398  42.611 -19.620  1.00  0.00     0.174 HD
ATOM     52 1H10 UNL     1      18.780  43.097 -20.585  1.00  0.00     0.174 HD
ENDBRANCH  45  50
BRANCH  40  53
HETATM   53  N12 UNL     1      20.802  41.772 -20.344  1.00  0.00    -0.322 N 
ATOM     54 2H12 UNL     1      21.080  42.138 -19.434  1.00  0.00     0.178 HD
ATOM     55 1H12 UNL     1      21.232  42.163 -21.183  1.00  0.00     0.178 HD
ENDBRANCH  40  53
ENDBRANCH   4  34
TORSDOF 19
ENDMDL
MODEL 4
REMARK VINA RESULT: -7.277663669      2.888      4.952
REMARK  19 active torsions:
REMARK  status: ('A' for Active; 'I' for Inactive)
REMARK    1  A    between atoms: C2_2  and  C3_3 
REMARK    2  A    between atoms: C2_2  and  C5_9 
REMARK    3  A    between atoms: C3_3  and  O1_4 
REMARK    4  A    between atoms: C3_3  and  C4_6 
REMARK    5  A    between atoms: C4_6  and  O2_7 
REMARK    6  A    between atoms: C5_9  and  N1_10 
REMARK    7  A    between atoms: C5_9  and  C7_22 
REMARK    8  A    between atoms: N1_10  and  C6_12 
REMARK    9  A    between atoms: C6_12  and  O3_18 
REMARK   10  A    between atoms: N2_13  and  N3_15 
REMARK   11  A    between atoms: O3_18  and  N4_19 
REMARK   12  A    between atoms: C7_22  and  O4_23 
REMARK   13  A    between atoms: C7_22  and  C8_25 
REMARK   14  A    between atoms: C8_25  and  N5_26 
REMARK   15  A    between atoms: C10_28  and  O5_29 
REMARK   16  A    between atoms: C11_31  and  C12_32 
REMARK   17  A    between atoms: C16_40  and  N8_41 
REMARK   18  A    between atoms: C17_46  and  N10_47 
REMARK   19  A    between atoms: N11_50  and  N12_51 
ROOT
HETATM    1  N5  UNL     1      23.654  38.209 -22.156  1.00  0.00    -0.298 N 
HETATM    2  C9  UNL     1      22.473  38.268 -22.772  1.00  0.00     0.149 A 
HETATM    3  C10 UNL     1      21.643  39.135 -22.096  1.00  0.00     0.113 A 
HETATM    4  C11 UNL     1      22.364  39.608 -21.039  1.00  0.00     0.111 A 
HETATM    5  N13 UNL     1      23.557  39.034 -21.108  1.00  0.00    -0.294 N 
ATOM      6  H13 UNL     1      24.310  39.201 -20.442  1.00  0.00     0.187 HD
ENDROOT
BRANCH   1   7
HETATM    7  C8  UNL     1      24.853  37.466 -22.449  1.00  0.00     0.182 C 
BRANCH   7   8
HETATM    8  C7  UNL     1      25.404  36.694 -21.303  1.00  0.00     0.161 C 
BRANCH   8   9
HETATM    9  C5  UNL     1      24.638  35.389 -21.080  1.00  0.00     0.121 C 
BRANCH   9  10
HETATM   10  C2  UNL     1      25.585  34.320 -20.672  1.00  0.00     0.038 C 
HETATM   11  C1  UNL     1      25.063  32.996 -21.297  1.00  0.00     0.015 C 
BRANCH  10  12
HETATM   12  C3  UNL     1      25.590  33.993 -19.193  1.00  0.00     0.147 C 
BRANCH  12  13
HETATM   13  O1  UNL     1      25.466  32.561 -19.176  1.00  0.00    -0.393 OA
ATOM     14  H1  UNL     1      24.526  32.427 -19.141  1.00  0.00     0.210 HD
ENDBRANCH  12  13
BRANCH  12  15
HETATM   15  C4  UNL     1      26.853  34.244 -18.452  1.00  0.00     0.196 C 
BRANCH  15  16
HETATM   16  O2  UNL     1      27.222  35.585 -18.382  1.00  0.00    -0.398 OA
ATOM     17  H2  UNL     1      27.079  35.987 -17.533  1.00  0.00     0.209 HD
ENDBRANCH  15  16
ENDBRANCH  12  15
ENDBRANCH  10  12
ENDBRANCH   9  10
BRANCH   9  18
HETATM   18  N1  UNL     1      23.582  35.670 -20.115  1.00  0.00    -0.346 N 
ATOM     19  H1  UNL     1      23.771  36.276 -19.316  1.00  0.00     0.163 HD
BRANCH  18  20
HETATM   20  C6  UNL     1      22.281  35.099 -20.282  1.00  0.00     0.257 C 
HETATM   21  N2  UNL     1      22.078  33.863 -20.019  1.00  0.00    -0.270 N 
ATOM     22  H2  UNL     1      22.870  33.312 -19.691  1.00  0.00     0.190 HD
BRANCH  21  23
HETATM   23  N3  UNL     1      20.868  33.227 -20.146  1.00  0.00    -0.342 N 
ATOM     24  H32 UNL     1      20.038  33.779 -19.935  1.00  0.00     0.176 HD
ATOM     25  H31 UNL     1      20.752  32.255 -20.433  1.00  0.00     0.176 HD
ENDBRANCH  21  23
BRANCH  20  26
HETATM   26  O3  UNL     1      21.207  35.845 -20.727  1.00  0.00    -0.206 OA
BRANCH  26  27
HETATM   27  N4  UNL     1      20.498  36.703 -19.921  1.00  0.00    -0.302 N 
ATOM     28  H42 UNL     1      19.520  36.477 -19.745  1.00  0.00     0.184 HD
ATOM     29  H41 UNL     1      20.902  37.540 -19.502  1.00  0.00     0.184 HD
ENDBRANCH  26  27
ENDBRANCH  20  26
ENDBRANCH  18  20
ENDBRANCH   9  18
ENDBRANCH   8   9
BRANCH   8  30
HETATM   30  O4  UNL     1      25.553  37.481 -20.211  1.00  0.00    -0.392 OA
ATOM     31  H4  UNL     1      26.270  38.104 -20.248  1.00  0.00     0.210 HD
ENDBRANCH   8  30
ENDBRANCH   7   8
ENDBRANCH   1   7
BRANCH   3  32
HETATM   32  O5  UNL     1      20.351  39.412 -22.484  1.00  0.00    -0.357 OA
ATOM     33  H5  UNL     1      19.884  40.202 -22.236  1.00  0.00     0.218 HD
ENDBRANCH   3  32
BRANCH   4  34
HETATM   34  C12 UNL     1      21.940  40.551 -20.020  1.00  0.00     0.079 A 
HETATM   35  C13 UNL     1      21.268  40.095 -18.886  1.00  0.00     0.121 A 
HETATM   36  N6  UNL     1      20.846  40.907 -17.907  1.00  0.00    -0.346 N 
HETATM   37  C14 UNL     1      21.059  42.234 -17.976  1.00  0.00     0.175 A 
ATOM     38  H6  UNL     1      20.359  40.515 -17.101  1.00  0.00     0.167 HD
HETATM   39  C15 UNL     1      21.723  42.701 -19.091  1.00  0.00     0.124 A 
HETATM   40  N11 UNL     1      20.630  43.033 -16.984  1.00  0.00    -0.074 N 
HETATM   41  N7  UNL     1      22.144  41.874 -20.073  1.00  0.00    -0.347 N 
HETATM   42  C16 UNL     1      21.943  44.072 -19.162  1.00  0.00     0.145 A 
ATOM     43  H7  UNL     1      22.630  42.269 -20.878  1.00  0.00     0.166 HD
HETATM   44  N9  UNL     1      21.504  44.837 -18.161  1.00  0.00    -0.173 N 
HETATM   45  C17 UNL     1      20.857  44.370 -17.078  1.00  0.00     0.700 A 
ATOM     46  H9  UNL     1      21.670  45.841 -18.221  1.00  0.00     0.186 HD
BRANCH  42  47
HETATM   47  N8  UNL     1      22.565  44.555 -20.195  1.00  0.00    -0.383 N 
ATOM     48  H82 UNL     1      22.907  43.970 -20.957  1.00  0.00     0.157 HD
ATOM     49  H81 UNL     1      22.721  45.562 -20.252  1.00  0.00     0.157 HD
ENDBRANCH  42  47
BRANCH  45  50
HETATM   50  N10 UNL     1      20.450  45.152 -16.130  1.00  0.00    -0.233 N 
ATOM     51 2H10 UNL     1      21.104  45.811 -15.710  1.00  0.00     0.174 HD
ATOM     52 1H10 UNL     1      19.489  45.133 -15.788  1.00  0.00     0.174 HD
ENDBRANCH  45  50
BRANCH  40  53
HETATM   53  N12 UNL     1      19.961  42.564 -15.861  1.00  0.00    -0.322 N 
ATOM     54 2H12 UNL     1      19.622  43.249 -15.186  1.00  0.00     0.178 HD
ATOM     55 1H12 UNL     1      19.791  41.574 -15.682  1.00  0.00     0.178 HD
ENDBRANCH  40  53
ENDBRANCH   4  34
TORSDOF 19
ENDMDL
MODEL 5
REMARK VINA RESULT: -7.261183837      1.832      2.468
REMARK  19 active torsions:
REMARK  status: ('A' for Active; 'I' for Inactive)
REMARK    1  A    between atoms: C2_2  and  C3_3 
REMARK    2  A    between atoms: C2_2  and  C5_9 
REMARK    3  A    between atoms: C3_3  and  O1_4 
REMARK    4  A    between atoms: C3_3  and  C4_6 
REMARK    5  A    between atoms: C4_6  and  O2_7 
REMARK    6  A    between atoms: C5_9  and  N1_10 
REMARK    7  A    between atoms: C5_9  and  C7_22 
REMARK    8  A    between atoms: N1_10  and  C6_12 
REMARK    9  A    between atoms: C6_12  and  O3_18 
REMARK   10  A    between atoms: N2_13  and  N3_15 
REMARK   11  A    between atoms: O3_18  and  N4_19 
REMARK   12  A    between atoms: C7_22  and  O4_23 
REMARK   13  A    between atoms: C7_22  and  C8_25 
REMARK   14  A    between atoms: C8_25  and  N5_26 
REMARK   15  A    between atoms: C10_28  and  O5_29 
REMARK   16  A    between atoms: C11_31  and  C12_32 
REMARK   17  A    between atoms: C16_40  and  N8_41 
REMARK   18  A    between atoms: C17_46  and  N10_47 
REMARK   19  A    between atoms: N11_50  and  N12_51 
ROOT
HETATM    1  N5  UNL     1      22.283  33.928 -20.997  1.00  0.00    -0.298 N 
HETATM    2  C9  UNL     1      21.082  33.360 -21.108  1.00  0.00     0.149 A 
HETATM    3  C10 UNL     1      20.104  34.325 -21.018  1.00  0.00     0.113 A 
HETATM    4  C11 UNL     1      20.755  35.513 -20.847  1.00  0.00     0.111 A 
HETATM    5  N13 UNL     1      22.051  35.236 -20.840  1.00  0.00    -0.294 N 
ATOM      6  H13 UNL     1      22.783  35.937 -20.728  1.00  0.00     0.187 HD
ENDROOT
BRANCH   1   7
HETATM    7  C8  UNL     1      23.613  33.376 -21.024  1.00  0.00     0.182 C 
BRANCH   7   8
HETATM    8  C7  UNL     1      24.524  33.992 -22.026  1.00  0.00     0.161 C 
BRANCH   8   9
HETATM    9  C5  UNL     1      25.417  35.062 -21.396  1.00  0.00     0.121 C 
BRANCH   9  10
HETATM   10  C2  UNL     1      25.464  34.868 -19.924  1.00  0.00     0.038 C 
HETATM   11  C1  UNL     1      25.098  36.234 -19.280  1.00  0.00     0.015 C 
BRANCH  10  12
HETATM   12  C3  UNL     1      26.842  34.606 -19.353  1.00  0.00     0.147 C 
BRANCH  12  13
HETATM   13  O1  UNL     1      27.229  35.890 -18.835  1.00  0.00    -0.393 OA
ATOM     14  H1  UNL     1      28.107  36.005 -19.182  1.00  0.00     0.210 HD
ENDBRANCH  12  13
BRANCH  12  15
HETATM   15  C4  UNL     1      26.922  33.712 -18.169  1.00  0.00     0.196 C 
BRANCH  15  16
HETATM   16  O2  UNL     1      27.187  34.369 -16.970  1.00  0.00    -0.398 OA
ATOM     17  H2  UNL     1      27.425  35.283 -17.068  1.00  0.00     0.209 HD
ENDBRANCH  15  16
ENDBRANCH  12  15
ENDBRANCH  10  12
ENDBRANCH   9  10
BRANCH   9  18
HETATM   18  N1  UNL     1      26.711  34.991 -22.063  1.00  0.00    -0.346 N 
ATOM     19  H1  UNL     1      27.158  34.085 -22.208  1.00  0.00     0.163 HD
BRANCH  18  20
HETATM   20  C6  UNL     1      27.357  36.184 -22.515  1.00  0.00     0.257 C 
HETATM   21  N2  UNL     1      27.039  36.706 -23.639  1.00  0.00    -0.270 N 
ATOM     22  H2  UNL     1      26.318  36.242 -24.190  1.00  0.00     0.190 HD
BRANCH  21  23
HETATM   23  N3  UNL     1      27.600  37.847 -24.156  1.00  0.00    -0.342 N 
ATOM     24  H32 UNL     1      27.130  38.725 -23.939  1.00  0.00     0.176 HD
ATOM     25  H31 UNL     1      28.441  37.871 -24.733  1.00  0.00     0.176 HD
ENDBRANCH  21  23
BRANCH  20  26
HETATM   26  O3  UNL     1      28.335  36.813 -21.770  1.00  0.00    -0.206 OA
BRANCH  26  27
HETATM   27  N4  UNL     1      28.061  37.729 -20.783  1.00  0.00    -0.302 N 
ATOM     28  H42 UNL     1      27.188  37.614 -20.268  1.00  0.00     0.184 HD
ATOM     29  H41 UNL     1      28.681  38.504 -20.549  1.00  0.00     0.184 HD
ENDBRANCH  26  27
ENDBRANCH  20  26
ENDBRANCH  18  20
ENDBRANCH   9  18
ENDBRANCH   8   9
BRANCH   8  30
HETATM   30  O4  UNL     1      23.846  34.371 -23.134  1.00  0.00    -0.392 OA
ATOM     31  H4  UNL     1      23.662  35.300 -23.207  1.00  0.00     0.210 HD
ENDBRANCH   8  30
ENDBRANCH   7   8
ENDBRANCH   1   7
BRANCH   3  32
HETATM   32  O5  UNL     1      18.756  34.054 -21.096  1.00  0.00    -0.357 OA
ATOM     33  H5  UNL     1      18.352  33.605 -21.829  1.00  0.00     0.218 HD
ENDBRANCH   3  32
BRANCH   4  34
HETATM   34  C12 UNL     1      20.173  36.835 -20.697  1.00  0.00     0.079 A 
HETATM   35  C13 UNL     1      18.950  37.128 -21.300  1.00  0.00     0.121 A 
HETATM   36  N6  UNL     1      18.355  38.325 -21.205  1.00  0.00    -0.346 N 
HETATM   37  C14 UNL     1      18.925  39.323 -20.504  1.00  0.00     0.175 A 
ATOM     38  H6  UNL     1      17.460  38.483 -21.668  1.00  0.00     0.167 HD
HETATM   39  C15 UNL     1      20.135  39.048 -19.902  1.00  0.00     0.124 A 
HETATM   40  N11 UNL     1      18.313  40.516 -20.419  1.00  0.00    -0.074 N 
HETATM   41  N7  UNL     1      20.728  37.838 -20.003  1.00  0.00    -0.347 N 
HETATM   42  C16 UNL     1      20.724  40.078 -19.177  1.00  0.00     0.145 A 
ATOM     43  H7  UNL     1      21.623  37.684 -19.539  1.00  0.00     0.166 HD
HETATM   44  N9  UNL     1      20.091  41.250 -19.113  1.00  0.00    -0.173 N 
HETATM   45  C17 UNL     1      18.910  41.507 -19.706  1.00  0.00     0.700 A 
ATOM     46  H9  UNL     1      20.530  42.000 -18.580  1.00  0.00     0.186 HD
BRANCH  42  47
HETATM   47  N8  UNL     1      21.864  39.862 -18.592  1.00  0.00    -0.383 N 
ATOM     48  H82 UNL     1      21.955  39.758 -17.582  1.00  0.00     0.157 HD
ATOM     49  H81 UNL     1      22.707  39.792 -19.163  1.00  0.00     0.157 HD
ENDBRANCH  42  47
BRANCH  45  50
HETATM   50  N10 UNL     1      18.333  42.662 -19.615  1.00  0.00    -0.233 N 
ATOM     51 2H10 UNL     1      18.091  43.169 -20.466  1.00  0.00     0.174 HD
ATOM     52 1H10 UNL     1      18.109  43.086 -18.714  1.00  0.00     0.174 HD
ENDBRANCH  45  50
BRANCH  40  53
HETATM   53  N12 UNL     1      17.095  40.795 -21.026  1.00  0.00    -0.322 N 
ATOM     54 2H12 UNL     1      17.051  40.766 -22.044  1.00  0.00     0.178 HD
ATOM     55 1H12 UNL     1      16.248  41.023 -20.505  1.00  0.00     0.178 HD
ENDBRANCH  40  53
ENDBRANCH   4  34
TORSDOF 19
ENDMDL
