MODEL 1
REMARK VINA RESULT: -6.095033897      0.000      0.000
REMARK  8 active torsions:
REMARK  status: ('A' for Active; 'I' for Inactive)
REMARK    1  A    between atoms: C2_2  and  C3_3 
REMARK    2  A    between atoms: C3_3  and  C4_4 
REMARK    3  A    between atoms: C5_5  and  C6_6 
REMARK    4  A    between atoms: C10_11  and  C11_12 
REMARK    5  A    between atoms: C11_12  and  O2_14 
REMARK    6  A    between atoms: O2_14  and  C12_15 
REMARK    7  A    between atoms: C15_22  and  O4_24 
REMARK    8  A    between atoms: O4_24  and  C17_25 
ROOT
HETATM    1  C4  UNL     1     -11.414   1.427  -4.757  1.00  0.00     0.062 C 
HETATM    2  C5  UNL     1     -12.594   1.266  -3.795  1.00  0.00     0.057 C 
HETATM    3  C10 UNL     1     -12.955  -0.122  -3.512  1.00  0.00     0.169 C 
HETATM    4  C14 UNL     1     -12.269  -1.187  -4.231  1.00  0.00     0.129 C 
HETATM    5  N1  UNL     1     -12.522  -2.413  -3.953  1.00  0.00    -0.383 N 
ATOM      6  H11 UNL     1     -12.041  -3.159  -4.456  1.00  0.00     0.158 HD
ATOM      7  H12 UNL     1     -13.202  -2.638  -3.227  1.00  0.00     0.158 HD
HETATM    8  O3  UNL     1     -11.341  -0.879  -5.222  1.00  0.00    -0.301 OA
HETATM    9  C15 UNL     1     -11.486   0.384  -5.833  1.00  0.00     0.181 C 
HETATM   10  C16 UNL     1     -10.499   0.564  -6.919  1.00  0.00     0.080 C 
ENDROOT
BRANCH   2  11
HETATM   11  C6  UNL     1     -13.726   2.144  -4.182  1.00  0.00    -0.012 A 
HETATM   12  C7  UNL     1     -15.013   1.832  -4.515  1.00  0.00     0.015 A 
HETATM   13  C8  UNL     1     -15.843   2.839  -4.843  1.00  0.00     0.008 A 
HETATM   14  C9  UNL     1     -15.340   4.108  -4.821  1.00  0.00     0.050 A 
HETATM   15  S1  UNL     1     -13.725   3.868  -4.344  1.00  0.00    -0.106 SA
ENDBRANCH   2  11
BRANCH   1  16
HETATM   16  C3  UNL     1     -10.161   1.342  -3.932  1.00  0.00     0.037 C 
BRANCH  16  17
HETATM   17  C2  UNL     1      -9.358   2.526  -3.739  1.00  0.00    -0.036 C 
HETATM   18  C1  UNL     1      -9.725   3.738  -4.170  1.00  0.00     0.007 C 
ENDBRANCH  16  17
ENDBRANCH   1  16
BRANCH   3  19
HETATM   19  C11 UNL     1     -12.822  -0.436  -2.035  1.00  0.00     0.271 C 
HETATM   20  O1  UNL     1     -11.770  -0.803  -1.500  1.00  0.00    -0.264 OA
BRANCH  19  21
HETATM   21  O2  UNL     1     -13.964  -0.289  -1.275  1.00  0.00    -0.321 OA
BRANCH  21  22
HETATM   22  C12 UNL     1     -14.558  -1.448  -0.701  1.00  0.00     0.174 C 
HETATM   23  C13 UNL     1     -14.421  -1.374   0.789  1.00  0.00     0.034 C 
ENDBRANCH  21  22
ENDBRANCH  19  21
ENDBRANCH   3  19
BRANCH   9  24
HETATM   24  O4  UNL     1     -12.784   0.380  -6.429  1.00  0.00    -0.283 OA
BRANCH  24  25
HETATM   25  C17 UNL     1     -12.965  -0.251  -7.646  1.00  0.00     0.257 C 
HETATM   26  C18 UNL     1     -13.304   0.625  -8.818  1.00  0.00     0.126 C 
HETATM   27  O5  UNL     1     -12.876  -1.465  -7.858  1.00  0.00    -0.266 OA
ENDBRANCH  24  25
ENDBRANCH   9  24
TORSDOF 8
ENDMDL
MODEL 2
REMARK VINA RESULT: -5.602642351      2.312      4.700
REMARK  8 active torsions:
REMARK  status: ('A' for Active; 'I' for Inactive)
REMARK    1  A    between atoms: C2_2  and  C3_3 
REMARK    2  A    between atoms: C3_3  and  C4_4 
REMARK    3  A    between atoms: C5_5  and  C6_6 
REMARK    4  A    between atoms: C10_11  and  C11_12 
REMARK    5  A    between atoms: C11_12  and  O2_14 
REMARK    6  A    between atoms: O2_14  and  C12_15 
REMARK    7  A    between atoms: C15_22  and  O4_24 
REMARK    8  A    between atoms: O4_24  and  C17_25 
ROOT
HETATM    1  C4  UNL     1     -11.617   1.629  -4.115  1.00  0.00     0.062 C 
HETATM    2  C5  UNL     1     -12.811   1.388  -5.041  1.00  0.00     0.057 C 
HETATM    3  C10 UNL     1     -12.450   0.991  -6.400  1.00  0.00     0.169 C 
HETATM    4  C14 UNL     1     -11.042   0.974  -6.776  1.00  0.00     0.129 C 
HETATM    5  N1  UNL     1     -10.695   0.565  -7.941  1.00  0.00    -0.383 N 
ATOM      6  H11 UNL     1      -9.710   0.553  -8.204  1.00  0.00     0.158 HD
ATOM      7  H12 UNL     1     -11.408   0.252  -8.600  1.00  0.00     0.158 HD
HETATM    8  O3  UNL     1     -10.071   1.401  -5.875  1.00  0.00    -0.301 OA
HETATM    9  C15 UNL     1     -10.507   2.295  -4.875  1.00  0.00     0.181 C 
HETATM   10  C16 UNL     1      -9.377   2.740  -4.032  1.00  0.00     0.080 C 
ENDROOT
BRANCH   2  11
HETATM   11  C6  UNL     1     -13.792   2.498  -4.950  1.00  0.00    -0.012 A 
HETATM   12  C7  UNL     1     -14.416   3.039  -3.863  1.00  0.00     0.015 A 
HETATM   13  C8  UNL     1     -15.285   4.046  -4.069  1.00  0.00     0.008 A 
HETATM   14  C9  UNL     1     -15.484   4.459  -5.354  1.00  0.00     0.050 A 
HETATM   15  S1  UNL     1     -14.456   3.437  -6.245  1.00  0.00    -0.106 SA
ENDBRANCH   2  11
BRANCH   1  16
HETATM   16  C3  UNL     1     -11.226   0.294  -3.546  1.00  0.00     0.037 C 
BRANCH  16  17
HETATM   17  C2  UNL     1     -12.253  -0.593  -3.051  1.00  0.00    -0.036 C 
HETATM   18  C1  UNL     1     -12.423  -0.862  -1.752  1.00  0.00     0.007 C 
ENDBRANCH  16  17
ENDBRANCH   1  16
BRANCH   3  19
HETATM   19  C11 UNL     1     -13.010  -0.376  -6.741  1.00  0.00     0.271 C 
HETATM   20  O1  UNL     1     -12.423  -1.439  -6.509  1.00  0.00    -0.264 OA
BRANCH  19  21
HETATM   21  O2  UNL     1     -14.250  -0.393  -7.344  1.00  0.00    -0.321 OA
BRANCH  21  22
HETATM   22  C12 UNL     1     -14.323  -0.563  -8.756  1.00  0.00     0.174 C 
HETATM   23  C13 UNL     1     -15.001  -1.865  -9.052  1.00  0.00     0.034 C 
ENDBRANCH  21  22
ENDBRANCH  19  21
ENDBRANCH   3  19
BRANCH   9  24
HETATM   24  O4  UNL     1     -11.003   3.441  -5.567  1.00  0.00    -0.283 OA
BRANCH  24  25
HETATM   25  C17 UNL     1     -10.646   4.702  -5.127  1.00  0.00     0.257 C 
HETATM   26  C18 UNL     1     -11.601   5.388  -4.192  1.00  0.00     0.126 C 
HETATM   27  O5  UNL     1      -9.618   5.316  -5.431  1.00  0.00    -0.266 OA
ENDBRANCH  24  25
ENDBRANCH   9  24
TORSDOF 8
ENDMDL
MODEL 3
REMARK VINA RESULT: -5.241349671      2.422      5.029
REMARK  8 active torsions:
REMARK  status: ('A' for Active; 'I' for Inactive)
REMARK    1  A    between atoms: C2_2  and  C3_3 
REMARK    2  A    between atoms: C3_3  and  C4_4 
REMARK    3  A    between atoms: C5_5  and  C6_6 
REMARK    4  A    between atoms: C10_11  and  C11_12 
REMARK    5  A    between atoms: C11_12  and  O2_14 
REMARK    6  A    between atoms: O2_14  and  C12_15 
REMARK    7  A    between atoms: C15_22  and  O4_24 
REMARK    8  A    between atoms: O4_24  and  C17_25 
ROOT
HETATM    1  C4  UNL     1     -12.090   0.816  -5.774  1.00  0.00     0.062 C 
HETATM    2  C5  UNL     1     -12.126   2.343  -5.678  1.00  0.00     0.057 C 
HETATM    3  C10 UNL     1     -11.020   2.926  -4.922  1.00  0.00     0.169 C 
HETATM    4  C14 UNL     1     -10.082   2.035  -4.251  1.00  0.00     0.129 C 
HETATM    5  N1  UNL     1      -9.066   2.520  -3.637  1.00  0.00    -0.383 N 
ATOM      6  H11 UNL     1      -8.409   1.896  -3.167  1.00  0.00     0.158 HD
ATOM      7  H12 UNL     1      -8.918   3.529  -3.621  1.00  0.00     0.158 HD
HETATM    8  O3  UNL     1     -10.285   0.658  -4.272  1.00  0.00    -0.301 OA
HETATM    9  C15 UNL     1     -11.615   0.233  -4.475  1.00  0.00     0.181 C 
HETATM   10  C16 UNL     1     -11.718  -1.240  -4.398  1.00  0.00     0.080 C 
ENDROOT
BRANCH   2  11
HETATM   11  C6  UNL     1     -13.475   2.824  -5.290  1.00  0.00    -0.012 A 
HETATM   12  C7  UNL     1     -13.872   3.574  -4.220  1.00  0.00     0.015 A 
HETATM   13  C8  UNL     1     -15.182   3.861  -4.101  1.00  0.00     0.008 A 
HETATM   14  C9  UNL     1     -16.026   3.383  -5.060  1.00  0.00     0.050 A 
HETATM   15  S1  UNL     1     -14.978   2.545  -6.105  1.00  0.00    -0.106 SA
ENDBRANCH   2  11
BRANCH   1  16
HETATM   16  C3  UNL     1     -11.205   0.470  -6.938  1.00  0.00     0.037 C 
BRANCH  16  17
HETATM   17  C2  UNL     1     -11.714  -0.380  -7.988  1.00  0.00    -0.036 C 
HETATM   18  C1  UNL     1     -12.901  -0.992  -7.923  1.00  0.00     0.007 C 
ENDBRANCH  16  17
ENDBRANCH   1  16
BRANCH   3  19
HETATM   19  C11 UNL     1     -10.194   3.860  -5.784  1.00  0.00     0.271 C 
HETATM   20  O1  UNL     1      -9.691   3.536  -6.865  1.00  0.00    -0.264 OA
BRANCH  19  21
HETATM   21  O2  UNL     1     -10.019   5.140  -5.301  1.00  0.00    -0.321 OA
BRANCH  21  22
HETATM   22  C12 UNL     1     -11.168   5.952  -5.081  1.00  0.00     0.174 C 
HETATM   23  C13 UNL     1     -11.237   6.309  -3.628  1.00  0.00     0.034 C 
ENDBRANCH  21  22
ENDBRANCH  19  21
ENDBRANCH   3  19
BRANCH   9  24
HETATM   24  O4  UNL     1     -12.366   0.774  -3.388  1.00  0.00    -0.283 OA
BRANCH  24  25
HETATM   25  C17 UNL     1     -13.477   0.091  -2.931  1.00  0.00     0.257 C 
HETATM   26  C18 UNL     1     -13.350  -0.594  -1.600  1.00  0.00     0.126 C 
HETATM   27  O5  UNL     1     -14.562  -0.010  -3.514  1.00  0.00    -0.266 OA
ENDBRANCH  24  25
ENDBRANCH   9  24
TORSDOF 8
ENDMDL
MODEL 4
REMARK VINA RESULT: -5.220817668      2.352      4.886
REMARK  8 active torsions:
REMARK  status: ('A' for Active; 'I' for Inactive)
REMARK    1  A    between atoms: C2_2  and  C3_3 
REMARK    2  A    between atoms: C3_3  and  C4_4 
REMARK    3  A    between atoms: C5_5  and  C6_6 
REMARK    4  A    between atoms: C10_11  and  C11_12 
REMARK    5  A    between atoms: C11_12  and  O2_14 
REMARK    6  A    between atoms: O2_14  and  C12_15 
REMARK    7  A    between atoms: C15_22  and  O4_24 
REMARK    8  A    between atoms: O4_24  and  C17_25 
ROOT
HETATM    1  C4  UNL     1     -12.430   0.632  -4.542  1.00  0.00     0.062 C 
HETATM    2  C5  UNL     1     -13.552   0.812  -5.566  1.00  0.00     0.057 C 
HETATM    3  C10 UNL     1     -13.115   0.745  -6.959  1.00  0.00     0.169 C 
HETATM    4  C14 UNL     1     -11.690   0.637  -7.243  1.00  0.00     0.129 C 
HETATM    5  N1  UNL     1     -11.286   0.510  -8.453  1.00  0.00    -0.383 N 
ATOM      6  H11 UNL     1     -10.288   0.434  -8.652  1.00  0.00     0.158 HD
ATOM      7  H12 UNL     1     -11.965   0.484  -9.214  1.00  0.00     0.158 HD
HETATM    8  O3  UNL     1     -10.763   0.672  -6.205  1.00  0.00    -0.301 OA
HETATM    9  C15 UNL     1     -11.185   1.319  -5.024  1.00  0.00     0.181 C 
HETATM   10  C16 UNL     1     -10.094   1.364  -4.026  1.00  0.00     0.080 C 
ENDROOT
BRANCH   2  11
HETATM   11  C6  UNL     1     -14.403   1.981  -5.230  1.00  0.00    -0.012 A 
HETATM   12  C7  UNL     1     -14.545   2.662  -4.055  1.00  0.00     0.015 A 
HETATM   13  C8  UNL     1     -15.409   3.693  -4.022  1.00  0.00     0.008 A 
HETATM   14  C9  UNL     1     -16.087   3.989  -5.169  1.00  0.00     0.050 A 
HETATM   15  S1  UNL     1     -15.504   2.826  -6.265  1.00  0.00    -0.106 SA
ENDBRANCH   2  11
BRANCH   1  16
HETATM   16  C3  UNL     1     -12.251  -0.846  -4.342  1.00  0.00     0.037 C 
BRANCH  16  17
HETATM   17  C2  UNL     1     -12.672  -1.449  -3.100  1.00  0.00    -0.036 C 
HETATM   18  C1  UNL     1     -12.468  -0.884  -1.905  1.00  0.00     0.007 C 
ENDBRANCH  16  17
ENDBRANCH   1  16
BRANCH   3  19
HETATM   19  C11 UNL     1     -13.795  -0.392  -7.696  1.00  0.00     0.271 C 
HETATM   20  O1  UNL     1     -14.933  -0.322  -8.171  1.00  0.00    -0.264 OA
BRANCH  19  21
HETATM   21  O2  UNL     1     -13.066  -1.555  -7.826  1.00  0.00    -0.321 OA
BRANCH  21  22
HETATM   22  C12 UNL     1     -13.446  -2.493  -8.828  1.00  0.00     0.174 C 
HETATM   23  C13 UNL     1     -12.289  -2.707  -9.755  1.00  0.00     0.034 C 
ENDBRANCH  21  22
ENDBRANCH  19  21
ENDBRANCH   3  19
BRANCH   9  24
HETATM   24  O4  UNL     1     -11.478   2.664  -5.400  1.00  0.00    -0.283 OA
BRANCH  24  25
HETATM   25  C17 UNL     1     -10.464   3.603  -5.394  1.00  0.00     0.257 C 
HETATM   26  C18 UNL     1     -10.565   4.703  -4.377  1.00  0.00     0.126 C 
HETATM   27  O5  UNL     1      -9.484   3.622  -6.147  1.00  0.00    -0.266 OA
ENDBRANCH  24  25
ENDBRANCH   9  24
TORSDOF 8
ENDMDL
MODEL 5
REMARK VINA RESULT: -5.211964279      2.147      4.811
REMARK  8 active torsions:
REMARK  status: ('A' for Active; 'I' for Inactive)
REMARK    1  A    between atoms: C2_2  and  C3_3 
REMARK    2  A    between atoms: C3_3  and  C4_4 
REMARK    3  A    between atoms: C5_5  and  C6_6 
REMARK    4  A    between atoms: C10_11  and  C11_12 
REMARK    5  A    between atoms: C11_12  and  O2_14 
REMARK    6  A    between atoms: O2_14  and  C12_15 
REMARK    7  A    between atoms: C15_22  and  O4_24 
REMARK    8  A    between atoms: O4_24  and  C17_25 
ROOT
HETATM    1  C4  UNL     1     -12.210   0.599  -3.739  1.00  0.00     0.062 C 
HETATM    2  C5  UNL     1     -12.284   2.083  -4.109  1.00  0.00     0.057 C 
HETATM    3  C10 UNL     1     -13.380   2.425  -5.013  1.00  0.00     0.169 C 
HETATM    4  C14 UNL     1     -14.201   1.352  -5.559  1.00  0.00     0.129 C 
HETATM    5  N1  UNL     1     -15.209   1.632  -6.301  1.00  0.00    -0.383 N 
ATOM      6  H11 UNL     1     -15.784   0.881  -6.683  1.00  0.00     0.158 HD
ATOM      7  H12 UNL     1     -15.432   2.606  -6.507  1.00  0.00     0.158 HD
HETATM    8  O3  UNL     1     -13.897   0.023  -5.278  1.00  0.00    -0.301 OA
HETATM    9  C15 UNL     1     -12.554  -0.242  -4.934  1.00  0.00     0.181 C 
HETATM   10  C16 UNL     1     -12.335  -1.691  -4.737  1.00  0.00     0.080 C 
ENDROOT
BRANCH   2  11
HETATM   11  C6  UNL     1     -10.953   2.602  -4.508  1.00  0.00    -0.012 A 
HETATM   12  C7  UNL     1      -9.701   2.199  -4.143  1.00  0.00     0.015 A 
HETATM   13  C8  UNL     1      -8.648   2.865  -4.653  1.00  0.00     0.008 A 
HETATM   14  C9  UNL     1      -8.905   3.902  -5.502  1.00  0.00     0.050 A 
HETATM   15  S1  UNL     1     -10.604   3.924  -5.572  1.00  0.00    -0.106 SA
ENDBRANCH   2  11
BRANCH   1  16
HETATM   16  C3  UNL     1     -13.142   0.389  -2.579  1.00  0.00     0.037 C 
BRANCH  16  17
HETATM   17  C2  UNL     1     -12.841  -0.633  -1.605  1.00  0.00    -0.036 C 
HETATM   18  C1  UNL     1     -13.761  -1.162  -0.791  1.00  0.00     0.007 C 
ENDBRANCH  16  17
ENDBRANCH   1  16
BRANCH   3  19
HETATM   19  C11 UNL     1     -14.328   3.422  -4.378  1.00  0.00     0.271 C 
HETATM   20  O1  UNL     1     -15.290   3.104  -3.670  1.00  0.00    -0.264 OA
BRANCH  19  21
HETATM   21  O2  UNL     1     -14.069   4.754  -4.626  1.00  0.00    -0.321 OA
BRANCH  21  22
HETATM   22  C12 UNL     1     -14.204   5.241  -5.957  1.00  0.00     0.174 C 
HETATM   23  C13 UNL     1     -15.658   5.453  -6.248  1.00  0.00     0.034 C 
ENDBRANCH  21  22
ENDBRANCH  19  21
ENDBRANCH   3  19
BRANCH   9  24
HETATM   24  O4  UNL     1     -11.777   0.161  -6.061  1.00  0.00    -0.283 OA
BRANCH  24  25
HETATM   25  C17 UNL     1     -11.946  -0.494  -7.266  1.00  0.00     0.257 C 
HETATM   26  C18 UNL     1     -10.910  -0.245  -8.324  1.00  0.00     0.126 C 
HETATM   27  O5  UNL     1     -12.869  -1.263  -7.554  1.00  0.00    -0.266 OA
ENDBRANCH  24  25
ENDBRANCH   9  24
TORSDOF 8
ENDMDL
