MODEL 1
REMARK VINA RESULT: -4.454320001      0.000      0.000
REMARK  9 active torsions:
REMARK  status: ('A' for Active; 'I' for Inactive)
REMARK    1  A    between atoms: C2_2  and  O1_3 
REMARK    2  A    between atoms: O1_3  and  C3_4 
REMARK    3  A    between atoms: C3_4  and  C4_6 
REMARK    4  A    between atoms: C5_7  and  C6_8 
REMARK    5  A    between atoms: C6_8  and  O4_10 
REMARK    6  A    between atoms: C9_14  and  N1_15 
REMARK       I    between atoms: N1_15  and  C10_17 
REMARK    7  A    between atoms: C10_17  and  C11_19 
REMARK    8  A    between atoms: C11_19  and  S2_20 
REMARK    9  A    between atoms: S2_20  and  C12_21 
ROOT
HETATM    1  C4  UNL     1     -12.367   1.723  -4.003  1.00  0.00     0.090 A 
HETATM    2  C5  UNL     1     -13.484   0.989  -3.704  1.00  0.00     0.065 A 
HETATM    3  C8  UNL     1     -14.697   1.600  -3.983  1.00  0.00     0.070 A 
HETATM    4  S1  UNL     1     -14.293   3.097  -4.614  1.00  0.00    -0.082 SA
HETATM    5  C9  UNL     1     -12.549   2.968  -4.524  1.00  0.00     0.093 A 
ENDROOT
BRANCH   5   6
HETATM    6  N1  UNL     1     -11.744   4.129  -4.709  1.00  0.00    -0.320 N 
HETATM    7  C10 UNL     1     -10.847   4.411  -5.686  1.00  0.00     0.231 C 
HETATM    8  O5  UNL     1     -10.520   3.655  -6.624  1.00  0.00    -0.272 OA
ATOM      9  H1  UNL     1     -11.858   4.855  -4.002  1.00  0.00     0.169 HD
BRANCH   7  10
HETATM   10  C11 UNL     1     -10.135   5.751  -5.709  1.00  0.00     0.177 C 
BRANCH  10  11
HETATM   11  S2  UNL     1     -10.452   6.588  -4.159  1.00  0.00    -0.151 SA
BRANCH  11  12
HETATM   12  C12 UNL     1      -9.180   6.313  -2.928  1.00  0.00    -0.003 C 
HETATM   13  C13 UNL     1      -8.012   7.228  -3.242  1.00  0.00     0.026 C 
HETATM   14  C14 UNL     1      -8.697   4.881  -2.881  1.00  0.00     0.026 C 
HETATM   15  C15 UNL     1      -9.766   6.649  -1.563  1.00  0.00     0.026 C 
ENDBRANCH  11  12
ENDBRANCH  10  11
ENDBRANCH   7  10
ENDBRANCH   5   6
BRANCH   1  16
HETATM   16  C3  UNL     1     -10.987   1.122  -4.100  1.00  0.00     0.297 C 
HETATM   17  O2  UNL     1      -9.963   1.565  -3.579  1.00  0.00    -0.259 OA
BRANCH  16  18
HETATM   18  O1  UNL     1     -10.754  -0.070  -4.816  1.00  0.00    -0.318 OA
BRANCH  18  19
HETATM   19  C2  UNL     1     -10.888  -0.169  -6.201  1.00  0.00     0.174 C 
HETATM   20  C1  UNL     1      -9.560   0.225  -6.842  1.00  0.00     0.034 C 
ENDBRANCH  18  19
ENDBRANCH  16  18
ENDBRANCH   1  16
BRANCH   2  21
HETATM   21  C6  UNL     1     -13.513  -0.356  -3.058  1.00  0.00     0.294 C 
HETATM   22  O3  UNL     1     -13.870  -1.426  -3.541  1.00  0.00    -0.259 OA
BRANCH  21  23
HETATM   23  O4  UNL     1     -13.087  -0.494  -1.712  1.00  0.00    -0.322 OA
HETATM   24  C7  UNL     1     -13.855  -1.199  -0.759  1.00  0.00     0.213 C 
ENDBRANCH  21  23
ENDBRANCH   2  21
TORSDOF 9
ENDMDL
MODEL 2
REMARK VINA RESULT: -4.454200673      1.016      1.446
REMARK  9 active torsions:
REMARK  status: ('A' for Active; 'I' for Inactive)
REMARK    1  A    between atoms: C2_2  and  O1_3 
REMARK    2  A    between atoms: O1_3  and  C3_4 
REMARK    3  A    between atoms: C3_4  and  C4_6 
REMARK    4  A    between atoms: C5_7  and  C6_8 
REMARK    5  A    between atoms: C6_8  and  O4_10 
REMARK    6  A    between atoms: C9_14  and  N1_15 
REMARK       I    between atoms: N1_15  and  C10_17 
REMARK    7  A    between atoms: C10_17  and  C11_19 
REMARK    8  A    between atoms: C11_19  and  S2_20 
REMARK    9  A    between atoms: S2_20  and  C12_21 
ROOT
HETATM    1  C4  UNL     1     -12.341   2.132  -4.136  1.00  0.00     0.090 A 
HETATM    2  C5  UNL     1     -13.513   1.456  -3.921  1.00  0.00     0.065 A 
HETATM    3  C8  UNL     1     -14.673   2.179  -4.152  1.00  0.00     0.070 A 
HETATM    4  S1  UNL     1     -14.151   3.696  -4.629  1.00  0.00    -0.082 SA
HETATM    5  C9  UNL     1     -12.422   3.431  -4.534  1.00  0.00     0.093 A 
ENDROOT
BRANCH   5   6
HETATM    6  N1  UNL     1     -11.532   4.542  -4.596  1.00  0.00    -0.320 N 
HETATM    7  C10 UNL     1     -10.820   5.020  -5.645  1.00  0.00     0.231 C 
HETATM    8  O5  UNL     1     -10.782   4.530  -6.792  1.00  0.00    -0.272 OA
ATOM      9  H1  UNL     1     -11.413   5.052  -3.721  1.00  0.00     0.169 HD
BRANCH   7  10
HETATM   10  C11 UNL     1      -9.965   6.265  -5.488  1.00  0.00     0.177 C 
BRANCH  10  11
HETATM   11  S2  UNL     1      -8.308   5.761  -5.037  1.00  0.00    -0.151 SA
BRANCH  11  12
HETATM   12  C12 UNL     1      -8.145   5.318  -3.309  1.00  0.00    -0.003 C 
HETATM   13  C13 UNL     1      -8.332   3.819  -3.185  1.00  0.00     0.026 C 
HETATM   14  C14 UNL     1      -9.141   6.024  -2.417  1.00  0.00     0.026 C 
HETATM   15  C15 UNL     1      -6.748   5.718  -2.851  1.00  0.00     0.026 C 
ENDBRANCH  11  12
ENDBRANCH  10  11
ENDBRANCH   7  10
ENDBRANCH   5   6
BRANCH   1  16
HETATM   16  C3  UNL     1     -11.006   1.442  -4.276  1.00  0.00     0.297 C 
HETATM   17  O2  UNL     1     -10.442   0.770  -3.412  1.00  0.00    -0.259 OA
BRANCH  16  18
HETATM   18  O1  UNL     1     -10.273   1.500  -5.479  1.00  0.00    -0.318 OA
BRANCH  18  19
HETATM   19  C2  UNL     1      -9.994   0.378  -6.260  1.00  0.00     0.174 C 
HETATM   20  C1  UNL     1     -11.318  -0.248  -6.690  1.00  0.00     0.034 C 
ENDBRANCH  18  19
ENDBRANCH  16  18
ENDBRANCH   1  16
BRANCH   2  21
HETATM   21  C6  UNL     1     -13.650   0.061  -3.411  1.00  0.00     0.294 C 
HETATM   22  O3  UNL     1     -13.833  -0.970  -4.050  1.00  0.00    -0.259 OA
BRANCH  21  23
HETATM   23  O4  UNL     1     -13.571  -0.184  -2.016  1.00  0.00    -0.322 OA
HETATM   24  C7  UNL     1     -12.763  -1.216  -1.488  1.00  0.00     0.213 C 
ENDBRANCH  21  23
ENDBRANCH   2  21
TORSDOF 9
ENDMDL
MODEL 3
REMARK VINA RESULT: -4.451332267      4.106      7.918
REMARK  9 active torsions:
REMARK  status: ('A' for Active; 'I' for Inactive)
REMARK    1  A    between atoms: C2_2  and  O1_3 
REMARK    2  A    between atoms: O1_3  and  C3_4 
REMARK    3  A    between atoms: C3_4  and  C4_6 
REMARK    4  A    between atoms: C5_7  and  C6_8 
REMARK    5  A    between atoms: C6_8  and  O4_10 
REMARK    6  A    between atoms: C9_14  and  N1_15 
REMARK       I    between atoms: N1_15  and  C10_17 
REMARK    7  A    between atoms: C10_17  and  C11_19 
REMARK    8  A    between atoms: C11_19  and  S2_20 
REMARK    9  A    between atoms: S2_20  and  C12_21 
ROOT
HETATM    1  C4  UNL     1     -13.295   0.237  -3.909  1.00  0.00     0.090 A 
HETATM    2  C5  UNL     1     -12.136   0.171  -4.636  1.00  0.00     0.065 A 
HETATM    3  C8  UNL     1     -11.504  -1.063  -4.645  1.00  0.00     0.070 A 
HETATM    4  S1  UNL     1     -12.467  -2.051  -3.697  1.00  0.00    -0.082 SA
HETATM    5  C9  UNL     1     -13.704  -0.890  -3.263  1.00  0.00     0.093 A 
ENDROOT
BRANCH   5   6
HETATM    6  N1  UNL     1     -14.629  -1.197  -2.225  1.00  0.00    -0.320 N 
HETATM    7  C10 UNL     1     -14.397  -1.489  -0.921  1.00  0.00     0.231 C 
HETATM    8  O5  UNL     1     -13.279  -1.584  -0.377  1.00  0.00    -0.272 OA
ATOM      9  H1  UNL     1     -15.610  -1.198  -2.502  1.00  0.00     0.169 HD
BRANCH   7  10
HETATM   10  C11 UNL     1     -15.557  -1.735   0.027  1.00  0.00     0.177 C 
BRANCH  10  11
HETATM   11  S2  UNL     1     -14.895  -2.111   1.647  1.00  0.00    -0.151 SA
BRANCH  11  12
HETATM   12  C12 UNL     1     -16.155  -2.285   2.907  1.00  0.00    -0.003 C 
HETATM   13  C13 UNL     1     -15.673  -1.578   4.159  1.00  0.00     0.026 C 
HETATM   14  C14 UNL     1     -16.474  -3.726   3.236  1.00  0.00     0.026 C 
HETATM   15  C15 UNL     1     -17.432  -1.636   2.389  1.00  0.00     0.026 C 
ENDBRANCH  11  12
ENDBRANCH  10  11
ENDBRANCH   7  10
ENDBRANCH   5   6
BRANCH   1  16
HETATM   16  C3  UNL     1     -14.294   1.359  -4.052  1.00  0.00     0.297 C 
HETATM   17  O2  UNL     1     -14.225   2.465  -3.516  1.00  0.00    -0.259 OA
BRANCH  16  18
HETATM   18  O1  UNL     1     -15.433   1.228  -4.872  1.00  0.00    -0.318 OA
BRANCH  18  19
HETATM   19  C2  UNL     1     -15.796   2.169  -5.835  1.00  0.00     0.174 C 
HETATM   20  C1  UNL     1     -16.992   1.626  -6.612  1.00  0.00     0.034 C 
ENDBRANCH  18  19
ENDBRANCH  16  18
ENDBRANCH   1  16
BRANCH   2  21
HETATM   21  C6  UNL     1     -11.473   1.300  -5.351  1.00  0.00     0.294 C 
HETATM   22  O3  UNL     1     -10.942   2.298  -4.874  1.00  0.00    -0.259 OA
BRANCH  21  23
HETATM   23  O4  UNL     1     -11.409   1.287  -6.768  1.00  0.00    -0.322 OA
HETATM   24  C7  UNL     1     -10.183   1.132  -7.454  1.00  0.00     0.213 C 
ENDBRANCH  21  23
ENDBRANCH   2  21
TORSDOF 9
ENDMDL
MODEL 4
REMARK VINA RESULT: -4.363373638      3.745      6.451
REMARK  9 active torsions:
REMARK  status: ('A' for Active; 'I' for Inactive)
REMARK    1  A    between atoms: C2_2  and  O1_3 
REMARK    2  A    between atoms: O1_3  and  C3_4 
REMARK    3  A    between atoms: C3_4  and  C4_6 
REMARK    4  A    between atoms: C5_7  and  C6_8 
REMARK    5  A    between atoms: C6_8  and  O4_10 
REMARK    6  A    between atoms: C9_14  and  N1_15 
REMARK       I    between atoms: N1_15  and  C10_17 
REMARK    7  A    between atoms: C10_17  and  C11_19 
REMARK    8  A    between atoms: C11_19  and  S2_20 
REMARK    9  A    between atoms: S2_20  and  C12_21 
ROOT
HETATM    1  C4  UNL     1     -13.588  -0.042  -4.334  1.00  0.00     0.090 A 
HETATM    2  C5  UNL     1     -13.474  -0.930  -3.297  1.00  0.00     0.065 A 
HETATM    3  C8  UNL     1     -12.378  -1.777  -3.350  1.00  0.00     0.070 A 
HETATM    4  S1  UNL     1     -11.574  -1.358  -4.758  1.00  0.00    -0.082 SA
HETATM    5  C9  UNL     1     -12.641  -0.084  -5.310  1.00  0.00     0.093 A 
ENDROOT
BRANCH   5   6
HETATM    6  N1  UNL     1     -12.516   0.416  -6.638  1.00  0.00    -0.320 N 
HETATM    7  C10 UNL     1     -13.346   0.265  -7.699  1.00  0.00     0.231 C 
HETATM    8  O5  UNL     1     -14.400  -0.402  -7.719  1.00  0.00    -0.272 OA
ATOM      9  H1  UNL     1     -11.678   0.970  -6.818  1.00  0.00     0.169 HD
BRANCH   7  10
HETATM   10  C11 UNL     1     -13.031   0.941  -9.022  1.00  0.00     0.177 C 
BRANCH  10  11
HETATM   11  S2  UNL     1     -13.396  -0.206 -10.346  1.00  0.00    -0.151 SA
BRANCH  11  12
HETATM   12  C12 UNL     1     -12.209  -1.540 -10.480  1.00  0.00    -0.003 C 
HETATM   13  C13 UNL     1     -12.083  -1.916 -11.943  1.00  0.00     0.026 C 
HETATM   14  C14 UNL     1     -12.594  -2.763  -9.678  1.00  0.00     0.026 C 
HETATM   15  C15 UNL     1     -10.874  -1.037  -9.945  1.00  0.00     0.026 C 
ENDBRANCH  11  12
ENDBRANCH  10  11
ENDBRANCH   7  10
ENDBRANCH   5   6
BRANCH   1  16
HETATM   16  C3  UNL     1     -14.489   1.167  -4.287  1.00  0.00     0.297 C 
HETATM   17  O2  UNL     1     -15.599   1.267  -4.811  1.00  0.00    -0.259 OA
BRANCH  16  18
HETATM   18  O1  UNL     1     -14.118   2.332  -3.585  1.00  0.00    -0.318 OA
BRANCH  18  19
HETATM   19  C2  UNL     1     -13.916   3.567  -4.202  1.00  0.00     0.174 C 
HETATM   20  C1  UNL     1     -12.469   3.634  -4.680  1.00  0.00     0.034 C 
ENDBRANCH  18  19
ENDBRANCH  16  18
ENDBRANCH   1  16
BRANCH   2  21
HETATM   21  C6  UNL     1     -14.437  -1.106  -2.171  1.00  0.00     0.294 C 
HETATM   22  O3  UNL     1     -15.553  -1.617  -2.195  1.00  0.00    -0.259 OA
BRANCH  21  23
HETATM   23  O4  UNL     1     -14.088  -0.649  -0.874  1.00  0.00    -0.322 OA
HETATM   24  C7  UNL     1     -14.302  -1.442   0.275  1.00  0.00     0.213 C 
ENDBRANCH  21  23
ENDBRANCH   2  21
TORSDOF 9
ENDMDL
MODEL 5
REMARK VINA RESULT: -4.361934196      5.161      7.080
REMARK  9 active torsions:
REMARK  status: ('A' for Active; 'I' for Inactive)
REMARK    1  A    between atoms: C2_2  and  O1_3 
REMARK    2  A    between atoms: O1_3  and  C3_4 
REMARK    3  A    between atoms: C3_4  and  C4_6 
REMARK    4  A    between atoms: C5_7  and  C6_8 
REMARK    5  A    between atoms: C6_8  and  O4_10 
REMARK    6  A    between atoms: C9_14  and  N1_15 
REMARK       I    between atoms: N1_15  and  C10_17 
REMARK    7  A    between atoms: C10_17  and  C11_19 
REMARK    8  A    between atoms: C11_19  and  S2_20 
REMARK    9  A    between atoms: S2_20  and  C12_21 
ROOT
HETATM    1  C4  UNL     1     -17.254   0.662  -8.282  1.00  0.00     0.090 A 
HETATM    2  C5  UNL     1     -18.617   0.685  -8.416  1.00  0.00     0.065 A 
HETATM    3  C8  UNL     1     -19.259   1.766  -7.832  1.00  0.00     0.070 A 
HETATM    4  S1  UNL     1     -18.036   2.676  -7.141  1.00  0.00    -0.082 SA
HETATM    5  C9  UNL     1     -16.669   1.676  -7.587  1.00  0.00     0.093 A 
ENDROOT
BRANCH   5   6
HETATM    6  N1  UNL     1     -15.399   1.906  -6.984  1.00  0.00    -0.320 N 
HETATM    7  C10 UNL     1     -14.949   1.547  -5.756  1.00  0.00     0.231 C 
HETATM    8  O5  UNL     1     -15.607   0.957  -4.875  1.00  0.00    -0.272 OA
ATOM      9  H1  UNL     1     -14.729   2.415  -7.560  1.00  0.00     0.169 HD
BRANCH   7  10
HETATM   10  C11 UNL     1     -13.522   1.857  -5.342  1.00  0.00     0.177 C 
BRANCH  10  11
HETATM   11  S2  UNL     1     -13.283   1.291  -3.661  1.00  0.00    -0.151 SA
BRANCH  11  12
HETATM   12  C12 UNL     1     -12.017   0.034  -3.506  1.00  0.00    -0.003 C 
HETATM   13  C13 UNL     1     -10.666   0.701  -3.676  1.00  0.00     0.026 C 
HETATM   14  C14 UNL     1     -12.158  -1.081  -4.518  1.00  0.00     0.026 C 
HETATM   15  C15 UNL     1     -12.133  -0.583  -2.118  1.00  0.00     0.026 C 
ENDBRANCH  11  12
ENDBRANCH  10  11
ENDBRANCH   7  10
ENDBRANCH   5   6
BRANCH   1  16
HETATM   16  C3  UNL     1     -16.358  -0.216  -9.120  1.00  0.00     0.297 C 
HETATM   17  O2  UNL     1     -16.098  -0.058 -10.313  1.00  0.00    -0.259 OA
BRANCH  16  18
HETATM   18  O1  UNL     1     -15.699  -1.332  -8.567  1.00  0.00    -0.318 OA
BRANCH  18  19
HETATM   19  C2  UNL     1     -14.418  -1.732  -8.950  1.00  0.00     0.174 C 
HETATM   20  C1  UNL     1     -13.408  -1.059  -8.025  1.00  0.00     0.034 C 
ENDBRANCH  18  19
ENDBRANCH  16  18
ENDBRANCH   1  16
BRANCH   2  21
HETATM   21  C6  UNL     1     -19.461  -0.359  -9.067  1.00  0.00     0.294 C 
HETATM   22  O3  UNL     1     -20.186  -1.194  -8.534  1.00  0.00    -0.259 OA
BRANCH  21  23
HETATM   23  O4  UNL     1     -19.479  -0.462 -10.481  1.00  0.00    -0.322 OA
HETATM   24  C7  UNL     1     -19.515   0.684 -11.308  1.00  0.00     0.213 C 
ENDBRANCH  21  23
ENDBRANCH   2  21
TORSDOF 9
ENDMDL
