MODEL 1
REMARK VINA RESULT: -5.544878562      0.000      0.000
REMARK  6 active torsions:
REMARK  status: ('A' for Active; 'I' for Inactive)
REMARK    1  A    between atoms: C2_2  and  C3_4 
REMARK    2  A    between atoms: C7_8  and  N1_9 
REMARK    3  A    between atoms: C7_8  and  C14_22 
REMARK       I    between atoms: N1_9  and  C8_11 
REMARK    4  A    between atoms: C8_11  and  C9_13 
REMARK    5  A    between atoms: C9_13  and  N2_14 
REMARK       I    between atoms: C14_22  and  N3_24 
REMARK    6  A    between atoms: N3_24  and  N4_26 
ROOT
HETATM    1  C3  UNL     1       9.669  -8.886  17.236  1.00  0.00     0.092 C 
HETATM    2  C4  UNL     1      10.924  -9.013  16.404  1.00  0.00     0.015 C 
HETATM    3  C5  UNL     1      11.323  -7.602  16.098  1.00  0.00     0.004 C 
HETATM    4  C6  UNL     1      10.422  -6.700  16.910  1.00  0.00     0.042 C 
HETATM    5  C7  UNL     1       9.952  -7.622  17.973  1.00  0.00     0.126 C 
ENDROOT
BRANCH   5   6
HETATM    6  N1  UNL     1      11.068  -7.914  18.869  1.00  0.00    -0.340 N 
HETATM    7  C8  UNL     1      11.680  -6.943  19.678  1.00  0.00     0.255 C 
HETATM    8  O2  UNL     1      11.269  -5.768  19.645  1.00  0.00    -0.271 OA
ATOM      9  H1  UNL     1      11.420  -8.870  18.910  1.00  0.00     0.163 HD
BRANCH   7  10
HETATM   10  C9  UNL     1      12.788  -7.292  20.553  1.00  0.00     0.203 C 
HETATM   11  C10 UNL     1      12.986  -8.777  20.726  1.00  0.00     0.049 C 
HETATM   12  C11 UNL     1      14.480  -9.006  20.741  1.00  0.00     0.003 C 
HETATM   13  C12 UNL     1      15.107  -7.607  20.668  1.00  0.00     0.003 C 
HETATM   14  C13 UNL     1      14.071  -6.906  19.802  1.00  0.00     0.049 C 
BRANCH  10  15
HETATM   15  N2  UNL     1      12.836  -6.594  21.799  1.00  0.00    -0.061 N 
ATOM     16  H23 UNL     1      13.472  -5.800  21.729  1.00  0.00     0.275 HD
ATOM     17  H22 UNL     1      11.954  -6.108  21.959  1.00  0.00     0.275 HD
ATOM     18  H21 UNL     1      13.074  -7.161  22.614  1.00  0.00     0.275 HD
ENDBRANCH  10  15
ENDBRANCH   7  10
ENDBRANCH   5   6
BRANCH   5  19
HETATM   19  C14 UNL     1       8.863  -7.103  18.811  1.00  0.00     0.264 C 
HETATM   20  O3  UNL     1       8.427  -7.834  19.752  1.00  0.00    -0.269 OA
HETATM   21  N3  UNL     1       8.261  -5.841  18.651  1.00  0.00    -0.274 N 
ATOM     22  H3  UNL     1       8.589  -5.224  17.908  1.00  0.00     0.189 HD
BRANCH  21  23
HETATM   23  N4  UNL     1       7.231  -5.417  19.482  1.00  0.00    -0.343 N 
ATOM     24  H42 UNL     1       7.194  -5.788  20.431  1.00  0.00     0.176 HD
ATOM     25  H41 UNL     1       6.526  -4.753  19.161  1.00  0.00     0.176 HD
ENDBRANCH  21  23
ENDBRANCH   5  19
BRANCH   1  26
HETATM   26  C2  UNL     1       8.532  -8.972  16.355  1.00  0.00     0.130 C 
HETATM   27  C1  UNL     1       8.176  -9.984  15.351  1.00  0.00     0.091 C 
HETATM   28  O1  UNL     1       7.689  -8.060  16.422  1.00  0.00    -0.298 OA
ENDBRANCH   1  26
TORSDOF 6
ENDMDL
MODEL 2
REMARK VINA RESULT: -5.330947789      4.832      7.429
REMARK  6 active torsions:
REMARK  status: ('A' for Active; 'I' for Inactive)
REMARK    1  A    between atoms: C2_2  and  C3_4 
REMARK    2  A    between atoms: C7_8  and  N1_9 
REMARK    3  A    between atoms: C7_8  and  C14_22 
REMARK       I    between atoms: N1_9  and  C8_11 
REMARK    4  A    between atoms: C8_11  and  C9_13 
REMARK    5  A    between atoms: C9_13  and  N2_14 
REMARK       I    between atoms: C14_22  and  N3_24 
REMARK    6  A    between atoms: N3_24  and  N4_26 
ROOT
HETATM    1  C3  UNL     1       5.709 -13.137  14.922  1.00  0.00     0.092 C 
HETATM    2  C4  UNL     1       6.683 -13.778  15.883  1.00  0.00     0.015 C 
HETATM    3  C5  UNL     1       7.891 -14.087  15.052  1.00  0.00     0.004 C 
HETATM    4  C6  UNL     1       7.673 -13.451  13.698  1.00  0.00     0.042 C 
HETATM    5  C7  UNL     1       6.648 -12.425  14.010  1.00  0.00     0.126 C 
ENDROOT
BRANCH   5   6
HETATM    6  N1  UNL     1       7.268 -11.368  14.806  1.00  0.00    -0.340 N 
HETATM    7  C8  UNL     1       8.245 -10.495  14.301  1.00  0.00     0.255 C 
HETATM    8  O2  UNL     1       8.618 -10.610  13.118  1.00  0.00    -0.271 OA
ATOM      9  H1  UNL     1       6.977 -11.258  15.777  1.00  0.00     0.163 HD
BRANCH   7  10
HETATM   10  C9  UNL     1       8.827  -9.460  15.141  1.00  0.00     0.203 C 
HETATM   11  C10 UNL     1      10.083  -9.888  15.857  1.00  0.00     0.049 C 
HETATM   12  C11 UNL     1      11.014  -8.697  15.826  1.00  0.00     0.003 C 
HETATM   13  C12 UNL     1      10.211  -7.570  15.162  1.00  0.00     0.003 C 
HETATM   14  C13 UNL     1       9.376  -8.388  14.187  1.00  0.00     0.049 C 
BRANCH  10  15
HETATM   15  N2  UNL     1       7.916  -8.785  16.010  1.00  0.00    -0.061 N 
ATOM     16  H23 UNL     1       8.418  -8.399  16.809  1.00  0.00     0.275 HD
ATOM     17  H22 UNL     1       7.588  -7.925  15.569  1.00  0.00     0.275 HD
ATOM     18  H21 UNL     1       7.120  -9.337  16.331  1.00  0.00     0.275 HD
ENDBRANCH  10  15
ENDBRANCH   7  10
ENDBRANCH   5   6
BRANCH   5  19
HETATM   19  C14 UNL     1       6.046 -11.772  12.840  1.00  0.00     0.264 C 
HETATM   20  O3  UNL     1       6.208 -12.309  11.702  1.00  0.00    -0.269 OA
HETATM   21  N3  UNL     1       5.292 -10.585  12.884  1.00  0.00    -0.274 N 
ATOM     22  H3  UNL     1       5.137 -10.127  13.782  1.00  0.00     0.189 HD
BRANCH  21  23
HETATM   23  N4  UNL     1       4.753 -10.022  11.733  1.00  0.00    -0.343 N 
ATOM     24  H42 UNL     1       4.886 -10.513  10.850  1.00  0.00     0.176 HD
ATOM     25  H41 UNL     1       4.238  -9.142  11.760  1.00  0.00     0.176 HD
ENDBRANCH  21  23
ENDBRANCH   5  19
BRANCH   1  26
HETATM   26  C2  UNL     1       4.839 -14.164  14.409  1.00  0.00     0.130 C 
HETATM   27  C1  UNL     1       4.881 -15.623  14.576  1.00  0.00     0.091 C 
HETATM   28  O1  UNL     1       3.883 -13.800  13.702  1.00  0.00    -0.298 OA
ENDBRANCH   1  26
TORSDOF 6
ENDMDL
MODEL 3
REMARK VINA RESULT: -5.286716941      4.387      6.664
REMARK  6 active torsions:
REMARK  status: ('A' for Active; 'I' for Inactive)
REMARK    1  A    between atoms: C2_2  and  C3_4 
REMARK    2  A    between atoms: C7_8  and  N1_9 
REMARK    3  A    between atoms: C7_8  and  C14_22 
REMARK       I    between atoms: N1_9  and  C8_11 
REMARK    4  A    between atoms: C8_11  and  C9_13 
REMARK    5  A    between atoms: C9_13  and  N2_14 
REMARK       I    between atoms: C14_22  and  N3_24 
REMARK    6  A    between atoms: N3_24  and  N4_26 
ROOT
HETATM    1  C3  UNL     1       6.025 -12.173  14.722  1.00  0.00     0.092 C 
HETATM    2  C4  UNL     1       7.260 -12.999  15.003  1.00  0.00     0.015 C 
HETATM    3  C5  UNL     1       8.115 -12.832  13.784  1.00  0.00     0.004 C 
HETATM    4  C6  UNL     1       7.460 -11.775  12.924  1.00  0.00     0.042 C 
HETATM    5  C7  UNL     1       6.610 -11.068  13.912  1.00  0.00     0.126 C 
ENDROOT
BRANCH   5   6
HETATM    6  N1  UNL     1       7.471 -10.310  14.816  1.00  0.00    -0.340 N 
HETATM    7  C8  UNL     1       8.495  -9.458  14.371  1.00  0.00     0.255 C 
HETATM    8  O2  UNL     1       8.698  -9.328  13.149  1.00  0.00    -0.271 OA
ATOM      9  H1  UNL     1       7.322 -10.404  15.820  1.00  0.00     0.163 HD
BRANCH   7  10
HETATM   10  C9  UNL     1       9.321  -8.727  15.319  1.00  0.00     0.203 C 
HETATM   11  C10 UNL     1       8.533  -7.921  16.321  1.00  0.00     0.049 C 
HETATM   12  C11 UNL     1       9.260  -8.059  17.640  1.00  0.00     0.003 C 
HETATM   13  C12 UNL     1      10.518  -8.880  17.327  1.00  0.00     0.003 C 
HETATM   14  C13 UNL     1       9.972  -9.781  16.228  1.00  0.00     0.049 C 
BRANCH  10  15
HETATM   15  N2  UNL     1      10.397  -7.977  14.752  1.00  0.00    -0.061 N 
ATOM     16  H23 UNL     1      10.952  -8.574  14.139  1.00  0.00     0.275 HD
ATOM     17  H22 UNL     1      10.035  -7.307  14.074  1.00  0.00     0.275 HD
ATOM     18  H21 UNL     1      11.005  -7.503  15.420  1.00  0.00     0.275 HD
ENDBRANCH  10  15
ENDBRANCH   7  10
ENDBRANCH   5   6
BRANCH   5  19
HETATM   19  C14 UNL     1       5.655 -10.110  13.338  1.00  0.00     0.264 C 
HETATM   20  O3  UNL     1       4.656  -9.762  14.040  1.00  0.00    -0.269 OA
HETATM   21  N3  UNL     1       5.765  -9.540  12.056  1.00  0.00    -0.274 N 
ATOM     22  H3  UNL     1       6.556  -9.792  11.465  1.00  0.00     0.189 HD
BRANCH  21  23
HETATM   23  N4  UNL     1       4.819  -8.641  11.577  1.00  0.00    -0.343 N 
ATOM     24  H42 UNL     1       4.064  -8.359  12.201  1.00  0.00     0.176 HD
ATOM     25  H41 UNL     1       4.870  -8.267  10.630  1.00  0.00     0.176 HD
ENDBRANCH  21  23
ENDBRANCH   5  19
BRANCH   1  26
HETATM   26  C2  UNL     1       5.024 -13.038  14.153  1.00  0.00     0.130 C 
HETATM   27  C1  UNL     1       5.136 -14.084  13.127  1.00  0.00     0.091 C 
HETATM   28  O1  UNL     1       3.858 -12.912  14.570  1.00  0.00    -0.298 OA
ENDBRANCH   1  26
TORSDOF 6
ENDMDL
MODEL 4
REMARK VINA RESULT: -5.282236648      4.841      7.200
REMARK  6 active torsions:
REMARK  status: ('A' for Active; 'I' for Inactive)
REMARK    1  A    between atoms: C2_2  and  C3_4 
REMARK    2  A    between atoms: C7_8  and  N1_9 
REMARK    3  A    between atoms: C7_8  and  C14_22 
REMARK       I    between atoms: N1_9  and  C8_11 
REMARK    4  A    between atoms: C8_11  and  C9_13 
REMARK    5  A    between atoms: C9_13  and  N2_14 
REMARK       I    between atoms: C14_22  and  N3_24 
REMARK    6  A    between atoms: N3_24  and  N4_26 
ROOT
HETATM    1  C3  UNL     1       5.815 -12.876  14.980  1.00  0.00     0.092 C 
HETATM    2  C4  UNL     1       6.749 -13.705  15.831  1.00  0.00     0.015 C 
HETATM    3  C5  UNL     1       7.881 -14.063  14.917  1.00  0.00     0.004 C 
HETATM    4  C6  UNL     1       7.682 -13.283  13.638  1.00  0.00     0.042 C 
HETATM    5  C7  UNL     1       6.791 -12.186  14.090  1.00  0.00     0.126 C 
ENDROOT
BRANCH   5   6
HETATM    6  N1  UNL     1       7.556 -11.281  14.944  1.00  0.00    -0.340 N 
HETATM    7  C8  UNL     1       8.562 -10.431  14.460  1.00  0.00     0.255 C 
HETATM    8  O2  UNL     1       8.835 -10.432  13.245  1.00  0.00    -0.271 OA
ATOM      9  H1  UNL     1       7.348 -11.267  15.942  1.00  0.00     0.163 HD
BRANCH   7  10
HETATM   10  C9  UNL     1       9.290  -9.549  15.360  1.00  0.00     0.203 C 
HETATM   11  C10 UNL     1       9.978  -8.401  14.666  1.00  0.00     0.049 C 
HETATM   12  C11 UNL     1       9.810  -7.200  15.568  1.00  0.00     0.003 C 
HETATM   13  C12 UNL     1       9.098  -7.729  16.821  1.00  0.00     0.003 C 
HETATM   14  C13 UNL     1       8.231  -8.807  16.188  1.00  0.00     0.049 C 
BRANCH  10  15
HETATM   15  N2  UNL     1      10.145 -10.198  16.303  1.00  0.00    -0.061 N 
ATOM     16  H23 UNL     1       9.781 -11.124  16.523  1.00  0.00     0.275 HD
ATOM     17  H22 UNL     1      11.027 -10.450  15.857  1.00  0.00     0.275 HD
ATOM     18  H21 UNL     1      10.326  -9.681  17.164  1.00  0.00     0.275 HD
ENDBRANCH  10  15
ENDBRANCH   7  10
ENDBRANCH   5   6
BRANCH   5  19
HETATM   19  C14 UNL     1       6.220 -11.366  13.013  1.00  0.00     0.264 C 
HETATM   20  O3  UNL     1       6.233 -11.830  11.831  1.00  0.00    -0.269 OA
HETATM   21  N3  UNL     1       5.649 -10.092  13.192  1.00  0.00    -0.274 N 
ATOM     22  H3  UNL     1       5.617  -9.689  14.128  1.00  0.00     0.189 HD
BRANCH  21  23
HETATM   23  N4  UNL     1       5.130  -9.372  12.124  1.00  0.00    -0.343 N 
ATOM     24  H42 UNL     1       4.959  -9.864  11.248  1.00  0.00     0.176 HD
ATOM     25  H41 UNL     1       4.921  -8.376  12.202  1.00  0.00     0.176 HD
ENDBRANCH  21  23
ENDBRANCH   5  19
BRANCH   1  26
HETATM   26  C2  UNL     1       4.817 -13.751  14.421  1.00  0.00     0.130 C 
HETATM   27  C1  UNL     1       4.736 -15.218  14.400  1.00  0.00     0.091 C 
HETATM   28  O1  UNL     1       3.846 -13.219  13.853  1.00  0.00    -0.298 OA
ENDBRANCH   1  26
TORSDOF 6
ENDMDL
MODEL 5
REMARK VINA RESULT: -5.051761640      5.614      8.252
REMARK  6 active torsions:
REMARK  status: ('A' for Active; 'I' for Inactive)
REMARK    1  A    between atoms: C2_2  and  C3_4 
REMARK    2  A    between atoms: C7_8  and  N1_9 
REMARK    3  A    between atoms: C7_8  and  C14_22 
REMARK       I    between atoms: N1_9  and  C8_11 
REMARK    4  A    between atoms: C8_11  and  C9_13 
REMARK    5  A    between atoms: C9_13  and  N2_14 
REMARK       I    between atoms: C14_22  and  N3_24 
REMARK    6  A    between atoms: N3_24  and  N4_26 
ROOT
HETATM    1  C3  UNL     1       5.620 -13.889  14.939  1.00  0.00     0.092 C 
HETATM    2  C4  UNL     1       6.636 -14.266  15.992  1.00  0.00     0.015 C 
HETATM    3  C5  UNL     1       7.893 -14.547  15.226  1.00  0.00     0.004 C 
HETATM    4  C6  UNL     1       7.639 -14.142  13.792  1.00  0.00     0.042 C 
HETATM    5  C7  UNL     1       6.495 -13.209  13.942  1.00  0.00     0.126 C 
ENDROOT
BRANCH   5   6
HETATM    6  N1  UNL     1       6.968 -11.984  14.582  1.00  0.00    -0.340 N 
HETATM    7  C8  UNL     1       7.904 -11.119  13.992  1.00  0.00     0.255 C 
HETATM    8  O2  UNL     1       8.368 -11.391  12.869  1.00  0.00    -0.271 OA
ATOM      9  H1  UNL     1       6.600 -11.745  15.502  1.00  0.00     0.163 HD
BRANCH   7  10
HETATM   10  C9  UNL     1       8.337  -9.911  14.676  1.00  0.00     0.203 C 
HETATM   11  C10 UNL     1       9.369 -10.153  15.749  1.00  0.00     0.049 C 
HETATM   12  C11 UNL     1      10.350  -9.006  15.658  1.00  0.00     0.003 C 
HETATM   13  C12 UNL     1       9.787  -8.074  14.577  1.00  0.00     0.003 C 
HETATM   14  C13 UNL     1       9.152  -9.104  13.654  1.00  0.00     0.049 C 
BRANCH  10  15
HETATM   15  N2  UNL     1       7.293  -9.044  15.121  1.00  0.00    -0.061 N 
ATOM     16  H23 UNL     1       7.348  -8.923  16.132  1.00  0.00     0.275 HD
ATOM     17  H22 UNL     1       7.478  -8.089  14.813  1.00  0.00     0.275 HD
ATOM     18  H21 UNL     1       6.347  -9.318  14.854  1.00  0.00     0.275 HD
ENDBRANCH  10  15
ENDBRANCH   7  10
ENDBRANCH   5   6
BRANCH   5  19
HETATM   19  C14 UNL     1       5.852 -12.807  12.684  1.00  0.00     0.264 C 
HETATM   20  O3  UNL     1       4.839 -12.044  12.743  1.00  0.00    -0.269 OA
HETATM   21  N3  UNL     1       6.279 -13.203  11.403  1.00  0.00    -0.274 N 
ATOM     22  H3  UNL     1       7.092 -13.812  11.316  1.00  0.00     0.189 HD
BRANCH  21  23
HETATM   23  N4  UNL     1       5.618 -12.784  10.255  1.00  0.00    -0.343 N 
ATOM     24  H42 UNL     1       4.757 -13.263   9.993  1.00  0.00     0.176 HD
ATOM     25  H41 UNL     1       5.976 -12.020   9.682  1.00  0.00     0.176 HD
ENDBRANCH  21  23
ENDBRANCH   5  19
BRANCH   1  26
HETATM   26  C2  UNL     1       4.888 -15.074  14.572  1.00  0.00     0.130 C 
HETATM   27  C1  UNL     1       5.209 -16.494  14.769  1.00  0.00     0.091 C 
HETATM   28  O1  UNL     1       3.800 -14.914  13.991  1.00  0.00    -0.298 OA
ENDBRANCH   1  26
TORSDOF 6
ENDMDL
