MODEL 1
REMARK VINA RESULT: -6.883202195      0.000      0.000
REMARK  5 active torsions:
REMARK  status: ('A' for Active; 'I' for Inactive)
REMARK    1  A    between atoms: C2_2  and  C3_3 
REMARK    2  A    between atoms: C6_8  and  N2_9 
REMARK    3  A    between atoms: C11_16  and  C12_17 
REMARK    4  A    between atoms: C12_17  and  C13_18 
REMARK    5  A    between atoms: C14_19  and  O1_20 
ROOT
HETATM    1  C3  UNL     1     -20.718  -2.903 -16.264  1.00  0.00    -0.012 A 
HETATM    2  C4  UNL     1     -20.856  -3.145 -17.641  1.00  0.00     0.031 A 
HETATM    3  C5  UNL     1     -21.235  -2.068 -18.593  1.00  0.00     0.069 C 
HETATM    4  N1  UNL     1     -20.645  -4.370 -18.108  1.00  0.00    -0.195 N 
ATOM      5  H1  UNL     1     -20.744  -4.546 -19.108  1.00  0.00     0.184 HD
HETATM    6  C6  UNL     1     -20.303  -5.386 -17.291  1.00  0.00     0.680 A 
HETATM    7  N3  UNL     1     -20.178  -5.138 -15.983  1.00  0.00    -0.195 N 
ATOM      8  H3  UNL     1     -19.918  -5.914 -15.373  1.00  0.00     0.184 HD
HETATM    9  C11 UNL     1     -20.370  -3.939 -15.421  1.00  0.00     0.039 A 
ENDROOT
BRANCH   9  10
HETATM   10  C12 UNL     1     -20.235  -3.670 -13.980  1.00  0.00     0.107 C 
BRANCH  10  11
HETATM   11  C13 UNL     1     -20.459  -4.886 -13.155  1.00  0.00     0.066 A 
HETATM   12  C14 UNL     1     -21.670  -5.118 -12.542  1.00  0.00     0.156 A 
HETATM   13  N4  UNL     1     -21.867  -6.218 -11.802  1.00  0.00    -0.288 N 
HETATM   14  C15 UNL     1     -20.921  -7.153 -11.607  1.00  0.00     0.329 A 
ATOM     15  H4  UNL     1     -22.779  -6.353 -11.365  1.00  0.00     0.172 HD
HETATM   16  O2  UNL     1     -21.122  -8.183 -10.907  1.00  0.00    -0.247 OA
HETATM   17  N5  UNL     1     -19.728  -6.948 -12.196  1.00  0.00    -0.275 N 
HETATM   18  C16 UNL     1     -19.485  -5.859 -12.947  1.00  0.00     0.260 A 
ATOM     19  H5  UNL     1     -18.988  -7.638 -12.068  1.00  0.00     0.173 HD
HETATM   20  O3  UNL     1     -18.358  -5.708 -13.478  1.00  0.00    -0.267 OA
BRANCH  12  21
HETATM   21  O1  UNL     1     -22.689  -4.165 -12.719  1.00  0.00    -0.345 OA
ATOM     22  H1  UNL     1     -22.941  -3.945 -13.608  1.00  0.00     0.219 HD
ENDBRANCH  12  21
ENDBRANCH  10  11
ENDBRANCH   9  10
BRANCH   1  23
HETATM   23  C2  UNL     1     -20.950  -1.507 -15.835  1.00  0.00     0.038 C 
HETATM   24  C1  UNL     1     -19.610  -0.760 -15.736  1.00  0.00     0.010 C 
ENDBRANCH   1  23
BRANCH   6  25
HETATM   25  N2  UNL     1     -20.106  -6.653 -17.891  1.00  0.00    -0.218 N 
HETATM   26  C7  UNL     1     -20.382  -7.038 -19.255  1.00  0.00     0.141 C 
HETATM   27  C8  UNL     1     -19.390  -8.139 -19.533  1.00  0.00     0.022 C 
HETATM   28  C9  UNL     1     -19.305  -8.863 -18.223  1.00  0.00     0.022 C 
HETATM   29  C10 UNL     1     -19.554  -7.795 -17.195  1.00  0.00     0.141 C 
ENDBRANCH   6  25
TORSDOF 5
ENDMDL
MODEL 2
REMARK VINA RESULT: -6.834931644      0.124      1.649
REMARK  5 active torsions:
REMARK  status: ('A' for Active; 'I' for Inactive)
REMARK    1  A    between atoms: C2_2  and  C3_3 
REMARK    2  A    between atoms: C6_8  and  N2_9 
REMARK    3  A    between atoms: C11_16  and  C12_17 
REMARK    4  A    between atoms: C12_17  and  C13_18 
REMARK    5  A    between atoms: C14_19  and  O1_20 
ROOT
HETATM    1  C3  UNL     1     -20.627  -2.947 -16.257  1.00  0.00    -0.012 A 
HETATM    2  C4  UNL     1     -20.841  -3.173 -17.627  1.00  0.00     0.031 A 
HETATM    3  C5  UNL     1     -21.290  -2.090 -18.540  1.00  0.00     0.069 C 
HETATM    4  N1  UNL     1     -20.641  -4.389 -18.123  1.00  0.00    -0.195 N 
ATOM      5  H1  UNL     1     -20.795  -4.554 -19.117  1.00  0.00     0.184 HD
HETATM    6  C6  UNL     1     -20.238  -5.410 -17.341  1.00  0.00     0.680 A 
HETATM    7  N3  UNL     1     -20.040  -5.178 -16.039  1.00  0.00    -0.195 N 
ATOM      8  H3  UNL     1     -19.735  -5.957 -15.456  1.00  0.00     0.184 HD
HETATM    9  C11 UNL     1     -20.216  -3.989 -15.449  1.00  0.00     0.039 A 
ENDROOT
BRANCH   9  10
HETATM   10  C12 UNL     1     -20.002  -3.737 -14.016  1.00  0.00     0.107 C 
BRANCH  10  11
HETATM   11  C13 UNL     1     -20.344  -4.915 -13.177  1.00  0.00     0.066 A 
HETATM   12  C14 UNL     1     -19.420  -5.906 -12.930  1.00  0.00     0.156 A 
HETATM   13  N4  UNL     1     -19.733  -6.965 -12.169  1.00  0.00    -0.288 N 
HETATM   14  C15 UNL     1     -20.942  -7.133 -11.606  1.00  0.00     0.329 A 
ATOM     15  H4  UNL     1     -19.020  -7.676 -12.009  1.00  0.00     0.172 HD
HETATM   16  O2  UNL     1     -21.222  -8.136 -10.893  1.00  0.00    -0.247 OA
HETATM   17  N5  UNL     1     -21.863  -6.179 -11.834  1.00  0.00    -0.275 N 
HETATM   18  C16 UNL     1     -21.593  -5.099 -12.590  1.00  0.00     0.260 A 
ATOM     19  H5  UNL     1     -22.790  -6.276 -11.422  1.00  0.00     0.173 HD
HETATM   20  O3  UNL     1     -22.481  -4.232 -12.777  1.00  0.00    -0.267 OA
BRANCH  12  21
HETATM   21  O1  UNL     1     -18.142  -5.769 -13.500  1.00  0.00    -0.345 OA
ATOM     22  H1  UNL     1     -18.023  -6.058 -14.398  1.00  0.00     0.219 HD
ENDBRANCH  12  21
ENDBRANCH  10  11
ENDBRANCH   9  10
BRANCH   1  23
HETATM   23  C2  UNL     1     -20.853  -1.561 -15.797  1.00  0.00     0.038 C 
HETATM   24  C1  UNL     1     -19.520  -0.796 -15.764  1.00  0.00     0.010 C 
ENDBRANCH   1  23
BRANCH   6  25
HETATM   25  N2  UNL     1     -20.058  -6.667 -17.968  1.00  0.00    -0.218 N 
HETATM   26  C7  UNL     1     -20.346  -7.019 -19.338  1.00  0.00     0.141 C 
HETATM   27  C8  UNL     1     -19.368  -8.125 -19.646  1.00  0.00     0.022 C 
HETATM   28  C9  UNL     1     -19.283  -8.877 -18.352  1.00  0.00     0.022 C 
HETATM   29  C10 UNL     1     -19.514  -7.829 -17.299  1.00  0.00     0.141 C 
ENDBRANCH   6  25
TORSDOF 5
ENDMDL
MODEL 3
REMARK VINA RESULT: -6.145045371      2.836      3.457
REMARK  5 active torsions:
REMARK  status: ('A' for Active; 'I' for Inactive)
REMARK    1  A    between atoms: C2_2  and  C3_3 
REMARK    2  A    between atoms: C6_8  and  N2_9 
REMARK    3  A    between atoms: C11_16  and  C12_17 
REMARK    4  A    between atoms: C12_17  and  C13_18 
REMARK    5  A    between atoms: C14_19  and  O1_20 
ROOT
HETATM    1  C3  UNL     1     -19.591  -2.572 -15.668  1.00  0.00    -0.012 A 
HETATM    2  C4  UNL     1     -18.352  -1.944 -15.877  1.00  0.00     0.031 A 
HETATM    3  C5  UNL     1     -18.249  -0.492 -16.183  1.00  0.00     0.069 C 
HETATM    4  N1  UNL     1     -17.238  -2.664 -15.805  1.00  0.00    -0.195 N 
ATOM      5  H1  UNL     1     -16.338  -2.208 -15.956  1.00  0.00     0.184 HD
HETATM    6  C6  UNL     1     -17.271  -3.984 -15.535  1.00  0.00     0.680 A 
HETATM    7  N3  UNL     1     -18.459  -4.567 -15.340  1.00  0.00    -0.195 N 
ATOM      8  H3  UNL     1     -18.472  -5.566 -15.136  1.00  0.00     0.184 HD
HETATM    9  C11 UNL     1     -19.632  -3.924 -15.393  1.00  0.00     0.039 A 
ENDROOT
BRANCH   9  10
HETATM   10  C12 UNL     1     -20.938  -4.568 -15.181  1.00  0.00     0.107 C 
BRANCH  10  11
HETATM   11  C13 UNL     1     -20.922  -5.517 -14.037  1.00  0.00     0.066 A 
HETATM   12  C14 UNL     1     -21.455  -5.168 -12.816  1.00  0.00     0.156 A 
HETATM   13  N4  UNL     1     -21.441  -6.029 -11.788  1.00  0.00    -0.288 N 
HETATM   14  C15 UNL     1     -20.919  -7.265 -11.872  1.00  0.00     0.329 A 
ATOM     15  H4  UNL     1     -21.847  -5.733 -10.901  1.00  0.00     0.172 HD
HETATM   16  O2  UNL     1     -20.913  -8.064 -10.895  1.00  0.00    -0.247 OA
HETATM   17  N5  UNL     1     -20.391  -7.629 -13.055  1.00  0.00    -0.275 N 
HETATM   18  C16 UNL     1     -20.383  -6.798 -14.113  1.00  0.00     0.260 A 
ATOM     19  H5  UNL     1     -19.986  -8.559 -13.152  1.00  0.00     0.173 HD
HETATM   20  O3  UNL     1     -19.881  -7.178 -15.199  1.00  0.00    -0.267 OA
BRANCH  12  21
HETATM   21  O1  UNL     1     -22.012  -3.884 -12.685  1.00  0.00    -0.345 OA
ATOM     22  H1  UNL     1     -22.944  -3.786 -12.842  1.00  0.00     0.219 HD
ENDBRANCH  12  21
ENDBRANCH  10  11
ENDBRANCH   9  10
BRANCH   1  23
HETATM   23  C2  UNL     1     -20.774  -1.690 -15.746  1.00  0.00     0.038 C 
HETATM   24  C1  UNL     1     -21.282  -1.621 -17.195  1.00  0.00     0.010 C 
ENDBRANCH   1  23
BRANCH   6  25
HETATM   25  N2  UNL     1     -16.028  -4.660 -15.485  1.00  0.00    -0.218 N 
HETATM   26  C7  UNL     1     -15.798  -6.085 -15.426  1.00  0.00     0.141 C 
HETATM   27  C8  UNL     1     -14.457  -6.268 -16.090  1.00  0.00     0.022 C 
HETATM   28  C9  UNL     1     -13.693  -5.052 -15.661  1.00  0.00     0.022 C 
HETATM   29  C10 UNL     1     -14.746  -3.990 -15.507  1.00  0.00     0.141 C 
ENDBRANCH   6  25
TORSDOF 5
ENDMDL
MODEL 4
REMARK VINA RESULT: -6.062154347      3.058      3.916
REMARK  5 active torsions:
REMARK  status: ('A' for Active; 'I' for Inactive)
REMARK    1  A    between atoms: C2_2  and  C3_3 
REMARK    2  A    between atoms: C6_8  and  N2_9 
REMARK    3  A    between atoms: C11_16  and  C12_17 
REMARK    4  A    between atoms: C12_17  and  C13_18 
REMARK    5  A    between atoms: C14_19  and  O1_20 
ROOT
HETATM    1  C3  UNL     1     -19.359  -2.939 -15.742  1.00  0.00    -0.012 A 
HETATM    2  C4  UNL     1     -18.173  -2.192 -15.837  1.00  0.00     0.031 A 
HETATM    3  C5  UNL     1     -18.186  -0.710 -15.951  1.00  0.00     0.069 C 
HETATM    4  N1  UNL     1     -17.006  -2.824 -15.828  1.00  0.00    -0.195 N 
ATOM      5  H1  UNL     1     -16.144  -2.283 -15.896  1.00  0.00     0.184 HD
HETATM    6  C6  UNL     1     -16.933  -4.167 -15.731  1.00  0.00     0.680 A 
HETATM    7  N3  UNL     1     -18.072  -4.863 -15.643  1.00  0.00    -0.195 N 
ATOM      8  H3  UNL     1     -18.006  -5.878 -15.570  1.00  0.00     0.184 HD
HETATM    9  C11 UNL     1     -19.293  -4.315 -15.644  1.00  0.00     0.039 A 
ENDROOT
BRANCH   9  10
HETATM   10  C12 UNL     1     -20.545  -5.083 -15.552  1.00  0.00     0.107 C 
BRANCH  10  11
HETATM   11  C13 UNL     1     -20.632  -5.872 -14.295  1.00  0.00     0.066 A 
HETATM   12  C14 UNL     1     -20.178  -7.171 -14.236  1.00  0.00     0.156 A 
HETATM   13  N4  UNL     1     -20.256  -7.876 -13.098  1.00  0.00    -0.288 N 
HETATM   14  C15 UNL     1     -20.771  -7.380 -11.960  1.00  0.00     0.329 A 
ATOM     15  H4  UNL     1     -19.907  -8.834 -13.096  1.00  0.00     0.172 HD
HETATM   16  O2  UNL     1     -20.838  -8.057 -10.897  1.00  0.00    -0.247 OA
HETATM   17  N5  UNL     1     -21.222  -6.113 -11.993  1.00  0.00    -0.275 N 
HETATM   18  C16 UNL     1     -21.164  -5.367 -13.111  1.00  0.00     0.260 A 
ATOM     19  H5  UNL     1     -21.620  -5.706 -11.146  1.00  0.00     0.173 HD
HETATM   20  O3  UNL     1     -21.596  -4.189 -13.098  1.00  0.00    -0.267 OA
BRANCH  12  21
HETATM   21  O1  UNL     1     -19.631  -7.729 -15.405  1.00  0.00    -0.345 OA
ATOM     22  H1  UNL     1     -18.709  -7.960 -15.398  1.00  0.00     0.219 HD
ENDBRANCH  12  21
ENDBRANCH  10  11
ENDBRANCH   9  10
BRANCH   1  23
HETATM   23  C2  UNL     1     -20.610  -2.152 -15.738  1.00  0.00     0.038 C 
HETATM   24  C1  UNL     1     -21.131  -1.986 -17.174  1.00  0.00     0.010 C 
ENDBRANCH   1  23
BRANCH   6  25
HETATM   25  N2  UNL     1     -15.639  -4.743 -15.735  1.00  0.00    -0.218 N 
HETATM   26  C7  UNL     1     -14.370  -4.061 -15.838  1.00  0.00     0.141 C 
HETATM   27  C8  UNL     1     -13.410  -4.963 -15.104  1.00  0.00     0.022 C 
HETATM   28  C9  UNL     1     -13.907  -6.337 -15.437  1.00  0.00     0.022 C 
HETATM   29  C10 UNL     1     -15.390  -6.162 -15.609  1.00  0.00     0.141 C 
ENDBRANCH   6  25
TORSDOF 5
ENDMDL
MODEL 5
REMARK VINA RESULT: -6.044838931      2.527      5.753
REMARK  5 active torsions:
REMARK  status: ('A' for Active; 'I' for Inactive)
REMARK    1  A    between atoms: C2_2  and  C3_3 
REMARK    2  A    between atoms: C6_8  and  N2_9 
REMARK    3  A    between atoms: C11_16  and  C12_17 
REMARK    4  A    between atoms: C12_17  and  C13_18 
REMARK    5  A    between atoms: C14_19  and  O1_20 
ROOT
HETATM    1  C3  UNL     1     -21.025  -6.147 -13.258  1.00  0.00    -0.012 A 
HETATM    2  C4  UNL     1     -21.652  -4.915 -13.008  1.00  0.00     0.031 A 
HETATM    3  C5  UNL     1     -22.481  -4.688 -11.795  1.00  0.00     0.069 C 
HETATM    4  N1  UNL     1     -21.505  -3.924 -13.880  1.00  0.00    -0.195 N 
ATOM      5  H1  UNL     1     -21.959  -3.029 -13.699  1.00  0.00     0.184 HD
HETATM    6  C6  UNL     1     -20.768  -4.074 -14.998  1.00  0.00     0.680 A 
HETATM    7  N3  UNL     1     -20.179  -5.254 -15.221  1.00  0.00    -0.195 N 
ATOM      8  H3  UNL     1     -19.623  -5.357 -16.070  1.00  0.00     0.184 HD
HETATM    9  C11 UNL     1     -20.269  -6.309 -14.402  1.00  0.00     0.039 A 
ENDROOT
BRANCH   9  10
HETATM   10  C12 UNL     1     -19.624  -7.607 -14.652  1.00  0.00     0.107 C 
BRANCH  10  11
HETATM   11  C13 UNL     1     -18.293  -7.462 -15.298  1.00  0.00     0.066 A 
HETATM   12  C14 UNL     1     -17.136  -7.442 -14.550  1.00  0.00     0.156 A 
HETATM   13  N4  UNL     1     -15.938  -7.315 -15.139  1.00  0.00    -0.288 N 
HETATM   14  C15 UNL     1     -15.782  -7.199 -16.469  1.00  0.00     0.329 A 
ATOM     15  H4  UNL     1     -15.106  -7.305 -14.549  1.00  0.00     0.172 HD
HETATM   16  O2  UNL     1     -14.647  -7.080 -17.008  1.00  0.00    -0.247 OA
HETATM   17  N5  UNL     1     -16.897  -7.216 -17.221  1.00  0.00    -0.275 N 
HETATM   18  C16 UNL     1     -18.120  -7.342 -16.674  1.00  0.00     0.260 A 
ATOM     19  H5  UNL     1     -16.813  -7.130 -18.233  1.00  0.00     0.173 HD
HETATM   20  O3  UNL     1     -19.135  -7.353 -17.413  1.00  0.00    -0.267 OA
BRANCH  12  21
HETATM   21  O1  UNL     1     -17.255  -7.559 -13.154  1.00  0.00    -0.345 OA
ATOM     22  H1  UNL     1     -16.552  -7.210 -12.618  1.00  0.00     0.219 HD
ENDBRANCH  12  21
ENDBRANCH  10  11
ENDBRANCH   9  10
BRANCH   1  23
HETATM   23  C2  UNL     1     -21.224  -7.185 -12.225  1.00  0.00     0.038 C 
HETATM   24  C1  UNL     1     -20.041  -7.183 -11.244  1.00  0.00     0.010 C 
ENDBRANCH   1  23
BRANCH   6  25
HETATM   25  N2  UNL     1     -20.679  -2.957 -15.864  1.00  0.00    -0.218 N 
HETATM   26  C7  UNL     1     -20.804  -2.941 -17.302  1.00  0.00     0.141 C 
HETATM   27  C8  UNL     1     -21.334  -1.563 -17.609  1.00  0.00     0.022 C 
HETATM   28  C9  UNL     1     -20.649  -0.698 -16.594  1.00  0.00     0.022 C 
HETATM   29  C10 UNL     1     -20.460  -1.601 -15.407  1.00  0.00     0.141 C 
ENDBRANCH   6  25
TORSDOF 5
ENDMDL
