MODEL 1
REMARK VINA RESULT: -6.054894033      0.000      0.000
REMARK  8 active torsions:
REMARK  status: ('A' for Active; 'I' for Inactive)
REMARK    1  A    between atoms: N1_2  and  C2_4 
REMARK    2  A    between atoms: C3_7  and  S1_8 
REMARK    3  A    between atoms: S1_8  and  C4_9 
REMARK    4  A    between atoms: C4_9  and  C5_10 
REMARK    5  A    between atoms: C7_12  and  N3_13 
REMARK    6  A    between atoms: C8_18  and  C9_19 
REMARK    7  A    between atoms: C13_27  and  N7_28 
REMARK    8  A    between atoms: C16_31  and  N8_33 
ROOT
HETATM    1  C2  UNL     1     -24.375 -11.579 -11.987  1.00  0.00     0.694 A 
HETATM    2  N2  UNL     1     -24.920 -11.360 -13.194  1.00  0.00    -0.169 N 
ATOM      3  H2  UNL     1     -24.747 -12.031 -13.942  1.00  0.00     0.186 HD
HETATM    4  C3  UNL     1     -25.685 -10.290 -13.449  1.00  0.00     0.174 A 
HETATM    5  N6  UNL     1     -25.892  -9.418 -12.423  1.00  0.00    -0.169 N 
ATOM      6  H6  UNL     1     -26.472  -8.598 -12.598  1.00  0.00     0.186 HD
HETATM    7  C13 UNL     1     -25.377  -9.580 -11.200  1.00  0.00     0.696 A 
HETATM    8  N9  UNL     1     -24.619 -10.676 -11.016  1.00  0.00    -0.022 N 
ATOM      9  H9  UNL     1     -24.208 -10.832 -10.096  1.00  0.00     0.203 HD
ENDROOT
BRANCH   4  10
HETATM   10  S1  UNL     1     -26.418  -9.916 -15.002  1.00  0.00    -0.087 SA
BRANCH  10  11
HETATM   11  C4  UNL     1     -28.179  -9.664 -15.007  1.00  0.00     0.139 C 
BRANCH  11  12
HETATM   12  C5  UNL     1     -28.680  -8.694 -14.022  1.00  0.00     0.023 A 
HETATM   13  C6  UNL     1     -28.465  -7.367 -14.162  1.00  0.00     0.073 A 
HETATM   14  C7  UNL     1     -28.976  -6.491 -13.208  1.00  0.00     0.101 A 
HETATM   15  N4  UNL     1     -29.678  -6.948 -12.151  1.00  0.00    -0.332 N 
HETATM   16  C8  UNL     1     -29.885  -8.248 -12.016  1.00  0.00     0.087 A 
ATOM     17  H4  UNL     1     -30.048  -6.296 -11.459  1.00  0.00     0.168 HD
HETATM   18  N5  UNL     1     -29.398  -9.096 -12.928  1.00  0.00    -0.348 N 
ATOM     19  H5  UNL     1     -29.570 -10.093 -12.801  1.00  0.00     0.167 HD
BRANCH  14  20
HETATM   20  N3  UNL     1     -28.764  -5.233 -13.356  1.00  0.00    -0.385 N 
ATOM     21  H32 UNL     1     -29.442  -4.647 -13.845  1.00  0.00     0.157 HD
ATOM     22  H31 UNL     1     -27.906  -4.836 -12.975  1.00  0.00     0.157 HD
ENDBRANCH  14  20
BRANCH  16  23
HETATM   23  C9  UNL     1     -30.652  -8.791 -10.867  1.00  0.00     0.053 A 
HETATM   24  C10 UNL     1     -32.142  -8.789 -11.154  1.00  0.00     0.012 A 
HETATM   25  C11 UNL     1     -32.171 -10.285 -11.120  1.00  0.00     0.002 A 
HETATM   26  C12 UNL     1     -30.703 -10.278 -10.758  1.00  0.00     0.012 A 
ENDBRANCH  16  23
ENDBRANCH  11  12
ENDBRANCH  10  11
ENDBRANCH   4  10
BRANCH   1  27
HETATM   27  N1  UNL     1     -23.645 -12.609 -11.799  1.00  0.00    -0.230 N 
HETATM   28  C1  UNL     1     -23.856 -13.809 -12.541  1.00  0.00     0.165 C 
ATOM     29  H1  UNL     1     -22.897 -12.575 -11.105  1.00  0.00     0.177 HD
ENDBRANCH   1  27
BRANCH   7  30
HETATM   30  N7  UNL     1     -25.598  -8.669 -10.143  1.00  0.00    -0.217 N 
HETATM   31  C14 UNL     1     -26.596  -7.646 -10.270  1.00  0.00     0.143 C 
HETATM   32  C15 UNL     1     -27.522  -7.653  -9.090  1.00  0.00     0.058 C 
HETATM   33  C16 UNL     1     -26.840  -7.911  -7.799  1.00  0.00     0.123 C 
HETATM   34  C17 UNL     1     -27.432  -9.196  -7.220  1.00  0.00     0.046 C 
HETATM   35  C18 UNL     1     -25.353  -7.955  -7.819  1.00  0.00     0.058 C 
HETATM   36  C19 UNL     1     -24.799  -8.797  -8.947  1.00  0.00     0.143 C 
BRANCH  33  37
HETATM   37  N8  UNL     1     -27.207  -6.869  -6.822  1.00  0.00    -0.071 N 
ATOM     38  H83 UNL     1     -26.795  -7.041  -5.905  1.00  0.00     0.275 HD
ATOM     39  H82 UNL     1     -26.754  -5.978  -7.023  1.00  0.00     0.275 HD
ATOM     40  H81 UNL     1     -28.223  -6.781  -6.775  1.00  0.00     0.275 HD
ENDBRANCH  33  37
ENDBRANCH   7  30
TORSDOF 8
ENDMDL
MODEL 2
REMARK VINA RESULT: -6.024516588      3.804      8.436
REMARK  8 active torsions:
REMARK  status: ('A' for Active; 'I' for Inactive)
REMARK    1  A    between atoms: N1_2  and  C2_4 
REMARK    2  A    between atoms: C3_7  and  S1_8 
REMARK    3  A    between atoms: S1_8  and  C4_9 
REMARK    4  A    between atoms: C4_9  and  C5_10 
REMARK    5  A    between atoms: C7_12  and  N3_13 
REMARK    6  A    between atoms: C8_18  and  C9_19 
REMARK    7  A    between atoms: C13_27  and  N7_28 
REMARK    8  A    between atoms: C16_31  and  N8_33 
ROOT
HETATM    1  C2  UNL     1     -27.824  -3.287 -14.340  1.00  0.00     0.694 A 
HETATM    2  N2  UNL     1     -27.621  -4.501 -13.806  1.00  0.00    -0.169 N 
ATOM      3  H2  UNL     1     -26.689  -4.912 -13.854  1.00  0.00     0.186 HD
HETATM    4  C3  UNL     1     -28.603  -5.192 -13.210  1.00  0.00     0.174 A 
HETATM    5  N6  UNL     1     -29.832  -4.609 -13.167  1.00  0.00    -0.169 N 
ATOM      6  H6  UNL     1     -30.592  -5.120 -12.718  1.00  0.00     0.186 HD
HETATM    7  C13 UNL     1     -30.097  -3.403 -13.681  1.00  0.00     0.696 A 
HETATM    8  N9  UNL     1     -29.065  -2.768 -14.263  1.00  0.00    -0.022 N 
ATOM      9  H9  UNL     1     -29.230  -1.846 -14.668  1.00  0.00     0.203 HD
ENDROOT
BRANCH   4  10
HETATM   10  S1  UNL     1     -28.430  -6.793 -12.506  1.00  0.00    -0.087 SA
BRANCH  10  11
HETATM   11  C4  UNL     1     -29.236  -7.063 -10.943  1.00  0.00     0.139 C 
BRANCH  11  12
HETATM   12  C5  UNL     1     -28.336  -7.241  -9.793  1.00  0.00     0.023 A 
HETATM   13  C6  UNL     1     -28.593  -6.667  -8.597  1.00  0.00     0.073 A 
HETATM   14  C7  UNL     1     -27.717  -6.882  -7.536  1.00  0.00     0.101 A 
HETATM   15  N4  UNL     1     -26.620  -7.652  -7.688  1.00  0.00    -0.332 N 
HETATM   16  C8  UNL     1     -26.371  -8.212  -8.861  1.00  0.00     0.087 A 
ATOM     17  H4  UNL     1     -25.986  -7.803  -6.902  1.00  0.00     0.168 HD
HETATM   18  N5  UNL     1     -27.207  -8.010  -9.883  1.00  0.00    -0.348 N 
ATOM     19  H5  UNL     1     -26.993  -8.452 -10.777  1.00  0.00     0.167 HD
BRANCH  14  20
HETATM   20  N3  UNL     1     -27.976  -6.330  -6.406  1.00  0.00    -0.385 N 
ATOM     21  H32 UNL     1     -27.973  -6.880  -5.547  1.00  0.00     0.157 HD
ATOM     22  H31 UNL     1     -28.184  -5.331  -6.389  1.00  0.00     0.157 HD
ENDBRANCH  14  20
BRANCH  16  23
HETATM   23  C9  UNL     1     -25.174  -9.066  -9.068  1.00  0.00     0.053 A 
HETATM   24  C10 UNL     1     -24.286  -8.505 -10.164  1.00  0.00     0.012 A 
HETATM   25  C11 UNL     1     -23.196  -8.242  -9.173  1.00  0.00     0.002 A 
HETATM   26  C12 UNL     1     -24.057  -8.872  -8.101  1.00  0.00     0.012 A 
ENDBRANCH  16  23
ENDBRANCH  11  12
ENDBRANCH  10  11
ENDBRANCH   4  10
BRANCH   1  27
HETATM   27  N1  UNL     1     -26.857  -2.674 -14.906  1.00  0.00    -0.230 N 
HETATM   28  C1  UNL     1     -25.564  -2.623 -14.305  1.00  0.00     0.165 C 
ATOM     29  H1  UNL     1     -27.011  -2.213 -15.803  1.00  0.00     0.177 HD
ENDBRANCH   1  27
BRANCH   7  30
HETATM   30  N7  UNL     1     -31.378  -2.808 -13.631  1.00  0.00    -0.217 N 
HETATM   31  C14 UNL     1     -31.509  -1.380 -13.589  1.00  0.00     0.143 C 
HETATM   32  C15 UNL     1     -32.454  -0.898 -14.648  1.00  0.00     0.058 C 
HETATM   33  C16 UNL     1     -33.634  -1.776 -14.838  1.00  0.00     0.123 C 
HETATM   34  C17 UNL     1     -33.593  -2.289 -16.278  1.00  0.00     0.046 C 
HETATM   35  C18 UNL     1     -33.808  -2.889 -13.866  1.00  0.00     0.058 C 
HETATM   36  C19 UNL     1     -32.536  -3.671 -13.623  1.00  0.00     0.143 C 
BRANCH  33  37
HETATM   37  N8  UNL     1     -34.870  -0.975 -14.772  1.00  0.00    -0.071 N 
ATOM     38  H83 UNL     1     -34.708   0.001 -15.017  1.00  0.00     0.275 HD
ATOM     39  H82 UNL     1     -35.520  -1.210 -15.522  1.00  0.00     0.275 HD
ATOM     40  H81 UNL     1     -35.297  -1.073 -13.850  1.00  0.00     0.275 HD
ENDBRANCH  33  37
ENDBRANCH   7  30
TORSDOF 8
ENDMDL
MODEL 3
REMARK VINA RESULT: -6.023031381      1.937      6.462
REMARK  8 active torsions:
REMARK  status: ('A' for Active; 'I' for Inactive)
REMARK    1  A    between atoms: N1_2  and  C2_4 
REMARK    2  A    between atoms: C3_7  and  S1_8 
REMARK    3  A    between atoms: S1_8  and  C4_9 
REMARK    4  A    between atoms: C4_9  and  C5_10 
REMARK    5  A    between atoms: C7_12  and  N3_13 
REMARK    6  A    between atoms: C8_18  and  C9_19 
REMARK    7  A    between atoms: C13_27  and  N7_28 
REMARK    8  A    between atoms: C16_31  and  N8_33 
ROOT
HETATM    1  C2  UNL     1     -28.993  -7.081 -12.625  1.00  0.00     0.694 A 
HETATM    2  N2  UNL     1     -27.813  -7.649 -12.920  1.00  0.00    -0.169 N 
ATOM      3  H2  UNL     1     -27.016  -7.049 -13.133  1.00  0.00     0.186 HD
HETATM    4  C3  UNL     1     -27.646  -8.978 -12.943  1.00  0.00     0.174 A 
HETATM    5  N6  UNL     1     -28.733  -9.744 -12.654  1.00  0.00    -0.169 N 
ATOM      6  H6  UNL     1     -28.626 -10.759 -12.667  1.00  0.00     0.186 HD
HETATM    7  C13 UNL     1     -29.935  -9.239 -12.353  1.00  0.00     0.696 A 
HETATM    8  N9  UNL     1     -30.029  -7.898 -12.349  1.00  0.00    -0.022 N 
ATOM      9  H9  UNL     1     -30.931  -7.477 -12.125  1.00  0.00     0.203 HD
ENDROOT
BRANCH   4  10
HETATM   10  S1  UNL     1     -26.145  -9.803 -13.340  1.00  0.00    -0.087 SA
BRANCH  10  11
HETATM   11  C4  UNL     1     -25.276 -10.562 -11.985  1.00  0.00     0.139 C 
BRANCH  11  12
HETATM   12  C5  UNL     1     -25.146  -9.733 -10.777  1.00  0.00     0.023 A 
HETATM   13  C6  UNL     1     -23.948  -9.259 -10.369  1.00  0.00     0.073 A 
HETATM   14  C7  UNL     1     -23.883  -8.465  -9.227  1.00  0.00     0.101 A 
HETATM   15  N4  UNL     1     -24.996  -8.165  -8.527  1.00  0.00    -0.332 N 
HETATM   16  C8  UNL     1     -26.167  -8.632  -8.928  1.00  0.00     0.087 A 
ATOM     17  H4  UNL     1     -24.936  -7.582  -7.692  1.00  0.00     0.168 HD
HETATM   18  N5  UNL     1     -26.237  -9.395 -10.023  1.00  0.00    -0.348 N 
ATOM     19  H5  UNL     1     -27.151  -9.743 -10.312  1.00  0.00     0.167 HD
BRANCH  14  20
HETATM   20  N3  UNL     1     -22.737  -8.022  -8.853  1.00  0.00    -0.385 N 
ATOM     21  H32 UNL     1     -21.946  -8.021  -9.497  1.00  0.00     0.157 HD
ATOM     22  H31 UNL     1     -22.638  -7.673  -7.899  1.00  0.00     0.157 HD
ENDBRANCH  14  20
BRANCH  16  23
HETATM   23  C9  UNL     1     -27.415  -8.326  -8.185  1.00  0.00     0.053 A 
HETATM   24  C10 UNL     1     -27.152  -7.352  -7.051  1.00  0.00     0.012 A 
HETATM   25  C11 UNL     1     -27.995  -6.313  -7.720  1.00  0.00     0.002 A 
HETATM   26  C12 UNL     1     -28.316  -7.314  -8.808  1.00  0.00     0.012 A 
ENDBRANCH  16  23
ENDBRANCH  11  12
ENDBRANCH  10  11
ENDBRANCH   4  10
BRANCH   1  27
HETATM   27  N1  UNL     1     -29.102  -5.809 -12.626  1.00  0.00    -0.230 N 
HETATM   28  C1  UNL     1     -28.476  -5.016 -13.633  1.00  0.00     0.165 C 
ATOM     29  H1  UNL     1     -29.646  -5.352 -11.894  1.00  0.00     0.177 HD
ENDBRANCH   1  27
BRANCH   7  30
HETATM   30  N7  UNL     1     -31.057 -10.045 -12.055  1.00  0.00    -0.217 N 
HETATM   31  C14 UNL     1     -31.364 -10.378 -10.693  1.00  0.00     0.143 C 
HETATM   32  C15 UNL     1     -32.795 -10.061 -10.375  1.00  0.00     0.058 C 
HETATM   33  C16 UNL     1     -33.735 -10.374 -11.478  1.00  0.00     0.123 C 
HETATM   34  C17 UNL     1     -34.403  -9.063 -11.894  1.00  0.00     0.046 C 
HETATM   35  C18 UNL     1     -33.178 -11.100 -12.651  1.00  0.00     0.058 C 
HETATM   36  C19 UNL     1     -31.874 -10.514 -13.148  1.00  0.00     0.143 C 
BRANCH  33  37
HETATM   37  N8  UNL     1     -34.844 -11.203 -10.970  1.00  0.00    -0.071 N 
ATOM     38  H83 UNL     1     -34.772 -12.171 -11.280  1.00  0.00     0.275 HD
ATOM     39  H82 UNL     1     -34.773 -11.363  -9.966  1.00  0.00     0.275 HD
ATOM     40  H81 UNL     1     -35.737 -10.782 -11.230  1.00  0.00     0.275 HD
ENDBRANCH  33  37
ENDBRANCH   7  30
TORSDOF 8
ENDMDL
MODEL 4
REMARK VINA RESULT: -6.022227160      4.201      6.717
REMARK  8 active torsions:
REMARK  status: ('A' for Active; 'I' for Inactive)
REMARK    1  A    between atoms: N1_2  and  C2_4 
REMARK    2  A    between atoms: C3_7  and  S1_8 
REMARK    3  A    between atoms: S1_8  and  C4_9 
REMARK    4  A    between atoms: C4_9  and  C5_10 
REMARK    5  A    between atoms: C7_12  and  N3_13 
REMARK    6  A    between atoms: C8_18  and  C9_19 
REMARK    7  A    between atoms: C13_27  and  N7_28 
REMARK    8  A    between atoms: C16_31  and  N8_33 
ROOT
HETATM    1  C2  UNL     1     -30.629  -5.867 -12.282  1.00  0.00     0.694 A 
HETATM    2  N2  UNL     1     -31.432  -6.935 -12.417  1.00  0.00    -0.169 N 
ATOM      3  H2  UNL     1     -32.253  -6.861 -13.017  1.00  0.00     0.186 HD
HETATM    4  C3  UNL     1     -31.191  -8.093 -11.789  1.00  0.00     0.174 A 
HETATM    5  N6  UNL     1     -30.086  -8.150 -10.997  1.00  0.00    -0.169 N 
ATOM      6  H6  UNL     1     -29.886  -9.025 -10.511  1.00  0.00     0.186 HD
HETATM    7  C13 UNL     1     -29.247  -7.123 -10.822  1.00  0.00     0.696 A 
HETATM    8  N9  UNL     1     -29.552  -5.991 -11.482  1.00  0.00    -0.022 N 
ATOM      9  H9  UNL     1     -28.935  -5.186 -11.371  1.00  0.00     0.203 HD
ENDROOT
BRANCH   4  10
HETATM   10  S1  UNL     1     -32.200  -9.529 -11.893  1.00  0.00    -0.087 SA
BRANCH  10  11
HETATM   11  C4  UNL     1     -32.934 -10.093 -10.373  1.00  0.00     0.139 C 
BRANCH  11  12
HETATM   12  C5  UNL     1     -34.404 -10.073 -10.338  1.00  0.00     0.023 A 
HETATM   13  C6  UNL     1     -35.130  -9.560 -11.355  1.00  0.00     0.073 A 
HETATM   14  C7  UNL     1     -36.520  -9.581 -11.279  1.00  0.00     0.101 A 
HETATM   15  N4  UNL     1     -37.147 -10.106 -10.206  1.00  0.00    -0.332 N 
HETATM   16  C8  UNL     1     -36.434 -10.607  -9.211  1.00  0.00     0.087 A 
ATOM     17  H4  UNL     1     -38.167 -10.117 -10.162  1.00  0.00     0.168 HD
HETATM   18  N5  UNL     1     -35.099 -10.590  -9.277  1.00  0.00    -0.348 N 
ATOM     19  H5  UNL     1     -34.571 -10.982  -8.498  1.00  0.00     0.167 HD
BRANCH  14  20
HETATM   20  N3  UNL     1     -37.195  -9.090 -12.254  1.00  0.00    -0.385 N 
ATOM     21  H32 UNL     1     -36.839  -9.140 -13.209  1.00  0.00     0.157 HD
ATOM     22  H31 UNL     1     -38.093  -8.649 -12.051  1.00  0.00     0.157 HD
ENDBRANCH  14  20
BRANCH  16  23
HETATM   23  C9  UNL     1     -37.086 -11.193  -8.013  1.00  0.00     0.053 A 
HETATM   24  C10 UNL     1     -38.593 -11.252  -8.185  1.00  0.00     0.012 A 
HETATM   25  C11 UNL     1     -38.556 -12.748  -8.167  1.00  0.00     0.002 A 
HETATM   26  C12 UNL     1     -37.065 -12.680  -7.918  1.00  0.00     0.012 A 
ENDBRANCH  16  23
ENDBRANCH  11  12
ENDBRANCH  10  11
ENDBRANCH   4  10
BRANCH   1  27
HETATM   27  N1  UNL     1     -30.909  -4.782 -12.894  1.00  0.00    -0.230 N 
HETATM   28  C1  UNL     1     -32.087  -4.667 -13.689  1.00  0.00     0.165 C 
ATOM     29  H1  UNL     1     -30.279  -3.984 -12.813  1.00  0.00     0.177 HD
ENDBRANCH   1  27
BRANCH   7  30
HETATM   30  N7  UNL     1     -28.103  -7.193  -9.996  1.00  0.00    -0.217 N 
HETATM   31  C14 UNL     1     -28.087  -6.524  -8.727  1.00  0.00     0.143 C 
HETATM   32  C15 UNL     1     -27.672  -7.462  -7.633  1.00  0.00     0.058 C 
HETATM   33  C16 UNL     1     -26.590  -8.396  -8.028  1.00  0.00     0.123 C 
HETATM   34  C17 UNL     1     -27.144  -9.815  -7.901  1.00  0.00     0.046 C 
HETATM   35  C18 UNL     1     -25.958  -8.172  -9.356  1.00  0.00     0.058 C 
HETATM   36  C19 UNL     1     -26.966  -7.950 -10.463  1.00  0.00     0.143 C 
BRANCH  33  37
HETATM   37  N8  UNL     1     -25.497  -8.342  -7.039  1.00  0.00    -0.071 N 
ATOM     38  H83 UNL     1     -25.663  -8.966  -6.250  1.00  0.00     0.275 HD
ATOM     39  H82 UNL     1     -24.641  -8.773  -7.390  1.00  0.00     0.275 HD
ATOM     40  H81 UNL     1     -25.346  -7.378  -6.741  1.00  0.00     0.275 HD
ENDBRANCH  33  37
ENDBRANCH   7  30
TORSDOF 8
ENDMDL
MODEL 5
REMARK VINA RESULT: -6.002123482      2.313      6.288
REMARK  8 active torsions:
REMARK  status: ('A' for Active; 'I' for Inactive)
REMARK    1  A    between atoms: N1_2  and  C2_4 
REMARK    2  A    between atoms: C3_7  and  S1_8 
REMARK    3  A    between atoms: S1_8  and  C4_9 
REMARK    4  A    between atoms: C4_9  and  C5_10 
REMARK    5  A    between atoms: C7_12  and  N3_13 
REMARK    6  A    between atoms: C8_18  and  C9_19 
REMARK    7  A    between atoms: C13_27  and  N7_28 
REMARK    8  A    between atoms: C16_31  and  N8_33 
ROOT
HETATM    1  C2  UNL     1     -29.602 -12.028 -11.871  1.00  0.00     0.694 A 
HETATM    2  N2  UNL     1     -29.705 -10.702 -12.048  1.00  0.00    -0.169 N 
ATOM      3  H2  UNL     1     -30.634 -10.281 -12.092  1.00  0.00     0.186 HD
HETATM    4  C3  UNL     1     -28.631  -9.911 -12.169  1.00  0.00     0.174 A 
HETATM    5  N6  UNL     1     -27.410 -10.511 -12.106  1.00  0.00    -0.169 N 
ATOM      6  H6  UNL     1     -26.580  -9.925 -12.196  1.00  0.00     0.186 HD
HETATM    7  C13 UNL     1     -27.241 -11.826 -11.931  1.00  0.00     0.696 A 
HETATM    8  N9  UNL     1     -28.363 -12.558 -11.818  1.00  0.00    -0.022 N 
ATOM      9  H9  UNL     1     -28.273 -13.565 -11.685  1.00  0.00     0.203 HD
ENDROOT
BRANCH   4  10
HETATM   10  S1  UNL     1     -28.677  -8.173 -12.425  1.00  0.00    -0.087 SA
BRANCH  10  11
HETATM   11  C4  UNL     1     -29.130  -7.177 -11.022  1.00  0.00     0.139 C 
BRANCH  11  12
HETATM   12  C5  UNL     1     -28.257  -7.310  -9.846  1.00  0.00     0.023 A 
HETATM   13  C6  UNL     1     -28.554  -6.713  -8.671  1.00  0.00     0.073 A 
HETATM   14  C7  UNL     1     -27.701  -6.886  -7.584  1.00  0.00     0.101 A 
HETATM   15  N4  UNL     1     -26.587  -7.639  -7.690  1.00  0.00    -0.332 N 
HETATM   16  C8  UNL     1     -26.299  -8.222  -8.842  1.00  0.00     0.087 A 
ATOM     17  H4  UNL     1     -25.971  -7.759  -6.885  1.00  0.00     0.168 HD
HETATM   18  N5  UNL     1     -27.112  -8.061  -9.889  1.00  0.00    -0.348 N 
ATOM     19  H5  UNL     1     -26.868  -8.520 -10.766  1.00  0.00     0.167 HD
BRANCH  14  20
HETATM   20  N3  UNL     1     -27.998  -6.311  -6.475  1.00  0.00    -0.385 N 
ATOM     21  H32 UNL     1     -28.969  -6.095  -6.246  1.00  0.00     0.157 HD
ATOM     22  H31 UNL     1     -27.243  -6.078  -5.830  1.00  0.00     0.157 HD
ENDBRANCH  14  20
BRANCH  16  23
HETATM   23  C9  UNL     1     -25.082  -9.059  -8.999  1.00  0.00     0.053 A 
HETATM   24  C10 UNL     1     -24.212  -8.551 -10.134  1.00  0.00     0.012 A 
HETATM   25  C11 UNL     1     -23.125  -8.196  -9.169  1.00  0.00     0.002 A 
HETATM   26  C12 UNL     1     -23.966  -8.774  -8.053  1.00  0.00     0.012 A 
ENDBRANCH  16  23
ENDBRANCH  11  12
ENDBRANCH  10  11
ENDBRANCH   4  10
BRANCH   1  27
HETATM   27  N1  UNL     1     -30.657 -12.739 -11.772  1.00  0.00    -0.230 N 
HETATM   28  C1  UNL     1     -31.952 -12.165 -11.943  1.00  0.00     0.165 C 
ATOM     29  H1  UNL     1     -30.574 -13.735 -11.566  1.00  0.00     0.177 HD
ENDBRANCH   1  27
BRANCH   7  30
HETATM   30  N7  UNL     1     -25.969 -12.438 -11.868  1.00  0.00    -0.217 N 
HETATM   31  C14 UNL     1     -25.859 -13.856 -11.682  1.00  0.00     0.143 C 
HETATM   32  C15 UNL     1     -24.964 -14.464 -12.720  1.00  0.00     0.058 C 
HETATM   33  C16 UNL     1     -23.779 -13.634 -13.045  1.00  0.00     0.123 C 
HETATM   34  C17 UNL     1     -23.869 -13.272 -14.528  1.00  0.00     0.046 C 
HETATM   35  C18 UNL     1     -23.549 -12.430 -12.203  1.00  0.00     0.058 C 
HETATM   36  C19 UNL     1     -24.798 -11.602 -11.995  1.00  0.00     0.143 C 
BRANCH  33  37
HETATM   37  N8  UNL     1     -22.554 -14.448 -12.943  1.00  0.00    -0.071 N 
ATOM     38  H83 UNL     1     -22.759 -15.445 -12.894  1.00  0.00     0.275 HD
ATOM     39  H82 UNL     1     -22.020 -14.449 -13.812  1.00  0.00     0.275 HD
ATOM     40  H81 UNL     1     -21.994 -14.132 -12.150  1.00  0.00     0.275 HD
ENDBRANCH  33  37
ENDBRANCH   7  30
TORSDOF 8
ENDMDL
