MODEL 1
REMARK VINA RESULT: -6.200598199      0.000      0.000
REMARK  7 active torsions:
REMARK  status: ('A' for Active; 'I' for Inactive)
REMARK    1  A    between atoms: C2_2  and  N1_4 
REMARK    2  A    between atoms: N1_4  and  C4_6 
REMARK    3  A    between atoms: C5_9  and  N3_10 
REMARK    4  A    between atoms: N3_10  and  C6_12 
REMARK    5  A    between atoms: C7_15  and  N5_16 
REMARK    6  A    between atoms: C14_29  and  N8_30 
REMARK    7  A    between atoms: N8_30  and  N9_32 
ROOT
HETATM    1  C4  UNL     1     -31.704  -8.519 -12.459  1.00  0.00     0.681 A 
HETATM    2  N2  UNL     1     -30.734  -9.428 -12.567  1.00  0.00    -0.177 N 
ATOM      3  H2  UNL     1     -29.981  -9.275 -13.238  1.00  0.00     0.186 HD
HETATM    4  C5  UNL     1     -30.725 -10.541 -11.814  1.00  0.00     0.126 A 
HETATM    5  C13 UNL     1     -31.728 -10.771 -10.902  1.00  0.00     0.099 A 
HETATM    6  C14 UNL     1     -32.722  -9.813 -10.808  1.00  0.00     0.135 A 
HETATM    7  N10 UNL     1     -32.707  -8.708 -11.575  1.00  0.00    -0.176 N 
ATOM      8  H10 UNL     1     -33.451  -8.016 -11.489  1.00  0.00     0.186 HD
ENDROOT
BRANCH   4   9
HETATM    9  N3  UNL     1     -29.682 -11.477 -11.959  1.00  0.00    -0.321 N 
ATOM     10  H3  UNL     1     -29.881 -12.393 -12.361  1.00  0.00     0.169 HD
BRANCH   9  11
HETATM   11  C6  UNL     1     -28.453 -11.183 -11.581  1.00  0.00     0.182 A 
HETATM   12  N4  UNL     1     -28.012 -10.093 -11.000  1.00  0.00    -0.168 N 
HETATM   13  C7  UNL     1     -26.741  -9.978 -10.695  1.00  0.00     0.690 A 
ATOM     14  H4  UNL     1     -28.657  -9.333 -10.786  1.00  0.00     0.186 HD
HETATM   15  N7  UNL     1     -25.954 -11.016 -11.008  1.00  0.00    -0.157 N 
HETATM   16  S1  UNL     1     -27.029 -12.109 -11.717  1.00  0.00     0.039 SA
ATOM     17  H7  UNL     1     -24.951 -11.120 -10.856  1.00  0.00     0.193 HD
BRANCH  13  18
HETATM   18  N5  UNL     1     -26.234  -8.796 -10.048  1.00  0.00    -0.193 N 
HETATM   19  C8  UNL     1     -27.065  -7.611 -10.002  1.00  0.00     0.143 C 
HETATM   20  C9  UNL     1     -27.421  -7.236  -8.577  1.00  0.00     0.022 C 
HETATM   21  C10 UNL     1     -27.096  -8.362  -7.614  1.00  0.00     0.029 C 
HETATM   22  C11 UNL     1     -25.621  -8.260  -7.294  1.00  0.00     0.234 C 
HETATM   23  N6  UNL     1     -24.938  -9.267  -8.086  1.00  0.00    -0.059 N 
HETATM   24  C12 UNL     1     -24.919  -8.907  -9.493  1.00  0.00     0.373 C 
ATOM     25  H62 UNL     1     -23.999  -9.448  -7.733  1.00  0.00     0.279 HD
ATOM     26  H61 UNL     1     -25.341 -10.193  -7.943  1.00  0.00     0.279 HD
ENDBRANCH  13  18
ENDBRANCH   9  11
ENDBRANCH   4   9
BRANCH   1  27
HETATM   27  N1  UNL     1     -31.684  -7.467 -13.193  1.00  0.00    -0.222 N 
ATOM     28  H1  UNL     1     -31.851  -7.534 -14.197  1.00  0.00     0.178 HD
BRANCH  27  29
HETATM   29  C2  UNL     1     -31.422  -6.187 -12.579  1.00  0.00     0.091 C 
HETATM   30  C1  UNL     1     -29.993  -6.075 -12.103  1.00  0.00     0.032 C 
HETATM   31  C3  UNL     1     -31.743  -5.108 -13.595  1.00  0.00     0.032 C 
ENDBRANCH  27  29
ENDBRANCH   1  27
BRANCH   6  32
HETATM   32  N8  UNL     1     -33.774 -10.034  -9.865  1.00  0.00    -0.304 N 
ATOM     33  H8  UNL     1     -33.736  -9.587  -8.949  1.00  0.00     0.182 HD
BRANCH  32  34
HETATM   34  N9  UNL     1     -34.861 -10.865 -10.195  1.00  0.00    -0.230 NA
HETATM   35  C15 UNL     1     -35.970 -10.613  -9.317  1.00  0.00     0.113 C 
HETATM   36  C16 UNL     1     -37.105 -10.079 -10.131  1.00  0.00     0.017 C 
HETATM   37  C17 UNL     1     -36.447  -9.643 -11.415  1.00  0.00     0.017 C 
HETATM   38  C18 UNL     1     -35.319 -10.664 -11.541  1.00  0.00     0.113 C 
ENDBRANCH  32  34
ENDBRANCH   6  32
TORSDOF 7
ENDMDL
MODEL 2
REMARK VINA RESULT: -6.075530532      4.896      7.917
REMARK  7 active torsions:
REMARK  status: ('A' for Active; 'I' for Inactive)
REMARK    1  A    between atoms: C2_2  and  N1_4 
REMARK    2  A    between atoms: N1_4  and  C4_6 
REMARK    3  A    between atoms: C5_9  and  N3_10 
REMARK    4  A    between atoms: N3_10  and  C6_12 
REMARK    5  A    between atoms: C7_15  and  N5_16 
REMARK    6  A    between atoms: C14_29  and  N8_30 
REMARK    7  A    between atoms: N8_30  and  N9_32 
ROOT
HETATM    1  C4  UNL     1     -30.418  -7.676 -11.692  1.00  0.00     0.681 A 
HETATM    2  N2  UNL     1     -30.163  -6.987 -12.804  1.00  0.00    -0.177 N 
ATOM      3  H2  UNL     1     -30.884  -6.914 -13.521  1.00  0.00     0.186 HD
HETATM    4  C5  UNL     1     -28.978  -6.386 -13.004  1.00  0.00     0.126 A 
HETATM    5  C13 UNL     1     -27.988  -6.468 -12.054  1.00  0.00     0.099 A 
HETATM    6  C14 UNL     1     -28.277  -7.189 -10.909  1.00  0.00     0.135 A 
HETATM    7  N10 UNL     1     -29.471  -7.781 -10.734  1.00  0.00    -0.176 N 
ATOM      8  H10 UNL     1     -29.662  -8.308  -9.882  1.00  0.00     0.186 HD
ENDROOT
BRANCH   4   9
HETATM    9  N3  UNL     1     -28.748  -5.667 -14.194  1.00  0.00    -0.321 N 
ATOM     10  H3  UNL     1     -28.899  -6.123 -15.094  1.00  0.00     0.169 HD
BRANCH   9  11
HETATM   11  C6  UNL     1     -28.340  -4.414 -14.158  1.00  0.00     0.182 A 
HETATM   12  N4  UNL     1     -27.176  -3.920 -14.507  1.00  0.00    -0.168 N 
HETATM   13  C7  UNL     1     -26.950  -2.632 -14.401  1.00  0.00     0.690 A 
ATOM     14  H4  UNL     1     -26.446  -4.537 -14.861  1.00  0.00     0.186 HD
HETATM   15  N7  UNL     1     -27.954  -1.884 -13.927  1.00  0.00    -0.157 N 
HETATM   16  S1  UNL     1     -29.176  -3.017 -13.651  1.00  0.00     0.039 SA
ATOM     17  H7  UNL     1     -27.977  -0.876 -13.772  1.00  0.00     0.193 HD
BRANCH  13  18
HETATM   18  N5  UNL     1     -25.683  -2.064 -14.787  1.00  0.00    -0.193 N 
HETATM   19  C8  UNL     1     -25.664  -0.992 -15.761  1.00  0.00     0.143 C 
HETATM   20  C9  UNL     1     -25.123   0.291 -15.165  1.00  0.00     0.022 C 
HETATM   21  C10 UNL     1     -25.054   0.210 -13.651  1.00  0.00     0.029 C 
HETATM   22  C11 UNL     1     -23.773  -0.515 -13.303  1.00  0.00     0.234 C 
HETATM   23  N6  UNL     1     -24.130  -1.883 -12.969  1.00  0.00    -0.059 N 
HETATM   24  C12 UNL     1     -24.531  -2.626 -14.151  1.00  0.00     0.373 C 
ATOM     25  H62 UNL     1     -23.378  -2.354 -12.468  1.00  0.00     0.279 HD
ATOM     26  H61 UNL     1     -24.847  -1.917 -12.245  1.00  0.00     0.279 HD
ENDBRANCH  13  18
ENDBRANCH   9  11
ENDBRANCH   4   9
BRANCH   1  27
HETATM   27  N1  UNL     1     -31.560  -8.239 -11.531  1.00  0.00    -0.222 N 
ATOM     28  H1  UNL     1     -32.413  -7.773 -11.840  1.00  0.00     0.178 HD
BRANCH  27  29
HETATM   29  C2  UNL     1     -31.622  -9.539 -10.907  1.00  0.00     0.091 C 
HETATM   30  C1  UNL     1     -32.936  -9.757 -10.194  1.00  0.00     0.032 C 
HETATM   31  C3  UNL     1     -31.407 -10.584 -11.984  1.00  0.00     0.032 C 
ENDBRANCH  27  29
ENDBRANCH   1  27
BRANCH   6  32
HETATM   32  N8  UNL     1     -27.261  -7.286  -9.907  1.00  0.00    -0.304 N 
ATOM     33  H8  UNL     1     -26.995  -6.460  -9.371  1.00  0.00     0.182 HD
BRANCH  32  34
HETATM   34  N9  UNL     1     -26.624  -8.517  -9.659  1.00  0.00    -0.230 NA
HETATM   35  C15 UNL     1     -25.230  -8.440 -10.002  1.00  0.00     0.113 C 
HETATM   36  C16 UNL     1     -24.427  -8.632  -8.755  1.00  0.00     0.017 C 
HETATM   37  C17 UNL     1     -25.423  -8.393  -7.650  1.00  0.00     0.017 C 
HETATM   38  C18 UNL     1     -26.711  -8.914  -8.282  1.00  0.00     0.113 C 
ENDBRANCH  32  34
ENDBRANCH   6  32
TORSDOF 7
ENDMDL
MODEL 3
REMARK VINA RESULT: -6.068672892      1.274      4.446
REMARK  7 active torsions:
REMARK  status: ('A' for Active; 'I' for Inactive)
REMARK    1  A    between atoms: C2_2  and  N1_4 
REMARK    2  A    between atoms: N1_4  and  C4_6 
REMARK    3  A    between atoms: C5_9  and  N3_10 
REMARK    4  A    between atoms: N3_10  and  C6_12 
REMARK    5  A    between atoms: C7_15  and  N5_16 
REMARK    6  A    between atoms: C14_29  and  N8_30 
REMARK    7  A    between atoms: N8_30  and  N9_32 
ROOT
HETATM    1  C4  UNL     1     -34.223 -10.329 -11.017  1.00  0.00     0.681 A 
HETATM    2  N2  UNL     1     -33.045 -10.876 -10.715  1.00  0.00    -0.177 N 
ATOM      3  H2  UNL     1     -33.022 -11.739 -10.172  1.00  0.00     0.186 HD
HETATM    4  C5  UNL     1     -31.888 -10.318 -11.106  1.00  0.00     0.126 A 
HETATM    5  C13 UNL     1     -31.891  -9.154 -11.838  1.00  0.00     0.099 A 
HETATM    6  C14 UNL     1     -33.125  -8.606 -12.139  1.00  0.00     0.135 A 
HETATM    7  N10 UNL     1     -34.269  -9.186 -11.734  1.00  0.00    -0.176 N 
ATOM      8  H10 UNL     1     -35.168  -8.764 -11.968  1.00  0.00     0.186 HD
ENDROOT
BRANCH   4   9
HETATM    9  N3  UNL     1     -30.665 -10.927 -10.765  1.00  0.00    -0.321 N 
ATOM     10  H3  UNL     1     -30.666 -11.847 -10.325  1.00  0.00     0.169 HD
BRANCH   9  11
HETATM   11  C6  UNL     1     -29.518 -10.323 -11.008  1.00  0.00     0.182 A 
HETATM   12  N4  UNL     1     -28.854  -9.485 -10.247  1.00  0.00    -0.168 N 
HETATM   13  C7  UNL     1     -27.717  -8.980 -10.661  1.00  0.00     0.690 A 
ATOM     14  H4  UNL     1     -29.223  -9.227  -9.332  1.00  0.00     0.186 HD
HETATM   15  N7  UNL     1     -27.296  -9.365 -11.873  1.00  0.00    -0.157 N 
HETATM   16  S1  UNL     1     -28.513 -10.420 -12.382  1.00  0.00     0.039 SA
ATOM     17  H7  UNL     1     -26.448  -9.088 -12.367  1.00  0.00     0.193 HD
BRANCH  13  18
HETATM   18  N5  UNL     1     -26.964  -8.067  -9.839  1.00  0.00    -0.193 N 
HETATM   19  C8  UNL     1     -27.674  -7.050  -9.092  1.00  0.00     0.143 C 
HETATM   20  C9  UNL     1     -27.504  -7.237  -7.598  1.00  0.00     0.022 C 
HETATM   21  C10 UNL     1     -26.921  -8.600  -7.276  1.00  0.00     0.029 C 
HETATM   22  C11 UNL     1     -25.423  -8.496  -7.455  1.00  0.00     0.234 C 
HETATM   23  N6  UNL     1     -25.100  -9.095  -8.738  1.00  0.00    -0.059 N 
HETATM   24  C12 UNL     1     -25.546  -8.258  -9.837  1.00  0.00     0.373 C 
ATOM     25  H62 UNL     1     -24.105  -9.310  -8.810  1.00  0.00     0.279 HD
ATOM     26  H61 UNL     1     -25.471 -10.041  -8.814  1.00  0.00     0.279 HD
ENDBRANCH  13  18
ENDBRANCH   9  11
ENDBRANCH   4   9
BRANCH   1  27
HETATM   27  N1  UNL     1     -35.311 -10.888 -10.628  1.00  0.00    -0.222 N 
ATOM     28  H1  UNL     1     -35.617 -11.768 -11.041  1.00  0.00     0.178 HD
BRANCH  27  29
HETATM   29  C2  UNL     1     -36.097 -10.253  -9.597  1.00  0.00     0.091 C 
HETATM   30  C1  UNL     1     -37.423  -9.758 -10.126  1.00  0.00     0.032 C 
HETATM   31  C3  UNL     1     -36.298 -11.257  -8.479  1.00  0.00     0.032 C 
ENDBRANCH  27  29
ENDBRANCH   1  27
BRANCH   6  32
HETATM   32  N8  UNL     1     -33.150  -7.396 -12.901  1.00  0.00    -0.304 N 
ATOM     33  H8  UNL     1     -34.016  -6.863 -12.980  1.00  0.00     0.182 HD
BRANCH  32  34
HETATM   34  N9  UNL     1     -31.984  -6.937 -13.543  1.00  0.00    -0.230 NA
HETATM   35  C15 UNL     1     -32.269  -6.579 -14.906  1.00  0.00     0.113 C 
HETATM   36  C16 UNL     1     -32.027  -5.112 -15.068  1.00  0.00     0.017 C 
HETATM   37  C17 UNL     1     -32.011  -4.596 -13.652  1.00  0.00     0.017 C 
HETATM   38  C18 UNL     1     -31.418  -5.785 -12.901  1.00  0.00     0.113 C 
ENDBRANCH  32  34
ENDBRANCH   6  32
TORSDOF 7
ENDMDL
MODEL 4
REMARK VINA RESULT: -6.023625579      2.610      7.190
REMARK  7 active torsions:
REMARK  status: ('A' for Active; 'I' for Inactive)
REMARK    1  A    between atoms: C2_2  and  N1_4 
REMARK    2  A    between atoms: N1_4  and  C4_6 
REMARK    3  A    between atoms: C5_9  and  N3_10 
REMARK    4  A    between atoms: N3_10  and  C6_12 
REMARK    5  A    between atoms: C7_15  and  N5_16 
REMARK    6  A    between atoms: C14_29  and  N8_30 
REMARK    7  A    between atoms: N8_30  and  N9_32 
ROOT
HETATM    1  C4  UNL     1     -26.709 -11.629 -11.593  1.00  0.00     0.681 A 
HETATM    2  N2  UNL     1     -28.032 -11.728 -11.726  1.00  0.00    -0.177 N 
ATOM      3  H2  UNL     1     -28.415 -12.216 -12.536  1.00  0.00     0.186 HD
HETATM    4  C5  UNL     1     -28.873 -11.203 -10.820  1.00  0.00     0.126 A 
HETATM    5  C13 UNL     1     -28.383 -10.541  -9.719  1.00  0.00     0.099 A 
HETATM    6  C14 UNL     1     -27.007 -10.450  -9.604  1.00  0.00     0.135 A 
HETATM    7  N10 UNL     1     -26.187 -10.986 -10.526  1.00  0.00    -0.176 N 
ATOM      8  H10 UNL     1     -25.176 -10.906 -10.420  1.00  0.00     0.186 HD
ENDROOT
BRANCH   4   9
HETATM    9  N3  UNL     1     -30.264 -11.330 -10.998  1.00  0.00    -0.321 N 
ATOM     10  H3  UNL     1     -30.700 -12.248 -10.918  1.00  0.00     0.169 HD
BRANCH   9  11
HETATM   11  C6  UNL     1     -31.010 -10.276 -11.269  1.00  0.00     0.182 A 
HETATM   12  N4  UNL     1     -30.633  -9.087 -11.677  1.00  0.00    -0.168 N 
HETATM   13  C7  UNL     1     -31.528  -8.154 -11.897  1.00  0.00     0.690 A 
ATOM     14  H4  UNL     1     -29.644  -8.889 -11.824  1.00  0.00     0.186 HD
HETATM   15  N7  UNL     1     -32.807  -8.486 -11.682  1.00  0.00    -0.157 N 
HETATM   16  S1  UNL     1     -32.703 -10.096 -11.180  1.00  0.00     0.039 SA
ATOM     17  H7  UNL     1     -33.640  -7.909 -11.793  1.00  0.00     0.193 HD
BRANCH  13  18
HETATM   18  N5  UNL     1     -31.140  -6.844 -12.356  1.00  0.00    -0.193 N 
HETATM   19  C8  UNL     1     -29.974  -6.214 -11.773  1.00  0.00     0.143 C 
HETATM   20  C9  UNL     1     -28.887  -5.993 -12.805  1.00  0.00     0.022 C 
HETATM   21  C10 UNL     1     -29.169  -6.769 -14.078  1.00  0.00     0.029 C 
HETATM   22  C11 UNL     1     -30.141  -5.946 -14.894  1.00  0.00     0.234 C 
HETATM   23  N6  UNL     1     -31.459  -6.530 -14.711  1.00  0.00    -0.059 N 
HETATM   24  C12 UNL     1     -31.967  -6.273 -13.375  1.00  0.00     0.373 C 
ATOM     25  H62 UNL     1     -32.111  -6.212 -15.428  1.00  0.00     0.279 HD
ATOM     26  H61 UNL     1     -31.460  -7.526 -14.927  1.00  0.00     0.279 HD
ENDBRANCH  13  18
ENDBRANCH   9  11
ENDBRANCH   4   9
BRANCH   1  27
HETATM   27  N1  UNL     1     -25.933 -12.142 -12.477  1.00  0.00    -0.222 N 
ATOM     28  H1  UNL     1     -26.271 -12.877 -13.097  1.00  0.00     0.178 HD
BRANCH  27  29
HETATM   29  C2  UNL     1     -24.574 -11.665 -12.581  1.00  0.00     0.091 C 
HETATM   30  C1  UNL     1     -23.574 -12.736 -12.212  1.00  0.00     0.032 C 
HETATM   31  C3  UNL     1     -24.357 -11.184 -14.002  1.00  0.00     0.032 C 
ENDBRANCH  27  29
ENDBRANCH   1  27
BRANCH   6  32
HETATM   32  N8  UNL     1     -26.476  -9.767  -8.465  1.00  0.00    -0.304 N 
ATOM     33  H8  UNL     1     -26.340 -10.270  -7.589  1.00  0.00     0.182 HD
BRANCH  32  34
HETATM   34  N9  UNL     1     -26.142  -8.401  -8.549  1.00  0.00    -0.230 NA
HETATM   35  C15 UNL     1     -27.025  -7.723  -9.458  1.00  0.00     0.113 C 
HETATM   36  C16 UNL     1     -27.808  -6.709  -8.687  1.00  0.00     0.017 C 
HETATM   37  C17 UNL     1     -27.636  -7.143  -7.254  1.00  0.00     0.017 C 
HETATM   38  C18 UNL     1     -26.230  -7.734  -7.281  1.00  0.00     0.113 C 
ENDBRANCH  32  34
ENDBRANCH   6  32
TORSDOF 7
ENDMDL
MODEL 5
REMARK VINA RESULT: -5.951568714      2.552      7.185
REMARK  7 active torsions:
REMARK  status: ('A' for Active; 'I' for Inactive)
REMARK    1  A    between atoms: C2_2  and  N1_4 
REMARK    2  A    between atoms: N1_4  and  C4_6 
REMARK    3  A    between atoms: C5_9  and  N3_10 
REMARK    4  A    between atoms: N3_10  and  C6_12 
REMARK    5  A    between atoms: C7_15  and  N5_16 
REMARK    6  A    between atoms: C14_29  and  N8_30 
REMARK    7  A    between atoms: N8_30  and  N9_32 
ROOT
HETATM    1  C4  UNL     1     -26.770 -11.641 -11.458  1.00  0.00     0.681 A 
HETATM    2  N2  UNL     1     -28.078 -11.797 -11.663  1.00  0.00    -0.177 N 
ATOM      3  H2  UNL     1     -28.395 -12.317 -12.481  1.00  0.00     0.186 HD
HETATM    4  C5  UNL     1     -28.990 -11.287 -10.818  1.00  0.00     0.126 A 
HETATM    5  C13 UNL     1     -28.590 -10.582  -9.708  1.00  0.00     0.099 A 
HETATM    6  C14 UNL     1     -27.227 -10.433  -9.517  1.00  0.00     0.135 A 
HETATM    7  N10 UNL     1     -26.336 -10.955 -10.378  1.00  0.00    -0.176 N 
ATOM      8  H10 UNL     1     -25.336 -10.832 -10.217  1.00  0.00     0.186 HD
ENDROOT
BRANCH   4   9
HETATM    9  N3  UNL     1     -30.363 -11.474 -11.072  1.00  0.00    -0.321 N 
ATOM     10  H3  UNL     1     -30.763 -12.410 -11.011  1.00  0.00     0.169 HD
BRANCH   9  11
HETATM   11  C6  UNL     1     -31.136 -10.454 -11.388  1.00  0.00     0.182 A 
HETATM   12  N4  UNL     1     -31.015  -9.609 -12.384  1.00  0.00    -0.168 N 
HETATM   13  C7  UNL     1     -31.892  -8.647 -12.542  1.00  0.00     0.690 A 
ATOM     14  H4  UNL     1     -30.238  -9.702 -13.038  1.00  0.00     0.186 HD
HETATM   15  N7  UNL     1     -32.884  -8.588 -11.644  1.00  0.00    -0.157 N 
HETATM   16  S1  UNL     1     -32.547  -9.886 -10.617  1.00  0.00     0.039 SA
ATOM     17  H7  UNL     1     -33.655  -7.922 -11.594  1.00  0.00     0.193 HD
BRANCH  13  18
HETATM   18  N5  UNL     1     -31.786  -7.713 -13.634  1.00  0.00    -0.193 N 
HETATM   19  C8  UNL     1     -32.831  -6.727 -13.816  1.00  0.00     0.143 C 
HETATM   20  C9  UNL     1     -32.302  -5.318 -13.645  1.00  0.00     0.022 C 
HETATM   21  C10 UNL     1     -30.921  -5.320 -13.016  1.00  0.00     0.029 C 
HETATM   22  C11 UNL     1     -29.928  -5.580 -14.126  1.00  0.00     0.234 C 
HETATM   23  N6  UNL     1     -29.541  -6.977 -14.040  1.00  0.00    -0.059 N 
HETATM   24  C12 UNL     1     -30.623  -7.850 -14.457  1.00  0.00     0.373 C 
ATOM     25  H62 UNL     1     -28.686  -7.162 -14.565  1.00  0.00     0.279 HD
ATOM     26  H61 UNL     1     -29.206  -7.216 -13.106  1.00  0.00     0.279 HD
ENDBRANCH  13  18
ENDBRANCH   9  11
ENDBRANCH   4   9
BRANCH   1  27
HETATM   27  N1  UNL     1     -25.925 -12.142 -12.283  1.00  0.00    -0.222 N 
ATOM     28  H1  UNL     1     -26.114 -13.033 -12.741  1.00  0.00     0.178 HD
BRANCH  27  29
HETATM   29  C2  UNL     1     -24.701 -11.427 -12.556  1.00  0.00     0.091 C 
HETATM   30  C1  UNL     1     -23.482 -12.285 -12.310  1.00  0.00     0.032 C 
HETATM   31  C3  UNL     1     -24.750 -10.950 -13.995  1.00  0.00     0.032 C 
ENDBRANCH  27  29
ENDBRANCH   1  27
BRANCH   6  32
HETATM   32  N8  UNL     1     -26.791  -9.704  -8.367  1.00  0.00    -0.304 N 
ATOM     33  H8  UNL     1     -26.780 -10.156  -7.452  1.00  0.00     0.182 HD
BRANCH  32  34
HETATM   34  N9  UNL     1     -26.375  -8.365  -8.491  1.00  0.00    -0.230 NA
HETATM   35  C15 UNL     1     -27.264  -7.642  -9.358  1.00  0.00     0.113 C 
HETATM   36  C16 UNL     1     -27.934  -6.569  -8.559  1.00  0.00     0.017 C 
HETATM   37  C17 UNL     1     -27.707  -6.996  -7.131  1.00  0.00     0.017 C 
HETATM   38  C18 UNL     1     -26.345  -7.679  -7.230  1.00  0.00     0.113 C 
ENDBRANCH  32  34
ENDBRANCH   6  32
TORSDOF 7
ENDMDL
