MODEL 1
REMARK VINA RESULT: -8.350254612      0.000      0.000
REMARK  10 active torsions:
REMARK  status: ('A' for Active; 'I' for Inactive)
REMARK    1  A    between atoms: C2_2  and  C3_3 
REMARK    2  A    between atoms: C3_3  and  C5_5 
REMARK    3  A    between atoms: C15_17  and  N1_19 
REMARK       I    between atoms: N1_19  and  C17_21 
REMARK    4  A    between atoms: C17_21  and  C18_23 
REMARK    5  A    between atoms: C21_26  and  C22_27 
REMARK    6  A    between atoms: C22_27  and  C23_28 
REMARK    7  A    between atoms: C25_34  and  C26_35 
REMARK    8  A    between atoms: C26_35  and  O5_36 
REMARK    9  A    between atoms: C26_35  and  O6_38 
REMARK   10  A    between atoms: C28_40  and  O7_41 
ROOT
HETATM    1  C5  UNL     1      18.152  11.150  10.286  1.00  0.00     0.120 C 
HETATM    2  C6  UNL     1      18.603   9.898  11.094  1.00  0.00     0.266 C 
HETATM    3  O1  UNL     1      19.879   9.887  11.288  1.00  0.00    -0.265 OA
HETATM    4  O2  UNL     1      17.842   8.931  11.559  1.00  0.00    -0.317 OA
HETATM    5  C7  UNL     1      17.286   7.731  11.220  1.00  0.00     0.206 C 
HETATM    6  C8  UNL     1      17.010   6.771  12.315  1.00  0.00    -0.004 C 
HETATM    7  C9  UNL     1      15.955   6.754  13.112  1.00  0.00    -0.029 C 
HETATM    8  C10 UNL     1      14.828   7.739  13.041  1.00  0.00     0.027 C 
HETATM    9  C11 UNL     1      13.579   7.306  12.433  1.00  0.00     0.004 C 
HETATM   10  C12 UNL     1      13.176   7.791  11.086  1.00  0.00     0.000 C 
HETATM   11  C13 UNL     1      12.547   9.181  11.066  1.00  0.00     0.005 C 
HETATM   12  C14 UNL     1      13.570  10.094  10.551  1.00  0.00     0.060 C 
HETATM   13  C15 UNL     1      13.746  11.469  11.115  1.00  0.00     0.133 C 
HETATM   14  C16 UNL     1      13.835  11.414  12.607  1.00  0.00     0.071 C 
HETATM   15  O4  UNL     1      14.644  12.143  10.452  1.00  0.00    -0.348 OA
HETATM   16  C25 UNL     1      15.911  12.491  10.573  1.00  0.00     0.209 C 
HETATM   17  C28 UNL     1      16.970  11.587  10.992  1.00  0.00     0.166 C 
ENDROOT
BRANCH  13  18
HETATM   18  N1  UNL     1      12.464  12.158  10.861  1.00  0.00    -0.329 N 
HETATM   19  C17 UNL     1      12.051  13.355  11.457  1.00  0.00     0.224 C 
HETATM   20  O3  UNL     1      12.781  13.929  12.290  1.00  0.00    -0.273 OA
ATOM     21  H1  UNL     1      11.826  11.725  10.194  1.00  0.00     0.165 HD
BRANCH  19  22
HETATM   22  C18 UNL     1      10.749  14.002  11.147  1.00  0.00     0.078 C 
HETATM   23  C19 UNL     1      10.832  14.879   9.916  1.00  0.00     0.014 C 
HETATM   24  C20 UNL     1       9.617  15.795  10.127  1.00  0.00     0.006 C 
HETATM   25  C21 UNL     1       9.809  16.203  11.569  1.00  0.00    -0.005 C 
HETATM   26  C24 UNL     1      10.273  14.918  12.223  1.00  0.00     0.019 C 
BRANCH  25  27
HETATM   27  C22 UNL     1       8.569  16.750  12.190  1.00  0.00     0.122 C 
BRANCH  27  28
HETATM   28  C23 UNL     1       8.890  17.435  13.487  1.00  0.00     0.388 C 
HETATM   29  F1  UNL     1       8.661  16.589  14.569  1.00  0.00    -0.171 F 
HETATM   30  F2  UNL     1       8.036  18.531  13.696  1.00  0.00    -0.171 F 
HETATM   31  F3  UNL     1      10.161  17.955  13.549  1.00  0.00    -0.171 F 
ENDBRANCH  27  28
ENDBRANCH  25  27
ENDBRANCH  19  22
ENDBRANCH  13  18
BRANCH  16  32
HETATM   32  C26 UNL     1      15.963  13.886  11.203  1.00  0.00     0.287 C 
BRANCH  32  33
HETATM   33  O5  UNL     1      15.685  13.952  12.541  1.00  0.00    -0.369 OA
ATOM     34  H5  UNL     1      15.432  14.805  12.873  1.00  0.00     0.212 HD
ENDBRANCH  32  33
BRANCH  32  35
HETATM   35  O6  UNL     1      17.174  14.541  11.030  1.00  0.00    -0.364 OA
HETATM   36  C27 UNL     1      17.284  15.670  11.843  1.00  0.00     0.204 C 
ENDBRANCH  32  35
ENDBRANCH  16  32
BRANCH  17  37
HETATM   37  O7  UNL     1      17.518  12.003  12.278  1.00  0.00    -0.392 OA
ATOM     38  H7  UNL     1      16.762  11.936  12.849  1.00  0.00     0.210 HD
ENDBRANCH  17  37
BRANCH   1  39
HETATM   39  C3  UNL     1      18.364  10.821   8.896  1.00  0.00    -0.003 C 
HETATM   40  C4  UNL     1      17.289   9.971   8.228  1.00  0.00     0.011 C 
BRANCH  39  41
HETATM   41  C2  UNL     1      18.683  11.911   7.904  1.00  0.00     0.001 C 
HETATM   42  C1  UNL     1      19.293  13.159   8.489  1.00  0.00     0.005 C 
ENDBRANCH  39  41
ENDBRANCH   1  39
TORSDOF 10
ENDMDL
MODEL 2
REMARK VINA RESULT: -8.083301357      0.445      1.139
REMARK  10 active torsions:
REMARK  status: ('A' for Active; 'I' for Inactive)
REMARK    1  A    between atoms: C2_2  and  C3_3 
REMARK    2  A    between atoms: C3_3  and  C5_5 
REMARK    3  A    between atoms: C15_17  and  N1_19 
REMARK       I    between atoms: N1_19  and  C17_21 
REMARK    4  A    between atoms: C17_21  and  C18_23 
REMARK    5  A    between atoms: C21_26  and  C22_27 
REMARK    6  A    between atoms: C22_27  and  C23_28 
REMARK    7  A    between atoms: C25_34  and  C26_35 
REMARK    8  A    between atoms: C26_35  and  O5_36 
REMARK    9  A    between atoms: C26_35  and  O6_38 
REMARK   10  A    between atoms: C28_40  and  O7_41 
ROOT
HETATM    1  C5  UNL     1      18.112  11.240  10.304  1.00  0.00     0.120 C 
HETATM    2  C6  UNL     1      18.541   9.974  11.103  1.00  0.00     0.266 C 
HETATM    3  O1  UNL     1      19.812   9.954  11.323  1.00  0.00    -0.265 OA
HETATM    4  O2  UNL     1      17.766   9.005  11.539  1.00  0.00    -0.317 OA
HETATM    5  C7  UNL     1      17.212   7.813  11.171  1.00  0.00     0.206 C 
HETATM    6  C8  UNL     1      16.909   6.838  12.247  1.00  0.00    -0.004 C 
HETATM    7  C9  UNL     1      15.838   6.816  13.022  1.00  0.00    -0.029 C 
HETATM    8  C10 UNL     1      14.718   7.807  12.943  1.00  0.00     0.027 C 
HETATM    9  C11 UNL     1      13.479   7.388  12.303  1.00  0.00     0.004 C 
HETATM   10  C12 UNL     1      13.106   7.895  10.955  1.00  0.00     0.000 C 
HETATM   11  C13 UNL     1      12.484   9.288  10.942  1.00  0.00     0.005 C 
HETATM   12  C14 UNL     1      13.521  10.203  10.462  1.00  0.00     0.060 C 
HETATM   13  C15 UNL     1      13.692  11.569  11.049  1.00  0.00     0.133 C 
HETATM   14  C16 UNL     1      13.750  11.492  12.541  1.00  0.00     0.071 C 
HETATM   15  O4  UNL     1      14.606  12.248  10.414  1.00  0.00    -0.348 OA
HETATM   16  C25 UNL     1      15.873  12.589  10.565  1.00  0.00     0.209 C 
HETATM   17  C28 UNL     1      16.918  11.673  10.993  1.00  0.00     0.166 C 
ENDROOT
BRANCH  13  18
HETATM   18  N1  UNL     1      12.419  12.269  10.778  1.00  0.00    -0.329 N 
HETATM   19  C17 UNL     1      12.003  13.463  11.376  1.00  0.00     0.224 C 
HETATM   20  O3  UNL     1      12.724  14.028  12.225  1.00  0.00    -0.273 OA
ATOM     21  H1  UNL     1      11.789  11.843  10.098  1.00  0.00     0.165 HD
BRANCH  19  22
HETATM   22  C18 UNL     1      10.711  14.121  11.049  1.00  0.00     0.078 C 
HETATM   23  C19 UNL     1      10.829  15.037   9.850  1.00  0.00     0.014 C 
HETATM   24  C20 UNL     1       9.608  15.947  10.055  1.00  0.00     0.006 C 
HETATM   25  C21 UNL     1       9.758  16.307  11.515  1.00  0.00    -0.005 C 
HETATM   26  C24 UNL     1      10.203  15.002  12.141  1.00  0.00     0.019 C 
BRANCH  25  27
HETATM   27  C22 UNL     1       8.500  16.835  12.117  1.00  0.00     0.122 C 
BRANCH  27  28
HETATM   28  C23 UNL     1       8.793  17.539  13.411  1.00  0.00     0.388 C 
HETATM   29  F1  UNL     1      10.127  17.936  13.472  1.00  0.00    -0.171 F 
HETATM   30  F2  UNL     1       8.622  16.669  14.500  1.00  0.00    -0.171 F 
HETATM   31  F3  UNL     1       7.966  18.606  13.671  1.00  0.00    -0.171 F 
ENDBRANCH  27  28
ENDBRANCH  25  27
ENDBRANCH  19  22
ENDBRANCH  13  18
BRANCH  16  32
HETATM   32  C26 UNL     1      15.919  13.974  11.216  1.00  0.00     0.287 C 
BRANCH  32  33
HETATM   33  O5  UNL     1      15.666  14.015  12.560  1.00  0.00    -0.369 OA
ATOM     34  H5  UNL     1      16.010  14.768  13.026  1.00  0.00     0.212 HD
ENDBRANCH  32  33
BRANCH  32  35
HETATM   35  O6  UNL     1      17.117  14.648  11.030  1.00  0.00    -0.364 OA
HETATM   36  C27 UNL     1      17.282  15.690  11.943  1.00  0.00     0.204 C 
ENDBRANCH  32  35
ENDBRANCH  16  32
BRANCH  17  37
HETATM   37  O7  UNL     1      17.442  12.068  12.296  1.00  0.00    -0.392 OA
ATOM     38  H7  UNL     1      16.817  11.671  12.891  1.00  0.00     0.210 HD
ENDBRANCH  17  37
BRANCH   1  39
HETATM   39  C3  UNL     1      18.352  10.930   8.915  1.00  0.00    -0.003 C 
HETATM   40  C4  UNL     1      19.783  11.100   8.419  1.00  0.00     0.011 C 
BRANCH  39  41
HETATM   41  C2  UNL     1      17.887   9.612   8.346  1.00  0.00     0.001 C 
HETATM   42  C1  UNL     1      16.433   9.553   7.958  1.00  0.00     0.005 C 
ENDBRANCH  39  41
ENDBRANCH   1  39
TORSDOF 10
ENDMDL
MODEL 3
REMARK VINA RESULT: -7.704455983      2.513      5.193
REMARK  10 active torsions:
REMARK  status: ('A' for Active; 'I' for Inactive)
REMARK    1  A    between atoms: C2_2  and  C3_3 
REMARK    2  A    between atoms: C3_3  and  C5_5 
REMARK    3  A    between atoms: C15_17  and  N1_19 
REMARK       I    between atoms: N1_19  and  C17_21 
REMARK    4  A    between atoms: C17_21  and  C18_23 
REMARK    5  A    between atoms: C21_26  and  C22_27 
REMARK    6  A    between atoms: C22_27  and  C23_28 
REMARK    7  A    between atoms: C25_34  and  C26_35 
REMARK    8  A    between atoms: C26_35  and  O5_36 
REMARK    9  A    between atoms: C26_35  and  O6_38 
REMARK   10  A    between atoms: C28_40  and  O7_41 
ROOT
HETATM    1  C5  UNL     1      19.554   9.552   8.958  1.00  0.00     0.120 C 
HETATM    2  C6  UNL     1      19.733   9.430   7.416  1.00  0.00     0.266 C 
HETATM    3  O1  UNL     1      20.433   8.394   7.096  1.00  0.00    -0.265 OA
HETATM    4  O2  UNL     1      19.258  10.235   6.491  1.00  0.00    -0.317 OA
HETATM    5  C7  UNL     1      19.544  11.378   5.800  1.00  0.00     0.206 C 
HETATM    6  C8  UNL     1      18.955  11.523   4.447  1.00  0.00    -0.004 C 
HETATM    7  C9  UNL     1      17.737  11.941   4.149  1.00  0.00    -0.029 C 
HETATM    8  C10 UNL     1      16.712  12.346   5.165  1.00  0.00     0.027 C 
HETATM    9  C11 UNL     1      16.464  13.768   5.356  1.00  0.00     0.004 C 
HETATM   10  C12 UNL     1      16.946  14.471   6.574  1.00  0.00     0.000 C 
HETATM   11  C13 UNL     1      16.070  14.289   7.810  1.00  0.00     0.005 C 
HETATM   12  C14 UNL     1      16.766  13.338   8.678  1.00  0.00     0.060 C 
HETATM   13  C15 UNL     1      16.023  12.288   9.444  1.00  0.00     0.133 C 
HETATM   14  C16 UNL     1      15.089  11.547   8.542  1.00  0.00     0.071 C 
HETATM   15  O4  UNL     1      16.821  11.613  10.223  1.00  0.00    -0.348 OA
HETATM   16  C25 UNL     1      17.441  10.448  10.236  1.00  0.00     0.209 C 
HETATM   17  C28 UNL     1      18.157   9.892   9.099  1.00  0.00     0.166 C 
ENDROOT
BRANCH  13  18
HETATM   18  N1  UNL     1      15.124  13.036  10.349  1.00  0.00    -0.329 N 
HETATM   19  C17 UNL     1      14.093  12.479  11.114  1.00  0.00     0.224 C 
HETATM   20  O3  UNL     1      13.858  11.254  11.060  1.00  0.00    -0.273 OA
ATOM     21  H1  UNL     1      15.268  14.043  10.422  1.00  0.00     0.165 HD
BRANCH  19  22
HETATM   22  C18 UNL     1      13.231  13.288  12.015  1.00  0.00     0.078 C 
HETATM   23  C19 UNL     1      11.956  12.561  12.384  1.00  0.00     0.014 C 
HETATM   24  C20 UNL     1      11.064  13.733  12.819  1.00  0.00     0.006 C 
HETATM   25  C21 UNL     1      11.282  14.700  11.678  1.00  0.00    -0.005 C 
HETATM   26  C24 UNL     1      12.764  14.564  11.399  1.00  0.00     0.019 C 
BRANCH  25  27
HETATM   27  C22 UNL     1      10.885  16.098  12.015  1.00  0.00     0.122 C 
BRANCH  27  28
HETATM   28  C23 UNL     1       9.395  16.255  11.923  1.00  0.00     0.388 C 
HETATM   29  F1  UNL     1       8.871  15.464  10.904  1.00  0.00    -0.171 F 
HETATM   30  F2  UNL     1       9.054  17.572  11.573  1.00  0.00    -0.171 F 
HETATM   31  F3  UNL     1       8.730  16.016  13.102  1.00  0.00    -0.171 F 
ENDBRANCH  27  28
ENDBRANCH  25  27
ENDBRANCH  19  22
ENDBRANCH  13  18
BRANCH  16  32
HETATM   32  C26 UNL     1      16.565   9.451  11.000  1.00  0.00     0.287 C 
BRANCH  32  33
HETATM   33  O5  UNL     1      15.448   9.007  10.346  1.00  0.00    -0.369 OA
ATOM     34  H5  UNL     1      14.745   8.682  10.895  1.00  0.00     0.212 HD
ENDBRANCH  32  33
BRANCH  32  35
HETATM   35  O6  UNL     1      17.238   8.315  11.425  1.00  0.00    -0.364 OA
HETATM   36  C27 UNL     1      17.429   8.302  12.808  1.00  0.00     0.204 C 
ENDBRANCH  32  35
ENDBRANCH  16  32
BRANCH  17  37
HETATM   37  O7  UNL     1      17.498   8.681   8.622  1.00  0.00    -0.392 OA
ATOM     38  H7  UNL     1      16.592   8.838   8.865  1.00  0.00     0.210 HD
ENDBRANCH  17  37
BRANCH   1  39
HETATM   39  C3  UNL     1      20.747  10.203   9.444  1.00  0.00    -0.003 C 
HETATM   40  C4  UNL     1      20.747  11.728   9.415  1.00  0.00     0.011 C 
BRANCH  39  41
HETATM   41  C2  UNL     1      21.313   9.830  10.791  1.00  0.00     0.001 C 
HETATM   42  C1  UNL     1      21.045   8.416  11.235  1.00  0.00     0.005 C 
ENDBRANCH  39  41
ENDBRANCH   1  39
TORSDOF 10
ENDMDL
MODEL 4
REMARK VINA RESULT: -7.582705941      4.035      6.734
REMARK  10 active torsions:
REMARK  status: ('A' for Active; 'I' for Inactive)
REMARK    1  A    between atoms: C2_2  and  C3_3 
REMARK    2  A    between atoms: C3_3  and  C5_5 
REMARK    3  A    between atoms: C15_17  and  N1_19 
REMARK       I    between atoms: N1_19  and  C17_21 
REMARK    4  A    between atoms: C17_21  and  C18_23 
REMARK    5  A    between atoms: C21_26  and  C22_27 
REMARK    6  A    between atoms: C22_27  and  C23_28 
REMARK    7  A    between atoms: C25_34  and  C26_35 
REMARK    8  A    between atoms: C26_35  and  O5_36 
REMARK    9  A    between atoms: C26_35  and  O6_38 
REMARK   10  A    between atoms: C28_40  and  O7_41 
ROOT
HETATM    1  C5  UNL     1      21.568  11.262   9.218  1.00  0.00     0.120 C 
HETATM    2  C6  UNL     1      21.966  11.364   7.716  1.00  0.00     0.266 C 
HETATM    3  O1  UNL     1      23.243  11.273   7.552  1.00  0.00    -0.265 OA
HETATM    4  O2  UNL     1      21.163  11.520   6.687  1.00  0.00    -0.317 OA
HETATM    5  C7  UNL     1      20.538  12.473   5.935  1.00  0.00     0.206 C 
HETATM    6  C8  UNL     1      20.231  12.139   4.523  1.00  0.00    -0.004 C 
HETATM    7  C9  UNL     1      19.192  11.455   4.075  1.00  0.00    -0.029 C 
HETATM    8  C10 UNL     1      18.118  10.883   4.950  1.00  0.00     0.027 C 
HETATM    9  C11 UNL     1      16.836  11.572   4.998  1.00  0.00     0.004 C 
HETATM   10  C12 UNL     1      16.435  12.357   6.196  1.00  0.00     0.000 C 
HETATM   11  C13 UNL     1      15.882  11.529   7.351  1.00  0.00     0.005 C 
HETATM   12  C14 UNL     1      16.942  11.457   8.358  1.00  0.00     0.060 C 
HETATM   13  C15 UNL     1      17.202  10.202   9.132  1.00  0.00     0.133 C 
HETATM   14  C16 UNL     1      17.314   9.032   8.206  1.00  0.00     0.071 C 
HETATM   15  O4  UNL     1      18.122  10.384  10.037  1.00  0.00    -0.348 OA
HETATM   16  C25 UNL     1      19.408  10.140  10.206  1.00  0.00     0.209 C 
HETATM   17  C28 UNL     1      20.424  10.380   9.194  1.00  0.00     0.166 C 
ENDROOT
BRANCH  13  18
HETATM   18  N1  UNL     1      15.954   9.944   9.880  1.00  0.00    -0.329 N 
HETATM   19  C17 UNL     1      15.642  10.455  11.144  1.00  0.00     0.224 C 
HETATM   20  O3  UNL     1      16.453  11.190  11.745  1.00  0.00    -0.273 OA
ATOM     21  H1  UNL     1      15.260   9.341   9.436  1.00  0.00     0.165 HD
BRANCH  19  22
HETATM   22  C18 UNL     1      14.360  10.165  11.838  1.00  0.00     0.078 C 
HETATM   23  C19 UNL     1      14.150   8.680  12.041  1.00  0.00     0.014 C 
HETATM   24  C20 UNL     1      12.629   8.625  12.247  1.00  0.00     0.006 C 
HETATM   25  C21 UNL     1      12.150   9.480  11.096  1.00  0.00    -0.005 C 
HETATM   26  C24 UNL     1      13.159  10.608  11.072  1.00  0.00     0.019 C 
BRANCH  25  27
HETATM   27  C22 UNL     1      10.750   9.962  11.271  1.00  0.00     0.122 C 
BRANCH  27  28
HETATM   28  C23 UNL     1       9.878   9.457  10.158  1.00  0.00     0.388 C 
HETATM   29  F1  UNL     1      10.611   8.682   9.263  1.00  0.00    -0.171 F 
HETATM   30  F2  UNL     1       9.380  10.524   9.393  1.00  0.00    -0.171 F 
HETATM   31  F3  UNL     1       8.765   8.771  10.582  1.00  0.00    -0.171 F 
ENDBRANCH  27  28
ENDBRANCH  25  27
ENDBRANCH  19  22
ENDBRANCH  13  18
BRANCH  16  32
HETATM   32  C26 UNL     1      19.546   8.815  10.961  1.00  0.00     0.287 C 
BRANCH  32  33
HETATM   33  O5  UNL     1      20.810   8.484  11.368  1.00  0.00    -0.369 OA
ATOM     34  H5  UNL     1      21.236   7.788  10.881  1.00  0.00     0.212 HD
ENDBRANCH  32  33
BRANCH  32  35
HETATM   35  O6  UNL     1      18.742   8.719  12.088  1.00  0.00    -0.364 OA
HETATM   36  C27 UNL     1      17.969   7.557  12.085  1.00  0.00     0.204 C 
ENDBRANCH  32  35
ENDBRANCH  16  32
BRANCH  17  37
HETATM   37  O7  UNL     1      21.017   9.122   8.756  1.00  0.00    -0.392 OA
ATOM     38  H7  UNL     1      20.281   8.688   8.340  1.00  0.00     0.210 HD
ENDBRANCH  17  37
BRANCH   1  39
HETATM   39  C3  UNL     1      21.738  12.589   9.763  1.00  0.00    -0.003 C 
HETATM   40  C4  UNL     1      20.526  13.511   9.691  1.00  0.00     0.011 C 
BRANCH  39  41
HETATM   41  C2  UNL     1      22.291  12.766  11.155  1.00  0.00     0.001 C 
HETATM   42  C1  UNL     1      22.814  14.143  11.471  1.00  0.00     0.005 C 
ENDBRANCH  39  41
ENDBRANCH   1  39
TORSDOF 10
ENDMDL
MODEL 5
REMARK VINA RESULT: -7.503558220      1.995      4.967
REMARK  10 active torsions:
REMARK  status: ('A' for Active; 'I' for Inactive)
REMARK    1  A    between atoms: C2_2  and  C3_3 
REMARK    2  A    between atoms: C3_3  and  C5_5 
REMARK    3  A    between atoms: C15_17  and  N1_19 
REMARK       I    between atoms: N1_19  and  C17_21 
REMARK    4  A    between atoms: C17_21  and  C18_23 
REMARK    5  A    between atoms: C21_26  and  C22_27 
REMARK    6  A    between atoms: C22_27  and  C23_28 
REMARK    7  A    between atoms: C25_34  and  C26_35 
REMARK    8  A    between atoms: C26_35  and  O5_36 
REMARK    9  A    between atoms: C26_35  and  O6_38 
REMARK   10  A    between atoms: C28_40  and  O7_41 
ROOT
HETATM    1  C5  UNL     1      14.649   8.396  10.628  1.00  0.00     0.120 C 
HETATM    2  C6  UNL     1      16.093   8.573  10.074  1.00  0.00     0.266 C 
HETATM    3  O1  UNL     1      16.538   7.484   9.542  1.00  0.00    -0.265 OA
HETATM    4  O2  UNL     1      16.831   9.661  10.101  1.00  0.00    -0.317 OA
HETATM    5  C7  UNL     1      17.721  10.347  10.876  1.00  0.00     0.206 C 
HETATM    6  C8  UNL     1      18.709  11.209  10.183  1.00  0.00    -0.004 C 
HETATM    7  C9  UNL     1      18.520  12.441   9.742  1.00  0.00    -0.029 C 
HETATM    8  C10 UNL     1      17.232  13.194   9.870  1.00  0.00     0.027 C 
HETATM    9  C11 UNL     1      17.143  14.228  10.892  1.00  0.00     0.004 C 
HETATM   10  C12 UNL     1      16.343  14.014  12.128  1.00  0.00     0.000 C 
HETATM   11  C13 UNL     1      14.842  14.233  11.966  1.00  0.00     0.005 C 
HETATM   12  C14 UNL     1      14.229  12.904  11.926  1.00  0.00     0.060 C 
HETATM   13  C15 UNL     1      13.091  12.595  11.004  1.00  0.00     0.133 C 
HETATM   14  C16 UNL     1      13.413  13.036   9.612  1.00  0.00     0.071 C 
HETATM   15  O4  UNL     1      12.638  11.388  11.196  1.00  0.00    -0.348 OA
HETATM   16  C25 UNL     1      12.732  10.193  10.643  1.00  0.00     0.209 C 
HETATM   17  C28 UNL     1      13.981   9.601  10.191  1.00  0.00     0.166 C 
ENDROOT
BRANCH  13  18
HETATM   18  N1  UNL     1      11.999  13.500  11.420  1.00  0.00    -0.329 N 
HETATM   19  C17 UNL     1      10.928  13.907  10.618  1.00  0.00     0.224 C 
HETATM   20  O3  UNL     1      10.839  13.511   9.437  1.00  0.00    -0.273 OA
ATOM     21  H1  UNL     1      12.030  13.860  12.375  1.00  0.00     0.165 HD
BRANCH  19  22
HETATM   22  C18 UNL     1       9.855  14.813  11.104  1.00  0.00     0.078 C 
HETATM   23  C19 UNL     1       9.504  15.874  10.083  1.00  0.00     0.014 C 
HETATM   24  C20 UNL     1       8.834  16.929  10.976  1.00  0.00     0.006 C 
HETATM   25  C21 UNL     1       9.831  17.025  12.108  1.00  0.00    -0.005 C 
HETATM   26  C24 UNL     1      10.237  15.582  12.323  1.00  0.00     0.019 C 
BRANCH  25  27
HETATM   27  C22 UNL     1       9.262  17.653  13.335  1.00  0.00     0.122 C 
BRANCH  27  28
HETATM   28  C23 UNL     1       9.781  19.052  13.498  1.00  0.00     0.388 C 
HETATM   29  F1  UNL     1       8.759  19.924  13.863  1.00  0.00    -0.171 F 
HETATM   30  F2  UNL     1      10.264  19.549  12.276  1.00  0.00    -0.171 F 
HETATM   31  F3  UNL     1      10.837  19.162  14.371  1.00  0.00    -0.171 F 
ENDBRANCH  27  28
ENDBRANCH  25  27
ENDBRANCH  19  22
ENDBRANCH  13  18
BRANCH  16  32
HETATM   32  C26 UNL     1      11.547  10.015   9.690  1.00  0.00     0.287 C 
BRANCH  32  33
HETATM   33  O5  UNL     1      11.390   8.765   9.154  1.00  0.00    -0.369 OA
ATOM     34  H5  UNL     1      10.989   8.728   8.295  1.00  0.00     0.212 HD
ENDBRANCH  32  33
BRANCH  32  35
HETATM   35  O6  UNL     1      10.321  10.353  10.242  1.00  0.00    -0.364 OA
HETATM   36  C27 UNL     1       9.590   9.229  10.630  1.00  0.00     0.204 C 
ENDBRANCH  32  35
ENDBRANCH  16  32
BRANCH  17  37
HETATM   37  O7  UNL     1      13.974   9.438   8.742  1.00  0.00    -0.392 OA
ATOM     38  H7  UNL     1      13.491  10.205   8.457  1.00  0.00     0.210 HD
ENDBRANCH  17  37
BRANCH   1  39
HETATM   39  C3  UNL     1      14.798   7.812  11.940  1.00  0.00    -0.003 C 
HETATM   40  C4  UNL     1      14.964   8.785  13.101  1.00  0.00     0.011 C 
BRANCH  39  41
HETATM   41  C2  UNL     1      13.807   6.782  12.423  1.00  0.00     0.001 C 
HETATM   42  C1  UNL     1      12.419   7.299  12.696  1.00  0.00     0.005 C 
ENDBRANCH  39  41
ENDBRANCH   1  39
TORSDOF 10
ENDMDL
