MODEL 1
REMARK VINA RESULT: -8.160790449      0.000      0.000
REMARK  9 active torsions:
REMARK  status: ('A' for Active; 'I' for Inactive)
REMARK    1  A    between atoms: O1_2  and  C2_3 
REMARK    2  A    between atoms: C2_3  and  C3_5 
REMARK    3  A    between atoms: C5_9  and  N1_10 
REMARK    4  A    between atoms: N1_10  and  C6_12 
REMARK    5  A    between atoms: C6_12  and  O3_13 
REMARK    6  A    between atoms: C12_22  and  C13_23 
REMARK       I    between atoms: C13_23  and  N3_25 
REMARK    7  A    between atoms: N3_25  and  N4_27 
REMARK       I    between atoms: N4_27  and  C14_29 
REMARK    8  A    between atoms: C14_29  and  C15_31 
REMARK    9  A    between atoms: C21_37  and  C22_38 
ROOT
HETATM    1  C6  UNL     1      16.736   9.773  11.072  1.00  0.00     0.149 C 
HETATM    2  C7  UNL     1      15.415   9.609  10.530  1.00  0.00     0.021 C 
HETATM    3  C8  UNL     1      15.269   9.112   9.301  1.00  0.00     0.016 C 
HETATM    4  C9  UNL     1      16.360   8.696   8.394  1.00  0.00     0.069 C 
HETATM    5  N2  UNL     1      13.957   8.926   8.787  1.00  0.00    -0.366 N 
ATOM      6  H2  UNL     1      13.877   8.549   7.843  1.00  0.00     0.165 HD
HETATM    7  C10 UNL     1      12.882   9.186   9.397  1.00  0.00    -0.003 C 
HETATM    8  C11 UNL     1      11.551   8.940   8.713  1.00  0.00     0.064 C 
HETATM    9  C12 UNL     1      12.911   9.667  10.756  1.00  0.00     0.134 C 
HETATM   10  C21 UNL     1      14.214  10.030  11.296  1.00  0.00     0.057 C 
ENDROOT
BRANCH   1  11
HETATM   11  N1  UNL     1      17.991   9.508  10.587  1.00  0.00    -0.329 N 
ATOM     12  H1  UNL     1      18.275   8.562  10.332  1.00  0.00     0.168 HD
BRANCH  11  13
HETATM   13  C5  UNL     1      18.922  10.661  10.449  1.00  0.00     0.100 A 
HETATM   14  S1  UNL     1      18.570  12.250   9.967  1.00  0.00    -0.057 SA
HETATM   15  C4  UNL     1      20.129  12.917  10.045  1.00  0.00     0.094 A 
HETATM   16  C3  UNL     1      20.895  11.861  10.452  1.00  0.00     0.092 A 
HETATM   17 CL1  UNL     1      20.661  14.577   9.690  1.00  0.00    -0.075 Cl
HETATM   18  C23 UNL     1      20.267  10.680  10.664  1.00  0.00     0.086 A 
HETATM   19 CL3  UNL     1      21.170   9.225  11.205  1.00  0.00    -0.080 Cl
BRANCH  16  20
HETATM   20  C2  UNL     1      22.369  12.060  10.624  1.00  0.00     0.297 C 
HETATM   21  O2  UNL     1      22.786  12.778  11.569  1.00  0.00    -0.259 OA
BRANCH  20  22
HETATM   22  O1  UNL     1      23.288  11.485   9.785  1.00  0.00    -0.322 OA
HETATM   23  C1  UNL     1      23.659  12.030   8.532  1.00  0.00     0.213 C 
ENDBRANCH  20  22
ENDBRANCH  16  20
ENDBRANCH  11  13
ENDBRANCH   1  11
BRANCH   1  24
HETATM   24  O3  UNL     1      16.757  10.283  12.275  1.00  0.00    -0.346 OA
ATOM     25  H3  UNL     1      15.888  10.403  12.638  1.00  0.00     0.219 HD
ENDBRANCH   1  24
BRANCH  10  26
HETATM   26  C22 UNL     1      14.326   9.646  12.763  1.00  0.00     0.125 C 
HETATM   27 CL2  UNL     1      14.343   7.916  13.032  1.00  0.00    -0.130 Cl
ENDBRANCH  10  26
BRANCH   9  28
HETATM   28  C13 UNL     1      11.854  10.697  11.047  1.00  0.00     0.246 C 
HETATM   29  O4  UNL     1      10.834  10.462  11.738  1.00  0.00    -0.271 OA
HETATM   30  N3  UNL     1      12.032  11.986  10.510  1.00  0.00    -0.267 N 
ATOM     31  H3  UNL     1      12.865  12.164   9.948  1.00  0.00     0.190 HD
BRANCH  30  32
HETATM   32  N4  UNL     1      11.126  13.035  10.704  1.00  0.00    -0.263 N 
HETATM   33  C14 UNL     1      11.165  13.946  11.769  1.00  0.00     0.270 C 
HETATM   34  O5  UNL     1      12.071  13.834  12.627  1.00  0.00    -0.266 OA
ATOM     35  H4  UNL     1      10.379  13.145  10.018  1.00  0.00     0.190 HD
BRANCH  33  36
HETATM   36  C15 UNL     1      10.183  15.009  11.902  1.00  0.00     0.033 A 
HETATM   37  C16 UNL     1       9.830  15.587  13.092  1.00  0.00     0.017 A 
HETATM   38  C17 UNL     1       8.890  16.589  13.143  1.00  0.00     0.001 A 
HETATM   39  C18 UNL     1       8.258  17.060  12.010  1.00  0.00     0.000 A 
HETATM   40  C19 UNL     1       8.604  16.487  10.811  1.00  0.00     0.001 A 
HETATM   41  C20 UNL     1       9.535  15.497  10.763  1.00  0.00     0.017 A 
ENDBRANCH  33  36
ENDBRANCH  30  32
ENDBRANCH   9  28
TORSDOF 9
ENDMDL
MODEL 2
REMARK VINA RESULT: -8.018650908      1.361      2.117
REMARK  9 active torsions:
REMARK  status: ('A' for Active; 'I' for Inactive)
REMARK    1  A    between atoms: O1_2  and  C2_3 
REMARK    2  A    between atoms: C2_3  and  C3_5 
REMARK    3  A    between atoms: C5_9  and  N1_10 
REMARK    4  A    between atoms: N1_10  and  C6_12 
REMARK    5  A    between atoms: C6_12  and  O3_13 
REMARK    6  A    between atoms: C12_22  and  C13_23 
REMARK       I    between atoms: C13_23  and  N3_25 
REMARK    7  A    between atoms: N3_25  and  N4_27 
REMARK       I    between atoms: N4_27  and  C14_29 
REMARK    8  A    between atoms: C14_29  and  C15_31 
REMARK    9  A    between atoms: C21_37  and  C22_38 
ROOT
HETATM    1  C6  UNL     1      16.486  11.522   9.647  1.00  0.00     0.149 C 
HETATM    2  C7  UNL     1      15.129  11.057   9.553  1.00  0.00     0.021 C 
HETATM    3  C8  UNL     1      14.760  10.327   8.500  1.00  0.00     0.016 C 
HETATM    4  C9  UNL     1      15.625   9.928   7.369  1.00  0.00     0.069 C 
HETATM    5  N2  UNL     1      13.424   9.846   8.433  1.00  0.00    -0.366 N 
ATOM      6  H2  UNL     1      13.169   9.295   7.614  1.00  0.00     0.165 HD
HETATM    7  C10 UNL     1      12.525  10.042   9.298  1.00  0.00    -0.003 C 
HETATM    8  C11 UNL     1      11.137   9.469   9.084  1.00  0.00     0.064 C 
HETATM    9  C12 UNL     1      12.823  10.762  10.511  1.00  0.00     0.134 C 
HETATM   10  C21 UNL     1      14.122  11.417  10.583  1.00  0.00     0.057 C 
ENDROOT
BRANCH   1  11
HETATM   11  N1  UNL     1      17.589  11.374   8.846  1.00  0.00    -0.329 N 
ATOM     12  H1  UNL     1      17.547  11.555   7.843  1.00  0.00     0.168 HD
BRANCH  11  13
HETATM   13  C5  UNL     1      18.851  10.937   9.503  1.00  0.00     0.100 A 
HETATM   14  S1  UNL     1      19.207   9.437  10.213  1.00  0.00    -0.057 SA
HETATM   15  C4  UNL     1      20.792   9.746  10.738  1.00  0.00     0.094 A 
HETATM   16  C3  UNL     1      21.002  11.036  10.338  1.00  0.00     0.092 A 
HETATM   17 CL1  UNL     1      21.921   8.673  11.598  1.00  0.00    -0.075 Cl
HETATM   18  C23 UNL     1      19.989  11.661   9.691  1.00  0.00     0.086 A 
HETATM   19 CL3  UNL     1      20.153  13.354   9.116  1.00  0.00    -0.080 Cl
BRANCH  16  20
HETATM   20  C2  UNL     1      22.316  11.683  10.644  1.00  0.00     0.297 C 
HETATM   21  O2  UNL     1      22.379  12.545  11.560  1.00  0.00    -0.259 OA
BRANCH  20  22
HETATM   22  O1  UNL     1      23.463  11.372   9.962  1.00  0.00    -0.322 OA
HETATM   23  C1  UNL     1      23.761  11.852   8.664  1.00  0.00     0.213 C 
ENDBRANCH  20  22
ENDBRANCH  16  20
ENDBRANCH  11  13
ENDBRANCH   1  11
BRANCH   1  24
HETATM   24  O3  UNL     1      16.729  12.242  10.711  1.00  0.00    -0.346 OA
ATOM     25  H3  UNL     1      16.042  12.173  11.364  1.00  0.00     0.219 HD
ENDBRANCH   1  24
BRANCH  10  26
HETATM   26  C22 UNL     1      14.703  11.332  11.985  1.00  0.00     0.125 C 
HETATM   27 CL2  UNL     1      14.651   9.718  12.665  1.00  0.00    -0.130 Cl
ENDBRANCH  10  26
BRANCH   9  28
HETATM   28  C13 UNL     1      11.699  11.649  10.970  1.00  0.00     0.246 C 
HETATM   29  O4  UNL     1      10.913  11.343  11.898  1.00  0.00    -0.271 OA
HETATM   30  N3  UNL     1      11.530  12.883  10.315  1.00  0.00    -0.267 N 
ATOM     31  H3  UNL     1      12.175  13.121   9.560  1.00  0.00     0.190 HD
BRANCH  30  32
HETATM   32  N4  UNL     1      10.526  13.801  10.642  1.00  0.00    -0.263 N 
HETATM   33  C14 UNL     1      10.699  14.927  11.460  1.00  0.00     0.270 C 
HETATM   34  O5  UNL     1      11.832  15.152  11.948  1.00  0.00    -0.266 OA
ATOM     35  H4  UNL     1       9.595  13.638  10.257  1.00  0.00     0.190 HD
BRANCH  33  36
HETATM   36  C15 UNL     1       9.602  15.833  11.756  1.00  0.00     0.033 A 
HETATM   37  C16 UNL     1       8.742  16.335  10.817  1.00  0.00     0.017 A 
HETATM   38  C17 UNL     1       7.726  17.192  11.171  1.00  0.00     0.001 A 
HETATM   39  C18 UNL     1       7.522  17.588  12.476  1.00  0.00     0.000 A 
HETATM   40  C19 UNL     1       8.379  17.092  13.427  1.00  0.00     0.001 A 
HETATM   41  C20 UNL     1       9.383  16.244  13.076  1.00  0.00     0.017 A 
ENDBRANCH  33  36
ENDBRANCH  30  32
ENDBRANCH   9  28
TORSDOF 9
ENDMDL
MODEL 3
REMARK VINA RESULT: -8.012916636      0.677      1.027
REMARK  9 active torsions:
REMARK  status: ('A' for Active; 'I' for Inactive)
REMARK    1  A    between atoms: O1_2  and  C2_3 
REMARK    2  A    between atoms: C2_3  and  C3_5 
REMARK    3  A    between atoms: C5_9  and  N1_10 
REMARK    4  A    between atoms: N1_10  and  C6_12 
REMARK    5  A    between atoms: C6_12  and  O3_13 
REMARK    6  A    between atoms: C12_22  and  C13_23 
REMARK       I    between atoms: C13_23  and  N3_25 
REMARK    7  A    between atoms: N3_25  and  N4_27 
REMARK       I    between atoms: N4_27  and  C14_29 
REMARK    8  A    between atoms: C14_29  and  C15_31 
REMARK    9  A    between atoms: C21_37  and  C22_38 
ROOT
HETATM    1  C6  UNL     1      16.752   9.351  11.083  1.00  0.00     0.149 C 
HETATM    2  C7  UNL     1      15.442   9.286  10.495  1.00  0.00     0.021 C 
HETATM    3  C8  UNL     1      15.321   8.990   9.200  1.00  0.00     0.016 C 
HETATM    4  C9  UNL     1      16.429   8.712   8.262  1.00  0.00     0.069 C 
HETATM    5  N2  UNL     1      14.019   8.899   8.637  1.00  0.00    -0.366 N 
ATOM      6  H2  UNL     1      13.957   8.675   7.644  1.00  0.00     0.165 HD
HETATM    7  C10 UNL     1      12.932   9.070   9.258  1.00  0.00    -0.003 C 
HETATM    8  C11 UNL     1      11.615   8.945   8.516  1.00  0.00     0.064 C 
HETATM    9  C12 UNL     1      12.934   9.330  10.676  1.00  0.00     0.134 C 
HETATM   10  C21 UNL     1      14.228   9.592  11.293  1.00  0.00     0.057 C 
ENDROOT
BRANCH   1  11
HETATM   11  N1  UNL     1      18.016   9.155  10.589  1.00  0.00    -0.329 N 
ATOM     12  H1  UNL     1      18.347   8.226  10.326  1.00  0.00     0.168 HD
BRANCH  11  13
HETATM   13  C5  UNL     1      18.885  10.355  10.452  1.00  0.00     0.100 A 
HETATM   14  S1  UNL     1      18.461  11.909   9.918  1.00  0.00    -0.057 SA
HETATM   15  C4  UNL     1      19.977  12.666  10.029  1.00  0.00     0.094 A 
HETATM   16  C3  UNL     1      20.787  11.665  10.488  1.00  0.00     0.092 A 
HETATM   17 CL1  UNL     1      20.427  14.344   9.650  1.00  0.00    -0.075 Cl
HETATM   18  C23 UNL     1      20.218  10.455  10.710  1.00  0.00     0.086 A 
HETATM   19 CL3  UNL     1      21.183   9.068  11.317  1.00  0.00    -0.080 Cl
BRANCH  16  20
HETATM   20  C2  UNL     1      22.240  11.951  10.703  1.00  0.00     0.297 C 
HETATM   21  O2  UNL     1      22.583  12.723  11.636  1.00  0.00    -0.259 OA
BRANCH  20  22
HETATM   22  O1  UNL     1      23.219  11.403   9.916  1.00  0.00    -0.322 OA
HETATM   23  C1  UNL     1      23.691  11.994   8.720  1.00  0.00     0.213 C 
ENDBRANCH  20  22
ENDBRANCH  16  20
ENDBRANCH  11  13
ENDBRANCH   1  11
BRANCH   1  24
HETATM   24  O3  UNL     1      16.750   9.666  12.352  1.00  0.00    -0.346 OA
ATOM     25  H3  UNL     1      16.215  10.428  12.540  1.00  0.00     0.219 HD
ENDBRANCH   1  24
BRANCH  10  26
HETATM   26  C22 UNL     1      14.306   8.982  12.684  1.00  0.00     0.125 C 
HETATM   27 CL2  UNL     1      14.020   7.254  12.704  1.00  0.00    -0.130 Cl
ENDBRANCH  10  26
BRANCH   9  28
HETATM   28  C13 UNL     1      11.878  10.312  11.104  1.00  0.00     0.246 C 
HETATM   29  O4  UNL     1      10.775   9.968  11.593  1.00  0.00    -0.271 OA
HETATM   30  N3  UNL     1      12.153  11.682  10.940  1.00  0.00    -0.267 N 
ATOM     31  H3  UNL     1      13.053  11.949  10.540  1.00  0.00     0.190 HD
BRANCH  30  32
HETATM   32  N4  UNL     1      11.258  12.697  11.296  1.00  0.00    -0.263 N 
HETATM   33  C14 UNL     1      11.125  13.924  10.630  1.00  0.00     0.270 C 
HETATM   34  O5  UNL     1      11.853  14.154   9.636  1.00  0.00    -0.266 OA
ATOM     35  H4  UNL     1      10.655  12.532  12.102  1.00  0.00     0.190 HD
BRANCH  33  36
HETATM   36  C15 UNL     1      10.171  14.931  11.064  1.00  0.00     0.033 A 
HETATM   37  C16 UNL     1       9.288  15.566  10.233  1.00  0.00     0.017 A 
HETATM   38  C17 UNL     1       8.414  16.512  10.714  1.00  0.00     0.001 A 
HETATM   39  C18 UNL     1       8.380  16.869  12.046  1.00  0.00     0.000 A 
HETATM   40  C19 UNL     1       9.262  16.239  12.890  1.00  0.00     0.001 A 
HETATM   41  C20 UNL     1      10.125  15.303  12.412  1.00  0.00     0.017 A 
ENDBRANCH  33  36
ENDBRANCH  30  32
ENDBRANCH   9  28
TORSDOF 9
ENDMDL
MODEL 4
REMARK VINA RESULT: -7.970546998      0.786      1.055
REMARK  9 active torsions:
REMARK  status: ('A' for Active; 'I' for Inactive)
REMARK    1  A    between atoms: O1_2  and  C2_3 
REMARK    2  A    between atoms: C2_3  and  C3_5 
REMARK    3  A    between atoms: C5_9  and  N1_10 
REMARK    4  A    between atoms: N1_10  and  C6_12 
REMARK    5  A    between atoms: C6_12  and  O3_13 
REMARK    6  A    between atoms: C12_22  and  C13_23 
REMARK       I    between atoms: C13_23  and  N3_25 
REMARK    7  A    between atoms: N3_25  and  N4_27 
REMARK       I    between atoms: N4_27  and  C14_29 
REMARK    8  A    between atoms: C14_29  and  C15_31 
REMARK    9  A    between atoms: C21_37  and  C22_38 
ROOT
HETATM    1  C6  UNL     1      16.563   9.501  11.025  1.00  0.00     0.149 C 
HETATM    2  C7  UNL     1      15.238   9.481  10.469  1.00  0.00     0.021 C 
HETATM    3  C8  UNL     1      15.077   9.235   9.169  1.00  0.00     0.016 C 
HETATM    4  C9  UNL     1      16.156   8.971   8.192  1.00  0.00     0.069 C 
HETATM    5  N2  UNL     1      13.760   9.188   8.637  1.00  0.00    -0.366 N 
ATOM      6  H2  UNL     1      13.669   9.002   7.638  1.00  0.00     0.165 HD
HETATM    7  C10 UNL     1      12.693   9.356   9.291  1.00  0.00    -0.003 C 
HETATM    8  C11 UNL     1      11.356   9.283   8.580  1.00  0.00     0.064 C 
HETATM    9  C12 UNL     1      12.736   9.564  10.717  1.00  0.00     0.134 C 
HETATM   10  C21 UNL     1      14.050   9.780  11.309  1.00  0.00     0.057 C 
ENDROOT
BRANCH   1  11
HETATM   11  N1  UNL     1      17.810   9.300  10.491  1.00  0.00    -0.329 N 
ATOM     12  H1  UNL     1      18.131   8.369  10.225  1.00  0.00     0.168 HD
BRANCH  11  13
HETATM   13  C5  UNL     1      18.674  10.498  10.315  1.00  0.00     0.100 A 
HETATM   14  S1  UNL     1      18.233  12.049   9.785  1.00  0.00    -0.057 SA
HETATM   15  C4  UNL     1      19.752  12.805   9.839  1.00  0.00     0.094 A 
HETATM   16  C3  UNL     1      20.577  11.807  10.278  1.00  0.00     0.092 A 
HETATM   17 CL1  UNL     1      20.189  14.481   9.433  1.00  0.00    -0.075 Cl
HETATM   18  C23 UNL     1      20.016  10.600  10.528  1.00  0.00     0.086 A 
HETATM   19 CL3  UNL     1      21.000   9.216  11.111  1.00  0.00    -0.080 Cl
BRANCH  16  20
HETATM   20  C2  UNL     1      22.037  12.094  10.441  1.00  0.00     0.297 C 
HETATM   21  O2  UNL     1      22.839  11.728   9.543  1.00  0.00    -0.259 OA
BRANCH  20  22
HETATM   22  O1  UNL     1      22.537  12.745  11.537  1.00  0.00    -0.322 OA
HETATM   23  C1  UNL     1      22.884  14.118  11.547  1.00  0.00     0.213 C 
ENDBRANCH  20  22
ENDBRANCH  16  20
ENDBRANCH  11  13
ENDBRANCH   1  11
BRANCH   1  24
HETATM   24  O3  UNL     1      16.599   9.769  12.304  1.00  0.00    -0.346 OA
ATOM     25  H3  UNL     1      15.938   9.297  12.797  1.00  0.00     0.219 HD
ENDBRANCH   1  24
BRANCH  10  26
HETATM   26  C22 UNL     1      14.152   9.118  12.675  1.00  0.00     0.125 C 
HETATM   27 CL2  UNL     1      13.992   7.375  12.618  1.00  0.00    -0.130 Cl
ENDBRANCH  10  26
BRANCH   9  28
HETATM   28  C13 UNL     1      11.710  10.548  11.208  1.00  0.00     0.246 C 
HETATM   29  O4  UNL     1      10.598  10.208  11.677  1.00  0.00    -0.271 OA
HETATM   30  N3  UNL     1      12.026  11.917  11.128  1.00  0.00    -0.267 N 
ATOM     31  H3  UNL     1      12.933  12.182  10.744  1.00  0.00     0.190 HD
BRANCH  30  32
HETATM   32  N4  UNL     1      11.162  12.935  11.549  1.00  0.00    -0.263 N 
HETATM   33  C14 UNL     1      10.919  14.125  10.849  1.00  0.00     0.270 C 
HETATM   34  O5  UNL     1      11.508  14.318   9.760  1.00  0.00    -0.266 OA
ATOM     35  H4  UNL     1      10.671  12.800  12.433  1.00  0.00     0.190 HD
BRANCH  33  36
HETATM   36  C15 UNL     1      10.007  15.137  11.355  1.00  0.00     0.033 A 
HETATM   37  C16 UNL     1       9.958  15.548  12.660  1.00  0.00     0.017 A 
HETATM   38  C17 UNL     1       9.065  16.511  13.069  1.00  0.00     0.001 A 
HETATM   39  C18 UNL     1       8.179  17.107  12.196  1.00  0.00     0.000 A 
HETATM   40  C19 UNL     1       8.218  16.702  10.884  1.00  0.00     0.001 A 
HETATM   41  C20 UNL     1       9.102  15.751  10.482  1.00  0.00     0.017 A 
ENDBRANCH  33  36
ENDBRANCH  30  32
ENDBRANCH   9  28
TORSDOF 9
ENDMDL
MODEL 5
REMARK VINA RESULT: -7.960428067      2.413      3.078
REMARK  9 active torsions:
REMARK  status: ('A' for Active; 'I' for Inactive)
REMARK    1  A    between atoms: O1_2  and  C2_3 
REMARK    2  A    between atoms: C2_3  and  C3_5 
REMARK    3  A    between atoms: C5_9  and  N1_10 
REMARK    4  A    between atoms: N1_10  and  C6_12 
REMARK    5  A    between atoms: C6_12  and  O3_13 
REMARK    6  A    between atoms: C12_22  and  C13_23 
REMARK       I    between atoms: C13_23  and  N3_25 
REMARK    7  A    between atoms: N3_25  and  N4_27 
REMARK       I    between atoms: N4_27  and  C14_29 
REMARK    8  A    between atoms: C14_29  and  C15_31 
REMARK    9  A    between atoms: C21_37  and  C22_38 
ROOT
HETATM    1  C6  UNL     1      17.772  11.937   8.461  1.00  0.00     0.149 C 
HETATM    2  C7  UNL     1      16.607  11.665   9.258  1.00  0.00     0.021 C 
HETATM    3  C8  UNL     1      16.259  10.400   9.497  1.00  0.00     0.016 C 
HETATM    4  C9  UNL     1      16.964   9.195   9.010  1.00  0.00     0.069 C 
HETATM    5  N2  UNL     1      15.123  10.144  10.312  1.00  0.00    -0.366 N 
ATOM      6  H2  UNL     1      14.878   9.167  10.473  1.00  0.00     0.165 HD
HETATM    7  C10 UNL     1      14.391  11.018  10.855  1.00  0.00    -0.003 C 
HETATM    8  C11 UNL     1      13.205  10.589  11.696  1.00  0.00     0.064 C 
HETATM    9  C12 UNL     1      14.706  12.419  10.723  1.00  0.00     0.134 C 
HETATM   10  C21 UNL     1      15.760  12.768   9.778  1.00  0.00     0.057 C 
ENDROOT
BRANCH   1  11
HETATM   11  N1  UNL     1      18.695  11.135   7.840  1.00  0.00    -0.329 N 
ATOM     12  H1  UNL     1      18.411  10.393   7.201  1.00  0.00     0.168 HD
BRANCH  11  13
HETATM   13  C5  UNL     1      20.129  11.395   8.140  1.00  0.00     0.100 A 
HETATM   14  S1  UNL     1      21.363  11.862   7.071  1.00  0.00    -0.057 SA
HETATM   15  C4  UNL     1      22.665  11.925   8.158  1.00  0.00     0.094 A 
HETATM   16  C3  UNL     1      22.090  11.573   9.347  1.00  0.00     0.092 A 
HETATM   17 CL1  UNL     1      24.367  12.344   7.851  1.00  0.00    -0.075 Cl
HETATM   18  C23 UNL     1      20.764  11.296   9.340  1.00  0.00     0.086 A 
HETATM   19 CL3  UNL     1      19.902  10.827  10.844  1.00  0.00    -0.080 Cl
BRANCH  16  20
HETATM   20  C2  UNL     1      22.948  11.499  10.571  1.00  0.00     0.297 C 
HETATM   21  O2  UNL     1      23.686  10.494  10.746  1.00  0.00    -0.259 OA
BRANCH  20  22
HETATM   22  O1  UNL     1      22.962  12.491  11.517  1.00  0.00    -0.322 OA
HETATM   23  C1  UNL     1      22.677  13.849  11.237  1.00  0.00     0.213 C 
ENDBRANCH  20  22
ENDBRANCH  16  20
ENDBRANCH  11  13
ENDBRANCH   1  11
BRANCH   1  24
HETATM   24  O3  UNL     1      18.006  13.210   8.279  1.00  0.00    -0.346 OA
ATOM     25  H3  UNL     1      18.271  13.652   9.078  1.00  0.00     0.219 HD
ENDBRANCH   1  24
BRANCH  10  26
HETATM   26  C22 UNL     1      16.603  13.922  10.299  1.00  0.00     0.125 C 
HETATM   27 CL2  UNL     1      16.681  13.995  12.047  1.00  0.00    -0.130 Cl
ENDBRANCH  10  26
BRANCH   9  28
HETATM   28  C13 UNL     1      13.491  13.294  10.586  1.00  0.00     0.246 C 
HETATM   29  O4  UNL     1      12.751  13.293   9.574  1.00  0.00    -0.271 OA
HETATM   30  N3  UNL     1      13.181  14.154  11.656  1.00  0.00    -0.267 N 
ATOM     31  H3  UNL     1      13.791  14.147  12.474  1.00  0.00     0.190 HD
BRANCH  30  32
HETATM   32  N4  UNL     1      12.081  15.019  11.658  1.00  0.00    -0.263 N 
HETATM   33  C14 UNL     1      10.829  14.728  12.218  1.00  0.00     0.270 C 
HETATM   34  O5  UNL     1      10.655  13.615  12.767  1.00  0.00    -0.266 OA
ATOM     35  H4  UNL     1      12.199  15.931  11.217  1.00  0.00     0.190 HD
BRANCH  33  36
HETATM   36  C15 UNL     1       9.732  15.681  12.177  1.00  0.00     0.033 A 
HETATM   37  C16 UNL     1       9.060  16.034  11.037  1.00  0.00     0.017 A 
HETATM   38  C17 UNL     1       8.032  16.947  11.073  1.00  0.00     0.001 A 
HETATM   39  C18 UNL     1       7.628  17.550  12.246  1.00  0.00     0.000 A 
HETATM   40  C19 UNL     1       8.295  17.205  13.395  1.00  0.00     0.001 A 
HETATM   41  C20 UNL     1       9.311  16.302  13.358  1.00  0.00     0.017 A 
ENDBRANCH  33  36
ENDBRANCH  30  32
ENDBRANCH   9  28
TORSDOF 9
ENDMDL
