MODEL 1
REMARK VINA RESULT: -8.188972082      0.000      0.000
REMARK  8 active torsions:
REMARK  status: ('A' for Active; 'I' for Inactive)
REMARK    1  A    between atoms: C5_5  and  O1_6 
REMARK    2  A    between atoms: C7_9  and  N1_10 
REMARK       I    between atoms: N1_10  and  C9_12 
REMARK    3  A    between atoms: C9_12  and  O3_14 
REMARK    4  A    between atoms: O3_14  and  C10_15 
REMARK    5  A    between atoms: C13_18  and  C14_19 
REMARK       I    between atoms: C14_19  and  N2_21 
REMARK    6  A    between atoms: N2_21  and  C15_23 
REMARK    7  A    between atoms: C15_23  and  N3_24 
REMARK       I    between atoms: N3_24  and  C16_26 
REMARK    8  A    between atoms: C16_26  and  C17_28 
ROOT
HETATM    1  C10 UNL     1      16.839   9.263  12.376  1.00  0.00     0.081 A 
HETATM    2  C11 UNL     1      17.299  10.442  11.797  1.00  0.00     0.038 A 
HETATM    3  C12 UNL     1      18.565  10.559  11.318  1.00  0.00     0.020 A 
HETATM    4  C13 UNL     1      19.464   9.483  11.394  1.00  0.00     0.032 A 
HETATM    5  C18 UNL     1      19.041   8.307  11.960  1.00  0.00     0.020 A 
HETATM    6  C19 UNL     1      17.732   8.213  12.444  1.00  0.00     0.038 A 
ENDROOT
BRANCH   1   7
HETATM    7  O3  UNL     1      15.567   9.123  12.862  1.00  0.00    -0.261 OA
BRANCH   7   8
HETATM    8  C9  UNL     1      14.449   9.518  12.172  1.00  0.00     0.372 C 
HETATM    9  N1  UNL     1      13.701   8.568  11.442  1.00  0.00    -0.297 N 
HETATM   10  C8  UNL     1      14.142   7.192  11.440  1.00  0.00     0.162 C 
HETATM   11  O2  UNL     1      14.106  10.723  12.198  1.00  0.00    -0.238 OA
BRANCH   9  12
HETATM   12  C7  UNL     1      12.544   8.983  10.736  1.00  0.00     0.047 A 
HETATM   13  C2  UNL     1      12.703   9.369   9.416  1.00  0.00    -0.035 A 
HETATM   14  C1  UNL     1      14.020   9.362   8.744  1.00  0.00     0.050 C 
HETATM   15  C3  UNL     1      11.579   9.771   8.715  1.00  0.00     0.012 A 
HETATM   16  C4  UNL     1      10.324   9.807   9.261  1.00  0.00     0.037 A 
HETATM   17  C5  UNL     1      10.179   9.421  10.573  1.00  0.00     0.067 A 
HETATM   18  C6  UNL     1      11.287   9.015  11.295  1.00  0.00     0.066 A 
BRANCH  17  19
HETATM   19  O1  UNL     1       8.949   9.433  11.184  1.00  0.00    -0.361 OA
ATOM     20  H1  UNL     1       8.721   8.784  11.839  1.00  0.00     0.217 HD
ENDBRANCH  17  19
ENDBRANCH   9  12
ENDBRANCH   7   8
ENDBRANCH   1   7
BRANCH   4  21
HETATM   21  C14 UNL     1      20.815   9.634  10.872  1.00  0.00     0.252 C 
HETATM   22  O4  UNL     1      21.316   8.720  10.136  1.00  0.00    -0.268 OA
HETATM   23  N2  UNL     1      21.589  10.764  11.157  1.00  0.00    -0.341 N 
ATOM     24  H2  UNL     1      21.225  11.516  11.741  1.00  0.00     0.164 HD
BRANCH  23  25
HETATM   25  C15 UNL     1      22.943  10.833  10.591  1.00  0.00     0.249 C 
BRANCH  25  26
HETATM   26  N3  UNL     1      22.936  11.406   9.280  1.00  0.00    -0.341 N 
HETATM   27  C16 UNL     1      24.158  11.620   8.619  1.00  0.00     0.273 C 
HETATM   28  O5  UNL     1      25.279  11.319   9.156  1.00  0.00    -0.269 OA
ATOM     29  H3  UNL     1      22.056  11.657   8.831  1.00  0.00     0.164 HD
BRANCH  27  30
HETATM   30  C17 UNL     1      24.176  12.215   7.255  1.00  0.00     0.269 C 
HETATM   31 CL1  UNL     1      24.355  10.945   6.019  1.00  0.00    -0.073 Cl
HETATM   32 CL2  UNL     1      25.443  13.442   7.095  1.00  0.00    -0.073 Cl
HETATM   33 CL3  UNL     1      22.595  13.004   6.947  1.00  0.00    -0.073 Cl
ENDBRANCH  27  30
ENDBRANCH  25  26
ENDBRANCH  23  25
ENDBRANCH   4  21
TORSDOF 8
ENDMDL
MODEL 2
REMARK VINA RESULT: -8.152030057      0.260      1.278
REMARK  8 active torsions:
REMARK  status: ('A' for Active; 'I' for Inactive)
REMARK    1  A    between atoms: C5_5  and  O1_6 
REMARK    2  A    between atoms: C7_9  and  N1_10 
REMARK       I    between atoms: N1_10  and  C9_12 
REMARK    3  A    between atoms: C9_12  and  O3_14 
REMARK    4  A    between atoms: O3_14  and  C10_15 
REMARK    5  A    between atoms: C13_18  and  C14_19 
REMARK       I    between atoms: C14_19  and  N2_21 
REMARK    6  A    between atoms: N2_21  and  C15_23 
REMARK    7  A    between atoms: C15_23  and  N3_24 
REMARK       I    between atoms: N3_24  and  C16_26 
REMARK    8  A    between atoms: C16_26  and  C17_28 
ROOT
HETATM    1  C10 UNL     1      16.825   9.226  12.455  1.00  0.00     0.081 A 
HETATM    2  C11 UNL     1      17.719   8.162  12.386  1.00  0.00     0.038 A 
HETATM    3  C12 UNL     1      18.970   8.308  11.878  1.00  0.00     0.020 A 
HETATM    4  C13 UNL     1      19.409   9.552  11.397  1.00  0.00     0.032 A 
HETATM    5  C18 UNL     1      18.551  10.621  11.450  1.00  0.00     0.020 A 
HETATM    6  C19 UNL     1      17.268  10.443  11.979  1.00  0.00     0.038 A 
ENDROOT
BRANCH   1   7
HETATM    7  O3  UNL     1      15.560   9.102  12.965  1.00  0.00    -0.261 OA
BRANCH   7   8
HETATM    8  C9  UNL     1      14.442   9.575  12.327  1.00  0.00     0.372 C 
HETATM    9  N1  UNL     1      13.709   8.727  11.467  1.00  0.00    -0.297 N 
HETATM   10  C8  UNL     1      14.168   7.370  11.279  1.00  0.00     0.162 C 
HETATM   11  O2  UNL     1      14.083  10.762  12.517  1.00  0.00    -0.238 OA
BRANCH   9  12
HETATM   12  C7  UNL     1      12.552   9.222  10.816  1.00  0.00     0.047 A 
HETATM   13  C2  UNL     1      12.718   9.816   9.577  1.00  0.00    -0.035 A 
HETATM   14  C1  UNL     1      14.044   9.946   8.934  1.00  0.00     0.050 C 
HETATM   15  C3  UNL     1      11.594  10.299   8.930  1.00  0.00     0.012 A 
HETATM   16  C4  UNL     1      10.331  10.219   9.454  1.00  0.00     0.037 A 
HETATM   17  C5  UNL     1      10.179   9.627  10.686  1.00  0.00     0.067 A 
HETATM   18  C6  UNL     1      11.288   9.137  11.353  1.00  0.00     0.066 A 
BRANCH  17  19
HETATM   19  O1  UNL     1       8.941   9.513  11.271  1.00  0.00    -0.361 OA
ATOM     20  H1  UNL     1       8.761   9.906  12.116  1.00  0.00     0.217 HD
ENDBRANCH  17  19
ENDBRANCH   9  12
ENDBRANCH   7   8
ENDBRANCH   1   7
BRANCH   4  21
HETATM   21  C14 UNL     1      20.756   9.683  10.858  1.00  0.00     0.252 C 
HETATM   22  O4  UNL     1      21.209   8.795  10.063  1.00  0.00    -0.268 OA
HETATM   23  N2  UNL     1      21.577  10.766  11.192  1.00  0.00    -0.341 N 
ATOM     24  H2  UNL     1      21.252  11.496  11.824  1.00  0.00     0.164 HD
BRANCH  23  25
HETATM   25  C15 UNL     1      22.923  10.817  10.604  1.00  0.00     0.249 C 
BRANCH  25  26
HETATM   26  N3  UNL     1      22.919  11.486   9.340  1.00  0.00    -0.341 N 
HETATM   27  C16 UNL     1      24.138  11.697   8.673  1.00  0.00     0.273 C 
HETATM   28  O5  UNL     1      25.253  11.310   9.164  1.00  0.00    -0.269 OA
ATOM     29  H3  UNL     1      22.043  11.806   8.928  1.00  0.00     0.164 HD
BRANCH  27  30
HETATM   30  C17 UNL     1      24.159  12.390   7.356  1.00  0.00     0.269 C 
HETATM   31 CL1  UNL     1      22.624  13.247   7.073  1.00  0.00    -0.073 Cl
HETATM   32 CL2  UNL     1      24.514  11.267   6.033  1.00  0.00    -0.073 Cl
HETATM   33 CL3  UNL     1      25.443  13.643   7.382  1.00  0.00    -0.073 Cl
ENDBRANCH  27  30
ENDBRANCH  25  26
ENDBRANCH  23  25
ENDBRANCH   4  21
TORSDOF 8
ENDMDL
MODEL 3
REMARK VINA RESULT: -8.117607135     10.512     13.410
REMARK  8 active torsions:
REMARK  status: ('A' for Active; 'I' for Inactive)
REMARK    1  A    between atoms: C5_5  and  O1_6 
REMARK    2  A    between atoms: C7_9  and  N1_10 
REMARK       I    between atoms: N1_10  and  C9_12 
REMARK    3  A    between atoms: C9_12  and  O3_14 
REMARK    4  A    between atoms: O3_14  and  C10_15 
REMARK    5  A    between atoms: C13_18  and  C14_19 
REMARK       I    between atoms: C14_19  and  N2_21 
REMARK    6  A    between atoms: N2_21  and  C15_23 
REMARK    7  A    between atoms: C15_23  and  N3_24 
REMARK       I    between atoms: N3_24  and  C16_26 
REMARK    8  A    between atoms: C16_26  and  C17_28 
ROOT
HETATM    1  C10 UNL     1       7.932  17.891  12.556  1.00  0.00     0.081 A 
HETATM    2  C11 UNL     1       8.526  17.141  13.566  1.00  0.00     0.038 A 
HETATM    3  C12 UNL     1       9.358  16.102  13.293  1.00  0.00     0.020 A 
HETATM    4  C13 UNL     1       9.648  15.744  11.967  1.00  0.00     0.032 A 
HETATM    5  C18 UNL     1       9.077  16.463  10.948  1.00  0.00     0.020 A 
HETATM    6  C19 UNL     1       8.226  17.529  11.257  1.00  0.00     0.038 A 
ENDROOT
BRANCH   1   7
HETATM    7  O3  UNL     1       7.093  18.943  12.808  1.00  0.00    -0.261 OA
BRANCH   7   8
HETATM    8  C9  UNL     1       7.281  20.198  12.286  1.00  0.00     0.372 C 
HETATM    9  N1  UNL     1       8.286  21.038  12.815  1.00  0.00    -0.297 N 
HETATM   10  C8  UNL     1       9.094  20.546  13.908  1.00  0.00     0.162 C 
HETATM   11  O2  UNL     1       6.554  20.584  11.341  1.00  0.00    -0.238 OA
BRANCH   9  12
HETATM   12  C7  UNL     1       8.478  22.330  12.266  1.00  0.00     0.047 A 
HETATM   13  C2  UNL     1       7.977  23.408  12.975  1.00  0.00    -0.035 A 
HETATM   14  C1  UNL     1       7.262  23.246  14.260  1.00  0.00     0.050 C 
HETATM   15  C3  UNL     1       8.162  24.676  12.451  1.00  0.00     0.012 A 
HETATM   16  C4  UNL     1       8.813  24.914  11.270  1.00  0.00     0.037 A 
HETATM   17  C5  UNL     1       9.306  23.834  10.575  1.00  0.00     0.067 A 
HETATM   18  C6  UNL     1       9.133  22.558  11.078  1.00  0.00     0.066 A 
BRANCH  17  19
HETATM   19  O1  UNL     1       9.968  24.001   9.383  1.00  0.00    -0.361 OA
ATOM     20  H1  UNL     1      10.674  23.418   9.129  1.00  0.00     0.217 HD
ENDBRANCH  17  19
ENDBRANCH   9  12
ENDBRANCH   7   8
ENDBRANCH   1   7
BRANCH   4  21
HETATM   21  C14 UNL     1      10.544  14.627  11.701  1.00  0.00     0.252 C 
HETATM   22  O4  UNL     1      11.073  14.498  10.548  1.00  0.00    -0.268 OA
HETATM   23  N2  UNL     1      10.845  13.678  12.686  1.00  0.00    -0.341 N 
ATOM     24  H2  UNL     1      10.443  13.746  13.620  1.00  0.00     0.164 HD
BRANCH  23  25
HETATM   25  C15 UNL     1      11.758  12.583  12.331  1.00  0.00     0.249 C 
BRANCH  25  26
HETATM   26  N3  UNL     1      11.054  11.476  11.760  1.00  0.00    -0.341 N 
HETATM   27  C16 UNL     1      11.757  10.296  11.464  1.00  0.00     0.273 C 
HETATM   28  O5  UNL     1      13.011  10.181  11.689  1.00  0.00    -0.269 OA
ATOM     29  H3  UNL     1      10.054  11.543  11.569  1.00  0.00     0.164 HD
BRANCH  27  30
HETATM   30  C17 UNL     1      11.047   9.131  10.870  1.00  0.00     0.269 C 
HETATM   31 CL1  UNL     1      11.727   8.727   9.274  1.00  0.00    -0.073 Cl
HETATM   32 CL2  UNL     1       9.302   9.417  10.763  1.00  0.00    -0.073 Cl
HETATM   33 CL3  UNL     1      11.313   7.697  11.913  1.00  0.00    -0.073 Cl
ENDBRANCH  27  30
ENDBRANCH  25  26
ENDBRANCH  23  25
ENDBRANCH   4  21
TORSDOF 8
ENDMDL
MODEL 4
REMARK VINA RESULT: -7.969740818     10.048     13.166
REMARK  8 active torsions:
REMARK  status: ('A' for Active; 'I' for Inactive)
REMARK    1  A    between atoms: C5_5  and  O1_6 
REMARK    2  A    between atoms: C7_9  and  N1_10 
REMARK       I    between atoms: N1_10  and  C9_12 
REMARK    3  A    between atoms: C9_12  and  O3_14 
REMARK    4  A    between atoms: O3_14  and  C10_15 
REMARK    5  A    between atoms: C13_18  and  C14_19 
REMARK       I    between atoms: C14_19  and  N2_21 
REMARK    6  A    between atoms: N2_21  and  C15_23 
REMARK    7  A    between atoms: C15_23  and  N3_24 
REMARK       I    between atoms: N3_24  and  C16_26 
REMARK    8  A    between atoms: C16_26  and  C17_28 
ROOT
HETATM    1  C10 UNL     1       8.448  17.277  12.304  1.00  0.00     0.081 A 
HETATM    2  C11 UNL     1       8.189  17.196  10.940  1.00  0.00     0.038 A 
HETATM    3  C12 UNL     1       8.779  16.260  10.151  1.00  0.00     0.020 A 
HETATM    4  C13 UNL     1       9.682  15.332  10.693  1.00  0.00     0.032 A 
HETATM    5  C18 UNL     1       9.959  15.385  12.035  1.00  0.00     0.020 A 
HETATM    6  C19 UNL     1       9.338  16.358  12.824  1.00  0.00     0.038 A 
ENDROOT
BRANCH   1   7
HETATM    7  O3  UNL     1       7.864  18.210  13.117  1.00  0.00    -0.261 OA
BRANCH   7   8
HETATM    8  C9  UNL     1       7.827  19.550  12.821  1.00  0.00     0.372 C 
HETATM    9  N1  UNL     1       8.911  20.380  13.181  1.00  0.00    -0.297 N 
HETATM   10  C8  UNL     1      10.039  19.788  13.864  1.00  0.00     0.162 C 
HETATM   11  O2  UNL     1       6.826  20.020  12.231  1.00  0.00    -0.238 OA
BRANCH   9  12
HETATM   12  C7  UNL     1       8.869  21.761  12.867  1.00  0.00     0.047 A 
HETATM   13  C2  UNL     1       8.339  22.618  13.816  1.00  0.00    -0.035 A 
HETATM   14  C1  UNL     1       7.827  22.138  15.117  1.00  0.00     0.050 C 
HETATM   15  C3  UNL     1       8.297  23.970  13.521  1.00  0.00     0.012 A 
HETATM   16  C4  UNL     1       8.750  24.498  12.342  1.00  0.00     0.037 A 
HETATM   17  C5  UNL     1       9.274  23.636  11.407  1.00  0.00     0.067 A 
HETATM   18  C6  UNL     1       9.327  22.281  11.678  1.00  0.00     0.066 A 
BRANCH  17  19
HETATM   19  O1  UNL     1       9.746  24.097  10.203  1.00  0.00    -0.361 OA
ATOM     20  H1  UNL     1       9.647  23.586   9.409  1.00  0.00     0.217 HD
ENDBRANCH  17  19
ENDBRANCH   9  12
ENDBRANCH   7   8
ENDBRANCH   1   7
BRANCH   4  21
HETATM   21  C14 UNL     1      10.299  14.337   9.826  1.00  0.00     0.252 C 
HETATM   22  O4  UNL     1      11.546  14.408   9.567  1.00  0.00    -0.268 OA
HETATM   23  N2  UNL     1       9.556  13.293   9.263  1.00  0.00    -0.341 N 
ATOM     24  H2  UNL     1       8.557  13.201   9.445  1.00  0.00     0.164 HD
BRANCH  23  25
HETATM   25  C15 UNL     1      10.259  12.335   8.399  1.00  0.00     0.249 C 
BRANCH  25  26
HETATM   26  N3  UNL     1      11.075  11.441   9.160  1.00  0.00    -0.341 N 
HETATM   27  C16 UNL     1      10.470  10.362   9.829  1.00  0.00     0.273 C 
HETATM   28  O5  UNL     1       9.209  10.157   9.777  1.00  0.00    -0.269 OA
ATOM     29  H3  UNL     1      12.083  11.584   9.218  1.00  0.00     0.164 HD
BRANCH  27  30
HETATM   30  C17 UNL     1      11.298   9.418  10.627  1.00  0.00     0.269 C 
HETATM   31 CL1  UNL     1      10.264   8.347  11.606  1.00  0.00    -0.073 Cl
HETATM   32 CL2  UNL     1      12.468  10.275  11.643  1.00  0.00    -0.073 Cl
HETATM   33 CL3  UNL     1      12.210   8.356   9.505  1.00  0.00    -0.073 Cl
ENDBRANCH  27  30
ENDBRANCH  25  26
ENDBRANCH  23  25
ENDBRANCH   4  21
TORSDOF 8
ENDMDL
MODEL 5
REMARK VINA RESULT: -7.955532383      7.724     11.472
REMARK  8 active torsions:
REMARK  status: ('A' for Active; 'I' for Inactive)
REMARK    1  A    between atoms: C5_5  and  O1_6 
REMARK    2  A    between atoms: C7_9  and  N1_10 
REMARK       I    between atoms: N1_10  and  C9_12 
REMARK    3  A    between atoms: C9_12  and  O3_14 
REMARK    4  A    between atoms: O3_14  and  C10_15 
REMARK    5  A    between atoms: C13_18  and  C14_19 
REMARK       I    between atoms: C14_19  and  N2_21 
REMARK    6  A    between atoms: N2_21  and  C15_23 
REMARK    7  A    between atoms: C15_23  and  N3_24 
REMARK       I    between atoms: N3_24  and  C16_26 
REMARK    8  A    between atoms: C16_26  and  C17_28 
ROOT
HETATM    1  C10 UNL     1      11.573  11.896  11.101  1.00  0.00     0.081 A 
HETATM    2  C11 UNL     1      11.206  12.884  10.192  1.00  0.00     0.038 A 
HETATM    3  C12 UNL     1      10.790  14.113  10.596  1.00  0.00     0.020 A 
HETATM    4  C13 UNL     1      10.713  14.431  11.961  1.00  0.00     0.032 A 
HETATM    5  C18 UNL     1      11.067  13.479  12.883  1.00  0.00     0.020 A 
HETATM    6  C19 UNL     1      11.493  12.222  12.440  1.00  0.00     0.038 A 
ENDROOT
BRANCH   1   7
HETATM    7  O3  UNL     1      11.997  10.653  10.715  1.00  0.00    -0.261 OA
BRANCH   7   8
HETATM    8  C9  UNL     1      13.284  10.210  10.887  1.00  0.00     0.372 C 
HETATM    9  N1  UNL     1      13.522   8.946  11.471  1.00  0.00    -0.297 N 
HETATM   10  C8  UNL     1      12.388   8.148  11.878  1.00  0.00     0.162 C 
HETATM   11  O2  UNL     1      14.237  10.938  10.523  1.00  0.00    -0.238 OA
BRANCH   9  12
HETATM   12  C7  UNL     1      14.854   8.493  11.640  1.00  0.00     0.047 A 
HETATM   13  C2  UNL     1      15.456   7.859  10.568  1.00  0.00    -0.035 A 
HETATM   14  C1  UNL     1      14.757   7.645   9.282  1.00  0.00     0.050 C 
HETATM   15  C3  UNL     1      16.758   7.416  10.720  1.00  0.00     0.012 A 
HETATM   16  C4  UNL     1      17.477   7.574  11.876  1.00  0.00     0.037 A 
HETATM   17  C5  UNL     1      16.867   8.206  12.934  1.00  0.00     0.067 A 
HETATM   18  C6  UNL     1      15.566   8.657  12.806  1.00  0.00     0.066 A 
BRANCH  17  19
HETATM   19  O1  UNL     1      17.529   8.398  14.122  1.00  0.00    -0.361 OA
ATOM     20  H1  UNL     1      17.672   7.678  14.725  1.00  0.00     0.217 HD
ENDBRANCH  17  19
ENDBRANCH   9  12
ENDBRANCH   7   8
ENDBRANCH   1   7
BRANCH   4  21
HETATM   21  C14 UNL     1      10.266  15.756  12.369  1.00  0.00     0.252 C 
HETATM   22  O4  UNL     1      10.745  16.791  11.797  1.00  0.00    -0.268 OA
HETATM   23  N2  UNL     1       9.315  15.929  13.381  1.00  0.00    -0.341 N 
ATOM     24  H2  UNL     1       8.907  15.128  13.861  1.00  0.00     0.164 HD
BRANCH  23  25
HETATM   25  C15 UNL     1       8.921  17.301  13.729  1.00  0.00     0.249 C 
BRANCH  25  26
HETATM   26  N3  UNL     1       7.843  17.764  12.911  1.00  0.00    -0.341 N 
HETATM   27  C16 UNL     1       7.995  18.960  12.189  1.00  0.00     0.273 C 
HETATM   28  O5  UNL     1       9.070  19.650  12.243  1.00  0.00    -0.269 OA
ATOM     29  H3  UNL     1       6.975  17.232  12.852  1.00  0.00     0.164 HD
BRANCH  27  30
HETATM   30  C17 UNL     1       6.888  19.460  11.330  1.00  0.00     0.269 C 
HETATM   31 CL1  UNL     1       7.042  18.827   9.672  1.00  0.00    -0.073 Cl
HETATM   32 CL2  UNL     1       6.810  21.230  11.331  1.00  0.00    -0.073 Cl
HETATM   33 CL3  UNL     1       5.332  18.836  11.970  1.00  0.00    -0.073 Cl
ENDBRANCH  27  30
ENDBRANCH  25  26
ENDBRANCH  23  25
ENDBRANCH   4  21
TORSDOF 8
ENDMDL
