MODEL 1
REMARK VINA RESULT: -8.029923816      0.000      0.000
REMARK  8 active torsions:
REMARK  status: ('A' for Active; 'I' for Inactive)
REMARK    1  A    between atoms: C2_2  and  C3_3 
REMARK    2  A    between atoms: C5_9  and  N3_10 
REMARK    3  A    between atoms: N3_10  and  C6_12 
REMARK    4  A    between atoms: C6_12  and  C7_13 
REMARK    5  A    between atoms: C13_23  and  N5_24 
REMARK    6  A    between atoms: C17_31  and  C18_32 
REMARK    7  A    between atoms: C18_32  and  C19_33 
REMARK    8  A    between atoms: C19_33  and  O2_36 
ROOT
HETATM    1  C3  UNL     1      13.082  10.482   8.722  1.00  0.00     0.233 C 
HETATM    2  F1  UNL     1      14.415  10.784   8.577  1.00  0.00    -0.215 F 
HETATM    3  N1  UNL     1      12.288  11.694   8.859  1.00  0.00    -0.104 N 
HETATM    4  C4  UNL     1      11.382  11.527   9.867  1.00  0.00     0.259 A 
HETATM    5  N2  UNL     1      10.504  12.488  10.223  1.00  0.00    -0.154 N 
ATOM      6  H2  UNL     1       9.847  12.312  10.983  1.00  0.00     0.188 HD
HETATM    7  C5  UNL     1      10.483  13.654   9.601  1.00  0.00     0.695 A 
HETATM    8  N4  UNL     1      11.353  13.870   8.605  1.00  0.00    -0.022 N 
ATOM      9  H4  UNL     1      11.355  14.763   8.112  1.00  0.00     0.203 HD
HETATM   10  C13 UNL     1      12.230  12.895   8.256  1.00  0.00     0.698 A 
HETATM   11  O1  UNL     1      11.542  10.279  10.397  1.00  0.00    -0.304 OA
HETATM   12  C14 UNL     1      12.911   9.920  10.117  1.00  0.00     0.127 C 
HETATM   13  C15 UNL     1      13.029   8.461  10.265  1.00  0.00     0.044 C 
HETATM   14  C16 UNL     1      14.481   8.079  10.455  1.00  0.00     0.008 C 
HETATM   15  C17 UNL     1      14.884   8.484  11.855  1.00  0.00    -0.012 C 
HETATM   16  C22 UNL     1      14.139   9.717  12.285  1.00  0.00     0.008 C 
HETATM   17  C23 UNL     1      13.764  10.620  11.126  1.00  0.00     0.044 C 
ENDROOT
BRANCH   7  18
HETATM   18  N3  UNL     1       9.643  14.594   9.930  1.00  0.00    -0.225 N 
ATOM     19  H3  UNL     1       8.655  14.355  10.019  1.00  0.00     0.177 HD
BRANCH  18  20
HETATM   20  C6  UNL     1      10.045  15.948  10.172  1.00  0.00     0.142 C 
BRANCH  20  21
HETATM   21  C7  UNL     1      10.753  16.096  11.515  1.00  0.00     0.009 C 
HETATM   22  C8  UNL     1      11.322  17.468  11.654  1.00  0.00     0.007 C 
HETATM   23  C9  UNL     1      10.320  18.499  12.105  1.00  0.00     0.006 C 
HETATM   24  C10 UNL     1       9.823  18.040  13.482  1.00  0.00     0.079 C 
HETATM   25  C11 UNL     1       9.069  16.761  13.258  1.00  0.00     0.244 C 
HETATM   26  F2  UNL     1       7.946  16.956  12.468  1.00  0.00    -0.206 F 
HETATM   27  F3  UNL     1       8.622  16.303  14.502  1.00  0.00    -0.206 F 
HETATM   28  C12 UNL     1       9.886  15.668  12.654  1.00  0.00     0.085 C 
ENDBRANCH  20  21
ENDBRANCH  18  20
ENDBRANCH   7  18
BRANCH  10  29
HETATM   29  N5  UNL     1      13.066  13.139   7.304  1.00  0.00    -0.234 N 
ATOM     30  H52 UNL     1      13.800  12.456   7.120  1.00  0.00     0.174 HD
ATOM     31  H51 UNL     1      12.947  13.999   6.769  1.00  0.00     0.174 HD
ENDBRANCH  10  29
BRANCH   1  32
HETATM   32  C2  UNL     1      12.658   9.556   7.658  1.00  0.00     0.066 C 
HETATM   33  C1  UNL     1      13.705   9.163   6.651  1.00  0.00     0.010 C 
ENDBRANCH   1  32
BRANCH  15  34
HETATM   34  C18 UNL     1      16.377   8.644  12.010  1.00  0.00     0.041 C 
BRANCH  34  35
HETATM   35  C19 UNL     1      16.981   7.677  12.969  1.00  0.00     0.051 C 
HETATM   36  C20 UNL     1      17.984   6.749  12.319  1.00  0.00     0.045 C 
HETATM   37  C21 UNL     1      15.838   6.771  13.454  1.00  0.00     0.045 C 
BRANCH  35  38
HETATM   38  O2  UNL     1      17.526   8.261  14.092  1.00  0.00    -0.391 OA
ATOM     39  H2  UNL     1      16.897   8.723  14.634  1.00  0.00     0.210 HD
ENDBRANCH  35  38
ENDBRANCH  34  35
ENDBRANCH  15  34
TORSDOF 8
ENDMDL
MODEL 2
REMARK VINA RESULT: -8.000661897      5.096      9.604
REMARK  8 active torsions:
REMARK  status: ('A' for Active; 'I' for Inactive)
REMARK    1  A    between atoms: C2_2  and  C3_3 
REMARK    2  A    between atoms: C5_9  and  N3_10 
REMARK    3  A    between atoms: N3_10  and  C6_12 
REMARK    4  A    between atoms: C6_12  and  C7_13 
REMARK    5  A    between atoms: C13_23  and  N5_24 
REMARK    6  A    between atoms: C17_31  and  C18_32 
REMARK    7  A    between atoms: C18_32  and  C19_33 
REMARK    8  A    between atoms: C19_33  and  O2_36 
ROOT
HETATM    1  C3  UNL     1      15.033   8.637  12.096  1.00  0.00     0.233 C 
HETATM    2  F1  UNL     1      14.719   9.215  13.303  1.00  0.00    -0.215 F 
HETATM    3  N1  UNL     1      16.474   8.606  11.897  1.00  0.00    -0.104 N 
HETATM    4  C4  UNL     1      16.760   8.999  10.620  1.00  0.00     0.259 A 
HETATM    5  N2  UNL     1      18.021   9.066  10.145  1.00  0.00    -0.154 N 
ATOM      6  H2  UNL     1      18.180   9.365   9.182  1.00  0.00     0.188 HD
HETATM    7  C5  UNL     1      19.053   8.750  10.907  1.00  0.00     0.695 A 
HETATM    8  N4  UNL     1      18.828   8.360  12.168  1.00  0.00    -0.022 N 
ATOM      9  H4  UNL     1      19.609   8.112  12.775  1.00  0.00     0.203 HD
HETATM   10  C13 UNL     1      17.555   8.296  12.635  1.00  0.00     0.698 A 
HETATM   11  O1  UNL     1      15.590   9.288   9.978  1.00  0.00    -0.304 OA
HETATM   12  C14 UNL     1      14.660   9.638  11.024  1.00  0.00     0.127 C 
HETATM   13  C15 UNL     1      13.302   9.539  10.465  1.00  0.00     0.044 C 
HETATM   14  C16 UNL     1      12.335  10.327  11.322  1.00  0.00     0.008 C 
HETATM   15  C17 UNL     1      12.582  11.797  11.063  1.00  0.00    -0.012 C 
HETATM   16  C22 UNL     1      14.033  12.044  10.757  1.00  0.00     0.008 C 
HETATM   17  C23 UNL     1      14.961  11.047  11.425  1.00  0.00     0.044 C 
ENDROOT
BRANCH   7  18
HETATM   18  N3  UNL     1      20.277   8.808  10.466  1.00  0.00    -0.225 N 
ATOM     19  H3  UNL     1      20.995   8.265  10.947  1.00  0.00     0.177 HD
BRANCH  18  20
HETATM   20  C6  UNL     1      20.662   9.600   9.335  1.00  0.00     0.142 C 
BRANCH  20  21
HETATM   21  C7  UNL     1      20.885  11.060   9.718  1.00  0.00     0.009 C 
HETATM   22  C8  UNL     1      21.919  11.164  10.790  1.00  0.00     0.007 C 
HETATM   23  C9  UNL     1      23.334  11.116  10.275  1.00  0.00     0.006 C 
HETATM   24  C10 UNL     1      23.490  12.318   9.335  1.00  0.00     0.079 C 
HETATM   25  C11 UNL     1      22.586  12.063   8.164  1.00  0.00     0.244 C 
HETATM   26  F2  UNL     1      22.973  10.940   7.449  1.00  0.00    -0.206 F 
HETATM   27  F3  UNL     1      22.687  13.157   7.298  1.00  0.00    -0.206 F 
HETATM   28  C12 UNL     1      21.145  11.919   8.524  1.00  0.00     0.085 C 
ENDBRANCH  20  21
ENDBRANCH  18  20
ENDBRANCH   7  18
BRANCH  10  29
HETATM   29  N5  UNL     1      17.371   7.932  13.859  1.00  0.00    -0.234 N 
ATOM     30  H52 UNL     1      17.478   8.633  14.592  1.00  0.00     0.174 HD
ATOM     31  H51 UNL     1      17.114   6.961  14.039  1.00  0.00     0.174 HD
ENDBRANCH  10  29
BRANCH   1  32
HETATM   32  C2  UNL     1      14.341   7.345  11.962  1.00  0.00     0.066 C 
HETATM   33  C1  UNL     1      14.228   6.508  13.208  1.00  0.00     0.010 C 
ENDBRANCH   1  32
BRANCH  15  34
HETATM   34  C18 UNL     1      12.083  12.679  12.181  1.00  0.00     0.041 C 
BRANCH  34  35
HETATM   35  C19 UNL     1      11.412  13.921  11.702  1.00  0.00     0.051 C 
HETATM   36  C20 UNL     1      12.380  15.056  11.451  1.00  0.00     0.045 C 
HETATM   37  C21 UNL     1      10.507  14.398  12.848  1.00  0.00     0.045 C 
BRANCH  35  38
HETATM   38  O2  UNL     1      10.598  13.735  10.605  1.00  0.00    -0.391 OA
ATOM     39  H2  UNL     1      10.138  14.518  10.326  1.00  0.00     0.210 HD
ENDBRANCH  35  38
ENDBRANCH  34  35
ENDBRANCH  15  34
TORSDOF 8
ENDMDL
MODEL 3
REMARK VINA RESULT: -7.911003435      5.852      9.494
REMARK  8 active torsions:
REMARK  status: ('A' for Active; 'I' for Inactive)
REMARK    1  A    between atoms: C2_2  and  C3_3 
REMARK    2  A    between atoms: C5_9  and  N3_10 
REMARK    3  A    between atoms: N3_10  and  C6_12 
REMARK    4  A    between atoms: C6_12  and  C7_13 
REMARK    5  A    between atoms: C13_23  and  N5_24 
REMARK    6  A    between atoms: C17_31  and  C18_32 
REMARK    7  A    between atoms: C18_32  and  C19_33 
REMARK    8  A    between atoms: C19_33  and  O2_36 
ROOT
HETATM    1  C3  UNL     1      14.631   8.458  10.714  1.00  0.00     0.233 C 
HETATM    2  F1  UNL     1      13.813   9.554  10.850  1.00  0.00    -0.215 F 
HETATM    3  N1  UNL     1      15.980   8.757  11.172  1.00  0.00    -0.104 N 
HETATM    4  C4  UNL     1      16.881   8.261  10.275  1.00  0.00     0.259 A 
HETATM    5  N2  UNL     1      18.214   8.385  10.437  1.00  0.00    -0.154 N 
ATOM      6  H2  UNL     1      18.845   7.996   9.737  1.00  0.00     0.188 HD
HETATM    7  C5  UNL     1      18.716   9.005  11.491  1.00  0.00     0.695 A 
HETATM    8  N4  UNL     1      17.875   9.512  12.402  1.00  0.00    -0.022 N 
ATOM      9  H4  UNL     1      18.239   9.995  13.223  1.00  0.00     0.203 HD
HETATM   10  C13 UNL     1      16.535   9.380  12.227  1.00  0.00     0.698 A 
HETATM   11  O1  UNL     1      16.199   7.660   9.256  1.00  0.00    -0.304 OA
HETATM   12  C14 UNL     1      14.906   8.302   9.234  1.00  0.00     0.127 C 
HETATM   13  C15 UNL     1      13.991   7.435   8.475  1.00  0.00     0.044 C 
HETATM   14  C16 UNL     1      12.792   8.235   8.011  1.00  0.00     0.008 C 
HETATM   15  C17 UNL     1      13.246   9.132   6.881  1.00  0.00    -0.012 C 
HETATM   16  C22 UNL     1      14.677   9.551   7.080  1.00  0.00     0.008 C 
HETATM   17  C23 UNL     1      15.081   9.615   8.540  1.00  0.00     0.044 C 
ENDROOT
BRANCH   7  18
HETATM   18  N3  UNL     1      20.000   9.135  11.667  1.00  0.00    -0.225 N 
ATOM     19  H3  UNL     1      20.388   8.942  12.590  1.00  0.00     0.177 HD
BRANCH  18  20
HETATM   20  C6  UNL     1      20.892   9.537  10.620  1.00  0.00     0.142 C 
BRANCH  20  21
HETATM   21  C7  UNL     1      20.944  11.055  10.474  1.00  0.00     0.009 C 
HETATM   22  C8  UNL     1      22.265  11.576  10.933  1.00  0.00     0.007 C 
HETATM   23  C9  UNL     1      23.353  11.472   9.896  1.00  0.00     0.006 C 
HETATM   24  C10 UNL     1      22.889  12.315   8.701  1.00  0.00     0.079 C 
HETATM   25  C11 UNL     1      21.678  11.628   8.140  1.00  0.00     0.244 C 
HETATM   26  F2  UNL     1      21.981  10.367   7.650  1.00  0.00    -0.206 F 
HETATM   27  F3  UNL     1      21.215  12.389   7.060  1.00  0.00    -0.206 F 
HETATM   28  C12 UNL     1      20.546  11.499   9.104  1.00  0.00     0.085 C 
ENDBRANCH  20  21
ENDBRANCH  18  20
ENDBRANCH   7  18
BRANCH  10  29
HETATM   29  N5  UNL     1      15.751   9.893  13.113  1.00  0.00    -0.234 N 
ATOM     30  H52 UNL     1      14.800  10.135  12.834  1.00  0.00     0.174 HD
ATOM     31  H51 UNL     1      16.112  10.021  14.059  1.00  0.00     0.174 HD
ENDBRANCH  10  29
BRANCH   1  32
HETATM   32  C2  UNL     1      13.995   7.278  11.322  1.00  0.00     0.066 C 
HETATM   33  C1  UNL     1      12.913   7.543  12.334  1.00  0.00     0.010 C 
ENDBRANCH   1  32
BRANCH  15  34
HETATM   34  C18 UNL     1      12.336  10.317   6.674  1.00  0.00     0.041 C 
BRANCH  34  35
HETATM   35  C19 UNL     1      11.928  10.510   5.254  1.00  0.00     0.051 C 
HETATM   36  C20 UNL     1      12.673  11.638   4.573  1.00  0.00     0.045 C 
HETATM   37  C21 UNL     1      10.455  10.947   5.277  1.00  0.00     0.045 C 
BRANCH  35  38
HETATM   38  O2  UNL     1      11.989   9.365   4.489  1.00  0.00    -0.391 OA
ATOM     39  H2  UNL     1      12.088   9.525   3.557  1.00  0.00     0.210 HD
ENDBRANCH  35  38
ENDBRANCH  34  35
ENDBRANCH  15  34
TORSDOF 8
ENDMDL
MODEL 4
REMARK VINA RESULT: -7.905773336      5.096      9.293
REMARK  8 active torsions:
REMARK  status: ('A' for Active; 'I' for Inactive)
REMARK    1  A    between atoms: C2_2  and  C3_3 
REMARK    2  A    between atoms: C5_9  and  N3_10 
REMARK    3  A    between atoms: N3_10  and  C6_12 
REMARK    4  A    between atoms: C6_12  and  C7_13 
REMARK    5  A    between atoms: C13_23  and  N5_24 
REMARK    6  A    between atoms: C17_31  and  C18_32 
REMARK    7  A    between atoms: C18_32  and  C19_33 
REMARK    8  A    between atoms: C19_33  and  O2_36 
ROOT
HETATM    1  C3  UNL     1      15.047   8.663  12.115  1.00  0.00     0.233 C 
HETATM    2  F1  UNL     1      14.763   9.258  13.322  1.00  0.00    -0.215 F 
HETATM    3  N1  UNL     1      16.483   8.631  11.879  1.00  0.00    -0.104 N 
HETATM    4  C4  UNL     1      16.735   9.006  10.590  1.00  0.00     0.259 A 
HETATM    5  N2  UNL     1      17.983   9.067  10.081  1.00  0.00    -0.154 N 
ATOM      6  H2  UNL     1      18.117   9.352   9.111  1.00  0.00     0.188 HD
HETATM    7  C5  UNL     1      19.035   8.761  10.821  1.00  0.00     0.695 A 
HETATM    8  N4  UNL     1      18.842   8.389  12.093  1.00  0.00    -0.022 N 
ATOM      9  H4  UNL     1      19.639   8.150  12.683  1.00  0.00     0.203 HD
HETATM   10  C13 UNL     1      17.581   8.331  12.593  1.00  0.00     0.698 A 
HETATM   11  O1  UNL     1      15.549   9.285   9.974  1.00  0.00    -0.304 OA
HETATM   12  C14 UNL     1      14.646   9.650  11.039  1.00  0.00     0.127 C 
HETATM   13  C15 UNL     1      13.274   9.542  10.517  1.00  0.00     0.044 C 
HETATM   14  C16 UNL     1      12.329  10.342  11.388  1.00  0.00     0.008 C 
HETATM   15  C17 UNL     1      12.568  11.808  11.102  1.00  0.00    -0.012 C 
HETATM   16  C22 UNL     1      14.011  12.051  10.755  1.00  0.00     0.008 C 
HETATM   17  C23 UNL     1      14.956  11.065  11.412  1.00  0.00     0.044 C 
ENDROOT
BRANCH   7  18
HETATM   18  N3  UNL     1      20.247   8.814  10.348  1.00  0.00    -0.225 N 
ATOM     19  H3  UNL     1      20.548   8.089   9.695  1.00  0.00     0.177 HD
BRANCH  18  20
HETATM   20  C6  UNL     1      21.179   9.844  10.704  1.00  0.00     0.142 C 
BRANCH  20  21
HETATM   21  C7  UNL     1      21.605  10.663   9.489  1.00  0.00     0.009 C 
HETATM   22  C8  UNL     1      20.472  11.505   9.007  1.00  0.00     0.007 C 
HETATM   23  C9  UNL     1      20.300  12.791   9.773  1.00  0.00     0.006 C 
HETATM   24  C10 UNL     1      21.603  13.579   9.585  1.00  0.00     0.079 C 
HETATM   25  C11 UNL     1      22.680  12.794  10.276  1.00  0.00     0.244 C 
HETATM   26  F2  UNL     1      22.457  12.704  11.642  1.00  0.00    -0.206 F 
HETATM   27  F3  UNL     1      23.888  13.477  10.101  1.00  0.00    -0.206 F 
HETATM   28  C12 UNL     1      22.872  11.415   9.739  1.00  0.00     0.085 C 
ENDBRANCH  20  21
ENDBRANCH  18  20
ENDBRANCH   7  18
BRANCH  10  29
HETATM   29  N5  UNL     1      17.430   7.984  13.826  1.00  0.00    -0.234 N 
ATOM     30  H52 UNL     1      17.557   8.695  14.546  1.00  0.00     0.174 HD
ATOM     31  H51 UNL     1      17.177   7.016  14.026  1.00  0.00     0.174 HD
ENDBRANCH  10  29
BRANCH   1  32
HETATM   32  C2  UNL     1      14.352   7.369  12.016  1.00  0.00     0.066 C 
HETATM   33  C1  UNL     1      14.261   6.556  13.279  1.00  0.00     0.010 C 
ENDBRANCH   1  32
BRANCH  15  34
HETATM   34  C18 UNL     1      12.098  12.706  12.220  1.00  0.00     0.041 C 
BRANCH  34  35
HETATM   35  C19 UNL     1      11.438  13.953  11.741  1.00  0.00     0.051 C 
HETATM   36  C20 UNL     1      12.417  15.081  11.491  1.00  0.00     0.045 C 
HETATM   37  C21 UNL     1      10.536  14.439  12.887  1.00  0.00     0.045 C 
BRANCH  35  38
HETATM   38  O2  UNL     1      10.623  13.776  10.644  1.00  0.00    -0.391 OA
ATOM     39  H2  UNL     1      10.734  14.433   9.967  1.00  0.00     0.210 HD
ENDBRANCH  35  38
ENDBRANCH  34  35
ENDBRANCH  15  34
TORSDOF 8
ENDMDL
MODEL 5
REMARK VINA RESULT: -7.882708610      4.899      9.472
REMARK  8 active torsions:
REMARK  status: ('A' for Active; 'I' for Inactive)
REMARK    1  A    between atoms: C2_2  and  C3_3 
REMARK    2  A    between atoms: C5_9  and  N3_10 
REMARK    3  A    between atoms: N3_10  and  C6_12 
REMARK    4  A    between atoms: C6_12  and  C7_13 
REMARK    5  A    between atoms: C13_23  and  N5_24 
REMARK    6  A    between atoms: C17_31  and  C18_32 
REMARK    7  A    between atoms: C18_32  and  C19_33 
REMARK    8  A    between atoms: C19_33  and  O2_36 
ROOT
HETATM    1  C3  UNL     1      14.996   8.668  12.101  1.00  0.00     0.233 C 
HETATM    2  F1  UNL     1      14.739   9.270  13.310  1.00  0.00    -0.215 F 
HETATM    3  N1  UNL     1      16.421   8.692  11.804  1.00  0.00    -0.104 N 
HETATM    4  C4  UNL     1      16.602   9.054  10.499  1.00  0.00     0.259 A 
HETATM    5  N2  UNL     1      17.824   9.159   9.937  1.00  0.00    -0.154 N 
ATOM      6  H2  UNL     1      17.904   9.433   8.958  1.00  0.00     0.188 HD
HETATM    7  C5  UNL     1      18.918   8.911  10.635  1.00  0.00     0.695 A 
HETATM    8  N4  UNL     1      18.796   8.553  11.920  1.00  0.00    -0.022 N 
ATOM      9  H4  UNL     1      19.627   8.358  12.479  1.00  0.00     0.203 HD
HETATM   10  C13 UNL     1      17.561   8.451  12.474  1.00  0.00     0.698 A 
HETATM   11  O1  UNL     1      15.380   9.273   9.931  1.00  0.00    -0.304 OA
HETATM   12  C14 UNL     1      14.508   9.618  11.029  1.00  0.00     0.127 C 
HETATM   13  C15 UNL     1      13.121   9.443  10.567  1.00  0.00     0.044 C 
HETATM   14  C16 UNL     1      12.180  10.218  11.466  1.00  0.00     0.008 C 
HETATM   15  C17 UNL     1      12.344  11.687  11.147  1.00  0.00    -0.012 C 
HETATM   16  C22 UNL     1      13.759  11.985  10.734  1.00  0.00     0.008 C 
HETATM   17  C23 UNL     1      14.772  11.050  11.366  1.00  0.00     0.044 C 
ENDROOT
BRANCH   7  18
HETATM   18  N3  UNL     1      20.106   9.007  10.109  1.00  0.00    -0.225 N 
ATOM     19  H3  UNL     1      20.778   8.260  10.286  1.00  0.00     0.177 HD
BRANCH  18  20
HETATM   20  C6  UNL     1      20.511  10.114   9.294  1.00  0.00     0.142 C 
BRANCH  20  21
HETATM   21  C7  UNL     1      21.012   9.656   7.928  1.00  0.00     0.009 C 
HETATM   22  C8  UNL     1      19.861   9.321   7.039  1.00  0.00     0.007 C 
HETATM   23  C9  UNL     1      19.239  10.520   6.372  1.00  0.00     0.006 C 
HETATM   24  C10 UNL     1      20.342  11.156   5.517  1.00  0.00     0.079 C 
HETATM   25  C11 UNL     1      21.378  11.672   6.473  1.00  0.00     0.244 C 
HETATM   26  F2  UNL     1      20.875  12.672   7.290  1.00  0.00    -0.206 F 
HETATM   27  F3  UNL     1      22.413  12.238   5.720  1.00  0.00    -0.206 F 
HETATM   28  C12 UNL     1      21.988  10.620   7.338  1.00  0.00     0.085 C 
ENDBRANCH  20  21
ENDBRANCH  18  20
ENDBRANCH   7  18
BRANCH  10  29
HETATM   29  N5  UNL     1      17.477   8.119  13.718  1.00  0.00    -0.234 N 
ATOM     30  H52 UNL     1      17.665   8.834  14.422  1.00  0.00     0.174 HD
ATOM     31  H51 UNL     1      17.214   7.160  13.944  1.00  0.00     0.174 HD
ENDBRANCH  10  29
BRANCH   1  32
HETATM   32  C2  UNL     1      14.354   7.344  12.053  1.00  0.00     0.066 C 
HETATM   33  C1  UNL     1      14.226   6.610  13.360  1.00  0.00     0.010 C 
ENDBRANCH   1  32
BRANCH  15  34
HETATM   34  C18 UNL     1      11.884  12.583  12.270  1.00  0.00     0.041 C 
BRANCH  34  35
HETATM   35  C19 UNL     1      11.368  13.901  11.803  1.00  0.00     0.051 C 
HETATM   36  C20 UNL     1      12.457  14.940  11.647  1.00  0.00     0.045 C 
HETATM   37  C21 UNL     1      10.451  14.431  12.916  1.00  0.00     0.045 C 
BRANCH  35  38
HETATM   38  O2  UNL     1      10.603  13.834  10.658  1.00  0.00    -0.391 OA
ATOM     39  H2  UNL     1      10.788  14.519  10.026  1.00  0.00     0.210 HD
ENDBRANCH  35  38
ENDBRANCH  34  35
ENDBRANCH  15  34
TORSDOF 8
ENDMDL
