MODEL 1
REMARK VINA RESULT: -7.516119083      0.000      0.000
REMARK  12 active torsions:
REMARK  status: ('A' for Active; 'I' for Inactive)
REMARK    1  A    between atoms: C2_2  and  C3_3 
REMARK    2  A    between atoms: C4_4  and  C5_5 
REMARK    3  A    between atoms: C5_5  and  C6_6 
REMARK    4  A    between atoms: C6_6  and  C7_7 
REMARK    5  A    between atoms: C9_9  and  O1_10 
REMARK    6  A    between atoms: C10_12  and  O2_13 
REMARK    7  A    between atoms: C11_15  and  O3_16 
REMARK    8  A    between atoms: C13_19  and  C14_20 
REMARK    9  A    between atoms: C14_20  and  C15_21 
REMARK   10  A    between atoms: C14_20  and  O4_25 
REMARK   11  A    between atoms: C15_21  and  N1_22 
REMARK   12  A    between atoms: O4_25  and  C18_26 
ROOT
HETATM    1  C7  UNL     1      23.069 -42.017  -7.756  1.00  0.00     0.125 C 
HETATM    2  C8  UNL     1      23.011 -43.441  -7.251  1.00  0.00     0.075 C 
HETATM    3  C9  UNL     1      21.481 -43.617  -7.278  1.00  0.00     0.115 C 
HETATM    4  C10 UNL     1      20.963 -43.948  -8.612  1.00  0.00     0.183 C 
HETATM    5  C11 UNL     1      20.149 -42.978  -9.350  1.00  0.00     0.150 C 
HETATM    6  C12 UNL     1      19.917 -41.646  -8.676  1.00  0.00     0.044 C 
HETATM    7  C13 UNL     1      19.719 -41.969  -7.199  1.00  0.00     0.055 C 
HETATM    8  C20 UNL     1      21.091 -42.281  -6.703  1.00  0.00     0.166 C 
HETATM    9  O6  UNL     1      22.059 -41.368  -7.106  1.00  0.00    -0.377 OA
ENDROOT
BRANCH   7  10
HETATM   10  C14 UNL     1      18.966 -40.936  -6.445  1.00  0.00     0.176 C 
BRANCH  10  11
HETATM   11  C15 UNL     1      17.738 -41.457  -5.755  1.00  0.00     0.090 C 
BRANCH  11  12
HETATM   12  N1  UNL     1      16.723 -40.489  -5.618  1.00  0.00    -0.399 N 
HETATM   13  C16 UNL     1      16.088 -39.990  -6.772  1.00  0.00     0.148 C 
HETATM   14  C17 UNL     1      16.529 -39.848  -4.386  1.00  0.00     0.148 C 
ENDBRANCH  11  12
ENDBRANCH  10  11
BRANCH  10  15
HETATM   15  O4  UNL     1      19.880 -40.377  -5.498  1.00  0.00    -0.310 OA
BRANCH  15  16
HETATM   16  C18 UNL     1      20.212 -39.038  -5.516  1.00  0.00     0.255 C 
HETATM   17  C19 UNL     1      21.515 -38.503  -5.053  1.00  0.00     0.126 C 
HETATM   18  O5  UNL     1      19.339 -38.246  -5.960  1.00  0.00    -0.266 OA
ENDBRANCH  15  16
ENDBRANCH  10  15
ENDBRANCH   7  10
BRANCH   5  19
HETATM   19  O3  UNL     1      20.640 -42.667 -10.635  1.00  0.00    -0.393 OA
ATOM     20  H3  UNL     1      20.649 -41.739 -10.836  1.00  0.00     0.210 HD
ENDBRANCH   5  19
BRANCH   3  21
HETATM   21  O1  UNL     1      21.214 -44.612  -6.325  1.00  0.00    -0.384 OA
ATOM     22  H1  UNL     1      21.533 -45.416  -6.716  1.00  0.00     0.210 HD
ENDBRANCH   3  21
BRANCH   4  23
HETATM   23  O2  UNL     1      22.074 -44.374  -9.387  1.00  0.00    -0.390 OA
ATOM     24  H2  UNL     1      21.853 -44.209 -10.296  1.00  0.00     0.210 HD
ENDBRANCH   4  23
BRANCH   1  25
HETATM   25  C6  UNL     1      24.409 -41.394  -7.635  1.00  0.00     0.036 C 
BRANCH  25  26
HETATM   26  C5  UNL     1      24.774 -40.893  -6.272  1.00  0.00     0.029 C 
BRANCH  26  27
HETATM   27  C4  UNL     1      25.161 -39.473  -6.411  1.00  0.00    -0.027 C 
HETATM   28  C3  UNL     1      24.598 -38.735  -7.348  1.00  0.00    -0.005 C 
BRANCH  28  29
HETATM   29  C2  UNL     1      24.933 -37.327  -7.539  1.00  0.00    -0.011 C 
HETATM   30  C1  UNL     1      24.617 -36.465  -6.595  1.00  0.00     0.011 C 
ENDBRANCH  28  29
ENDBRANCH  26  27
ENDBRANCH  25  26
ENDBRANCH   1  25
TORSDOF 12
ENDMDL
MODEL 2
REMARK VINA RESULT: -7.435018358      2.656      5.367
REMARK  12 active torsions:
REMARK  status: ('A' for Active; 'I' for Inactive)
REMARK    1  A    between atoms: C2_2  and  C3_3 
REMARK    2  A    between atoms: C4_4  and  C5_5 
REMARK    3  A    between atoms: C5_5  and  C6_6 
REMARK    4  A    between atoms: C6_6  and  C7_7 
REMARK    5  A    between atoms: C9_9  and  O1_10 
REMARK    6  A    between atoms: C10_12  and  O2_13 
REMARK    7  A    between atoms: C11_15  and  O3_16 
REMARK    8  A    between atoms: C13_19  and  C14_20 
REMARK    9  A    between atoms: C14_20  and  C15_21 
REMARK   10  A    between atoms: C14_20  and  O4_25 
REMARK   11  A    between atoms: C15_21  and  N1_22 
REMARK   12  A    between atoms: O4_25  and  C18_26 
ROOT
HETATM    1  C7  UNL     1      21.355 -40.208  -5.583  1.00  0.00     0.125 C 
HETATM    2  C8  UNL     1      21.201 -38.874  -6.278  1.00  0.00     0.075 C 
HETATM    3  C9  UNL     1      19.720 -38.624  -5.937  1.00  0.00     0.115 C 
HETATM    4  C10 UNL     1      19.524 -38.074  -4.589  1.00  0.00     0.183 C 
HETATM    5  C11 UNL     1      18.887 -38.884  -3.547  1.00  0.00     0.150 C 
HETATM    6  C12 UNL     1      18.492 -40.289  -3.936  1.00  0.00     0.044 C 
HETATM    7  C13 UNL     1      17.967 -40.181  -5.363  1.00  0.00     0.055 C 
HETATM    8  C20 UNL     1      19.193 -40.011  -6.195  1.00  0.00     0.166 C 
HETATM    9  O6  UNL     1      20.216 -40.898  -5.882  1.00  0.00    -0.377 OA
ENDROOT
BRANCH   7  10
HETATM   10  C14 UNL     1      17.049 -41.278  -5.760  1.00  0.00     0.176 C 
BRANCH  10  11
HETATM   11  C15 UNL     1      17.204 -42.529  -4.945  1.00  0.00     0.090 C 
BRANCH  11  12
HETATM   12  N1  UNL     1      17.489 -43.669  -5.723  1.00  0.00    -0.399 N 
HETATM   13  C16 UNL     1      16.635 -44.786  -5.645  1.00  0.00     0.148 C 
HETATM   14  C17 UNL     1      18.732 -43.788  -6.361  1.00  0.00     0.148 C 
ENDBRANCH  11  12
ENDBRANCH  10  11
BRANCH  10  15
HETATM   15  O4  UNL     1      15.722 -40.759  -5.644  1.00  0.00    -0.310 OA
BRANCH  15  16
HETATM   16  C18 UNL     1      15.276 -39.726  -6.442  1.00  0.00     0.255 C 
HETATM   17  C19 UNL     1      14.682 -38.473  -5.916  1.00  0.00     0.126 C 
HETATM   18  O5  UNL     1      15.395 -39.882  -7.686  1.00  0.00    -0.266 OA
ENDBRANCH  15  16
ENDBRANCH  10  15
ENDBRANCH   7  10
BRANCH   5  19
HETATM   19  O3  UNL     1      19.655 -39.024  -2.371  1.00  0.00    -0.393 OA
ATOM     20  H3  UNL     1      20.021 -39.890  -2.244  1.00  0.00     0.210 HD
ENDBRANCH   5  19
BRANCH   3  21
HETATM   21  O1  UNL     1      19.255 -37.771  -6.950  1.00  0.00    -0.384 OA
ATOM     22  H1  UNL     1      19.186 -38.321  -7.720  1.00  0.00     0.210 HD
ENDBRANCH   3  21
BRANCH   4  23
HETATM   23  O2  UNL     1      20.787 -37.590  -4.158  1.00  0.00    -0.390 OA
ATOM     24  H2  UNL     1      20.627 -36.768  -3.712  1.00  0.00     0.210 HD
ENDBRANCH   4  23
BRANCH   1  25
HETATM   25  C6  UNL     1      22.625 -40.905  -5.901  1.00  0.00     0.036 C 
BRANCH  25  26
HETATM   26  C5  UNL     1      22.487 -42.285  -6.468  1.00  0.00     0.029 C 
BRANCH  26  27
HETATM   27  C4  UNL     1      23.239 -42.317  -7.741  1.00  0.00    -0.027 C 
HETATM   28  C3  UNL     1      22.974 -43.255  -8.629  1.00  0.00    -0.005 C 
BRANCH  28  29
HETATM   29  C2  UNL     1      23.678 -43.344  -9.905  1.00  0.00    -0.011 C 
HETATM   30  C1  UNL     1      23.035 -43.815 -10.954  1.00  0.00     0.011 C 
ENDBRANCH  28  29
ENDBRANCH  26  27
ENDBRANCH  25  26
ENDBRANCH   1  25
TORSDOF 12
ENDMDL
MODEL 3
REMARK VINA RESULT: -7.343948524      1.366      2.183
REMARK  12 active torsions:
REMARK  status: ('A' for Active; 'I' for Inactive)
REMARK    1  A    between atoms: C2_2  and  C3_3 
REMARK    2  A    between atoms: C4_4  and  C5_5 
REMARK    3  A    between atoms: C5_5  and  C6_6 
REMARK    4  A    between atoms: C6_6  and  C7_7 
REMARK    5  A    between atoms: C9_9  and  O1_10 
REMARK    6  A    between atoms: C10_12  and  O2_13 
REMARK    7  A    between atoms: C11_15  and  O3_16 
REMARK    8  A    between atoms: C13_19  and  C14_20 
REMARK    9  A    between atoms: C14_20  and  C15_21 
REMARK   10  A    between atoms: C14_20  and  O4_25 
REMARK   11  A    between atoms: C15_21  and  N1_22 
REMARK   12  A    between atoms: O4_25  and  C18_26 
ROOT
HETATM    1  C7  UNL     1      23.097 -42.104  -7.762  1.00  0.00     0.125 C 
HETATM    2  C8  UNL     1      23.031 -43.556  -7.346  1.00  0.00     0.075 C 
HETATM    3  C9  UNL     1      21.497 -43.696  -7.301  1.00  0.00     0.115 C 
HETATM    4  C10 UNL     1      20.901 -43.929  -8.622  1.00  0.00     0.183 C 
HETATM    5  C11 UNL     1      20.073 -42.896  -9.252  1.00  0.00     0.150 C 
HETATM    6  C12 UNL     1      19.911 -41.606  -8.483  1.00  0.00     0.044 C 
HETATM    7  C13 UNL     1      19.784 -42.018  -7.021  1.00  0.00     0.055 C 
HETATM    8  C20 UNL     1      21.172 -42.392  -6.622  1.00  0.00     0.166 C 
HETATM    9  O6  UNL     1      22.140 -41.477  -7.018  1.00  0.00    -0.377 OA
ENDROOT
BRANCH   7  10
HETATM   10  C14 UNL     1      19.099 -41.020  -6.163  1.00  0.00     0.176 C 
BRANCH  10  11
HETATM   11  C15 UNL     1      19.088 -39.630  -6.731  1.00  0.00     0.090 C 
BRANCH  11  12
HETATM   12  N1  UNL     1      19.594 -38.660  -5.842  1.00  0.00    -0.399 N 
HETATM   13  C16 UNL     1      20.967 -38.663  -5.530  1.00  0.00     0.148 C 
HETATM   14  C17 UNL     1      18.711 -37.877  -5.086  1.00  0.00     0.148 C 
ENDBRANCH  11  12
ENDBRANCH  10  11
BRANCH  10  15
HETATM   15  O4  UNL     1      17.765 -41.498  -5.970  1.00  0.00    -0.310 OA
BRANCH  15  16
HETATM   16  C18 UNL     1      16.968 -41.024  -4.948  1.00  0.00     0.255 C 
HETATM   17  C19 UNL     1      17.291 -41.178  -3.509  1.00  0.00     0.126 C 
HETATM   18  O5  UNL     1      15.912 -40.428  -5.286  1.00  0.00    -0.266 OA
ENDBRANCH  15  16
ENDBRANCH  10  15
ENDBRANCH   7  10
BRANCH   5  19
HETATM   19  O3  UNL     1      20.503 -42.513 -10.540  1.00  0.00    -0.393 OA
ATOM     20  H3  UNL     1      19.805 -42.444 -11.180  1.00  0.00     0.210 HD
ENDBRANCH   5  19
BRANCH   3  21
HETATM   21  O1  UNL     1      21.256 -44.744  -6.399  1.00  0.00    -0.384 OA
ATOM     22  H1  UNL     1      20.358 -44.621  -6.115  1.00  0.00     0.210 HD
ENDBRANCH   3  21
BRANCH   4  23
HETATM   23  O2  UNL     1      21.957 -44.329  -9.482  1.00  0.00    -0.390 OA
ATOM     24  H2  UNL     1      21.563 -44.538 -10.321  1.00  0.00     0.210 HD
ENDBRANCH   4  23
BRANCH   1  25
HETATM   25  C6  UNL     1      24.457 -41.519  -7.676  1.00  0.00     0.036 C 
BRANCH  25  26
HETATM   26  C5  UNL     1      25.128 -41.623  -6.341  1.00  0.00     0.029 C 
BRANCH  26  27
HETATM   27  C4  UNL     1      25.534 -40.259  -5.942  1.00  0.00    -0.027 C 
HETATM   28  C3  UNL     1      24.624 -39.308  -5.857  1.00  0.00    -0.005 C 
BRANCH  28  29
HETATM   29  C2  UNL     1      24.957 -37.941  -5.470  1.00  0.00    -0.011 C 
HETATM   30  C1  UNL     1      24.608 -36.951  -6.267  1.00  0.00     0.011 C 
ENDBRANCH  28  29
ENDBRANCH  26  27
ENDBRANCH  25  26
ENDBRANCH   1  25
TORSDOF 12
ENDMDL
MODEL 4
REMARK VINA RESULT: -7.224800277      4.429      7.581
REMARK  12 active torsions:
REMARK  status: ('A' for Active; 'I' for Inactive)
REMARK    1  A    between atoms: C2_2  and  C3_3 
REMARK    2  A    between atoms: C4_4  and  C5_5 
REMARK    3  A    between atoms: C5_5  and  C6_6 
REMARK    4  A    between atoms: C6_6  and  C7_7 
REMARK    5  A    between atoms: C9_9  and  O1_10 
REMARK    6  A    between atoms: C10_12  and  O2_13 
REMARK    7  A    between atoms: C11_15  and  O3_16 
REMARK    8  A    between atoms: C13_19  and  C14_20 
REMARK    9  A    between atoms: C14_20  and  C15_21 
REMARK   10  A    between atoms: C14_20  and  O4_25 
REMARK   11  A    between atoms: C15_21  and  N1_22 
REMARK   12  A    between atoms: O4_25  and  C18_26 
ROOT
HETATM    1  C7  UNL     1      22.284 -44.300  -9.791  1.00  0.00     0.125 C 
HETATM    2  C8  UNL     1      21.024 -43.766 -10.434  1.00  0.00     0.075 C 
HETATM    3  C9  UNL     1      20.047 -44.834  -9.910  1.00  0.00     0.115 C 
HETATM    4  C10 UNL     1      19.593 -44.576  -8.537  1.00  0.00     0.183 C 
HETATM    5  C11 UNL     1      20.017 -45.453  -7.442  1.00  0.00     0.150 C 
HETATM    6  C12 UNL     1      20.950 -46.582  -7.809  1.00  0.00     0.044 C 
HETATM    7  C13 UNL     1      20.457 -47.092  -9.159  1.00  0.00     0.055 C 
HETATM    8  C20 UNL     1      20.905 -46.052 -10.131  1.00  0.00     0.166 C 
HETATM    9  O6  UNL     1      22.225 -45.653  -9.963  1.00  0.00    -0.377 OA
ENDROOT
BRANCH   7  10
HETATM   10  C14 UNL     1      20.851 -48.489  -9.464  1.00  0.00     0.176 C 
BRANCH  10  11
HETATM   11  C15 UNL     1      20.562 -49.461  -8.356  1.00  0.00     0.090 C 
BRANCH  11  12
HETATM   12  N1  UNL     1      20.956 -50.781  -8.655  1.00  0.00    -0.399 N 
HETATM   13  C16 UNL     1      19.970 -51.742  -8.952  1.00  0.00     0.148 C 
HETATM   14  C17 UNL     1      22.274 -51.190  -8.410  1.00  0.00     0.148 C 
ENDBRANCH  11  12
ENDBRANCH  10  11
BRANCH  10  15
HETATM   15  O4  UNL     1      20.151 -48.858 -10.655  1.00  0.00    -0.310 OA
BRANCH  15  16
HETATM   16  C18 UNL     1      20.821 -49.194 -11.813  1.00  0.00     0.255 C 
HETATM   17  C19 UNL     1      22.119 -49.912 -11.839  1.00  0.00     0.126 C 
HETATM   18  O5  UNL     1      20.276 -48.861 -12.898  1.00  0.00    -0.266 OA
ENDBRANCH  15  16
ENDBRANCH  10  15
ENDBRANCH   7  10
BRANCH   5  19
HETATM   19  O3  UNL     1      20.645 -44.781  -6.372  1.00  0.00    -0.393 OA
ATOM     20  H3  UNL     1      20.450 -45.142  -5.516  1.00  0.00     0.210 HD
ENDBRANCH   5  19
BRANCH   3  21
HETATM   21  O1  UNL     1      18.996 -44.850 -10.840  1.00  0.00    -0.384 OA
ATOM     22  H1  UNL     1      18.674 -45.743 -10.829  1.00  0.00     0.210 HD
ENDBRANCH   3  21
BRANCH   4  23
HETATM   23  O2  UNL     1      19.902 -43.220  -8.253  1.00  0.00    -0.390 OA
ATOM     24  H2  UNL     1      19.559 -43.037  -7.387  1.00  0.00     0.210 HD
ENDBRANCH   4  23
BRANCH   1  25
HETATM   25  C6  UNL     1      23.526 -43.649 -10.276  1.00  0.00     0.036 C 
BRANCH  25  26
HETATM   26  C5  UNL     1      24.160 -42.672  -9.335  1.00  0.00     0.029 C 
BRANCH  26  27
HETATM   27  C4  UNL     1      23.459 -42.789  -8.038  1.00  0.00    -0.027 C 
HETATM   28  C3  UNL     1      24.056 -42.379  -6.936  1.00  0.00    -0.005 C 
BRANCH  28  29
HETATM   29  C2  UNL     1      23.422 -42.464  -5.625  1.00  0.00    -0.011 C 
HETATM   30  C1  UNL     1      23.554 -43.573  -4.926  1.00  0.00     0.011 C 
ENDBRANCH  28  29
ENDBRANCH  26  27
ENDBRANCH  25  26
ENDBRANCH   1  25
TORSDOF 12
ENDMDL
MODEL 5
REMARK VINA RESULT: -7.218015720      2.101      3.213
REMARK  12 active torsions:
REMARK  status: ('A' for Active; 'I' for Inactive)
REMARK    1  A    between atoms: C2_2  and  C3_3 
REMARK    2  A    between atoms: C4_4  and  C5_5 
REMARK    3  A    between atoms: C5_5  and  C6_6 
REMARK    4  A    between atoms: C6_6  and  C7_7 
REMARK    5  A    between atoms: C9_9  and  O1_10 
REMARK    6  A    between atoms: C10_12  and  O2_13 
REMARK    7  A    between atoms: C11_15  and  O3_16 
REMARK    8  A    between atoms: C13_19  and  C14_20 
REMARK    9  A    between atoms: C14_20  and  C15_21 
REMARK   10  A    between atoms: C14_20  and  O4_25 
REMARK   11  A    between atoms: C15_21  and  N1_22 
REMARK   12  A    between atoms: O4_25  and  C18_26 
ROOT
HETATM    1  C7  UNL     1      22.091 -39.124  -7.538  1.00  0.00     0.125 C 
HETATM    2  C8  UNL     1      22.799 -40.403  -7.153  1.00  0.00     0.075 C 
HETATM    3  C9  UNL     1      21.602 -41.125  -6.507  1.00  0.00     0.115 C 
HETATM    4  C10 UNL     1      20.721 -41.772  -7.488  1.00  0.00     0.183 C 
HETATM    5  C11 UNL     1      19.369 -41.256  -7.721  1.00  0.00     0.150 C 
HETATM    6  C12 UNL     1      18.973 -40.032  -6.929  1.00  0.00     0.044 C 
HETATM    7  C13 UNL     1      19.576 -40.233  -5.544  1.00  0.00     0.055 C 
HETATM    8  C20 UNL     1      21.031 -39.966  -5.733  1.00  0.00     0.166 C 
HETATM    9  O6  UNL     1      21.305 -38.817  -6.465  1.00  0.00    -0.377 OA
ENDROOT
BRANCH   7  10
HETATM   10  C14 UNL     1      18.901 -39.466  -4.468  1.00  0.00     0.176 C 
BRANCH  10  11
HETATM   11  C15 UNL     1      18.179 -38.241  -4.951  1.00  0.00     0.090 C 
BRANCH  11  12
HETATM   12  N1  UNL     1      17.018 -37.949  -4.207  1.00  0.00    -0.399 N 
HETATM   13  C16 UNL     1      15.760 -38.319  -4.722  1.00  0.00     0.148 C 
HETATM   14  C17 UNL     1      17.091 -37.083  -3.107  1.00  0.00     0.148 C 
ENDBRANCH  11  12
ENDBRANCH  10  11
BRANCH  10  15
HETATM   15  O4  UNL     1      17.994 -40.370  -3.832  1.00  0.00    -0.310 OA
BRANCH  15  16
HETATM   16  C18 UNL     1      18.078 -40.650  -2.484  1.00  0.00     0.255 C 
HETATM   17  C19 UNL     1      17.368 -41.775  -1.827  1.00  0.00     0.126 C 
HETATM   18  O5  UNL     1      18.810 -39.892  -1.794  1.00  0.00    -0.266 OA
ENDBRANCH  15  16
ENDBRANCH  10  15
ENDBRANCH   7  10
BRANCH   5  19
HETATM   19  O3  UNL     1      19.094 -40.937  -9.067  1.00  0.00    -0.393 OA
ATOM     20  H3  UNL     1      19.513 -41.510  -9.698  1.00  0.00     0.210 HD
ENDBRANCH   5  19
BRANCH   3  21
HETATM   21  O1  UNL     1      22.173 -42.033  -5.601  1.00  0.00    -0.384 OA
ATOM     22  H1  UNL     1      22.702 -42.612  -6.137  1.00  0.00     0.210 HD
ENDBRANCH   3  21
BRANCH   4  23
HETATM   23  O2  UNL     1      21.452 -41.851  -8.703  1.00  0.00    -0.390 OA
ATOM     24  H2  UNL     1      21.302 -41.035  -9.166  1.00  0.00     0.210 HD
ENDBRANCH   4  23
BRANCH   1  25
HETATM   25  C6  UNL     1      23.005 -38.046  -7.987  1.00  0.00     0.036 C 
BRANCH  25  26
HETATM   26  C5  UNL     1      23.615 -37.214  -6.901  1.00  0.00     0.029 C 
BRANCH  26  27
HETATM   27  C4  UNL     1      24.870 -37.877  -6.488  1.00  0.00    -0.027 C 
HETATM   28  C3  UNL     1      24.906 -38.555  -5.357  1.00  0.00    -0.005 C 
BRANCH  28  29
HETATM   29  C2  UNL     1      26.111 -39.234  -4.891  1.00  0.00    -0.011 C 
HETATM   30  C1  UNL     1      26.374 -40.443  -5.342  1.00  0.00     0.011 C 
ENDBRANCH  28  29
ENDBRANCH  26  27
ENDBRANCH  25  26
ENDBRANCH   1  25
TORSDOF 12
ENDMDL
