MODEL 1
REMARK VINA RESULT: -8.197191617      0.000      0.000
REMARK  9 active torsions:
REMARK  status: ('A' for Active; 'I' for Inactive)
REMARK    1  A    between atoms: C2_2  and  C3_3 
REMARK    2  A    between atoms: C2_2  and  C4_6 
REMARK    3  A    between atoms: C7_9  and  O3_10 
REMARK    4  A    between atoms: C8_12  and  O4_13 
REMARK    5  A    between atoms: O4_13  and  C9_14 
REMARK    6  A    between atoms: C9_14  and  C10_16 
REMARK    7  A    between atoms: C10_16  and  C11_17 
REMARK    8  A    between atoms: C10_16  and  O6_19 
REMARK    9  A    between atoms: C16_25  and  C17_26 
ROOT
HETATM    1  C4  UNL     1      19.119 -40.211  -3.751  1.00  0.00     0.042 C 
HETATM    2  C5  UNL     1      20.056 -39.067  -3.957  1.00  0.00     0.013 C 
HETATM    3  C6  UNL     1      21.121 -39.421  -5.022  1.00  0.00     0.044 C 
HETATM    4  C7  UNL     1      20.409 -39.814  -6.256  1.00  0.00     0.121 C 
HETATM    5  C8  UNL     1      21.299 -40.414  -7.325  1.00  0.00     0.268 C 
HETATM    6  C14 UNL     1      20.435 -41.477  -7.911  1.00  0.00     0.292 C 
HETATM    7  O7  UNL     1      20.770 -42.220  -8.896  1.00  0.00    -0.262 OA
HETATM    8  O8  UNL     1      19.245 -41.489  -7.190  1.00  0.00    -0.310 OA
HETATM    9  C15 UNL     1      19.561 -41.028  -5.932  1.00  0.00     0.184 C 
HETATM   10  C16 UNL     1      18.422 -40.595  -5.048  1.00  0.00     0.128 C 
ENDROOT
BRANCH   5  11
HETATM   11  O4  UNL     1      22.491 -40.899  -6.795  1.00  0.00    -0.301 OA
BRANCH  11  12
HETATM   12  C9  UNL     1      23.733 -40.628  -7.358  1.00  0.00     0.288 C 
HETATM   13  O5  UNL     1      24.077 -41.425  -8.271  1.00  0.00    -0.262 OA
BRANCH  12  14
HETATM   14  C10 UNL     1      24.551 -39.490  -6.895  1.00  0.00     0.220 C 
BRANCH  14  15
HETATM   15  C11 UNL     1      25.581 -39.954  -5.854  1.00  0.00     0.038 C 
HETATM   16  C12 UNL     1      25.775 -38.900  -4.789  1.00  0.00     0.008 C 
ENDBRANCH  14  15
BRANCH  14  17
HETATM   17  O6  UNL     1      25.111 -38.745  -7.880  1.00  0.00    -0.381 OA
HETATM   18  C13 UNL     1      24.433 -37.612  -8.260  1.00  0.00     0.202 C 
ENDBRANCH  14  17
ENDBRANCH  12  14
ENDBRANCH  11  12
ENDBRANCH   5  11
BRANCH   4  19
HETATM   19  O3  UNL     1      19.731 -38.776  -6.838  1.00  0.00    -0.384 OA
ATOM     20  H3  UNL     1      19.155 -39.055  -7.540  1.00  0.00     0.210 HD
ENDBRANCH   4  19
BRANCH  10  21
HETATM   21  C17 UNL     1      17.631 -39.520  -5.630  1.00  0.00     0.180 C 
HETATM   22  O9  UNL     1      17.548 -38.328  -5.251  1.00  0.00    -0.648 OA
HETATM   23  O10 UNL     1      16.848 -39.817  -6.761  1.00  0.00    -0.648 OA
ENDBRANCH  10  21
BRANCH   1  24
HETATM   24  C2  UNL     1      18.240 -40.068  -2.618  1.00  0.00     0.014 C 
HETATM   25  C1  UNL     1      17.699 -38.877  -2.320  1.00  0.00     0.026 C 
BRANCH  24  26
HETATM   26  C3  UNL     1      17.858 -41.140  -1.724  1.00  0.00     0.204 C 
HETATM   27  O1  UNL     1      16.899 -41.884  -1.949  1.00  0.00    -0.644 OA
HETATM   28  O2  UNL     1      18.578 -41.360  -0.565  1.00  0.00    -0.644 OA
ENDBRANCH  24  26
ENDBRANCH   1  24
TORSDOF 9
ENDMDL
MODEL 2
REMARK VINA RESULT: -8.089759316      2.150      7.108
REMARK  9 active torsions:
REMARK  status: ('A' for Active; 'I' for Inactive)
REMARK    1  A    between atoms: C2_2  and  C3_3 
REMARK    2  A    between atoms: C2_2  and  C4_6 
REMARK    3  A    between atoms: C7_9  and  O3_10 
REMARK    4  A    between atoms: C8_12  and  O4_13 
REMARK    5  A    between atoms: O4_13  and  C9_14 
REMARK    6  A    between atoms: C9_14  and  C10_16 
REMARK    7  A    between atoms: C10_16  and  C11_17 
REMARK    8  A    between atoms: C10_16  and  O6_19 
REMARK    9  A    between atoms: C16_25  and  C17_26 
ROOT
HETATM    1  C4  UNL     1      22.124 -41.406  -6.368  1.00  0.00     0.042 C 
HETATM    2  C5  UNL     1      21.287 -41.132  -7.573  1.00  0.00     0.013 C 
HETATM    3  C6  UNL     1      19.880 -40.640  -7.157  1.00  0.00     0.044 C 
HETATM    4  C7  UNL     1      20.056 -39.454  -6.294  1.00  0.00     0.121 C 
HETATM    5  C8  UNL     1      18.787 -38.986  -5.611  1.00  0.00     0.268 C 
HETATM    6  C14 UNL     1      19.276 -38.554  -4.273  1.00  0.00     0.292 C 
HETATM    7  O7  UNL     1      18.539 -38.034  -3.366  1.00  0.00    -0.262 OA
HETATM    8  O8  UNL     1      20.640 -38.823  -4.221  1.00  0.00    -0.310 OA
HETATM    9  C15 UNL     1      20.846 -39.884  -5.075  1.00  0.00     0.184 C 
HETATM   10  C16 UNL     1      22.264 -40.165  -5.497  1.00  0.00     0.128 C 
ENDROOT
BRANCH   5  11
HETATM   11  O4  UNL     1      17.829 -39.995  -5.551  1.00  0.00    -0.301 OA
BRANCH  11  12
HETATM   12  C9  UNL     1      16.629 -39.856  -4.863  1.00  0.00     0.288 C 
HETATM   13  O5  UNL     1      16.467 -40.678  -3.923  1.00  0.00    -0.262 OA
BRANCH  12  14
HETATM   14  C10 UNL     1      15.650 -38.816  -5.237  1.00  0.00     0.220 C 
BRANCH  14  15
HETATM   15  C11 UNL     1      14.551 -39.407  -6.134  1.00  0.00     0.038 C 
HETATM   16  C12 UNL     1      15.122 -39.831  -7.467  1.00  0.00     0.008 C 
ENDBRANCH  14  15
BRANCH  14  17
HETATM   17  O6  UNL     1      15.143 -38.103  -4.201  1.00  0.00    -0.381 OA
HETATM   18  C13 UNL     1      15.199 -36.734  -4.306  1.00  0.00     0.202 C 
ENDBRANCH  14  17
ENDBRANCH  12  14
ENDBRANCH  11  12
ENDBRANCH   5  11
BRANCH   4  19
HETATM   19  O3  UNL     1      20.569 -38.375  -6.963  1.00  0.00    -0.384 OA
ATOM     20  H3  UNL     1      20.506 -38.458  -7.907  1.00  0.00     0.210 HD
ENDBRANCH   4  19
BRANCH  10  21
HETATM   21  C17 UNL     1      22.885 -39.038  -6.178  1.00  0.00     0.180 C 
HETATM   22  O9  UNL     1      23.190 -38.938  -7.390  1.00  0.00    -0.648 OA
HETATM   23  O10 UNL     1      23.199 -37.899  -5.414  1.00  0.00    -0.648 OA
ENDBRANCH  10  21
BRANCH   1  24
HETATM   24  C2  UNL     1      23.364 -42.088  -6.642  1.00  0.00     0.014 C 
HETATM   25  C1  UNL     1      24.007 -42.751  -5.670  1.00  0.00     0.026 C 
BRANCH  24  26
HETATM   26  C3  UNL     1      24.017 -42.135  -7.932  1.00  0.00     0.204 C 
HETATM   27  O1  UNL     1      23.634 -42.874  -8.845  1.00  0.00    -0.644 OA
HETATM   28  O2  UNL     1      25.115 -41.332  -8.179  1.00  0.00    -0.644 OA
ENDBRANCH  24  26
ENDBRANCH   1  24
TORSDOF 9
ENDMDL
MODEL 3
REMARK VINA RESULT: -8.037324434      0.576      1.345
REMARK  9 active torsions:
REMARK  status: ('A' for Active; 'I' for Inactive)
REMARK    1  A    between atoms: C2_2  and  C3_3 
REMARK    2  A    between atoms: C2_2  and  C4_6 
REMARK    3  A    between atoms: C7_9  and  O3_10 
REMARK    4  A    between atoms: C8_12  and  O4_13 
REMARK    5  A    between atoms: O4_13  and  C9_14 
REMARK    6  A    between atoms: C9_14  and  C10_16 
REMARK    7  A    between atoms: C10_16  and  C11_17 
REMARK    8  A    between atoms: C10_16  and  O6_19 
REMARK    9  A    between atoms: C16_25  and  C17_26 
ROOT
HETATM    1  C4  UNL     1      19.116 -40.124  -3.733  1.00  0.00     0.042 C 
HETATM    2  C5  UNL     1      19.936 -38.903  -3.983  1.00  0.00     0.013 C 
HETATM    3  C6  UNL     1      21.038 -39.192  -5.030  1.00  0.00     0.044 C 
HETATM    4  C7  UNL     1      20.377 -39.703  -6.248  1.00  0.00     0.121 C 
HETATM    5  C8  UNL     1      21.329 -40.254  -7.289  1.00  0.00     0.268 C 
HETATM    6  C14 UNL     1      20.578 -41.420  -7.834  1.00  0.00     0.292 C 
HETATM    7  O7  UNL     1      20.992 -42.166  -8.787  1.00  0.00    -0.262 OA
HETATM    8  O8  UNL     1      19.391 -41.521  -7.117  1.00  0.00    -0.310 OA
HETATM    9  C15 UNL     1      19.651 -40.981  -5.878  1.00  0.00     0.184 C 
HETATM   10  C16 UNL     1      18.469 -40.628  -5.015  1.00  0.00     0.128 C 
ENDROOT
BRANCH   5  11
HETATM   11  O4  UNL     1      22.560 -40.597  -6.736  1.00  0.00    -0.301 OA
BRANCH  11  12
HETATM   12  C9  UNL     1      23.772 -40.306  -7.353  1.00  0.00     0.288 C 
HETATM   13  O5  UNL     1      24.198 -41.209  -8.120  1.00  0.00    -0.262 OA
BRANCH  12  14
HETATM   14  C10 UNL     1      24.470 -39.030  -7.100  1.00  0.00     0.220 C 
BRANCH  14  15
HETATM   15  C11 UNL     1      24.078 -37.983  -8.155  1.00  0.00     0.038 C 
HETATM   16  C12 UNL     1      23.039 -37.035  -7.604  1.00  0.00     0.008 C 
ENDBRANCH  14  15
BRANCH  14  17
HETATM   17  O6  UNL     1      24.362 -38.555  -5.835  1.00  0.00    -0.381 OA
HETATM   18  C13 UNL     1      25.459 -38.705  -5.022  1.00  0.00     0.202 C 
ENDBRANCH  14  17
ENDBRANCH  12  14
ENDBRANCH  11  12
ENDBRANCH   5  11
BRANCH   4  19
HETATM   19  O3  UNL     1      19.604 -38.761  -6.874  1.00  0.00    -0.384 OA
ATOM     20  H3  UNL     1      18.867 -38.476  -6.347  1.00  0.00     0.210 HD
ENDBRANCH   4  19
BRANCH  10  21
HETATM   21  C17 UNL     1      17.580 -39.660  -5.643  1.00  0.00     0.180 C 
HETATM   22  O9  UNL     1      17.362 -38.474  -5.300  1.00  0.00    -0.648 OA
HETATM   23  O10 UNL     1      16.857 -40.070  -6.778  1.00  0.00    -0.648 OA
ENDBRANCH  10  21
BRANCH   1  24
HETATM   24  C2  UNL     1      18.219 -40.024  -2.609  1.00  0.00     0.014 C 
HETATM   25  C1  UNL     1      17.639 -38.854  -2.302  1.00  0.00     0.026 C 
BRANCH  24  26
HETATM   26  C3  UNL     1      17.860 -41.119  -1.734  1.00  0.00     0.204 C 
HETATM   27  O1  UNL     1      16.905 -41.867  -1.963  1.00  0.00    -0.644 OA
HETATM   28  O2  UNL     1      18.597 -41.358  -0.590  1.00  0.00    -0.644 OA
ENDBRANCH  24  26
ENDBRANCH   1  24
TORSDOF 9
ENDMDL
MODEL 4
REMARK VINA RESULT: -7.921331364      3.493      5.451
REMARK  9 active torsions:
REMARK  status: ('A' for Active; 'I' for Inactive)
REMARK    1  A    between atoms: C2_2  and  C3_3 
REMARK    2  A    between atoms: C2_2  and  C4_6 
REMARK    3  A    between atoms: C7_9  and  O3_10 
REMARK    4  A    between atoms: C8_12  and  O4_13 
REMARK    5  A    between atoms: O4_13  and  C9_14 
REMARK    6  A    between atoms: C9_14  and  C10_16 
REMARK    7  A    between atoms: C10_16  and  C11_17 
REMARK    8  A    between atoms: C10_16  and  O6_19 
REMARK    9  A    between atoms: C16_25  and  C17_26 
ROOT
HETATM    1  C4  UNL     1      20.626 -44.492  -6.838  1.00  0.00     0.042 C 
HETATM    2  C5  UNL     1      19.793 -43.254  -6.836  1.00  0.00     0.013 C 
HETATM    3  C6  UNL     1      20.678 -42.003  -6.620  1.00  0.00     0.044 C 
HETATM    4  C7  UNL     1      21.715 -42.000  -7.673  1.00  0.00     0.121 C 
HETATM    5  C8  UNL     1      22.806 -40.969  -7.470  1.00  0.00     0.268 C 
HETATM    6  C14 UNL     1      24.024 -41.686  -7.940  1.00  0.00     0.292 C 
HETATM    7  O7  UNL     1      25.193 -41.169  -7.993  1.00  0.00    -0.262 OA
HETATM    8  O8  UNL     1      23.639 -42.977  -8.289  1.00  0.00    -0.310 OA
HETATM    9  C15 UNL     1      22.537 -43.263  -7.515  1.00  0.00     0.184 C 
HETATM   10  C16 UNL     1      21.692 -44.440  -7.924  1.00  0.00     0.128 C 
ENDROOT
BRANCH   5  11
HETATM   11  O4  UNL     1      22.885 -40.553  -6.143  1.00  0.00    -0.301 OA
BRANCH  11  12
HETATM   12  C9  UNL     1      23.034 -39.220  -5.779  1.00  0.00     0.288 C 
HETATM   13  O5  UNL     1      22.096 -38.764  -5.071  1.00  0.00    -0.262 OA
BRANCH  12  14
HETATM   14  C10 UNL     1      24.210 -38.436  -6.207  1.00  0.00     0.220 C 
BRANCH  14  15
HETATM   15  C11 UNL     1      23.770 -37.109  -6.843  1.00  0.00     0.038 C 
HETATM   16  C12 UNL     1      24.783 -36.024  -6.566  1.00  0.00     0.008 C 
ENDBRANCH  14  15
BRANCH  14  17
HETATM   17  O6  UNL     1      25.164 -38.265  -5.259  1.00  0.00    -0.381 OA
HETATM   18  C13 UNL     1      26.005 -39.327  -5.029  1.00  0.00     0.202 C 
ENDBRANCH  14  17
ENDBRANCH  12  14
ENDBRANCH  11  12
ENDBRANCH   5  11
BRANCH   4  19
HETATM   19  O3  UNL     1      21.204 -41.798  -8.928  1.00  0.00    -0.384 OA
ATOM     20  H3  UNL     1      21.770 -41.270  -9.479  1.00  0.00     0.210 HD
ENDBRANCH   4  19
BRANCH  10  21
HETATM   21  C17 UNL     1      21.152 -44.308  -9.270  1.00  0.00     0.180 C 
HETATM   22  O9  UNL     1      19.952 -44.196  -9.615  1.00  0.00    -0.648 OA
HETATM   23  O10 UNL     1      22.060 -44.301 -10.345  1.00  0.00    -0.648 OA
ENDBRANCH  10  21
BRANCH   1  24
HETATM   24  C2  UNL     1      19.873 -45.721  -6.797  1.00  0.00     0.014 C 
HETATM   25  C1  UNL     1      18.577 -45.715  -6.448  1.00  0.00     0.026 C 
BRANCH  24  26
HETATM   26  C3  UNL     1      20.401 -47.029  -7.116  1.00  0.00     0.204 C 
HETATM   27  O1  UNL     1      20.903 -47.769  -6.265  1.00  0.00    -0.644 OA
HETATM   28  O2  UNL     1      20.355 -47.492  -8.418  1.00  0.00    -0.644 OA
ENDBRANCH  24  26
ENDBRANCH   1  24
TORSDOF 9
ENDMDL
MODEL 5
REMARK VINA RESULT: -7.914899409      1.243      1.895
REMARK  9 active torsions:
REMARK  status: ('A' for Active; 'I' for Inactive)
REMARK    1  A    between atoms: C2_2  and  C3_3 
REMARK    2  A    between atoms: C2_2  and  C4_6 
REMARK    3  A    between atoms: C7_9  and  O3_10 
REMARK    4  A    between atoms: C8_12  and  O4_13 
REMARK    5  A    between atoms: O4_13  and  C9_14 
REMARK    6  A    between atoms: C9_14  and  C10_16 
REMARK    7  A    between atoms: C10_16  and  C11_17 
REMARK    8  A    between atoms: C10_16  and  O6_19 
REMARK    9  A    between atoms: C16_25  and  C17_26 
ROOT
HETATM    1  C4  UNL     1      18.964 -40.125  -3.586  1.00  0.00     0.042 C 
HETATM    2  C5  UNL     1      19.822 -38.918  -3.770  1.00  0.00     0.013 C 
HETATM    3  C6  UNL     1      20.889 -39.170  -4.862  1.00  0.00     0.044 C 
HETATM    4  C7  UNL     1      20.182 -39.570  -6.096  1.00  0.00     0.121 C 
HETATM    5  C8  UNL     1      21.090 -40.079  -7.197  1.00  0.00     0.268 C 
HETATM    6  C14 UNL     1      20.286 -41.177  -7.803  1.00  0.00     0.292 C 
HETATM    7  O7  UNL     1      20.651 -41.867  -8.816  1.00  0.00    -0.262 OA
HETATM    8  O8  UNL     1      19.112 -41.288  -7.065  1.00  0.00    -0.310 OA
HETATM    9  C15 UNL     1      19.419 -40.845  -5.799  1.00  0.00     0.184 C 
HETATM   10  C16 UNL     1      18.270 -40.514  -4.884  1.00  0.00     0.128 C 
ENDROOT
BRANCH   5  11
HETATM   11  O4  UNL     1      22.320 -40.502  -6.700  1.00  0.00    -0.301 OA
BRANCH  11  12
HETATM   12  C9  UNL     1      23.463 -40.587  -7.488  1.00  0.00     0.288 C 
HETATM   13  O5  UNL     1      23.843 -39.491  -7.978  1.00  0.00    -0.262 OA
BRANCH  12  14
HETATM   14  C10 UNL     1      24.145 -41.878  -7.707  1.00  0.00     0.220 C 
BRANCH  14  15
HETATM   15  C11 UNL     1      23.439 -42.999  -6.930  1.00  0.00     0.038 C 
HETATM   16  C12 UNL     1      24.038 -43.151  -5.552  1.00  0.00     0.008 C 
ENDBRANCH  14  15
BRANCH  14  17
HETATM   17  O6  UNL     1      24.357 -42.203  -9.007  1.00  0.00    -0.381 OA
HETATM   18  C13 UNL     1      23.613 -43.241  -9.513  1.00  0.00     0.202 C 
ENDBRANCH  14  17
ENDBRANCH  12  14
ENDBRANCH  11  12
ENDBRANCH   5  11
BRANCH   4  19
HETATM   19  O3  UNL     1      19.430 -38.561  -6.635  1.00  0.00    -0.384 OA
ATOM     20  H3  UNL     1      19.143 -38.743  -7.522  1.00  0.00     0.210 HD
ENDBRANCH   4  19
BRANCH  10  21
HETATM   21  C17 UNL     1      17.403 -39.475  -5.420  1.00  0.00     0.180 C 
HETATM   22  O9  UNL     1      17.267 -38.295  -5.015  1.00  0.00    -0.648 OA
HETATM   23  O10 UNL     1      16.600 -39.795  -6.531  1.00  0.00    -0.648 OA
ENDBRANCH  10  21
BRANCH   1  24
HETATM   24  C2  UNL     1      18.097 -40.074  -2.436  1.00  0.00     0.014 C 
HETATM   25  C1  UNL     1      17.525 -38.919  -2.063  1.00  0.00     0.026 C 
BRANCH  24  26
HETATM   26  C3  UNL     1      17.760 -41.206  -1.600  1.00  0.00     0.204 C 
HETATM   27  O1  UNL     1      16.863 -42.004  -1.891  1.00  0.00    -0.644 OA
HETATM   28  O2  UNL     1      18.452 -41.425  -0.424  1.00  0.00    -0.644 OA
ENDBRANCH  24  26
ENDBRANCH   1  24
TORSDOF 9
ENDMDL
