MODEL 1
REMARK VINA RESULT: -6.623422106      0.000      0.000
REMARK  4 active torsions:
REMARK  status: ('A' for Active; 'I' for Inactive)
REMARK    1  A    between atoms: N2_3  and  N3_5 
REMARK       I    between atoms: N5_9  and  C3_11 
REMARK    2  A    between atoms: C4_15  and  C5_16 
REMARK    3  A    between atoms: C5_16  and  C6_17 
REMARK    4  A    between atoms: C6_17  and  N7_18 
ROOT
HETATM    1  N3  UNL     1      39.768  14.218 -15.381  1.00  0.00    -0.191 N 
HETATM    2  N4  UNL     1      40.178  13.666 -16.470  1.00  0.00    -0.257 N 
ATOM      3  H4  UNL     1      40.857  14.138 -17.068  1.00  0.00     0.191 HD
HETATM    4  C2  UNL     1      39.699  12.466 -16.801  1.00  0.00     0.170 A 
HETATM    5  N5  UNL     1      39.969  11.720 -17.849  1.00  0.00    -0.290 N 
ATOM      6  H5  UNL     1      39.521  10.812 -17.970  1.00  0.00     0.172 HD
HETATM    7  C3  UNL     1      40.894  12.203 -18.805  1.00  0.00     0.334 C 
HETATM    8  N6  UNL     1      42.273  11.925 -18.642  1.00  0.00    -0.040 NA
HETATM    9  O1  UNL     1      40.540  12.874 -19.801  1.00  0.00    -0.251 OA
HETATM   10  S1  UNL     1      38.636  12.136 -15.504  1.00  0.00    -0.035 SA
HETATM   11  C4  UNL     1      38.886  13.573 -14.628  1.00  0.00     0.098 A 
ENDROOT
BRANCH  11  12
HETATM   12  C5  UNL     1      38.242  13.949 -13.340  1.00  0.00     0.096 C 
BRANCH  12  13
HETATM   13  C6  UNL     1      39.174  13.690 -12.172  1.00  0.00     0.236 C 
BRANCH  13  14
HETATM   14  N7  UNL     1      38.529  12.919 -11.132  1.00  0.00    -0.079 N 
ATOM     15  H73 UNL     1      37.519  13.059 -11.138  1.00  0.00     0.274 HD
ATOM     16  H72 UNL     1      38.552  11.921 -11.341  1.00  0.00     0.274 HD
ATOM     17  H71 UNL     1      38.927  13.115 -10.214  1.00  0.00     0.274 HD
ENDBRANCH  13  14
ENDBRANCH  12  13
ENDBRANCH  11  12
BRANCH   1  18
HETATM   18  N2  UNL     1      40.252  15.510 -14.982  1.00  0.00    -0.277 N 
HETATM   19  C1  UNL     1      41.447  15.632 -14.507  1.00  0.00     0.208 C 
HETATM   20  N1  UNL     1      41.987  16.865 -14.096  1.00  0.00    -0.095 NA
ATOM     21  H2  UNL     1      39.653  16.331 -15.074  1.00  0.00     0.189 HD
ENDBRANCH   1  18
TORSDOF 4
ENDMDL
MODEL 2
REMARK VINA RESULT: -6.228654652      2.966      5.301
REMARK  4 active torsions:
REMARK  status: ('A' for Active; 'I' for Inactive)
REMARK    1  A    between atoms: N2_3  and  N3_5 
REMARK       I    between atoms: N5_9  and  C3_11 
REMARK    2  A    between atoms: C4_15  and  C5_16 
REMARK    3  A    between atoms: C5_16  and  C6_17 
REMARK    4  A    between atoms: C6_17  and  N7_18 
ROOT
HETATM    1  N3  UNL     1      41.221  14.109 -14.492  1.00  0.00    -0.191 N 
HETATM    2  N4  UNL     1      40.236  14.170 -13.665  1.00  0.00    -0.257 N 
ATOM      3  H4  UNL     1      40.272  14.794 -12.860  1.00  0.00     0.191 HD
HETATM    4  C2  UNL     1      39.168  13.401 -13.882  1.00  0.00     0.170 A 
HETATM    5  N5  UNL     1      38.060  13.297 -13.182  1.00  0.00    -0.290 N 
ATOM      6  H5  UNL     1      37.320  12.659 -13.474  1.00  0.00     0.172 HD
HETATM    7  C3  UNL     1      37.916  14.086 -12.018  1.00  0.00     0.334 C 
HETATM    8  N6  UNL     1      37.359  15.385 -12.121  1.00  0.00    -0.040 NA
HETATM    9  O1  UNL     1      38.265  13.681 -10.885  1.00  0.00    -0.251 OA
HETATM   10  S1  UNL     1      39.605  12.578 -15.314  1.00  0.00    -0.035 SA
HETATM   11  C4  UNL     1      41.137  13.286 -15.531  1.00  0.00     0.098 A 
ENDROOT
BRANCH  11  12
HETATM   12  C5  UNL     1      42.095  13.006 -16.634  1.00  0.00     0.096 C 
BRANCH  12  13
HETATM   13  C6  UNL     1      41.422  13.151 -17.986  1.00  0.00     0.236 C 
BRANCH  13  14
HETATM   14  N7  UNL     1      41.303  11.880 -18.665  1.00  0.00    -0.079 N 
ATOM     15  H73 UNL     1      41.998  11.787 -19.406  1.00  0.00     0.274 HD
ATOM     16  H72 UNL     1      41.605  11.110 -18.067  1.00  0.00     0.274 HD
ATOM     17  H71 UNL     1      40.359  11.727 -19.019  1.00  0.00     0.274 HD
ENDBRANCH  13  14
ENDBRANCH  12  13
ENDBRANCH  11  12
BRANCH   1  18
HETATM   18  N2  UNL     1      42.395  14.915 -14.302  1.00  0.00    -0.277 N 
HETATM   19  C1  UNL     1      42.502  15.658 -13.250  1.00  0.00     0.208 C 
HETATM   20  N1  UNL     1      43.622  16.473 -12.998  1.00  0.00    -0.095 NA
ATOM     21  H2  UNL     1      43.142  14.902 -14.996  1.00  0.00     0.189 HD
ENDBRANCH   1  18
TORSDOF 4
ENDMDL
MODEL 3
REMARK VINA RESULT: -6.221603396      2.780      4.939
REMARK  4 active torsions:
REMARK  status: ('A' for Active; 'I' for Inactive)
REMARK    1  A    between atoms: N2_3  and  N3_5 
REMARK       I    between atoms: N5_9  and  C3_11 
REMARK    2  A    between atoms: C4_15  and  C5_16 
REMARK    3  A    between atoms: C5_16  and  C6_17 
REMARK    4  A    between atoms: C6_17  and  N7_18 
ROOT
HETATM    1  N3  UNL     1      40.288  13.588 -15.563  1.00  0.00    -0.191 N 
HETATM    2  N4  UNL     1      40.971  14.336 -14.769  1.00  0.00    -0.257 N 
ATOM      3  H4  UNL     1      41.845  14.761 -15.078  1.00  0.00     0.191 HD
HETATM    4  C2  UNL     1      40.515  14.545 -13.532  1.00  0.00     0.170 A 
HETATM    5  N5  UNL     1      41.035  15.261 -12.561  1.00  0.00    -0.290 N 
ATOM      6  H5  UNL     1      40.567  15.330 -11.658  1.00  0.00     0.172 HD
HETATM    7  C3  UNL     1      42.258  15.935 -12.794  1.00  0.00     0.334 C 
HETATM    8  N6  UNL     1      42.240  17.245 -13.331  1.00  0.00    -0.040 NA
HETATM    9  O1  UNL     1      43.368  15.414 -12.544  1.00  0.00    -0.251 OA
HETATM   10  S1  UNL     1      39.066  13.638 -13.529  1.00  0.00    -0.035 SA
HETATM   11  C4  UNL     1      39.155  13.054 -15.125  1.00  0.00     0.098 A 
ENDROOT
BRANCH  11  12
HETATM   12  C5  UNL     1      38.169  12.167 -15.800  1.00  0.00     0.096 C 
BRANCH  12  13
HETATM   13  C6  UNL     1      38.821  10.872 -16.245  1.00  0.00     0.236 C 
BRANCH  13  14
HETATM   14  N7  UNL     1      39.605  10.275 -15.185  1.00  0.00    -0.079 N 
ATOM     15  H73 UNL     1      40.570  10.123 -15.477  1.00  0.00     0.274 HD
ATOM     16  H72 UNL     1      39.770  10.937 -14.428  1.00  0.00     0.274 HD
ATOM     17  H71 UNL     1      39.180   9.414 -14.840  1.00  0.00     0.274 HD
ENDBRANCH  13  14
ENDBRANCH  12  13
ENDBRANCH  11  12
BRANCH   1  18
HETATM   18  N2  UNL     1      40.738  13.331 -16.903  1.00  0.00    -0.277 N 
HETATM   19  C1  UNL     1      41.828  12.666 -17.099  1.00  0.00     0.208 C 
HETATM   20  N1  UNL     1      42.329  12.377 -18.383  1.00  0.00    -0.095 NA
ATOM     21  H2  UNL     1      40.199  13.674 -17.698  1.00  0.00     0.189 HD
ENDBRANCH   1  18
TORSDOF 4
ENDMDL
MODEL 4
REMARK VINA RESULT: -6.136337030      2.510      3.204
REMARK  4 active torsions:
REMARK  status: ('A' for Active; 'I' for Inactive)
REMARK    1  A    between atoms: N2_3  and  N3_5 
REMARK       I    between atoms: N5_9  and  C3_11 
REMARK    2  A    between atoms: C4_15  and  C5_16 
REMARK    3  A    between atoms: C5_16  and  C6_17 
REMARK    4  A    between atoms: C6_17  and  N7_18 
ROOT
HETATM    1  N3  UNL     1      41.190  14.507 -14.779  1.00  0.00    -0.191 N 
HETATM    2  N4  UNL     1      40.478  13.557 -15.278  1.00  0.00    -0.257 N 
ATOM      3  H4  UNL     1      40.868  12.929 -15.980  1.00  0.00     0.191 HD
HETATM    4  C2  UNL     1      39.219  13.410 -14.860  1.00  0.00     0.170 A 
HETATM    5  N5  UNL     1      38.318  12.526 -15.222  1.00  0.00    -0.290 N 
ATOM      6  H5  UNL     1      37.385  12.536 -14.811  1.00  0.00     0.172 HD
HETATM    7  C3  UNL     1      38.668  11.560 -16.195  1.00  0.00     0.334 C 
HETATM    8  N6  UNL     1      39.250  10.336 -15.783  1.00  0.00    -0.040 NA
HETATM    9  O1  UNL     1      38.483  11.744 -17.420  1.00  0.00    -0.251 OA
HETATM   10  S1  UNL     1      39.073  14.675 -13.720  1.00  0.00    -0.035 SA
HETATM   11  C4  UNL     1      40.648  15.303 -13.866  1.00  0.00     0.098 A 
ENDROOT
BRANCH  11  12
HETATM   12  C5  UNL     1      41.212  16.462 -13.122  1.00  0.00     0.096 C 
BRANCH  12  13
HETATM   13  C6  UNL     1      42.234  16.003 -12.099  1.00  0.00     0.236 C 
BRANCH  13  14
HETATM   14  N7  UNL     1      41.616  15.268 -11.017  1.00  0.00    -0.079 N 
ATOM     15  H73 UNL     1      41.175  14.412 -11.353  1.00  0.00     0.274 HD
ATOM     16  H72 UNL     1      42.316  14.855 -10.401  1.00  0.00     0.274 HD
ATOM     17  H71 UNL     1      40.957  15.847 -10.496  1.00  0.00     0.274 HD
ENDBRANCH  13  14
ENDBRANCH  12  13
ENDBRANCH  11  12
BRANCH   1  18
HETATM   18  N2  UNL     1      42.549  14.707 -15.198  1.00  0.00    -0.277 N 
HETATM   19  C1  UNL     1      42.867  14.563 -16.442  1.00  0.00     0.208 C 
HETATM   20  N1  UNL     1      44.178  14.743 -16.924  1.00  0.00    -0.095 NA
ATOM     21  H2  UNL     1      43.262  14.962 -14.515  1.00  0.00     0.189 HD
ENDBRANCH   1  18
TORSDOF 4
ENDMDL
MODEL 5
REMARK VINA RESULT: -6.118392232      2.568      3.563
REMARK  4 active torsions:
REMARK  status: ('A' for Active; 'I' for Inactive)
REMARK    1  A    between atoms: N2_3  and  N3_5 
REMARK       I    between atoms: N5_9  and  C3_11 
REMARK    2  A    between atoms: C4_15  and  C5_16 
REMARK    3  A    between atoms: C5_16  and  C6_17 
REMARK    4  A    between atoms: C6_17  and  N7_18 
ROOT
HETATM    1  N3  UNL     1      39.713  14.504 -13.787  1.00  0.00    -0.191 N 
HETATM    2  N4  UNL     1      39.478  13.490 -14.545  1.00  0.00    -0.257 N 
ATOM      3  H4  UNL     1      38.630  12.936 -14.424  1.00  0.00     0.191 HD
HETATM    4  C2  UNL     1      40.365  13.177 -15.492  1.00  0.00     0.170 A 
HETATM    5  N5  UNL     1      40.337  12.200 -16.370  1.00  0.00    -0.290 N 
ATOM      6  H5  UNL     1      41.096  12.083 -17.042  1.00  0.00     0.172 HD
HETATM    7  C3  UNL     1      39.235  11.313 -16.365  1.00  0.00     0.334 C 
HETATM    8  N6  UNL     1      38.089  11.622 -17.137  1.00  0.00    -0.040 NA
HETATM    9  O1  UNL     1      39.229  10.254 -15.696  1.00  0.00    -0.251 OA
HETATM   10  S1  UNL     1      41.558  14.381 -15.275  1.00  0.00    -0.035 SA
HETATM   11  C4  UNL     1      40.826  15.201 -13.976  1.00  0.00     0.098 A 
ENDROOT
BRANCH  11  12
HETATM   12  C5  UNL     1      41.358  16.400 -13.273  1.00  0.00     0.096 C 
BRANCH  12  13
HETATM   13  C6  UNL     1      42.401  16.006 -12.243  1.00  0.00     0.236 C 
BRANCH  13  14
HETATM   14  N7  UNL     1      41.798  15.404 -11.074  1.00  0.00    -0.079 N 
ATOM     15  H73 UNL     1      42.283  15.682 -10.221  1.00  0.00     0.274 HD
ATOM     16  H72 UNL     1      40.884  15.810 -10.877  1.00  0.00     0.274 HD
ATOM     17  H71 UNL     1      41.744  14.389 -11.158  1.00  0.00     0.274 HD
ENDBRANCH  13  14
ENDBRANCH  12  13
ENDBRANCH  11  12
BRANCH   1  18
HETATM   18  N2  UNL     1      38.791  14.879 -12.753  1.00  0.00    -0.277 N 
HETATM   19  C1  UNL     1      37.766  15.613 -13.038  1.00  0.00     0.208 C 
HETATM   20  N1  UNL     1      36.822  16.019 -12.076  1.00  0.00    -0.095 NA
ATOM     21  H2  UNL     1      38.944  14.568 -11.793  1.00  0.00     0.189 HD
ENDBRANCH   1  18
TORSDOF 4
ENDMDL
