MODEL 1
REMARK VINA RESULT: -8.438385370      0.000      0.000
REMARK  14 active torsions:
REMARK  status: ('A' for Active; 'I' for Inactive)
REMARK    1  A    between atoms: C2_2  and  N1_4 
REMARK       I    between atoms: N1_4  and  C4_6 
REMARK    2  A    between atoms: C4_6  and  C5_8 
REMARK    3  A    between atoms: C5_8  and  C6_9 
REMARK    4  A    between atoms: C6_9  and  O2_10 
REMARK    5  A    between atoms: C6_9  and  O3_12 
REMARK    6  A    between atoms: O3_12  and  C7_13 
REMARK    7  A    between atoms: C8_14  and  O4_15 
REMARK    8  A    between atoms: C12_20  and  O5_21 
REMARK    9  A    between atoms: C14_24  and  O6_25 
REMARK   10  A    between atoms: C19_32  and  C20_33 
REMARK   11  A    between atoms: C20_33  and  C22_35 
REMARK   12  A    between atoms: C22_35  and  O7_36 
REMARK   13  A    between atoms: O7_36  and  C23_37 
REMARK   14  A    between atoms: C23_37  and  C24_39 
ROOT
HETATM    1  C7  UNL     1      41.020 -20.173  28.494  1.00  0.00     0.138 A 
HETATM    2  C8  UNL     1      41.360 -20.497  27.234  1.00  0.00     0.102 A 
HETATM    3  C9  UNL     1      40.822 -19.863  26.154  1.00  0.00     0.048 A 
HETATM    4  C10 UNL     1      39.877 -18.837  26.276  1.00  0.00    -0.037 A 
HETATM    5  C11 UNL     1      39.553 -18.534  27.581  1.00  0.00    -0.012 A 
HETATM    6  C12 UNL     1      40.067 -19.142  28.703  1.00  0.00     0.108 A 
HETATM    7  C13 UNL     1      38.586 -17.487  28.008  1.00  0.00     0.076 C 
HETATM    8  C14 UNL     1      38.801 -16.229  27.162  1.00  0.00     0.157 C 
HETATM    9  C15 UNL     1      38.024 -16.547  25.881  1.00  0.00     0.204 C 
HETATM   10  F1  UNL     1      37.492 -15.309  25.486  1.00  0.00    -0.246 F 
HETATM   11  C16 UNL     1      39.003 -16.960  24.884  1.00  0.00     0.035 C 
HETATM   12  C17 UNL     1      38.411 -16.846  23.504  1.00  0.00     0.009 C 
HETATM   13  C18 UNL     1      37.688 -18.157  23.356  1.00  0.00     0.007 C 
HETATM   14  C19 UNL     1      38.605 -19.114  24.094  1.00  0.00     0.004 C 
HETATM   15  C30 UNL     1      39.514 -18.371  24.958  1.00  0.00    -0.006 C 
HETATM   16  C31 UNL     1      40.875 -18.256  24.203  1.00  0.00     0.021 C 
ENDROOT
BRANCH  14  17
HETATM   17  C20 UNL     1      37.875 -20.336  24.557  1.00  0.00     0.011 C 
HETATM   18  C21 UNL     1      36.426 -20.331  24.558  1.00  0.00     0.012 C 
BRANCH  17  19
HETATM   19  C22 UNL     1      38.486 -21.515  23.845  1.00  0.00     0.183 C 
BRANCH  19  20
HETATM   20  O7  UNL     1      39.043 -22.535  24.512  1.00  0.00    -0.317 OA
BRANCH  20  21
HETATM   21  C23 UNL     1      38.684 -23.474  25.408  1.00  0.00     0.293 C 
HETATM   22  O8  UNL     1      39.160 -23.361  26.582  1.00  0.00    -0.259 OA
BRANCH  21  23
HETATM   23  C24 UNL     1      37.798 -24.598  25.120  1.00  0.00     0.042 A 
HETATM   24  C25 UNL     1      38.149 -25.919  25.266  1.00  0.00     0.018 A 
HETATM   25  C26 UNL     1      37.276 -26.934  24.960  1.00  0.00     0.004 A 
HETATM   26  C27 UNL     1      36.011 -26.666  24.493  1.00  0.00     0.042 A 
HETATM   27  C28 UNL     1      35.645 -25.338  24.341  1.00  0.00     0.117 A 
HETATM   28  F2  UNL     1      34.404 -25.080  23.882  1.00  0.00    -0.206 F 
HETATM   29  C29 UNL     1      36.531 -24.334  24.653  1.00  0.00     0.059 A 
ENDBRANCH  21  23
ENDBRANCH  20  21
ENDBRANCH  19  20
ENDBRANCH  17  19
ENDBRANCH  14  17
BRANCH   2  30
HETATM   30  O4  UNL     1      42.303 -21.525  27.026  1.00  0.00    -0.358 OA
ATOM     31  H4  UNL     1      43.149 -21.466  27.454  1.00  0.00     0.217 HD
ENDBRANCH   2  30
BRANCH   6  32
HETATM   32  O5  UNL     1      39.757 -18.861  30.001  1.00  0.00    -0.357 OA
ATOM     33  H5  UNL     1      39.182 -18.119  30.145  1.00  0.00     0.217 HD
ENDBRANCH   6  32
BRANCH   8  34
HETATM   34  O6  UNL     1      40.170 -16.152  26.936  1.00  0.00    -0.392 OA
ATOM     35  H6  UNL     1      40.527 -15.665  27.670  1.00  0.00     0.210 HD
ENDBRANCH   8  34
BRANCH   1  36
HETATM   36  O3  UNL     1      41.539 -20.779  29.643  1.00  0.00    -0.314 OA
BRANCH  36  37
HETATM   37  C6  UNL     1      40.846 -21.768  30.374  1.00  0.00     0.272 C 
BRANCH  37  38
HETATM   38  C5  UNL     1      41.610 -23.084  30.393  1.00  0.00     0.163 C 
BRANCH  38  39
HETATM   39  C4  UNL     1      43.033 -22.759  30.106  1.00  0.00     0.222 C 
HETATM   40  N1  UNL     1      43.812 -21.971  30.981  1.00  0.00    -0.357 N 
ATOM     41  H1  UNL     1      43.395 -21.607  31.837  1.00  0.00     0.162 HD
HETATM   42  O1  UNL     1      43.571 -23.198  29.058  1.00  0.00    -0.273 OA
BRANCH  40  43
HETATM   43  C2  UNL     1      45.201 -21.674  30.677  1.00  0.00     0.076 C 
HETATM   44  C1  UNL     1      45.357 -20.218  30.412  1.00  0.00     0.032 C 
HETATM   45  C3  UNL     1      45.965 -22.048  31.948  1.00  0.00     0.032 C 
ENDBRANCH  40  43
ENDBRANCH  38  39
ENDBRANCH  37  38
BRANCH  37  46
HETATM   46  O2  UNL     1      40.878 -21.359  31.747  1.00  0.00    -0.370 OA
ATOM     47  H2  UNL     1      39.957 -21.278  31.967  1.00  0.00     0.212 HD
ENDBRANCH  37  46
ENDBRANCH  36  37
ENDBRANCH   1  36
TORSDOF 14
ENDMDL
MODEL 2
REMARK VINA RESULT: -8.371793500      1.168      1.506
REMARK  14 active torsions:
REMARK  status: ('A' for Active; 'I' for Inactive)
REMARK    1  A    between atoms: C2_2  and  N1_4 
REMARK       I    between atoms: N1_4  and  C4_6 
REMARK    2  A    between atoms: C4_6  and  C5_8 
REMARK    3  A    between atoms: C5_8  and  C6_9 
REMARK    4  A    between atoms: C6_9  and  O2_10 
REMARK    5  A    between atoms: C6_9  and  O3_12 
REMARK    6  A    between atoms: O3_12  and  C7_13 
REMARK    7  A    between atoms: C8_14  and  O4_15 
REMARK    8  A    between atoms: C12_20  and  O5_21 
REMARK    9  A    between atoms: C14_24  and  O6_25 
REMARK   10  A    between atoms: C19_32  and  C20_33 
REMARK   11  A    between atoms: C20_33  and  C22_35 
REMARK   12  A    between atoms: C22_35  and  O7_36 
REMARK   13  A    between atoms: O7_36  and  C23_37 
REMARK   14  A    between atoms: C23_37  and  C24_39 
ROOT
HETATM    1  C7  UNL     1      40.940 -20.304  28.578  1.00  0.00     0.138 A 
HETATM    2  C8  UNL     1      41.224 -20.637  27.307  1.00  0.00     0.102 A 
HETATM    3  C9  UNL     1      40.645 -20.005  26.248  1.00  0.00     0.048 A 
HETATM    4  C10 UNL     1      39.714 -18.970  26.404  1.00  0.00    -0.037 A 
HETATM    5  C11 UNL     1      39.448 -18.658  27.719  1.00  0.00    -0.012 A 
HETATM    6  C12 UNL     1      40.004 -19.264  28.822  1.00  0.00     0.108 A 
HETATM    7  C13 UNL     1      38.509 -17.601  28.181  1.00  0.00     0.076 C 
HETATM    8  C14 UNL     1      38.697 -16.349  27.319  1.00  0.00     0.157 C 
HETATM    9  C15 UNL     1      37.864 -16.667  26.074  1.00  0.00     0.204 C 
HETATM   10  F1  UNL     1      37.325 -15.428  25.695  1.00  0.00    -0.246 F 
HETATM   11  C16 UNL     1      38.796 -17.094  25.039  1.00  0.00     0.035 C 
HETATM   12  C17 UNL     1      38.147 -16.983  23.685  1.00  0.00     0.009 C 
HETATM   13  C18 UNL     1      37.408 -18.288  23.576  1.00  0.00     0.007 C 
HETATM   14  C19 UNL     1      38.349 -19.248  24.279  1.00  0.00     0.004 C 
HETATM   15  C30 UNL     1      39.299 -18.509  25.100  1.00  0.00    -0.006 C 
HETATM   16  C31 UNL     1      40.627 -18.408  24.286  1.00  0.00     0.021 C 
ENDROOT
BRANCH  14  17
HETATM   17  C20 UNL     1      37.629 -20.462  24.779  1.00  0.00     0.011 C 
HETATM   18  C21 UNL     1      36.690 -20.322  25.873  1.00  0.00     0.012 C 
BRANCH  17  19
HETATM   19  C22 UNL     1      37.070 -21.174  23.575  1.00  0.00     0.183 C 
BRANCH  19  20
HETATM   20  O7  UNL     1      35.903 -21.833  23.619  1.00  0.00    -0.317 OA
BRANCH  20  21
HETATM   21  C23 UNL     1      35.454 -23.102  23.567  1.00  0.00     0.293 C 
HETATM   22  O8  UNL     1      34.370 -23.302  22.933  1.00  0.00    -0.259 OA
BRANCH  21  23
HETATM   23  C24 UNL     1      36.123 -24.243  24.183  1.00  0.00     0.042 A 
HETATM   24  C25 UNL     1      37.208 -24.145  25.021  1.00  0.00     0.018 A 
HETATM   25  C26 UNL     1      37.806 -25.260  25.557  1.00  0.00     0.004 A 
HETATM   26  C27 UNL     1      37.341 -26.521  25.273  1.00  0.00     0.042 A 
HETATM   27  C28 UNL     1      36.247 -26.634  24.429  1.00  0.00     0.117 A 
HETATM   28  F2  UNL     1      35.795 -27.873  24.153  1.00  0.00    -0.206 F 
HETATM   29  C29 UNL     1      35.659 -25.508  23.902  1.00  0.00     0.059 A 
ENDBRANCH  21  23
ENDBRANCH  20  21
ENDBRANCH  19  20
ENDBRANCH  17  19
ENDBRANCH  14  17
BRANCH   2  30
HETATM   30  O4  UNL     1      42.149 -21.674  27.065  1.00  0.00    -0.358 OA
ATOM     31  H4  UNL     1      42.878 -21.511  26.478  1.00  0.00     0.217 HD
ENDBRANCH   2  30
BRANCH   6  32
HETATM   32  O5  UNL     1      39.752 -18.974  30.130  1.00  0.00    -0.357 OA
ATOM     33  H5  UNL     1      38.996 -18.424  30.301  1.00  0.00     0.217 HD
ENDBRANCH   6  32
BRANCH   8  34
HETATM   34  O6  UNL     1      40.056 -16.285  27.035  1.00  0.00    -0.392 OA
ATOM     35  H6  UNL     1      40.125 -16.323  26.088  1.00  0.00     0.210 HD
ENDBRANCH   8  34
BRANCH   1  36
HETATM   36  O3  UNL     1      41.502 -20.907  29.708  1.00  0.00    -0.314 OA
BRANCH  36  37
HETATM   37  C6  UNL     1      40.861 -21.933  30.436  1.00  0.00     0.272 C 
BRANCH  37  38
HETATM   38  C5  UNL     1      41.680 -23.215  30.432  1.00  0.00     0.163 C 
BRANCH  38  39
HETATM   39  C4  UNL     1      43.084 -22.827  30.127  1.00  0.00     0.222 C 
HETATM   40  N1  UNL     1      43.846 -22.022  31.001  1.00  0.00    -0.357 N 
ATOM     41  H1  UNL     1      43.429 -21.689  31.870  1.00  0.00     0.162 HD
HETATM   42  O1  UNL     1      43.620 -23.226  29.062  1.00  0.00    -0.273 OA
BRANCH  40  43
HETATM   43  C2  UNL     1      45.215 -21.663  30.679  1.00  0.00     0.076 C 
HETATM   44  C1  UNL     1      45.306 -20.198  30.432  1.00  0.00     0.032 C 
HETATM   45  C3  UNL     1      46.016 -22.022  31.932  1.00  0.00     0.032 C 
ENDBRANCH  40  43
ENDBRANCH  38  39
ENDBRANCH  37  38
BRANCH  37  46
HETATM   46  O2  UNL     1      40.890 -21.537  31.812  1.00  0.00    -0.370 OA
ATOM     47  H2  UNL     1      40.196 -22.058  32.198  1.00  0.00     0.212 HD
ENDBRANCH  37  46
ENDBRANCH  36  37
ENDBRANCH   1  36
TORSDOF 14
ENDMDL
MODEL 3
REMARK VINA RESULT: -8.365216021      1.423      1.749
REMARK  14 active torsions:
REMARK  status: ('A' for Active; 'I' for Inactive)
REMARK    1  A    between atoms: C2_2  and  N1_4 
REMARK       I    between atoms: N1_4  and  C4_6 
REMARK    2  A    between atoms: C4_6  and  C5_8 
REMARK    3  A    between atoms: C5_8  and  C6_9 
REMARK    4  A    between atoms: C6_9  and  O2_10 
REMARK    5  A    between atoms: C6_9  and  O3_12 
REMARK    6  A    between atoms: O3_12  and  C7_13 
REMARK    7  A    between atoms: C8_14  and  O4_15 
REMARK    8  A    between atoms: C12_20  and  O5_21 
REMARK    9  A    between atoms: C14_24  and  O6_25 
REMARK   10  A    between atoms: C19_32  and  C20_33 
REMARK   11  A    between atoms: C20_33  and  C22_35 
REMARK   12  A    between atoms: C22_35  and  O7_36 
REMARK   13  A    between atoms: O7_36  and  C23_37 
REMARK   14  A    between atoms: C23_37  and  C24_39 
ROOT
HETATM    1  C7  UNL     1      40.997 -20.194  28.507  1.00  0.00     0.138 A 
HETATM    2  C8  UNL     1      41.309 -20.534  27.244  1.00  0.00     0.102 A 
HETATM    3  C9  UNL     1      40.761 -19.902  26.168  1.00  0.00     0.048 A 
HETATM    4  C10 UNL     1      39.834 -18.860  26.298  1.00  0.00    -0.037 A 
HETATM    5  C11 UNL     1      39.539 -18.541  27.605  1.00  0.00    -0.012 A 
HETATM    6  C12 UNL     1      40.063 -19.146  28.724  1.00  0.00     0.108 A 
HETATM    7  C13 UNL     1      38.596 -17.475  28.040  1.00  0.00     0.076 C 
HETATM    8  C14 UNL     1      38.814 -16.228  27.179  1.00  0.00     0.157 C 
HETATM    9  C15 UNL     1      38.010 -16.546  25.914  1.00  0.00     0.204 C 
HETATM   10  F1  UNL     1      37.489 -15.304  25.518  1.00  0.00    -0.246 F 
HETATM   11  C16 UNL     1      38.964 -16.983  24.904  1.00  0.00     0.035 C 
HETATM   12  C17 UNL     1      38.348 -16.872  23.534  1.00  0.00     0.009 C 
HETATM   13  C18 UNL     1      37.603 -18.173  23.412  1.00  0.00     0.007 C 
HETATM   14  C19 UNL     1      38.519 -19.137  24.141  1.00  0.00     0.004 C 
HETATM   15  C30 UNL     1      39.455 -18.401  24.982  1.00  0.00    -0.006 C 
HETATM   16  C31 UNL     1      40.803 -18.313  24.201  1.00  0.00     0.021 C 
ENDROOT
BRANCH  14  17
HETATM   17  C20 UNL     1      37.779 -20.343  24.629  1.00  0.00     0.011 C 
HETATM   18  C21 UNL     1      36.672 -20.167  25.546  1.00  0.00     0.012 C 
BRANCH  17  19
HETATM   19  C22 UNL     1      37.449 -21.180  23.419  1.00  0.00     0.183 C 
BRANCH  19  20
HETATM   20  O7  UNL     1      37.225 -22.498  23.510  1.00  0.00    -0.317 OA
BRANCH  20  21
HETATM   21  C23 UNL     1      36.878 -23.405  24.444  1.00  0.00     0.293 C 
HETATM   22  O8  UNL     1      35.647 -23.466  24.758  1.00  0.00    -0.259 OA
BRANCH  21  23
HETATM   23  C24 UNL     1      37.813 -24.307  25.109  1.00  0.00     0.042 A 
HETATM   24  C25 UNL     1      37.806 -25.674  24.966  1.00  0.00     0.018 A 
HETATM   25  C26 UNL     1      38.702 -26.472  25.633  1.00  0.00     0.004 A 
HETATM   26  C27 UNL     1      39.644 -25.932  26.476  1.00  0.00     0.042 A 
HETATM   27  C28 UNL     1      39.662 -24.554  26.630  1.00  0.00     0.117 A 
HETATM   28  F2  UNL     1      40.586 -24.030  27.458  1.00  0.00    -0.206 F 
HETATM   29  C29 UNL     1      38.758 -23.769  25.953  1.00  0.00     0.059 A 
ENDBRANCH  21  23
ENDBRANCH  20  21
ENDBRANCH  19  20
ENDBRANCH  17  19
ENDBRANCH  14  17
BRANCH   2  30
HETATM   30  O4  UNL     1      42.232 -21.578  27.028  1.00  0.00    -0.358 OA
ATOM     31  H4  UNL     1      41.918 -22.403  26.678  1.00  0.00     0.217 HD
ENDBRANCH   2  30
BRANCH   6  32
HETATM   32  O5  UNL     1      39.782 -18.849  30.024  1.00  0.00    -0.357 OA
ATOM     33  H5  UNL     1      38.861 -18.790  30.252  1.00  0.00     0.217 HD
ENDBRANCH   6  32
BRANCH   8  34
HETATM   34  O6  UNL     1      40.180 -16.175  26.927  1.00  0.00    -0.392 OA
ATOM     35  H6  UNL     1      40.418 -15.256  26.983  1.00  0.00     0.210 HD
ENDBRANCH   8  34
BRANCH   1  36
HETATM   36  O3  UNL     1      41.528 -20.796  29.652  1.00  0.00    -0.314 OA
BRANCH  36  37
HETATM   37  C6  UNL     1      40.846 -21.791  30.387  1.00  0.00     0.272 C 
BRANCH  37  38
HETATM   38  C5  UNL     1      41.610 -23.107  30.385  1.00  0.00     0.163 C 
BRANCH  38  39
HETATM   39  C4  UNL     1      43.033 -22.777  30.103  1.00  0.00     0.222 C 
HETATM   40  N1  UNL     1      43.811 -21.996  30.985  1.00  0.00    -0.357 N 
ATOM     41  H1  UNL     1      43.393 -21.640  31.844  1.00  0.00     0.162 HD
HETATM   42  O1  UNL     1      43.572 -23.205  29.050  1.00  0.00    -0.273 OA
BRANCH  40  43
HETATM   43  C2  UNL     1      45.200 -21.694  30.685  1.00  0.00     0.076 C 
HETATM   44  C1  UNL     1      45.348 -20.240  30.405  1.00  0.00     0.032 C 
HETATM   45  C3  UNL     1      45.960 -22.050  31.963  1.00  0.00     0.032 C 
ENDBRANCH  40  43
ENDBRANCH  38  39
ENDBRANCH  37  38
BRANCH  37  46
HETATM   46  O2  UNL     1      40.899 -21.391  31.761  1.00  0.00    -0.370 OA
ATOM     47  H2  UNL     1      41.352 -20.557  31.723  1.00  0.00     0.212 HD
ENDBRANCH  37  46
ENDBRANCH  36  37
ENDBRANCH   1  36
TORSDOF 14
ENDMDL
MODEL 4
REMARK VINA RESULT: -8.277681691      2.529      3.800
REMARK  14 active torsions:
REMARK  status: ('A' for Active; 'I' for Inactive)
REMARK    1  A    between atoms: C2_2  and  N1_4 
REMARK       I    between atoms: N1_4  and  C4_6 
REMARK    2  A    between atoms: C4_6  and  C5_8 
REMARK    3  A    between atoms: C5_8  and  C6_9 
REMARK    4  A    between atoms: C6_9  and  O2_10 
REMARK    5  A    between atoms: C6_9  and  O3_12 
REMARK    6  A    between atoms: O3_12  and  C7_13 
REMARK    7  A    between atoms: C8_14  and  O4_15 
REMARK    8  A    between atoms: C12_20  and  O5_21 
REMARK    9  A    between atoms: C14_24  and  O6_25 
REMARK   10  A    between atoms: C19_32  and  C20_33 
REMARK   11  A    between atoms: C20_33  and  C22_35 
REMARK   12  A    between atoms: C22_35  and  O7_36 
REMARK   13  A    between atoms: O7_36  and  C23_37 
REMARK   14  A    between atoms: C23_37  and  C24_39 
ROOT
HETATM    1  C7  UNL     1      41.041 -20.160  28.491  1.00  0.00     0.138 A 
HETATM    2  C8  UNL     1      41.401 -20.473  27.234  1.00  0.00     0.102 A 
HETATM    3  C9  UNL     1      40.880 -19.827  26.152  1.00  0.00     0.048 A 
HETATM    4  C10 UNL     1      39.936 -18.800  26.269  1.00  0.00    -0.037 A 
HETATM    5  C11 UNL     1      39.592 -18.509  27.571  1.00  0.00    -0.012 A 
HETATM    6  C12 UNL     1      40.087 -19.129  28.696  1.00  0.00     0.108 A 
HETATM    7  C13 UNL     1      38.621 -17.464  27.994  1.00  0.00     0.076 C 
HETATM    8  C14 UNL     1      38.852 -16.199  27.163  1.00  0.00     0.157 C 
HETATM    9  C15 UNL     1      38.094 -16.503  25.866  1.00  0.00     0.204 C 
HETATM   10  F1  UNL     1      37.570 -15.260  25.475  1.00  0.00    -0.246 F 
HETATM   11  C16 UNL     1      39.087 -16.908  24.881  1.00  0.00     0.035 C 
HETATM   12  C17 UNL     1      38.517 -16.780  23.493  1.00  0.00     0.009 C 
HETATM   13  C18 UNL     1      37.794 -18.088  23.322  1.00  0.00     0.007 C 
HETATM   14  C19 UNL     1      38.698 -19.054  24.064  1.00  0.00     0.004 C 
HETATM   15  C30 UNL     1      39.595 -18.321  24.950  1.00  0.00    -0.006 C 
HETATM   16  C31 UNL     1      40.967 -18.202  24.217  1.00  0.00     0.021 C 
ENDROOT
BRANCH  14  17
HETATM   17  C20 UNL     1      37.958 -20.278  24.504  1.00  0.00     0.011 C 
HETATM   18  C21 UNL     1      36.638 -20.133  25.084  1.00  0.00     0.012 C 
BRANCH  17  19
HETATM   19  C22 UNL     1      38.026 -21.269  23.371  1.00  0.00     0.183 C 
BRANCH  19  20
HETATM   20  O7  UNL     1      36.947 -21.592  22.646  1.00  0.00    -0.317 OA
BRANCH  20  21
HETATM   21  C23 UNL     1      36.408 -21.299  21.447  1.00  0.00     0.293 C 
HETATM   22  O8  UNL     1      36.273 -22.260  20.625  1.00  0.00    -0.259 OA
BRANCH  21  23
HETATM   23  C24 UNL     1      35.976 -19.966  21.037  1.00  0.00     0.042 A 
HETATM   24  C25 UNL     1      35.170 -19.147  21.791  1.00  0.00     0.018 A 
HETATM   25  C26 UNL     1      34.783 -17.908  21.342  1.00  0.00     0.004 A 
HETATM   26  C27 UNL     1      35.187 -17.438  20.115  1.00  0.00     0.042 A 
HETATM   27  C28 UNL     1      36.000 -18.255  19.345  1.00  0.00     0.117 A 
HETATM   28  F2  UNL     1      36.393 -17.790  18.143  1.00  0.00    -0.206 F 
HETATM   29  C29 UNL     1      36.379 -19.492  19.810  1.00  0.00     0.059 A 
ENDBRANCH  21  23
ENDBRANCH  20  21
ENDBRANCH  19  20
ENDBRANCH  17  19
ENDBRANCH  14  17
BRANCH   2  30
HETATM   30  O4  UNL     1      42.344 -21.501  27.031  1.00  0.00    -0.358 OA
ATOM     31  H4  UNL     1      43.224 -21.269  26.759  1.00  0.00     0.217 HD
ENDBRANCH   2  30
BRANCH   6  32
HETATM   32  O5  UNL     1      39.757 -18.860  29.991  1.00  0.00    -0.357 OA
ATOM     33  H5  UNL     1      40.356 -18.297  30.469  1.00  0.00     0.217 HD
ENDBRANCH   6  32
BRANCH   8  34
HETATM   34  O6  UNL     1      40.224 -16.123  26.959  1.00  0.00    -0.392 OA
ATOM     35  H6  UNL     1      40.341 -15.600  26.174  1.00  0.00     0.210 HD
ENDBRANCH   8  34
BRANCH   1  36
HETATM   36  O3  UNL     1      41.541 -20.777  29.643  1.00  0.00    -0.314 OA
BRANCH  36  37
HETATM   37  C6  UNL     1      40.837 -21.777  30.351  1.00  0.00     0.272 C 
BRANCH  37  38
HETATM   38  C5  UNL     1      41.580 -23.104  30.327  1.00  0.00     0.163 C 
BRANCH  38  39
HETATM   39  C4  UNL     1      43.012 -22.790  30.075  1.00  0.00     0.222 C 
HETATM   40  N1  UNL     1      43.772 -21.996  30.961  1.00  0.00    -0.357 N 
ATOM     41  H1  UNL     1      43.334 -21.618  31.800  1.00  0.00     0.162 HD
HETATM   42  O1  UNL     1      43.576 -23.246  29.047  1.00  0.00    -0.273 OA
BRANCH  40  43
HETATM   43  C2  UNL     1      45.171 -21.711  30.691  1.00  0.00     0.076 C 
HETATM   44  C1  UNL     1      45.344 -20.257  30.420  1.00  0.00     0.032 C 
HETATM   45  C3  UNL     1      45.899 -22.080  31.984  1.00  0.00     0.032 C 
ENDBRANCH  40  43
ENDBRANCH  38  39
ENDBRANCH  37  38
BRANCH  37  46
HETATM   46  O2  UNL     1      40.884 -21.407  31.734  1.00  0.00    -0.370 OA
ATOM     47  H2  UNL     1      40.899 -20.458  31.700  1.00  0.00     0.212 HD
ENDBRANCH  37  46
ENDBRANCH  36  37
ENDBRANCH   1  36
TORSDOF 14
ENDMDL
MODEL 5
REMARK VINA RESULT: -8.265844467      1.410      1.802
REMARK  14 active torsions:
REMARK  status: ('A' for Active; 'I' for Inactive)
REMARK    1  A    between atoms: C2_2  and  N1_4 
REMARK       I    between atoms: N1_4  and  C4_6 
REMARK    2  A    between atoms: C4_6  and  C5_8 
REMARK    3  A    between atoms: C5_8  and  C6_9 
REMARK    4  A    between atoms: C6_9  and  O2_10 
REMARK    5  A    between atoms: C6_9  and  O3_12 
REMARK    6  A    between atoms: O3_12  and  C7_13 
REMARK    7  A    between atoms: C8_14  and  O4_15 
REMARK    8  A    between atoms: C12_20  and  O5_21 
REMARK    9  A    between atoms: C14_24  and  O6_25 
REMARK   10  A    between atoms: C19_32  and  C20_33 
REMARK   11  A    between atoms: C20_33  and  C22_35 
REMARK   12  A    between atoms: C22_35  and  O7_36 
REMARK   13  A    between atoms: O7_36  and  C23_37 
REMARK   14  A    between atoms: C23_37  and  C24_39 
ROOT
HETATM    1  C7  UNL     1      41.098 -20.209  28.576  1.00  0.00     0.138 A 
HETATM    2  C8  UNL     1      41.380 -20.520  27.298  1.00  0.00     0.102 A 
HETATM    3  C9  UNL     1      40.730 -19.934  26.253  1.00  0.00     0.048 A 
HETATM    4  C10 UNL     1      39.726 -18.974  26.431  1.00  0.00    -0.037 A 
HETATM    5  C11 UNL     1      39.466 -18.684  27.752  1.00  0.00    -0.012 A 
HETATM    6  C12 UNL     1      40.091 -19.245  28.842  1.00  0.00     0.108 A 
HETATM    7  C13 UNL     1      38.457 -17.703  28.236  1.00  0.00     0.076 C 
HETATM    8  C14 UNL     1      38.530 -16.440  27.372  1.00  0.00     0.157 C 
HETATM    9  C15 UNL     1      37.697 -16.822  26.145  1.00  0.00     0.204 C 
HETATM   10  F1  UNL     1      37.055 -15.629  25.780  1.00  0.00    -0.246 F 
HETATM   11  C16 UNL     1      38.636 -17.175  25.089  1.00  0.00     0.035 C 
HETATM   12  C17 UNL     1      37.951 -17.115  23.749  1.00  0.00     0.009 C 
HETATM   13  C18 UNL     1      37.313 -18.474  23.655  1.00  0.00     0.007 C 
HETATM   14  C19 UNL     1      38.340 -19.358  24.336  1.00  0.00     0.004 C 
HETATM   15  C30 UNL     1      39.248 -18.547  25.137  1.00  0.00    -0.006 C 
HETATM   16  C31 UNL     1      40.547 -18.344  24.295  1.00  0.00     0.021 C 
ENDROOT
BRANCH  14  17
HETATM   17  C20 UNL     1      37.728 -20.624  24.850  1.00  0.00     0.011 C 
HETATM   18  C21 UNL     1      36.840 -20.562  25.993  1.00  0.00     0.012 C 
BRANCH  17  19
HETATM   19  C22 UNL     1      37.154 -21.354  23.663  1.00  0.00     0.183 C 
BRANCH  19  20
HETATM   20  O7  UNL     1      35.951 -21.942  23.706  1.00  0.00    -0.317 OA
BRANCH  20  21
HETATM   21  C23 UNL     1      35.422 -23.175  23.592  1.00  0.00     0.293 C 
HETATM   22  O8  UNL     1      34.339 -23.278  22.933  1.00  0.00    -0.259 OA
BRANCH  21  23
HETATM   23  C24 UNL     1      36.005 -24.383  24.169  1.00  0.00     0.042 A 
HETATM   24  C25 UNL     1      37.105 -24.395  24.992  1.00  0.00     0.018 A 
HETATM   25  C26 UNL     1      37.618 -25.567  25.490  1.00  0.00     0.004 A 
HETATM   26  C27 UNL     1      37.049 -26.780  25.182  1.00  0.00     0.042 A 
HETATM   27  C28 UNL     1      35.938 -26.781  24.352  1.00  0.00     0.117 A 
HETATM   28  F2  UNL     1      35.384 -27.972  24.053  1.00  0.00    -0.206 F 
HETATM   29  C29 UNL     1      35.436 -25.598  23.863  1.00  0.00     0.059 A 
ENDBRANCH  21  23
ENDBRANCH  20  21
ENDBRANCH  19  20
ENDBRANCH  17  19
ENDBRANCH  14  17
BRANCH   2  30
HETATM   30  O4  UNL     1      42.377 -21.482  27.034  1.00  0.00    -0.358 OA
ATOM     31  H4  UNL     1      42.907 -21.391  26.251  1.00  0.00     0.217 HD
ENDBRANCH   2  30
BRANCH   6  32
HETATM   32  O5  UNL     1      39.846 -18.975  30.155  1.00  0.00    -0.357 OA
ATOM     33  H5  UNL     1      39.519 -18.105  30.352  1.00  0.00     0.217 HD
ENDBRANCH   6  32
BRANCH   8  34
HETATM   34  O6  UNL     1      39.873 -16.271  27.059  1.00  0.00    -0.392 OA
ATOM     35  H6  UNL     1      40.011 -15.332  27.008  1.00  0.00     0.210 HD
ENDBRANCH   8  34
BRANCH   1  36
HETATM   36  O3  UNL     1      41.731 -20.767  29.692  1.00  0.00    -0.314 OA
BRANCH  36  37
HETATM   37  C6  UNL     1      41.348 -22.002  30.259  1.00  0.00     0.272 C 
BRANCH  37  38
HETATM   38  C5  UNL     1      42.542 -22.929  30.433  1.00  0.00     0.163 C 
BRANCH  38  39
HETATM   39  C4  UNL     1      43.754 -22.067  30.472  1.00  0.00     0.222 C 
HETATM   40  N1  UNL     1      44.449 -21.698  29.301  1.00  0.00    -0.357 N 
ATOM     41  H1  UNL     1      44.121 -22.030  28.395  1.00  0.00     0.162 HD
HETATM   42  O1  UNL     1      44.177 -21.643  31.578  1.00  0.00    -0.273 OA
BRANCH  40  43
HETATM   43  C2  UNL     1      45.627 -20.850  29.370  1.00  0.00     0.076 C 
HETATM   44  C1  UNL     1      46.842 -21.692  29.546  1.00  0.00     0.032 C 
HETATM   45  C3  UNL     1      45.682 -20.150  28.012  1.00  0.00     0.032 C 
ENDBRANCH  40  43
ENDBRANCH  38  39
ENDBRANCH  37  38
BRANCH  37  46
HETATM   46  O2  UNL     1      40.956 -21.727  31.609  1.00  0.00    -0.370 OA
ATOM     47  H2  UNL     1      41.140 -20.800  31.700  1.00  0.00     0.212 HD
ENDBRANCH  37  46
ENDBRANCH  36  37
ENDBRANCH   1  36
TORSDOF 14
ENDMDL
