MODEL 1
REMARK VINA RESULT: -8.370168147      0.000      0.000
REMARK  13 active torsions:
REMARK  status: ('A' for Active; 'I' for Inactive)
REMARK    1  A    between atoms: C2_2  and  C3_3 
REMARK    2  A    between atoms: C3_3  and  C4_4 
REMARK    3  A    between atoms: C4_4  and  C5_5 
REMARK    4  A    between atoms: C5_5  and  C6_6 
REMARK    5  A    between atoms: C11_12  and  O1_13 
REMARK    6  A    between atoms: O1_13  and  C12_14 
REMARK    7  A    between atoms: C15_18  and  O2_19 
REMARK    8  A    between atoms: C16_21  and  O3_22 
REMARK    9  A    between atoms: C17_24  and  O4_25 
REMARK   10  A    between atoms: C20_29  and  C21_30 
REMARK   11  A    between atoms: C23_32  and  C24_33 
REMARK   12  A    between atoms: C24_33  and  O5_34 
REMARK   13  A    between atoms: C29_40  and  O6_41 
ROOT
HETATM    1  C6  UNL     1      38.114 -18.788  27.846  1.00  0.00    -0.019 A 
HETATM    2  C7  UNL     1      39.287 -18.935  28.615  1.00  0.00     0.047 A 
HETATM    3  C8  UNL     1      40.128 -20.005  28.552  1.00  0.00     0.079 A 
HETATM    4  C9  UNL     1      39.794 -21.014  27.678  1.00  0.00     0.017 A 
HETATM    5  C10 UNL     1      38.674 -20.905  26.922  1.00  0.00     0.159 A 
HETATM    6  F1  UNL     1      38.403 -22.034  26.183  1.00  0.00    -0.203 F 
HETATM    7  C11 UNL     1      37.816 -19.798  26.975  1.00  0.00     0.115 A 
HETATM    8  C18 UNL     1      40.716 -22.175  27.626  1.00  0.00     0.047 C 
HETATM    9  C19 UNL     1      42.092 -21.509  27.375  1.00  0.00     0.043 C 
HETATM   10  C20 UNL     1      42.455 -20.618  28.514  1.00  0.00     0.169 C 
HETATM   11  O7  UNL     1      41.322 -20.192  29.274  1.00  0.00    -0.340 OA
ENDROOT
BRANCH  10  12
HETATM   12  C21 UNL     1      43.586 -21.116  29.294  1.00  0.00     0.012 A 
HETATM   13  C22 UNL     1      44.939 -20.999  29.231  1.00  0.00     0.028 A 
HETATM   14  C23 UNL     1      45.673 -21.586  30.185  1.00  0.00    -0.014 A 
HETATM   15  C30 UNL     1      45.021 -22.275  31.175  1.00  0.00     0.060 A 
HETATM   16  S1  UNL     1      43.374 -22.067  30.719  1.00  0.00    -0.103 SA
BRANCH  14  17
HETATM   17  C24 UNL     1      47.193 -21.539  30.208  1.00  0.00     0.113 C 
HETATM   18  C25 UNL     1      47.822 -21.939  28.917  1.00  0.00     0.057 C 
HETATM   19  C26 UNL     1      48.831 -22.730  29.732  1.00  0.00    -0.015 C 
HETATM   20  C27 UNL     1      50.086 -21.929  30.047  1.00  0.00     0.018 C 
HETATM   21  C28 UNL     1      49.158 -24.076  29.183  1.00  0.00     0.018 C 
HETATM   22  C29 UNL     1      47.793 -22.755  30.844  1.00  0.00     0.165 C 
BRANCH  17  23
HETATM   23  O5  UNL     1      47.724 -20.386  30.717  1.00  0.00    -0.382 OA
ATOM     24  H5  UNL     1      47.808 -19.675  30.092  1.00  0.00     0.211 HD
ENDBRANCH  17  23
BRANCH  22  25
HETATM   25  O6  UNL     1      48.395 -22.508  32.092  1.00  0.00    -0.391 OA
ATOM     26  H6  UNL     1      48.719 -23.290  32.524  1.00  0.00     0.210 HD
ENDBRANCH  22  25
ENDBRANCH  14  17
ENDBRANCH  10  12
BRANCH   1  27
HETATM   27  C5  UNL     1      37.283 -17.607  28.149  1.00  0.00     0.042 C 
BRANCH  27  28
HETATM   28  C4  UNL     1      38.056 -16.308  28.055  1.00  0.00     0.005 C 
BRANCH  28  29
HETATM   29  C3  UNL     1      37.382 -15.302  28.953  1.00  0.00    -0.000 C 
BRANCH  29  30
HETATM   30  C2  UNL     1      35.920 -15.116  28.594  1.00  0.00    -0.005 C 
HETATM   31  C1  UNL     1      35.719 -13.662  28.223  1.00  0.00     0.005 C 
ENDBRANCH  29  30
ENDBRANCH  28  29
ENDBRANCH  27  28
ENDBRANCH   1  27
BRANCH   7  32
HETATM   32  O1  UNL     1      36.761 -19.815  26.128  1.00  0.00    -0.339 OA
BRANCH  32  33
HETATM   33  C12 UNL     1      36.664 -19.334  24.811  1.00  0.00     0.163 C 
HETATM   34  C13 UNL     1      36.705 -20.451  23.808  1.00  0.00     0.075 C 
HETATM   35  C14 UNL     1      36.580 -20.024  22.363  1.00  0.00     0.204 C 
HETATM   36  F2  UNL     1      35.407 -20.441  21.769  1.00  0.00    -0.247 F 
HETATM   37  C15 UNL     1      36.812 -18.590  22.110  1.00  0.00     0.183 C 
HETATM   38  C16 UNL     1      37.917 -18.116  22.981  1.00  0.00     0.180 C 
HETATM   39  C17 UNL     1      37.583 -18.228  24.460  1.00  0.00     0.179 C 
BRANCH  37  40
HETATM   40  O2  UNL     1      35.657 -17.805  22.141  1.00  0.00    -0.390 OA
ATOM     41  H2  UNL     1      35.741 -16.968  21.700  1.00  0.00     0.210 HD
ENDBRANCH  37  40
BRANCH  38  42
HETATM   42  O3  UNL     1      39.055 -18.905  22.741  1.00  0.00    -0.390 OA
ATOM     43  H3  UNL     1      39.805 -18.499  23.161  1.00  0.00     0.210 HD
ENDBRANCH  38  42
BRANCH  39  44
HETATM   44  O4  UNL     1      36.995 -17.011  24.796  1.00  0.00    -0.390 OA
ATOM     45  H4  UNL     1      36.530 -16.665  24.043  1.00  0.00     0.210 HD
ENDBRANCH  39  44
ENDBRANCH  32  33
ENDBRANCH   7  32
TORSDOF 13
ENDMDL
MODEL 2
REMARK VINA RESULT: -8.346011129      0.917      1.324
REMARK  13 active torsions:
REMARK  status: ('A' for Active; 'I' for Inactive)
REMARK    1  A    between atoms: C2_2  and  C3_3 
REMARK    2  A    between atoms: C3_3  and  C4_4 
REMARK    3  A    between atoms: C4_4  and  C5_5 
REMARK    4  A    between atoms: C5_5  and  C6_6 
REMARK    5  A    between atoms: C11_12  and  O1_13 
REMARK    6  A    between atoms: O1_13  and  C12_14 
REMARK    7  A    between atoms: C15_18  and  O2_19 
REMARK    8  A    between atoms: C16_21  and  O3_22 
REMARK    9  A    between atoms: C17_24  and  O4_25 
REMARK   10  A    between atoms: C20_29  and  C21_30 
REMARK   11  A    between atoms: C23_32  and  C24_33 
REMARK   12  A    between atoms: C24_33  and  O5_34 
REMARK   13  A    between atoms: C29_40  and  O6_41 
ROOT
HETATM    1  C6  UNL     1      38.444 -18.391  27.843  1.00  0.00    -0.019 A 
HETATM    2  C7  UNL     1      39.621 -18.650  28.576  1.00  0.00     0.047 A 
HETATM    3  C8  UNL     1      40.260 -19.853  28.618  1.00  0.00     0.079 A 
HETATM    4  C9  UNL     1      39.703 -20.885  27.898  1.00  0.00     0.017 A 
HETATM    5  C10 UNL     1      38.573 -20.670  27.181  1.00  0.00     0.159 A 
HETATM    6  F1  UNL     1      38.067 -21.813  26.607  1.00  0.00    -0.203 F 
HETATM    7  C11 UNL     1      37.923 -19.430  27.123  1.00  0.00     0.115 A 
HETATM    8  C18 UNL     1      40.407 -22.189  27.960  1.00  0.00     0.047 C 
HETATM    9  C19 UNL     1      41.858 -21.815  27.569  1.00  0.00     0.043 C 
HETATM   10  C20 UNL     1      42.440 -20.871  28.566  1.00  0.00     0.169 C 
HETATM   11  O7  UNL     1      41.448 -20.161  29.310  1.00  0.00    -0.340 OA
ENDROOT
BRANCH  10  12
HETATM   12  C21 UNL     1      43.516 -21.465  29.357  1.00  0.00     0.012 A 
HETATM   13  C22 UNL     1      44.846 -21.681  29.184  1.00  0.00     0.028 A 
HETATM   14  C23 UNL     1      45.537 -22.235  30.190  1.00  0.00    -0.014 A 
HETATM   15  C30 UNL     1      44.865 -22.555  31.341  1.00  0.00     0.060 A 
HETATM   16  S1  UNL     1      43.261 -22.058  30.959  1.00  0.00    -0.103 SA
BRANCH  14  17
HETATM   17  C24 UNL     1      47.025 -22.539  30.105  1.00  0.00     0.113 C 
HETATM   18  C25 UNL     1      47.738 -22.391  31.406  1.00  0.00     0.057 C 
HETATM   19  C26 UNL     1      48.854 -21.703  30.639  1.00  0.00    -0.015 C 
HETATM   20  C27 UNL     1      49.944 -22.669  30.198  1.00  0.00     0.018 C 
HETATM   21  C28 UNL     1      49.421 -20.499  31.308  1.00  0.00     0.018 C 
HETATM   22  C29 UNL     1      47.815 -21.383  29.574  1.00  0.00     0.165 C 
BRANCH  17  23
HETATM   23  O5  UNL     1      47.337 -23.705  29.463  1.00  0.00    -0.382 OA
ATOM     24  H5  UNL     1      47.106 -23.729  28.542  1.00  0.00     0.211 HD
ENDBRANCH  17  23
BRANCH  22  25
HETATM   25  O6  UNL     1      48.342 -21.596  28.286  1.00  0.00    -0.391 OA
ATOM     26  H6  UNL     1      47.704 -21.913  27.657  1.00  0.00     0.210 HD
ENDBRANCH  22  25
ENDBRANCH  14  17
ENDBRANCH  10  12
BRANCH   1  27
HETATM   27  C5  UNL     1      37.850 -17.053  28.023  1.00  0.00     0.042 C 
BRANCH  27  28
HETATM   28  C4  UNL     1      36.671 -17.058  28.973  1.00  0.00     0.005 C 
BRANCH  28  29
HETATM   29  C3  UNL     1      36.013 -15.704  28.903  1.00  0.00    -0.000 C 
BRANCH  29  30
HETATM   30  C2  UNL     1      36.698 -14.796  27.899  1.00  0.00    -0.005 C 
HETATM   31  C1  UNL     1      35.913 -13.504  27.836  1.00  0.00     0.005 C 
ENDBRANCH  29  30
ENDBRANCH  28  29
ENDBRANCH  27  28
ENDBRANCH   1  27
BRANCH   7  32
HETATM   32  O1  UNL     1      36.830 -19.360  26.330  1.00  0.00    -0.339 OA
BRANCH  32  33
HETATM   33  C12 UNL     1      36.734 -19.037  24.966  1.00  0.00     0.163 C 
HETATM   34  C13 UNL     1      36.703 -20.267  24.104  1.00  0.00     0.075 C 
HETATM   35  C14 UNL     1      36.574 -20.010  22.620  1.00  0.00     0.204 C 
HETATM   36  F2  UNL     1      35.372 -20.434  22.094  1.00  0.00    -0.247 F 
HETATM   37  C15 UNL     1      36.874 -18.630  22.193  1.00  0.00     0.183 C 
HETATM   38  C16 UNL     1      38.016 -18.113  22.988  1.00  0.00     0.180 C 
HETATM   39  C17 UNL     1      37.701 -18.030  24.473  1.00  0.00     0.179 C 
BRANCH  37  40
HETATM   40  O2  UNL     1      35.760 -17.789  22.141  1.00  0.00    -0.390 OA
ATOM     41  H2  UNL     1      35.380 -17.591  22.989  1.00  0.00     0.210 HD
ENDBRANCH  37  40
BRANCH  38  42
HETATM   42  O3  UNL     1      39.108 -18.983  22.833  1.00  0.00    -0.390 OA
ATOM     43  H3  UNL     1      38.782 -19.865  22.695  1.00  0.00     0.210 HD
ENDBRANCH  38  42
BRANCH  39  44
HETATM   44  O4  UNL     1      37.181 -16.753  24.666  1.00  0.00    -0.390 OA
ATOM     45  H4  UNL     1      36.238 -16.807  24.769  1.00  0.00     0.210 HD
ENDBRANCH  39  44
ENDBRANCH  32  33
ENDBRANCH   7  32
TORSDOF 13
ENDMDL
MODEL 3
REMARK VINA RESULT: -8.259870322      2.227      3.002
REMARK  13 active torsions:
REMARK  status: ('A' for Active; 'I' for Inactive)
REMARK    1  A    between atoms: C2_2  and  C3_3 
REMARK    2  A    between atoms: C3_3  and  C4_4 
REMARK    3  A    between atoms: C4_4  and  C5_5 
REMARK    4  A    between atoms: C5_5  and  C6_6 
REMARK    5  A    between atoms: C11_12  and  O1_13 
REMARK    6  A    between atoms: O1_13  and  C12_14 
REMARK    7  A    between atoms: C15_18  and  O2_19 
REMARK    8  A    between atoms: C16_21  and  O3_22 
REMARK    9  A    between atoms: C17_24  and  O4_25 
REMARK   10  A    between atoms: C20_29  and  C21_30 
REMARK   11  A    between atoms: C23_32  and  C24_33 
REMARK   12  A    between atoms: C24_33  and  O5_34 
REMARK   13  A    between atoms: C29_40  and  O6_41 
ROOT
HETATM    1  C6  UNL     1      39.579 -19.509  27.669  1.00  0.00    -0.019 A 
HETATM    2  C7  UNL     1      40.453 -19.926  28.694  1.00  0.00     0.047 A 
HETATM    3  C8  UNL     1      41.669 -20.505  28.491  1.00  0.00     0.079 A 
HETATM    4  C9  UNL     1      42.059 -20.702  27.185  1.00  0.00     0.017 A 
HETATM    5  C10 UNL     1      41.244 -20.312  26.175  1.00  0.00     0.159 A 
HETATM    6  F1  UNL     1      41.707 -20.675  24.931  1.00  0.00    -0.203 F 
HETATM    7  C11 UNL     1      40.000 -19.701  26.382  1.00  0.00     0.115 A 
HETATM    8  C18 UNL     1      43.382 -21.341  26.981  1.00  0.00     0.047 C 
HETATM    9  C19 UNL     1      44.327 -20.452  27.828  1.00  0.00     0.043 C 
HETATM   10  C20 UNL     1      43.947 -20.512  29.268  1.00  0.00     0.169 C 
HETATM   11  O7  UNL     1      42.591 -20.916  29.473  1.00  0.00    -0.340 OA
ENDROOT
BRANCH  10  12
HETATM   12  C21 UNL     1      44.939 -21.197  30.095  1.00  0.00     0.012 A 
HETATM   13  C22 UNL     1      46.267 -21.470  29.995  1.00  0.00     0.028 A 
HETATM   14  C23 UNL     1      46.863 -22.105  31.012  1.00  0.00    -0.014 A 
HETATM   15  C30 UNL     1      46.103 -22.447  32.101  1.00  0.00     0.060 A 
HETATM   16  S1  UNL     1      44.553 -21.852  31.644  1.00  0.00    -0.103 SA
BRANCH  14  17
HETATM   17  C24 UNL     1      48.337 -22.479  31.006  1.00  0.00     0.113 C 
HETATM   18  C25 UNL     1      48.956 -22.487  32.363  1.00  0.00     0.057 C 
HETATM   19  C26 UNL     1      50.158 -21.793  31.745  1.00  0.00    -0.015 C 
HETATM   20  C27 UNL     1      51.232 -22.771  31.295  1.00  0.00     0.018 C 
HETATM   21  C28 UNL     1      50.726 -20.686  32.564  1.00  0.00     0.018 C 
HETATM   22  C29 UNL     1      49.219 -21.323  30.643  1.00  0.00     0.165 C 
BRANCH  17  23
HETATM   23  O5  UNL     1      48.644 -23.597  30.281  1.00  0.00    -0.382 OA
ATOM     24  H5  UNL     1      49.268 -24.183  30.695  1.00  0.00     0.211 HD
ENDBRANCH  17  23
BRANCH  22  25
HETATM   25  O6  UNL     1      49.831 -21.446  29.383  1.00  0.00    -0.391 OA
ATOM     26  H6  UNL     1      50.586 -22.024  29.376  1.00  0.00     0.210 HD
ENDBRANCH  22  25
ENDBRANCH  14  17
ENDBRANCH  10  12
BRANCH   1  27
HETATM   27  C5  UNL     1      38.261 -19.008  28.103  1.00  0.00     0.042 C 
BRANCH  27  28
HETATM   28  C4  UNL     1      38.355 -17.716  28.887  1.00  0.00     0.005 C 
BRANCH  28  29
HETATM   29  C3  UNL     1      37.091 -16.932  28.640  1.00  0.00    -0.000 C 
BRANCH  29  30
HETATM   30  C2  UNL     1      37.266 -15.462  28.972  1.00  0.00    -0.005 C 
HETATM   31  C1  UNL     1      36.179 -14.695  28.252  1.00  0.00     0.005 C 
ENDBRANCH  29  30
ENDBRANCH  28  29
ENDBRANCH  27  28
ENDBRANCH   1  27
BRANCH   7  32
HETATM   32  O1  UNL     1      39.321 -19.329  25.273  1.00  0.00    -0.339 OA
BRANCH  32  33
HETATM   33  C12 UNL     1      39.255 -18.075  24.644  1.00  0.00     0.163 C 
HETATM   34  C13 UNL     1      40.606 -17.423  24.561  1.00  0.00     0.075 C 
HETATM   35  C14 UNL     1      40.631 -16.078  23.872  1.00  0.00     0.204 C 
HETATM   36  F2  UNL     1      41.312 -16.089  22.673  1.00  0.00    -0.247 F 
HETATM   37  C15 UNL     1      39.316 -15.426  23.720  1.00  0.00     0.183 C 
HETATM   38  C16 UNL     1      38.507 -15.675  24.939  1.00  0.00     0.180 C 
HETATM   39  C17 UNL     1      38.216 -17.152  25.155  1.00  0.00     0.179 C 
BRANCH  37  40
HETATM   40  O2  UNL     1      38.670 -15.707  22.514  1.00  0.00    -0.390 OA
ATOM     41  H2  UNL     1      37.735 -15.543  22.523  1.00  0.00     0.210 HD
ENDBRANCH  37  40
BRANCH  38  42
HETATM   42  O3  UNL     1      39.219 -15.214  26.060  1.00  0.00    -0.390 OA
ATOM     43  H3  UNL     1      39.092 -14.276  26.141  1.00  0.00     0.210 HD
ENDBRANCH  38  42
BRANCH  39  44
HETATM   44  O4  UNL     1      37.016 -17.390  24.489  1.00  0.00    -0.390 OA
ATOM     45  H4  UNL     1      36.296 -17.036  24.998  1.00  0.00     0.210 HD
ENDBRANCH  39  44
ENDBRANCH  32  33
ENDBRANCH   7  32
TORSDOF 13
ENDMDL
MODEL 4
REMARK VINA RESULT: -8.238804300      2.824      4.595
REMARK  13 active torsions:
REMARK  status: ('A' for Active; 'I' for Inactive)
REMARK    1  A    between atoms: C2_2  and  C3_3 
REMARK    2  A    between atoms: C3_3  and  C4_4 
REMARK    3  A    between atoms: C4_4  and  C5_5 
REMARK    4  A    between atoms: C5_5  and  C6_6 
REMARK    5  A    between atoms: C11_12  and  O1_13 
REMARK    6  A    between atoms: O1_13  and  C12_14 
REMARK    7  A    between atoms: C15_18  and  O2_19 
REMARK    8  A    between atoms: C16_21  and  O3_22 
REMARK    9  A    between atoms: C17_24  and  O4_25 
REMARK   10  A    between atoms: C20_29  and  C21_30 
REMARK   11  A    between atoms: C23_32  and  C24_33 
REMARK   12  A    between atoms: C24_33  and  O5_34 
REMARK   13  A    between atoms: C29_40  and  O6_41 
ROOT
HETATM    1  C6  UNL     1      36.649 -20.752  24.993  1.00  0.00    -0.019 A 
HETATM    2  C7  UNL     1      37.407 -21.676  25.742  1.00  0.00     0.047 A 
HETATM    3  C8  UNL     1      38.579 -21.388  26.373  1.00  0.00     0.079 A 
HETATM    4  C9  UNL     1      39.054 -20.101  26.258  1.00  0.00     0.017 A 
HETATM    5  C10 UNL     1      38.350 -19.187  25.546  1.00  0.00     0.159 A 
HETATM    6  F1  UNL     1      38.998 -17.979  25.418  1.00  0.00    -0.203 F 
HETATM    7  C11 UNL     1      37.136 -19.477  24.909  1.00  0.00     0.115 A 
HETATM    8  C18 UNL     1      40.335 -19.805  26.944  1.00  0.00     0.047 C 
HETATM    9  C19 UNL     1      40.066 -20.285  28.392  1.00  0.00     0.043 C 
HETATM   10  C20 UNL     1      39.800 -21.752  28.415  1.00  0.00     0.169 C 
HETATM   11  O7  UNL     1      39.362 -22.261  27.153  1.00  0.00    -0.340 OA
ENDROOT
BRANCH  10  12
HETATM   12  C21 UNL     1      40.860 -22.516  29.069  1.00  0.00     0.012 A 
HETATM   13  C22 UNL     1      42.072 -22.230  29.613  1.00  0.00     0.028 A 
HETATM   14  C23 UNL     1      42.765 -23.226  30.180  1.00  0.00    -0.014 A 
HETATM   15  C30 UNL     1      42.216 -24.482  30.182  1.00  0.00     0.060 A 
HETATM   16  S1  UNL     1      40.720 -24.210  29.373  1.00  0.00    -0.103 SA
BRANCH  14  17
HETATM   17  C24 UNL     1      44.139 -23.030  30.804  1.00  0.00     0.113 C 
HETATM   18  C25 UNL     1      44.347 -21.667  31.370  1.00  0.00     0.057 C 
HETATM   19  C26 UNL     1      45.735 -21.696  30.754  1.00  0.00    -0.015 C 
HETATM   20  C27 UNL     1      46.793 -22.213  31.717  1.00  0.00     0.018 C 
HETATM   21  C28 UNL     1      46.155 -20.424  30.102  1.00  0.00     0.018 C 
HETATM   22  C29 UNL     1      45.194 -22.735  29.782  1.00  0.00     0.165 C 
BRANCH  17  23
HETATM   23  O5  UNL     1      44.527 -24.021  31.662  1.00  0.00    -0.382 OA
ATOM     24  H5  UNL     1      45.465 -24.085  31.800  1.00  0.00     0.211 HD
ENDBRANCH  17  23
BRANCH  22  25
HETATM   25  O6  UNL     1      46.121 -23.778  29.602  1.00  0.00    -0.391 OA
ATOM     26  H6  UNL     1      46.973 -23.606  29.989  1.00  0.00     0.210 HD
ENDBRANCH  22  25
ENDBRANCH  14  17
ENDBRANCH  10  12
BRANCH   1  27
HETATM   27  C5  UNL     1      35.468 -21.296  24.295  1.00  0.00     0.042 C 
BRANCH  27  28
HETATM   28  C4  UNL     1      35.827 -22.020  23.014  1.00  0.00     0.005 C 
BRANCH  28  29
HETATM   29  C3  UNL     1      34.906 -23.206  22.880  1.00  0.00    -0.000 C 
BRANCH  29  30
HETATM   30  C2  UNL     1      35.137 -24.226  23.979  1.00  0.00    -0.005 C 
HETATM   31  C1  UNL     1      34.706 -25.577  23.451  1.00  0.00     0.005 C 
ENDBRANCH  29  30
ENDBRANCH  28  29
ENDBRANCH  27  28
ENDBRANCH   1  27
BRANCH   7  32
HETATM   32  O1  UNL     1      36.529 -18.449  24.274  1.00  0.00    -0.339 OA
BRANCH  32  33
HETATM   33  C12 UNL     1      36.617 -18.051  22.930  1.00  0.00     0.163 C 
HETATM   34  C13 UNL     1      35.360 -18.373  22.171  1.00  0.00     0.075 C 
HETATM   35  C14 UNL     1      35.359 -17.953  20.719  1.00  0.00     0.204 C 
HETATM   36  F2  UNL     1      34.462 -16.944  20.442  1.00  0.00    -0.247 F 
HETATM   37  C15 UNL     1      36.685 -17.644  20.154  1.00  0.00     0.183 C 
HETATM   38  C16 UNL     1      37.681 -18.601  20.700  1.00  0.00     0.180 C 
HETATM   39  C17 UNL     1      37.835 -18.485  22.208  1.00  0.00     0.179 C 
BRANCH  37  40
HETATM   40  O2  UNL     1      37.049 -16.298  20.242  1.00  0.00    -0.390 OA
ATOM     41  H2  UNL     1      37.986 -16.146  20.254  1.00  0.00     0.210 HD
ENDBRANCH  37  40
BRANCH  38  42
HETATM   42  O3  UNL     1      37.257 -19.910  20.415  1.00  0.00    -0.390 OA
ATOM     43  H3  UNL     1      36.827 -20.268  21.182  1.00  0.00     0.210 HD
ENDBRANCH  38  42
BRANCH  39  44
HETATM   44  O4  UNL     1      38.847 -17.549  22.402  1.00  0.00    -0.390 OA
ATOM     45  H4  UNL     1      39.684 -17.935  22.172  1.00  0.00     0.210 HD
ENDBRANCH  39  44
ENDBRANCH  32  33
ENDBRANCH   7  32
TORSDOF 13
ENDMDL
MODEL 5
REMARK VINA RESULT: -8.151217104      2.003      2.646
REMARK  13 active torsions:
REMARK  status: ('A' for Active; 'I' for Inactive)
REMARK    1  A    between atoms: C2_2  and  C3_3 
REMARK    2  A    between atoms: C3_3  and  C4_4 
REMARK    3  A    between atoms: C4_4  and  C5_5 
REMARK    4  A    between atoms: C5_5  and  C6_6 
REMARK    5  A    between atoms: C11_12  and  O1_13 
REMARK    6  A    between atoms: O1_13  and  C12_14 
REMARK    7  A    between atoms: C15_18  and  O2_19 
REMARK    8  A    between atoms: C16_21  and  O3_22 
REMARK    9  A    between atoms: C17_24  and  O4_25 
REMARK   10  A    between atoms: C20_29  and  C21_30 
REMARK   11  A    between atoms: C23_32  and  C24_33 
REMARK   12  A    between atoms: C24_33  and  O5_34 
REMARK   13  A    between atoms: C29_40  and  O6_41 
ROOT
HETATM    1  C6  UNL     1      37.734 -17.695  26.195  1.00  0.00    -0.019 A 
HETATM    2  C7  UNL     1      38.657 -18.241  27.111  1.00  0.00     0.047 A 
HETATM    3  C8  UNL     1      38.945 -19.568  27.226  1.00  0.00     0.079 A 
HETATM    4  C9  UNL     1      38.273 -20.430  26.389  1.00  0.00     0.017 A 
HETATM    5  C10 UNL     1      37.379 -19.939  25.496  1.00  0.00     0.159 A 
HETATM    6  F1  UNL     1      36.701 -20.920  24.809  1.00  0.00    -0.203 F 
HETATM    7  C11 UNL     1      37.094 -18.573  25.365  1.00  0.00     0.115 A 
HETATM    8  C18 UNL     1      38.592 -21.872  26.532  1.00  0.00     0.047 C 
HETATM    9  C19 UNL     1      40.136 -21.895  26.407  1.00  0.00     0.043 C 
HETATM   10  C20 UNL     1      40.761 -21.120  27.517  1.00  0.00     0.169 C 
HETATM   11  O7  UNL     1      39.873 -20.164  28.101  1.00  0.00    -0.340 OA
ENDROOT
BRANCH  10  12
HETATM   12  C21 UNL     1      41.491 -21.962  28.463  1.00  0.00     0.012 A 
HETATM   13  C22 UNL     1      42.682 -21.888  29.113  1.00  0.00     0.028 A 
HETATM   14  C23 UNL     1      43.003 -22.869  29.967  1.00  0.00    -0.014 A 
HETATM   15  C30 UNL     1      42.112 -23.897  30.140  1.00  0.00     0.060 A 
HETATM   16  S1  UNL     1      40.837 -23.437  29.078  1.00  0.00    -0.103 SA
BRANCH  14  17
HETATM   17  C24 UNL     1      44.314 -22.902  30.737  1.00  0.00     0.113 C 
HETATM   18  C25 UNL     1      44.639 -21.616  31.417  1.00  0.00     0.057 C 
HETATM   19  C26 UNL     1      46.069 -21.803  30.942  1.00  0.00    -0.015 C 
HETATM   20  C27 UNL     1      46.939 -22.517  31.965  1.00  0.00     0.018 C 
HETATM   21  C28 UNL     1      46.722 -20.567  30.428  1.00  0.00     0.018 C 
HETATM   22  C29 UNL     1      45.503 -22.699  29.849  1.00  0.00     0.165 C 
BRANCH  17  23
HETATM   23  O5  UNL     1      44.473 -23.986  31.556  1.00  0.00    -0.382 OA
ATOM     24  H5  UNL     1      44.843 -23.791  32.409  1.00  0.00     0.211 HD
ENDBRANCH  17  23
BRANCH  22  25
HETATM   25  O6  UNL     1      46.299 -23.848  29.687  1.00  0.00    -0.391 OA
ATOM     26  H6  UNL     1      45.801 -24.656  29.633  1.00  0.00     0.210 HD
ENDBRANCH  22  25
ENDBRANCH  14  17
ENDBRANCH  10  12
BRANCH   1  27
HETATM   27  C5  UNL     1      37.485 -16.246  26.310  1.00  0.00     0.042 C 
BRANCH  27  28
HETATM   28  C4  UNL     1      38.296 -15.598  27.414  1.00  0.00     0.005 C 
BRANCH  28  29
HETATM   29  C3  UNL     1      37.333 -14.953  28.378  1.00  0.00    -0.000 C 
BRANCH  29  30
HETATM   30  C2  UNL     1      36.500 -13.878  27.706  1.00  0.00    -0.005 C 
HETATM   31  C1  UNL     1      35.288 -13.624  28.577  1.00  0.00     0.005 C 
ENDBRANCH  29  30
ENDBRANCH  28  29
ENDBRANCH  27  28
ENDBRANCH   1  27
BRANCH   7  32
HETATM   32  O1  UNL     1      36.211 -18.234  24.398  1.00  0.00    -0.339 OA
BRANCH  32  33
HETATM   33  C12 UNL     1      36.440 -17.925  23.047  1.00  0.00     0.163 C 
HETATM   34  C13 UNL     1      35.496 -18.664  22.141  1.00  0.00     0.075 C 
HETATM   35  C14 UNL     1      35.656 -18.369  20.667  1.00  0.00     0.204 C 
HETATM   36  F2  UNL     1      34.581 -17.699  20.123  1.00  0.00    -0.247 F 
HETATM   37  C15 UNL     1      36.923 -17.716  20.291  1.00  0.00     0.183 C 
HETATM   38  C16 UNL     1      38.025 -18.287  21.107  1.00  0.00     0.180 C 
HETATM   39  C17 UNL     1      37.846 -18.023  22.593  1.00  0.00     0.179 C 
BRANCH  37  40
HETATM   40  O2  UNL     1      36.867 -16.321  20.267  1.00  0.00    -0.390 OA
ATOM     41  H2  UNL     1      37.236 -15.927  19.486  1.00  0.00     0.210 HD
ENDBRANCH  37  40
BRANCH  38  42
HETATM   42  O3  UNL     1      38.052 -19.680  20.923  1.00  0.00    -0.390 OA
ATOM     43  H3  UNL     1      37.209 -20.039  21.173  1.00  0.00     0.210 HD
ENDBRANCH  38  42
BRANCH  39  44
HETATM   44  O4  UNL     1      38.495 -16.814  22.831  1.00  0.00    -0.390 OA
ATOM     45  H4  UNL     1      38.785 -16.782  23.735  1.00  0.00     0.210 HD
ENDBRANCH  39  44
ENDBRANCH  32  33
ENDBRANCH   7  32
TORSDOF 13
ENDMDL
