MODEL 1
REMARK VINA RESULT: -9.151500761      0.000      0.000
REMARK  12 active torsions:
REMARK  status: ('A' for Active; 'I' for Inactive)
REMARK    1  A    between atoms: N1_5  and  C5_6 
REMARK    2  A    between atoms: C9_10  and  C10_11 
REMARK    3  A    between atoms: C12_14  and  N2_15 
REMARK    4  A    between atoms: N5_22  and  C13_23 
REMARK    5  A    between atoms: C13_23  and  C14_24 
REMARK    6  A    between atoms: C14_24  and  C15_25 
REMARK    7  A    between atoms: C15_25  and  O1_26 
REMARK    8  A    between atoms: C15_25  and  C16_28 
REMARK    9  A    between atoms: C16_28  and  C17_29 
REMARK   10  A    between atoms: C17_29  and  C18_30 
REMARK   11  A    between atoms: C18_30  and  C19_31 
REMARK   12  A    between atoms: C19_31  and  N6_32 
ROOT
HETATM    1  C5  UNL     1      40.087 -19.201  28.261  1.00  0.00     0.040 A 
HETATM    2  C6  UNL     1      39.555 -18.372  29.211  1.00  0.00     0.031 A 
HETATM    3  C7  UNL     1      38.603 -17.389  28.947  1.00  0.00     0.018 A 
HETATM    4  C8  UNL     1      38.165 -17.230  27.671  1.00  0.00     0.023 A 
HETATM    5  C9  UNL     1      37.268 -16.377  27.115  1.00  0.00     0.088 A 
HETATM    6  N4  UNL     1      37.265 -16.711  25.782  1.00  0.00    -0.295 N 
ATOM      7  H4  UNL     1      36.690 -16.252  25.076  1.00  0.00     0.187 HD
HETATM    8  N5  UNL     1      38.086 -17.685  25.536  1.00  0.00    -0.291 N 
HETATM    9  C24 UNL     1      38.695 -18.070  26.680  1.00  0.00     0.065 A 
HETATM   10  C25 UNL     1      39.631 -19.027  26.977  1.00  0.00     0.062 A 
ENDROOT
BRANCH   8  11
HETATM   11  C13 UNL     1      38.321 -18.303  24.238  1.00  0.00     0.152 C 
BRANCH  11  12
HETATM   12  C14 UNL     1      37.257 -19.249  23.827  1.00  0.00     0.053 C 
BRANCH  12  13
HETATM   13  C15 UNL     1      36.209 -18.817  22.899  1.00  0.00     0.119 C 
BRANCH  13  14
HETATM   14  O1  UNL     1      35.535 -17.648  23.209  1.00  0.00    -0.396 OA
ATOM     15  H1  UNL     1      34.855 -17.369  22.607  1.00  0.00     0.210 HD
ENDBRANCH  13  14
BRANCH  13  16
HETATM   16  C16 UNL     1      35.330 -19.844  22.257  1.00  0.00     0.032 C 
BRANCH  16  17
HETATM   17  C17 UNL     1      34.552 -20.718  23.147  1.00  0.00     0.004 C 
BRANCH  17  18
HETATM   18  C18 UNL     1      34.914 -22.166  23.060  1.00  0.00     0.030 C 
BRANCH  18  19
HETATM   19  C19 UNL     1      35.685 -22.748  24.175  1.00  0.00     0.272 C 
BRANCH  19  20
HETATM   20  N6  UNL     1      35.374 -24.084  24.582  1.00  0.00     0.092 N 
HETATM   21  C20 UNL     1      34.444 -24.616  23.577  1.00  0.00     0.298 C 
HETATM   22  C21 UNL     1      34.698 -26.078  23.308  1.00  0.00     0.198 C 
HETATM   23  O2  UNL     1      35.049 -26.673  24.530  1.00  0.00    -0.388 OA
HETATM   24  C22 UNL     1      36.367 -26.303  24.797  1.00  0.00     0.198 C 
HETATM   25  C23 UNL     1      36.618 -24.853  24.523  1.00  0.00     0.298 C 
ENDBRANCH  19  20
ENDBRANCH  18  19
ENDBRANCH  17  18
ENDBRANCH  16  17
ENDBRANCH  13  16
ENDBRANCH  12  13
ENDBRANCH  11  12
ENDBRANCH   8  11
BRANCH   5  26
HETATM   26  C10 UNL     1      36.435 -15.286  27.718  1.00  0.00     0.070 A 
HETATM   27  C11 UNL     1      36.664 -13.960  27.541  1.00  0.00     0.085 A 
HETATM   28  S1  UNL     1      35.395 -13.232  28.475  1.00  0.00    -0.064 SA
HETATM   29  C12 UNL     1      34.673 -14.654  29.018  1.00  0.00     0.142 A 
HETATM   30  N3  UNL     1      35.399 -15.618  28.486  1.00  0.00    -0.335 N 
ATOM     31  H3  UNL     1      35.172 -16.597  28.660  1.00  0.00     0.168 HD
BRANCH  29  32
HETATM   32  N2  UNL     1      33.617 -14.816  29.800  1.00  0.00    -0.380 N 
ATOM     33  H22 UNL     1      33.390 -14.258  30.624  1.00  0.00     0.158 HD
ATOM     34  H21 UNL     1      32.861 -15.498  29.735  1.00  0.00     0.158 HD
ENDBRANCH  29  32
ENDBRANCH   5  26
BRANCH   1  35
HETATM   35  N1  UNL     1      41.064 -20.188  28.583  1.00  0.00    -0.332 N 
HETATM   36  C4  UNL     1      42.244 -20.391  27.946  1.00  0.00     0.104 A 
HETATM   37  C3  UNL     1      42.942 -21.435  28.532  1.00  0.00    -0.030 A 
HETATM   38  C2  UNL     1      44.238 -22.097  28.286  1.00  0.00     0.024 C 
HETATM   39  C27 UNL     1      42.154 -21.886  29.568  1.00  0.00    -0.030 A 
HETATM   40  C1  UNL     1      44.073 -23.412  27.551  1.00  0.00     0.015 C 
HETATM   41  C30 UNL     1      44.974 -22.357  29.570  1.00  0.00     0.045 C 
HETATM   42  C29 UNL     1      44.106 -22.616  30.754  1.00  0.00     0.186 C 
HETATM   43  C31 UNL     1      45.940 -21.209  29.792  1.00  0.00     0.015 C 
HETATM   44  C28 UNL     1      42.693 -23.019  30.367  1.00  0.00     0.101 C 
HETATM   45  F1  UNL     1      43.992 -21.451  31.526  1.00  0.00    -0.225 F 
HETATM   46 CL1  UNL     1      44.784 -23.872  31.809  1.00  0.00    -0.082 Cl
HETATM   47  C26 UNL     1      41.028 -21.108  29.566  1.00  0.00     0.104 A 
ENDBRANCH   1  35
TORSDOF 12
ENDMDL
MODEL 2
REMARK VINA RESULT: -9.016481908      1.096      1.277
REMARK  12 active torsions:
REMARK  status: ('A' for Active; 'I' for Inactive)
REMARK    1  A    between atoms: N1_5  and  C5_6 
REMARK    2  A    between atoms: C9_10  and  C10_11 
REMARK    3  A    between atoms: C12_14  and  N2_15 
REMARK    4  A    between atoms: N5_22  and  C13_23 
REMARK    5  A    between atoms: C13_23  and  C14_24 
REMARK    6  A    between atoms: C14_24  and  C15_25 
REMARK    7  A    between atoms: C15_25  and  O1_26 
REMARK    8  A    between atoms: C15_25  and  C16_28 
REMARK    9  A    between atoms: C16_28  and  C17_29 
REMARK   10  A    between atoms: C17_29  and  C18_30 
REMARK   11  A    between atoms: C18_30  and  C19_31 
REMARK   12  A    between atoms: C19_31  and  N6_32 
ROOT
HETATM    1  C5  UNL     1      40.231 -19.927  28.405  1.00  0.00     0.040 A 
HETATM    2  C6  UNL     1      40.069 -18.780  29.134  1.00  0.00     0.031 A 
HETATM    3  C7  UNL     1      39.091 -17.821  28.875  1.00  0.00     0.018 A 
HETATM    4  C8  UNL     1      38.237 -18.022  27.838  1.00  0.00     0.023 A 
HETATM    5  C9  UNL     1      37.208 -17.285  27.348  1.00  0.00     0.088 A 
HETATM    6  N4  UNL     1      36.740 -18.022  26.288  1.00  0.00    -0.295 N 
ATOM      7  H4  UNL     1      35.958 -17.742  25.695  1.00  0.00     0.187 HD
HETATM    8  N5  UNL     1      37.418 -19.117  26.135  1.00  0.00    -0.291 N 
HETATM    9  C24 UNL     1      38.384 -19.192  27.078  1.00  0.00     0.065 A 
HETATM   10  C25 UNL     1      39.358 -20.114  27.361  1.00  0.00     0.062 A 
ENDROOT
BRANCH   8  11
HETATM   11  C13 UNL     1      37.182 -20.139  25.124  1.00  0.00     0.152 C 
BRANCH  11  12
HETATM   12  C14 UNL     1      37.306 -19.643  23.734  1.00  0.00     0.053 C 
BRANCH  12  13
HETATM   13  C15 UNL     1      36.129 -19.124  23.032  1.00  0.00     0.119 C 
BRANCH  13  14
HETATM   14  O1  UNL     1      35.696 -17.856  23.379  1.00  0.00    -0.396 OA
ATOM     15  H1  UNL     1      34.793 -17.639  23.182  1.00  0.00     0.210 HD
ENDBRANCH  13  14
BRANCH  13  16
HETATM   16  C16 UNL     1      35.004 -20.055  22.702  1.00  0.00     0.032 C 
BRANCH  16  17
HETATM   17  C17 UNL     1      35.358 -21.388  22.193  1.00  0.00     0.004 C 
BRANCH  17  18
HETATM   18  C18 UNL     1      34.731 -22.521  22.942  1.00  0.00     0.030 C 
BRANCH  18  19
HETATM   19  C19 UNL     1      35.518 -23.147  24.021  1.00  0.00     0.272 C 
BRANCH  19  20
HETATM   20  N6  UNL     1      35.176 -24.479  24.415  1.00  0.00     0.092 N 
HETATM   21  C20 UNL     1      34.377 -25.043  23.318  1.00  0.00     0.298 C 
HETATM   22  C21 UNL     1      34.677 -26.506  23.111  1.00  0.00     0.198 C 
HETATM   23  O2  UNL     1      34.886 -27.073  24.378  1.00  0.00    -0.388 OA
HETATM   24  C22 UNL     1      36.160 -26.680  24.792  1.00  0.00     0.198 C 
HETATM   25  C23 UNL     1      36.426 -25.233  24.520  1.00  0.00     0.298 C 
ENDBRANCH  19  20
ENDBRANCH  18  19
ENDBRANCH  17  18
ENDBRANCH  16  17
ENDBRANCH  13  16
ENDBRANCH  12  13
ENDBRANCH  11  12
ENDBRANCH   8  11
BRANCH   5  26
HETATM   26  C10 UNL     1      36.645 -15.965  27.779  1.00  0.00     0.070 A 
HETATM   27  C11 UNL     1      35.785 -15.800  28.816  1.00  0.00     0.085 A 
HETATM   28  S1  UNL     1      35.504 -14.086  28.803  1.00  0.00    -0.064 SA
HETATM   29  C12 UNL     1      36.492 -13.709  27.491  1.00  0.00     0.142 A 
HETATM   30  N3  UNL     1      36.994 -14.867  27.110  1.00  0.00    -0.335 N 
ATOM     31  H3  UNL     1      37.637 -14.922  26.320  1.00  0.00     0.168 HD
BRANCH  29  32
HETATM   32  N2  UNL     1      36.738 -12.533  26.934  1.00  0.00    -0.380 N 
ATOM     33  H22 UNL     1      36.433 -11.626  27.289  1.00  0.00     0.158 HD
ATOM     34  H21 UNL     1      37.255 -12.315  26.082  1.00  0.00     0.158 HD
ENDBRANCH  29  32
ENDBRANCH   5  26
BRANCH   1  35
HETATM   35  N1  UNL     1      41.253 -20.874  28.708  1.00  0.00    -0.332 N 
HETATM   36  C4  UNL     1      42.449 -20.998  28.081  1.00  0.00     0.104 A 
HETATM   37  C3  UNL     1      43.191 -22.025  28.642  1.00  0.00    -0.030 A 
HETATM   38  C2  UNL     1      44.522 -22.612  28.391  1.00  0.00     0.024 C 
HETATM   39  C27 UNL     1      42.415 -22.547  29.652  1.00  0.00    -0.030 A 
HETATM   40  C1  UNL     1      44.431 -23.909  27.612  1.00  0.00     0.015 C 
HETATM   41  C30 UNL     1      45.255 -22.878  29.676  1.00  0.00     0.045 C 
HETATM   42  C29 UNL     1      44.387 -23.218  30.840  1.00  0.00     0.186 C 
HETATM   43  C31 UNL     1      46.159 -21.691  29.948  1.00  0.00     0.015 C 
HETATM   44  C28 UNL     1      43.001 -23.678  30.421  1.00  0.00     0.101 C 
HETATM   45  F1  UNL     1      44.207 -22.086  31.647  1.00  0.00    -0.225 F 
HETATM   46 CL1  UNL     1      45.115 -24.474  31.863  1.00  0.00    -0.082 Cl
HETATM   47  C26 UNL     1      41.252 -21.827  29.661  1.00  0.00     0.104 A 
ENDBRANCH   1  35
TORSDOF 12
ENDMDL
MODEL 3
REMARK VINA RESULT: -8.978080494      3.782      7.248
REMARK  12 active torsions:
REMARK  status: ('A' for Active; 'I' for Inactive)
REMARK    1  A    between atoms: N1_5  and  C5_6 
REMARK    2  A    between atoms: C9_10  and  C10_11 
REMARK    3  A    between atoms: C12_14  and  N2_15 
REMARK    4  A    between atoms: N5_22  and  C13_23 
REMARK    5  A    between atoms: C13_23  and  C14_24 
REMARK    6  A    between atoms: C14_24  and  C15_25 
REMARK    7  A    between atoms: C15_25  and  O1_26 
REMARK    8  A    between atoms: C15_25  and  C16_28 
REMARK    9  A    between atoms: C16_28  and  C17_29 
REMARK   10  A    between atoms: C17_29  and  C18_30 
REMARK   11  A    between atoms: C18_30  and  C19_31 
REMARK   12  A    between atoms: C19_31  and  N6_32 
ROOT
HETATM    1  C5  UNL     1      36.647 -21.065  24.328  1.00  0.00     0.040 A 
HETATM    2  C6  UNL     1      36.337 -20.601  25.578  1.00  0.00     0.031 A 
HETATM    3  C7  UNL     1      36.578 -19.299  26.010  1.00  0.00     0.018 A 
HETATM    4  C8  UNL     1      37.157 -18.421  25.150  1.00  0.00     0.023 A 
HETATM    5  C9  UNL     1      37.511 -17.117  25.279  1.00  0.00     0.088 A 
HETATM    6  N4  UNL     1      38.052 -16.792  24.059  1.00  0.00    -0.295 N 
ATOM      7  H4  UNL     1      38.423 -15.872  23.821  1.00  0.00     0.187 HD
HETATM    8  N5  UNL     1      38.034 -17.805  23.247  1.00  0.00    -0.291 N 
HETATM    9  C24 UNL     1      37.482 -18.874  23.863  1.00  0.00     0.065 A 
HETATM   10  C25 UNL     1      37.231 -20.164  23.471  1.00  0.00     0.062 A 
ENDROOT
BRANCH   8  11
HETATM   11  C13 UNL     1      38.509 -17.809  21.870  1.00  0.00     0.152 C 
BRANCH  11  12
HETATM   12  C14 UNL     1      39.790 -18.529  21.684  1.00  0.00     0.053 C 
BRANCH  12  13
HETATM   13  C15 UNL     1      40.915 -18.272  22.587  1.00  0.00     0.119 C 
BRANCH  13  14
HETATM   14  O1  UNL     1      42.079 -17.782  22.019  1.00  0.00    -0.396 OA
ATOM     15  H1  UNL     1      42.781 -17.542  22.612  1.00  0.00     0.210 HD
ENDBRANCH  13  14
BRANCH  13  16
HETATM   16  C16 UNL     1      41.170 -19.209  23.725  1.00  0.00     0.032 C 
BRANCH  16  17
HETATM   17  C17 UNL     1      41.069 -18.661  25.086  1.00  0.00     0.004 C 
BRANCH  17  18
HETATM   18  C18 UNL     1      40.488 -19.606  26.089  1.00  0.00     0.030 C 
BRANCH  18  19
HETATM   19  C19 UNL     1      40.098 -19.057  27.402  1.00  0.00     0.272 C 
BRANCH  19  20
HETATM   20  N6  UNL     1      40.015 -19.960  28.509  1.00  0.00     0.092 N 
HETATM   21  C20 UNL     1      39.249 -21.122  28.039  1.00  0.00     0.298 C 
HETATM   22  C21 UNL     1      39.778 -22.406  28.625  1.00  0.00     0.198 C 
HETATM   23  O2  UNL     1      40.167 -22.133  29.946  1.00  0.00    -0.388 OA
HETATM   24  C22 UNL     1      41.381 -21.449  29.877  1.00  0.00     0.198 C 
HETATM   25  C23 UNL     1      41.379 -20.390  28.818  1.00  0.00     0.298 C 
ENDBRANCH  19  20
ENDBRANCH  18  19
ENDBRANCH  17  18
ENDBRANCH  16  17
ENDBRANCH  13  16
ENDBRANCH  12  13
ENDBRANCH  11  12
ENDBRANCH   8  11
BRANCH   5  26
HETATM   26  C10 UNL     1      37.395 -16.171  26.435  1.00  0.00     0.070 A 
HETATM   27  C11 UNL     1      37.281 -16.554  27.732  1.00  0.00     0.085 A 
HETATM   28  S1  UNL     1      37.181 -15.035  28.566  1.00  0.00    -0.064 SA
HETATM   29  C12 UNL     1      37.291 -14.033  27.217  1.00  0.00     0.142 A 
HETATM   30  N3  UNL     1      37.398 -14.860  26.196  1.00  0.00    -0.335 N 
ATOM     31  H3  UNL     1      37.481 -14.505  25.243  1.00  0.00     0.168 HD
BRANCH  29  32
HETATM   32  N2  UNL     1      37.278 -12.710  27.149  1.00  0.00    -0.380 N 
ATOM     33  H22 UNL     1      36.839 -12.151  26.416  1.00  0.00     0.158 HD
ATOM     34  H21 UNL     1      37.686 -12.025  27.785  1.00  0.00     0.158 HD
ENDBRANCH  29  32
ENDBRANCH   5  26
BRANCH   1  35
HETATM   35  N1  UNL     1      36.386 -22.411  23.937  1.00  0.00    -0.332 N 
HETATM   36  C4  UNL     1      37.033 -23.110  22.971  1.00  0.00     0.104 A 
HETATM   37  C3  UNL     1      36.514 -24.391  22.864  1.00  0.00    -0.030 A 
HETATM   38  C2  UNL     1      36.798 -25.568  22.021  1.00  0.00     0.024 C 
HETATM   39  C27 UNL     1      35.511 -24.475  23.804  1.00  0.00    -0.030 A 
HETATM   40  C1  UNL     1      35.795 -25.714  20.895  1.00  0.00     0.015 C 
HETATM   41  C30 UNL     1      36.796 -26.835  22.829  1.00  0.00     0.045 C 
HETATM   42  C29 UNL     1      35.871 -26.837  23.997  1.00  0.00     0.186 C 
HETATM   43  C31 UNL     1      38.230 -27.140  23.218  1.00  0.00     0.015 C 
HETATM   44  C28 UNL     1      34.791 -25.773  23.891  1.00  0.00     0.101 C 
HETATM   45  F1  UNL     1      36.585 -26.566  25.173  1.00  0.00    -0.225 F 
HETATM   46 CL1  UNL     1      35.089 -28.416  24.219  1.00  0.00    -0.082 Cl
HETATM   47  C26 UNL     1      35.463 -23.259  24.431  1.00  0.00     0.104 A 
ENDBRANCH   1  35
TORSDOF 12
ENDMDL
MODEL 4
REMARK VINA RESULT: -8.975387500      4.493      9.138
REMARK  12 active torsions:
REMARK  status: ('A' for Active; 'I' for Inactive)
REMARK    1  A    between atoms: N1_5  and  C5_6 
REMARK    2  A    between atoms: C9_10  and  C10_11 
REMARK    3  A    between atoms: C12_14  and  N2_15 
REMARK    4  A    between atoms: N5_22  and  C13_23 
REMARK    5  A    between atoms: C13_23  and  C14_24 
REMARK    6  A    between atoms: C14_24  and  C15_25 
REMARK    7  A    between atoms: C15_25  and  O1_26 
REMARK    8  A    between atoms: C15_25  and  C16_28 
REMARK    9  A    between atoms: C16_28  and  C17_29 
REMARK   10  A    between atoms: C17_29  and  C18_30 
REMARK   11  A    between atoms: C18_30  and  C19_31 
REMARK   12  A    between atoms: C19_31  and  N6_32 
ROOT
HETATM    1  C5  UNL     1      39.844 -24.079  26.658  1.00  0.00     0.040 A 
HETATM    2  C6  UNL     1      41.088 -24.452  27.091  1.00  0.00     0.031 A 
HETATM    3  C7  UNL     1      41.892 -23.673  27.922  1.00  0.00     0.018 A 
HETATM    4  C8  UNL     1      41.428 -22.466  28.336  1.00  0.00     0.023 A 
HETATM    5  C9  UNL     1      41.968 -21.503  29.126  1.00  0.00     0.088 A 
HETATM    6  N4  UNL     1      41.008 -20.521  29.165  1.00  0.00    -0.295 N 
ATOM      7  H4  UNL     1      41.103 -19.646  29.681  1.00  0.00     0.187 HD
HETATM    8  N5  UNL     1      39.967 -20.847  28.462  1.00  0.00    -0.291 N 
HETATM    9  C24 UNL     1      40.154 -22.064  27.905  1.00  0.00     0.065 A 
HETATM   10  C25 UNL     1      39.391 -22.856  27.087  1.00  0.00     0.062 A 
ENDROOT
BRANCH   8  11
HETATM   11  C13 UNL     1      38.759 -20.050  28.299  1.00  0.00     0.152 C 
BRANCH  11  12
HETATM   12  C14 UNL     1      39.017 -18.601  28.135  1.00  0.00     0.053 C 
BRANCH  12  13
HETATM   13  C15 UNL     1      38.882 -17.697  29.280  1.00  0.00     0.119 C 
BRANCH  13  14
HETATM   14  O1  UNL     1      39.507 -18.072  30.457  1.00  0.00    -0.396 OA
ATOM     15  H1  UNL     1      40.279 -17.580  30.712  1.00  0.00     0.210 HD
ENDBRANCH  13  14
BRANCH  13  16
HETATM   16  C16 UNL     1      37.580 -16.995  29.509  1.00  0.00     0.032 C 
BRANCH  16  17
HETATM   17  C17 UNL     1      37.562 -15.534  29.337  1.00  0.00     0.004 C 
BRANCH  17  18
HETATM   18  C18 UNL     1      37.974 -15.068  27.978  1.00  0.00     0.030 C 
BRANCH  18  19
HETATM   19  C19 UNL     1      37.144 -15.482  26.831  1.00  0.00     0.272 C 
BRANCH  19  20
HETATM   20  N6  UNL     1      37.798 -15.731  25.583  1.00  0.00     0.092 N 
HETATM   21  C20 UNL     1      39.241 -15.660  25.851  1.00  0.00     0.298 C 
HETATM   22  C21 UNL     1      40.005 -16.676  25.041  1.00  0.00     0.198 C 
HETATM   23  O2  UNL     1      39.385 -16.759  23.784  1.00  0.00    -0.388 OA
HETATM   24  C22 UNL     1      38.216 -17.502  23.957  1.00  0.00     0.198 C 
HETATM   25  C23 UNL     1      37.462 -17.098  25.185  1.00  0.00     0.298 C 
ENDBRANCH  19  20
ENDBRANCH  18  19
ENDBRANCH  17  18
ENDBRANCH  16  17
ENDBRANCH  13  16
ENDBRANCH  12  13
ENDBRANCH  11  12
ENDBRANCH   8  11
BRANCH   5  26
HETATM   26  C10 UNL     1      43.290 -21.427  29.827  1.00  0.00     0.070 A 
HETATM   27  C11 UNL     1      44.424 -20.928  29.273  1.00  0.00     0.085 A 
HETATM   28  S1  UNL     1      45.583 -21.117  30.552  1.00  0.00    -0.064 SA
HETATM   29  C12 UNL     1      44.549 -21.811  31.687  1.00  0.00     0.142 A 
HETATM   30  N3  UNL     1      43.382 -21.877  31.078  1.00  0.00    -0.335 N 
ATOM     31  H3  UNL     1      42.567 -22.264  31.553  1.00  0.00     0.168 HD
BRANCH  29  32
HETATM   32  N2  UNL     1      44.806 -22.213  32.923  1.00  0.00    -0.380 N 
ATOM     33  H22 UNL     1      44.209 -22.811  33.495  1.00  0.00     0.158 HD
ATOM     34  H21 UNL     1      45.612 -22.012  33.515  1.00  0.00     0.158 HD
ENDBRANCH  29  32
ENDBRANCH   5  26
BRANCH   1  35
HETATM   35  N1  UNL     1      39.063 -24.911  25.803  1.00  0.00    -0.332 N 
HETATM   36  C4  UNL     1      37.712 -25.024  25.803  1.00  0.00     0.104 A 
HETATM   37  C3  UNL     1      37.296 -25.924  24.834  1.00  0.00    -0.030 A 
HETATM   38  C2  UNL     1      35.992 -26.443  24.378  1.00  0.00     0.024 C 
HETATM   39  C27 UNL     1      38.442 -26.377  24.220  1.00  0.00    -0.030 A 
HETATM   40  C1  UNL     1      35.707 -27.825  24.930  1.00  0.00     0.015 C 
HETATM   41  C30 UNL     1      35.920 -26.504  22.878  1.00  0.00     0.045 C 
HETATM   42  C29 UNL     1      37.219 -26.765  22.194  1.00  0.00     0.186 C 
HETATM   43  C31 UNL     1      35.249 -25.234  22.394  1.00  0.00     0.015 C 
HETATM   44  C28 UNL     1      38.259 -27.366  23.124  1.00  0.00     0.101 C 
HETATM   45  F1  UNL     1      37.756 -25.562  21.716  1.00  0.00    -0.225 F 
HETATM   46 CL1  UNL     1      37.024 -27.839  20.793  1.00  0.00    -0.082 Cl
HETATM   47  C26 UNL     1      39.489 -25.743  24.832  1.00  0.00     0.104 A 
ENDBRANCH   1  35
TORSDOF 12
ENDMDL
MODEL 5
REMARK VINA RESULT: -8.943818733      4.350      9.058
REMARK  12 active torsions:
REMARK  status: ('A' for Active; 'I' for Inactive)
REMARK    1  A    between atoms: N1_5  and  C5_6 
REMARK    2  A    between atoms: C9_10  and  C10_11 
REMARK    3  A    between atoms: C12_14  and  N2_15 
REMARK    4  A    between atoms: N5_22  and  C13_23 
REMARK    5  A    between atoms: C13_23  and  C14_24 
REMARK    6  A    between atoms: C14_24  and  C15_25 
REMARK    7  A    between atoms: C15_25  and  O1_26 
REMARK    8  A    between atoms: C15_25  and  C16_28 
REMARK    9  A    between atoms: C16_28  and  C17_29 
REMARK   10  A    between atoms: C17_29  and  C18_30 
REMARK   11  A    between atoms: C18_30  and  C19_31 
REMARK   12  A    between atoms: C19_31  and  N6_32 
ROOT
HETATM    1  C5  UNL     1      39.543 -23.619  26.730  1.00  0.00     0.040 A 
HETATM    2  C6  UNL     1      40.554 -24.312  27.339  1.00  0.00     0.031 A 
HETATM    3  C7  UNL     1      41.570 -23.718  28.085  1.00  0.00     0.018 A 
HETATM    4  C8  UNL     1      41.573 -22.367  28.226  1.00  0.00     0.023 A 
HETATM    5  C9  UNL     1      42.412 -21.519  28.874  1.00  0.00     0.088 A 
HETATM    6  N4  UNL     1      41.879 -20.274  28.643  1.00  0.00    -0.295 N 
ATOM      7  H4  UNL     1      42.277 -19.404  28.996  1.00  0.00     0.187 HD
HETATM    8  N5  UNL     1      40.806 -20.345  27.917  1.00  0.00    -0.291 N 
HETATM    9  C24 UNL     1      40.545 -21.636  27.611  1.00  0.00     0.065 A 
HETATM   10  C25 UNL     1      39.561 -22.254  26.884  1.00  0.00     0.062 A 
ENDROOT
BRANCH   8  11
HETATM   11  C13 UNL     1      39.977 -19.223  27.498  1.00  0.00     0.152 C 
BRANCH  11  12
HETATM   12  C14 UNL     1      38.822 -18.968  28.390  1.00  0.00     0.053 C 
BRANCH  12  13
HETATM   13  C15 UNL     1      38.852 -17.843  29.327  1.00  0.00     0.119 C 
BRANCH  13  14
HETATM   14  O1  UNL     1      39.550 -18.026  30.509  1.00  0.00    -0.396 OA
ATOM     15  H1  UNL     1      40.484 -17.855  30.490  1.00  0.00     0.210 HD
ENDBRANCH  13  14
BRANCH  13  16
HETATM   16  C16 UNL     1      37.630 -16.997  29.496  1.00  0.00     0.032 C 
BRANCH  16  17
HETATM   17  C17 UNL     1      37.710 -15.597  29.051  1.00  0.00     0.004 C 
BRANCH  17  18
HETATM   18  C18 UNL     1      36.798 -15.258  27.917  1.00  0.00     0.030 C 
BRANCH  18  19
HETATM   19  C19 UNL     1      37.405 -15.039  26.591  1.00  0.00     0.272 C 
BRANCH  19  20
HETATM   20  N6  UNL     1      38.195 -16.092  26.032  1.00  0.00     0.092 N 
HETATM   21  C20 UNL     1      37.253 -17.136  25.608  1.00  0.00     0.298 C 
HETATM   22  C21 UNL     1      37.699 -17.798  24.329  1.00  0.00     0.198 C 
HETATM   23  O2  UNL     1      39.098 -17.896  24.375  1.00  0.00    -0.388 OA
HETATM   24  C22 UNL     1      39.602 -16.622  24.109  1.00  0.00     0.198 C 
HETATM   25  C23 UNL     1      38.860 -15.551  24.845  1.00  0.00     0.298 C 
ENDBRANCH  19  20
ENDBRANCH  18  19
ENDBRANCH  17  18
ENDBRANCH  16  17
ENDBRANCH  13  16
ENDBRANCH  12  13
ENDBRANCH  11  12
ENDBRANCH   8  11
BRANCH   5  26
HETATM   26  C10 UNL     1      43.655 -21.775  29.670  1.00  0.00     0.070 A 
HETATM   27  C11 UNL     1      44.882 -21.982  29.129  1.00  0.00     0.085 A 
HETATM   28  S1  UNL     1      45.877 -22.221  30.533  1.00  0.00    -0.064 SA
HETATM   29  C12 UNL     1      44.668 -22.042  31.694  1.00  0.00     0.142 A 
HETATM   30  N3  UNL     1      43.572 -21.812  30.999  1.00  0.00    -0.335 N 
ATOM     31  H3  UNL     1      42.679 -21.664  31.469  1.00  0.00     0.168 HD
BRANCH  29  32
HETATM   32  N2  UNL     1      44.755 -22.110  33.014  1.00  0.00    -0.380 N 
ATOM     33  H22 UNL     1      44.246 -21.526  33.679  1.00  0.00     0.158 HD
ATOM     34  H21 UNL     1      45.320 -22.729  33.595  1.00  0.00     0.158 HD
ENDBRANCH  29  32
ENDBRANCH   5  26
BRANCH   1  35
HETATM   35  N1  UNL     1      38.529 -24.275  25.972  1.00  0.00    -0.332 N 
HETATM   36  C4  UNL     1      37.831 -23.751  24.934  1.00  0.00     0.104 A 
HETATM   37  C3  UNL     1      36.928 -24.675  24.435  1.00  0.00    -0.030 A 
HETATM   38  C2  UNL     1      35.928 -24.681  23.349  1.00  0.00     0.024 C 
HETATM   39  C27 UNL     1      37.082 -25.809  25.200  1.00  0.00    -0.030 A 
HETATM   40  C1  UNL     1      34.520 -24.484  23.874  1.00  0.00     0.015 C 
HETATM   41  C30 UNL     1      35.971 -25.966  22.570  1.00  0.00     0.045 C 
HETATM   42  C29 UNL     1      36.370 -27.168  23.357  1.00  0.00     0.186 C 
HETATM   43  C31 UNL     1      36.851 -25.742  21.356  1.00  0.00     0.015 C 
HETATM   44  C28 UNL     1      36.213 -26.966  24.855  1.00  0.00     0.101 C 
HETATM   45  F1  UNL     1      37.724 -27.456  23.132  1.00  0.00    -0.225 F 
HETATM   46 CL1  UNL     1      35.447 -28.607  22.880  1.00  0.00    -0.082 Cl
HETATM   47  C26 UNL     1      38.058 -25.529  26.118  1.00  0.00     0.104 A 
ENDBRANCH   1  35
TORSDOF 12
ENDMDL
