MODEL 1
REMARK VINA RESULT: -8.991513242      0.000      0.000
REMARK  11 active torsions:
REMARK  status: ('A' for Active; 'I' for Inactive)
REMARK    1  A    between atoms: C2_2  and  C3_3 
REMARK    2  A    between atoms: C5_5  and  O1_6 
REMARK    3  A    between atoms: O1_6  and  C6_7 
REMARK    4  A    between atoms: C6_7  and  C7_8 
REMARK    5  A    between atoms: C7_8  and  C8_9 
REMARK    6  A    between atoms: C8_9  and  N1_10 
REMARK    7  A    between atoms: C14_17  and  C15_18 
REMARK    8  A    between atoms: C18_23  and  C19_24 
REMARK    9  A    between atoms: C22_27  and  C23_28 
REMARK   10  A    between atoms: C27_34  and  C28_35 
REMARK   11  A    between atoms: C28_35  and  O2_36 
ROOT
HETATM    1  C3  UNL     1      43.164 -22.106  29.765  1.00  0.00    -0.007 A 
HETATM    2  C4  UNL     1      42.340 -21.010  29.978  1.00  0.00     0.051 A 
HETATM    3  C5  UNL     1      41.017 -20.991  29.563  1.00  0.00     0.109 A 
HETATM    4  C13 UNL     1      40.471 -22.082  28.917  1.00  0.00     0.166 A 
HETATM    5  F1  UNL     1      39.171 -22.071  28.508  1.00  0.00    -0.202 F 
HETATM    6  C14 UNL     1      41.259 -23.192  28.687  1.00  0.00     0.088 A 
HETATM    7  C29 UNL     1      42.575 -23.166  29.118  1.00  0.00     0.140 A 
HETATM    8  F2  UNL     1      43.292 -24.275  28.846  1.00  0.00    -0.204 F 
ENDROOT
BRANCH   6   9
HETATM    9  C15 UNL     1      40.698 -24.350  28.002  1.00  0.00     0.122 A 
HETATM   10  N2  UNL     1      41.287 -25.553  28.232  1.00  0.00    -0.351 N 
HETATM   11  C16 UNL     1      40.872 -26.697  27.669  1.00  0.00     0.092 A 
ATOM     12  H2  UNL     1      42.086 -25.588  28.866  1.00  0.00     0.166 HD
HETATM   13  C17 UNL     1      39.789 -26.621  26.814  1.00  0.00     0.049 A 
HETATM   14  C18 UNL     1      39.165 -25.416  26.554  1.00  0.00     0.069 A 
HETATM   15  N4  UNL     1      39.657 -24.320  27.171  1.00  0.00    -0.339 N 
ATOM     16  H4  UNL     1      39.208 -23.422  26.991  1.00  0.00     0.167 HD
BRANCH  14  17
HETATM   17  C19 UNL     1      38.017 -25.337  25.650  1.00  0.00     0.102 A 
HETATM   18  C20 UNL     1      37.523 -26.371  24.881  1.00  0.00     0.042 A 
HETATM   19  C21 UNL     1      36.435 -25.820  24.195  1.00  0.00     0.036 A 
HETATM   20  C22 UNL     1      36.327 -24.500  24.576  1.00  0.00     0.058 A 
HETATM   21  O3  UNL     1      37.304 -24.267  25.451  1.00  0.00    -0.312 OA
BRANCH  20  22
HETATM   22  C23 UNL     1      35.310 -23.523  24.098  1.00  0.00     0.052 C 
HETATM   23  C24 UNL     1      35.654 -22.210  24.762  1.00  0.00     0.031 C 
HETATM   24  C25 UNL     1      36.710 -21.476  23.957  1.00  0.00     0.114 C 
HETATM   25  N3  UNL     1      36.102 -21.122  22.716  1.00  0.00    -0.421 N 
HETATM   26  C26 UNL     1      35.538 -22.180  21.959  1.00  0.00     0.121 C 
ATOM     27  H3  UNL     1      36.074 -20.156  22.390  1.00  0.00     0.153 HD
HETATM   28  C27 UNL     1      35.265 -23.461  22.615  1.00  0.00     0.037 C 
BRANCH  28  29
HETATM   29  C28 UNL     1      33.876 -23.943  22.170  1.00  0.00     0.171 C 
BRANCH  29  30
HETATM   30  O2  UNL     1      32.920 -22.946  22.320  1.00  0.00    -0.400 OA
ATOM     31  H2  UNL     1      33.297 -22.081  22.203  1.00  0.00     0.209 HD
ENDBRANCH  29  30
ENDBRANCH  28  29
ENDBRANCH  20  22
ENDBRANCH  14  17
ENDBRANCH   6   9
BRANCH   3  32
HETATM   32  O1  UNL     1      40.203 -19.892  29.780  1.00  0.00    -0.348 OA
BRANCH  32  33
HETATM   33  C6  UNL     1      40.021 -18.958  28.732  1.00  0.00     0.177 C 
BRANCH  33  34
HETATM   34  C7  UNL     1      38.542 -18.753  28.451  1.00  0.00     0.057 C 
BRANCH  34  35
HETATM   35  C8  UNL     1      38.119 -17.333  28.680  1.00  0.00     0.274 C 
BRANCH  35  36
HETATM   36  N1  UNL     1      36.898 -16.976  28.025  1.00  0.00     0.088 N 
HETATM   37  C9  UNL     1      36.063 -16.091  28.814  1.00  0.00     0.272 C 
HETATM   38  C10 UNL     1      36.492 -14.686  28.459  1.00  0.00     0.032 C 
HETATM   39  C11 UNL     1      37.491 -14.847  27.361  1.00  0.00     0.032 C 
HETATM   40  C12 UNL     1      37.220 -16.226  26.827  1.00  0.00     0.272 C 
ENDBRANCH  35  36
ENDBRANCH  34  35
ENDBRANCH  33  34
ENDBRANCH  32  33
ENDBRANCH   3  32
BRANCH   1  41
HETATM   41  C2  UNL     1      44.579 -22.116  30.247  1.00  0.00    -0.012 C 
HETATM   42  C1  UNL     1      45.515 -22.536  29.135  1.00  0.00     0.020 C 
HETATM   43  C30 UNL     1      44.911 -20.678  30.643  1.00  0.00     0.024 C 
HETATM   44  C31 UNL     1      46.349 -20.450  30.956  1.00  0.00     0.075 C 
HETATM   45  S1  UNL     1      47.196 -21.838  31.725  1.00  0.00    -0.169 SA
HETATM   46  C32 UNL     1      46.194 -23.325  31.700  1.00  0.00     0.075 C 
HETATM   47  C33 UNL     1      44.738 -23.021  31.423  1.00  0.00     0.024 C 
ENDBRANCH   1  41
TORSDOF 11
ENDMDL
MODEL 2
REMARK VINA RESULT: -8.980846260      4.213      9.487
REMARK  11 active torsions:
REMARK  status: ('A' for Active; 'I' for Inactive)
REMARK    1  A    between atoms: C2_2  and  C3_3 
REMARK    2  A    between atoms: C5_5  and  O1_6 
REMARK    3  A    between atoms: O1_6  and  C6_7 
REMARK    4  A    between atoms: C6_7  and  C7_8 
REMARK    5  A    between atoms: C7_8  and  C8_9 
REMARK    6  A    between atoms: C8_9  and  N1_10 
REMARK    7  A    between atoms: C14_17  and  C15_18 
REMARK    8  A    between atoms: C18_23  and  C19_24 
REMARK    9  A    between atoms: C22_27  and  C23_28 
REMARK   10  A    between atoms: C27_34  and  C28_35 
REMARK   11  A    between atoms: C28_35  and  O2_36 
ROOT
HETATM    1  C3  UNL     1      39.426 -17.966  23.031  1.00  0.00    -0.007 A 
HETATM    2  C4  UNL     1      38.095 -18.114  22.666  1.00  0.00     0.051 A 
HETATM    3  C5  UNL     1      37.103 -18.393  23.595  1.00  0.00     0.109 A 
HETATM    4  C13 UNL     1      37.415 -18.531  24.932  1.00  0.00     0.166 A 
HETATM    5  F1  UNL     1      36.446 -18.803  25.850  1.00  0.00    -0.202 F 
HETATM    6  C14 UNL     1      38.729 -18.390  25.334  1.00  0.00     0.088 A 
HETATM    7  C29 UNL     1      39.686 -18.114  24.373  1.00  0.00     0.140 A 
HETATM    8  F2  UNL     1      40.949 -18.006  24.832  1.00  0.00    -0.204 F 
ENDROOT
BRANCH   6   9
HETATM    9  C15 UNL     1      39.075 -18.538  26.743  1.00  0.00     0.122 A 
HETATM   10  N2  UNL     1      38.596 -17.598  27.601  1.00  0.00    -0.351 N 
HETATM   11  C16 UNL     1      38.837 -17.614  28.920  1.00  0.00     0.092 A 
ATOM     12  H2  UNL     1      38.025 -16.842  27.223  1.00  0.00     0.166 HD
HETATM   13  C17 UNL     1      39.615 -18.649  29.406  1.00  0.00     0.049 A 
HETATM   14  C18 UNL     1      40.119 -19.621  28.564  1.00  0.00     0.069 A 
HETATM   15  N4  UNL     1      39.820 -19.518  27.252  1.00  0.00    -0.339 N 
ATOM     16  H4  UNL     1      40.184 -20.227  26.616  1.00  0.00     0.167 HD
BRANCH  14  17
HETATM   17  C19 UNL     1      40.941 -20.717  29.080  1.00  0.00     0.102 A 
HETATM   18  C20 UNL     1      40.507 -22.004  29.325  1.00  0.00     0.042 A 
HETATM   19  C21 UNL     1      41.637 -22.678  29.802  1.00  0.00     0.036 A 
HETATM   20  C22 UNL     1      42.681 -21.780  29.824  1.00  0.00     0.058 A 
HETATM   21  O3  UNL     1      42.203 -20.618  29.379  1.00  0.00    -0.312 OA
BRANCH  20  22
HETATM   22  C23 UNL     1      44.077 -22.056  30.261  1.00  0.00     0.052 C 
HETATM   23  C24 UNL     1      44.861 -22.324  28.998  1.00  0.00     0.031 C 
HETATM   24  C25 UNL     1      45.331 -21.018  28.386  1.00  0.00     0.114 C 
HETATM   25  N3  UNL     1      46.272 -20.456  29.300  1.00  0.00    -0.421 N 
HETATM   26  C26 UNL     1      45.824 -20.255  30.631  1.00  0.00     0.121 C 
ATOM     27  H3  UNL     1      47.219 -20.211  29.011  1.00  0.00     0.153 HD
HETATM   28  C27 UNL     1      44.620 -20.951  31.092  1.00  0.00     0.037 C 
BRANCH  28  29
HETATM   29  C28 UNL     1      44.896 -21.513  32.494  1.00  0.00     0.171 C 
BRANCH  29  30
HETATM   30  O2  UNL     1      44.878 -22.902  32.498  1.00  0.00    -0.400 OA
ATOM     31  H2  UNL     1      44.759 -23.247  33.376  1.00  0.00     0.209 HD
ENDBRANCH  29  30
ENDBRANCH  28  29
ENDBRANCH  20  22
ENDBRANCH  14  17
ENDBRANCH   6   9
BRANCH   3  32
HETATM   32  O1  UNL     1      35.778 -18.539  23.220  1.00  0.00    -0.348 OA
BRANCH  32  33
HETATM   33  C6  UNL     1      35.417 -19.630  22.394  1.00  0.00     0.177 C 
BRANCH  33  34
HETATM   34  C7  UNL     1      34.808 -20.748  23.223  1.00  0.00     0.057 C 
BRANCH  34  35
HETATM   35  C8  UNL     1      35.752 -21.901  23.389  1.00  0.00     0.274 C 
BRANCH  35  36
HETATM   36  N1  UNL     1      35.510 -22.689  24.558  1.00  0.00     0.088 N 
HETATM   37  C9  UNL     1      36.322 -23.888  24.620  1.00  0.00     0.272 C 
HETATM   38  C10 UNL     1      37.597 -23.493  25.329  1.00  0.00     0.032 C 
HETATM   39  C11 UNL     1      37.384 -22.079  25.759  1.00  0.00     0.032 C 
HETATM   40  C12 UNL     1      35.891 -21.913  25.722  1.00  0.00     0.272 C 
ENDBRANCH  35  36
ENDBRANCH  34  35
ENDBRANCH  33  34
ENDBRANCH  32  33
ENDBRANCH   3  32
BRANCH   1  41
HETATM   41  C2  UNL     1      40.475 -17.637  22.018  1.00  0.00    -0.012 C 
HETATM   42  C1  UNL     1      41.482 -18.761  21.913  1.00  0.00     0.020 C 
HETATM   43  C30 UNL     1      39.754 -17.505  20.677  1.00  0.00     0.024 C 
HETATM   44  C31 UNL     1      40.666 -17.381  19.506  1.00  0.00     0.075 C 
HETATM   45  S1  UNL     1      42.201 -16.497  19.821  1.00  0.00    -0.169 SA
HETATM   46  C32 UNL     1      42.444 -16.189  21.570  1.00  0.00     0.075 C 
HETATM   47  C33 UNL     1      41.164 -16.358  22.357  1.00  0.00     0.024 C 
ENDBRANCH   1  41
TORSDOF 11
ENDMDL
MODEL 3
REMARK VINA RESULT: -8.967871042      1.645      2.302
REMARK  11 active torsions:
REMARK  status: ('A' for Active; 'I' for Inactive)
REMARK    1  A    between atoms: C2_2  and  C3_3 
REMARK    2  A    between atoms: C5_5  and  O1_6 
REMARK    3  A    between atoms: O1_6  and  C6_7 
REMARK    4  A    between atoms: C6_7  and  C7_8 
REMARK    5  A    between atoms: C7_8  and  C8_9 
REMARK    6  A    between atoms: C8_9  and  N1_10 
REMARK    7  A    between atoms: C14_17  and  C15_18 
REMARK    8  A    between atoms: C18_23  and  C19_24 
REMARK    9  A    between atoms: C22_27  and  C23_28 
REMARK   10  A    between atoms: C27_34  and  C28_35 
REMARK   11  A    between atoms: C28_35  and  O2_36 
ROOT
HETATM    1  C3  UNL     1      43.465 -21.725  29.562  1.00  0.00    -0.007 A 
HETATM    2  C4  UNL     1      42.512 -20.728  29.707  1.00  0.00     0.051 A 
HETATM    3  C5  UNL     1      41.162 -20.960  29.484  1.00  0.00     0.109 A 
HETATM    4  C13 UNL     1      40.721 -22.212  29.105  1.00  0.00     0.166 A 
HETATM    5  F1  UNL     1      39.397 -22.447  28.886  1.00  0.00    -0.202 F 
HETATM    6  C14 UNL     1      41.640 -23.231  28.950  1.00  0.00     0.088 A 
HETATM    7  C29 UNL     1      42.977 -22.954  29.183  1.00  0.00     0.140 A 
HETATM    8  F2  UNL     1      43.821 -23.988  28.997  1.00  0.00    -0.204 F 
ENDROOT
BRANCH   6   9
HETATM    9  C15 UNL     1      41.190 -24.558  28.546  1.00  0.00     0.122 A 
HETATM   10  N2  UNL     1      41.571 -25.605  29.324  1.00  0.00    -0.351 N 
HETATM   11  C16 UNL     1      41.227 -26.876  29.069  1.00  0.00     0.092 A 
ATOM     12  H2  UNL     1      42.149 -25.416  30.143  1.00  0.00     0.166 HD
HETATM   13  C17 UNL     1      40.445 -27.105  27.952  1.00  0.00     0.049 A 
HETATM   14  C18 UNL     1      40.039 -26.065  27.138  1.00  0.00     0.069 A 
HETATM   15  N4  UNL     1      40.437 -24.820  27.479  1.00  0.00    -0.339 N 
ATOM     16  H4  UNL     1      40.146 -24.041  26.889  1.00  0.00     0.167 HD
BRANCH  14  17
HETATM   17  C19 UNL     1      39.209 -26.308  25.956  1.00  0.00     0.102 A 
HETATM   18  C20 UNL     1      39.673 -26.642  24.700  1.00  0.00     0.042 A 
HETATM   19  C21 UNL     1      38.522 -26.771  23.916  1.00  0.00     0.036 A 
HETATM   20  C22 UNL     1      37.436 -26.510  24.723  1.00  0.00     0.058 A 
HETATM   21  O3  UNL     1      37.911 -26.238  25.937  1.00  0.00    -0.312 OA
BRANCH  20  22
HETATM   22  C23 UNL     1      36.004 -26.530  24.313  1.00  0.00     0.052 C 
HETATM   23  C24 UNL     1      35.580 -25.084  24.218  1.00  0.00     0.031 C 
HETATM   24  C25 UNL     1      35.942 -24.519  22.857  1.00  0.00     0.114 C 
HETATM   25  N3  UNL     1      35.138 -25.211  21.903  1.00  0.00    -0.421 N 
HETATM   26  C26 UNL     1      35.228 -26.626  21.900  1.00  0.00     0.121 C 
ATOM     27  H3  UNL     1      34.528 -24.712  21.255  1.00  0.00     0.153 HD
HETATM   28  C27 UNL     1      35.804 -27.307  23.063  1.00  0.00     0.037 C 
BRANCH  28  29
HETATM   29  C28 UNL     1      34.918 -28.515  23.401  1.00  0.00     0.171 C 
BRANCH  29  30
HETATM   30  O2  UNL     1      33.583 -28.150  23.520  1.00  0.00    -0.400 OA
ATOM     31  H2  UNL     1      33.195 -28.503  24.312  1.00  0.00     0.209 HD
ENDBRANCH  29  30
ENDBRANCH  28  29
ENDBRANCH  20  22
ENDBRANCH  14  17
ENDBRANCH   6   9
BRANCH   3  32
HETATM   32  O1  UNL     1      40.219 -19.957  29.632  1.00  0.00    -0.348 OA
BRANCH  32  33
HETATM   33  C6  UNL     1      39.930 -19.121  28.527  1.00  0.00     0.177 C 
BRANCH  33  34
HETATM   34  C7  UNL     1      38.461 -19.220  28.152  1.00  0.00     0.057 C 
BRANCH  34  35
HETATM   35  C8  UNL     1      37.907 -17.902  27.701  1.00  0.00     0.274 C 
BRANCH  35  36
HETATM   36  N1  UNL     1      38.368 -16.784  28.466  1.00  0.00     0.088 N 
HETATM   37  C9  UNL     1      38.390 -15.545  27.713  1.00  0.00     0.272 C 
HETATM   38  C10 UNL     1      37.026 -14.921  27.897  1.00  0.00     0.032 C 
HETATM   39  C11 UNL     1      36.321 -15.800  28.876  1.00  0.00     0.032 C 
HETATM   40  C12 UNL     1      37.434 -16.553  29.551  1.00  0.00     0.272 C 
ENDBRANCH  35  36
ENDBRANCH  34  35
ENDBRANCH  33  34
ENDBRANCH  32  33
ENDBRANCH   3  32
BRANCH   1  41
HETATM   41  C2  UNL     1      44.911 -21.461  29.836  1.00  0.00    -0.012 C 
HETATM   42  C1  UNL     1      45.169 -19.974  29.939  1.00  0.00     0.020 C 
HETATM   43  C30 UNL     1      45.218 -22.102  31.189  1.00  0.00     0.024 C 
HETATM   44  C31 UNL     1      46.564 -21.765  31.730  1.00  0.00     0.075 C 
HETATM   45  S1  UNL     1      47.855 -21.554  30.494  1.00  0.00    -0.169 SA
HETATM   46  C32 UNL     1      47.184 -21.514  28.832  1.00  0.00     0.075 C 
HETATM   47  C33 UNL     1      45.776 -22.062  28.778  1.00  0.00     0.024 C 
ENDBRANCH   1  41
TORSDOF 11
ENDMDL
MODEL 4
REMARK VINA RESULT: -8.945476095      2.120      2.870
REMARK  11 active torsions:
REMARK  status: ('A' for Active; 'I' for Inactive)
REMARK    1  A    between atoms: C2_2  and  C3_3 
REMARK    2  A    between atoms: C5_5  and  O1_6 
REMARK    3  A    between atoms: O1_6  and  C6_7 
REMARK    4  A    between atoms: C6_7  and  C7_8 
REMARK    5  A    between atoms: C7_8  and  C8_9 
REMARK    6  A    between atoms: C8_9  and  N1_10 
REMARK    7  A    between atoms: C14_17  and  C15_18 
REMARK    8  A    between atoms: C18_23  and  C19_24 
REMARK    9  A    between atoms: C22_27  and  C23_28 
REMARK   10  A    between atoms: C27_34  and  C28_35 
REMARK   11  A    between atoms: C28_35  and  O2_36 
ROOT
HETATM    1  C3  UNL     1      42.191 -21.400  28.384  1.00  0.00    -0.007 A 
HETATM    2  C4  UNL     1      41.619 -20.331  29.059  1.00  0.00     0.051 A 
HETATM    3  C5  UNL     1      40.260 -20.061  28.993  1.00  0.00     0.109 A 
HETATM    4  C13 UNL     1      39.422 -20.861  28.243  1.00  0.00     0.166 A 
HETATM    5  F1  UNL     1      38.087 -20.602  28.175  1.00  0.00    -0.202 F 
HETATM    6  C14 UNL     1      39.955 -21.934  27.557  1.00  0.00     0.088 A 
HETATM    7  C29 UNL     1      41.317 -22.166  27.651  1.00  0.00     0.140 A 
HETATM    8  F2  UNL     1      41.773 -23.220  26.942  1.00  0.00    -0.204 F 
ENDROOT
BRANCH   6   9
HETATM    9  C15 UNL     1      39.084 -22.787  26.756  1.00  0.00     0.122 A 
HETATM   10  N2  UNL     1      39.180 -24.129  26.950  1.00  0.00    -0.351 N 
HETATM   11  C16 UNL     1      38.439 -25.025  26.283  1.00  0.00     0.092 A 
ATOM     12  H2  UNL     1      39.850 -24.472  27.638  1.00  0.00     0.166 HD
HETATM   13  C17 UNL     1      37.539 -24.533  25.355  1.00  0.00     0.049 A 
HETATM   14  C18 UNL     1      37.415 -23.175  25.130  1.00  0.00     0.069 A 
HETATM   15  N4  UNL     1      38.206 -22.353  25.853  1.00  0.00    -0.339 N 
ATOM     16  H4  UNL     1      38.127 -21.349  25.699  1.00  0.00     0.167 HD
BRANCH  14  17
HETATM   17  C19 UNL     1      36.461 -22.655  24.148  1.00  0.00     0.102 A 
HETATM   18  C20 UNL     1      35.234 -23.208  23.845  1.00  0.00     0.042 A 
HETATM   19  C21 UNL     1      34.696 -22.368  22.864  1.00  0.00     0.036 A 
HETATM   20  C22 UNL     1      35.610 -21.366  22.625  1.00  0.00     0.058 A 
HETATM   21  O3  UNL     1      36.651 -21.591  23.425  1.00  0.00    -0.312 OA
BRANCH  20  22
HETATM   22  C23 UNL     1      35.461 -20.246  21.655  1.00  0.00     0.052 C 
HETATM   23  C24 UNL     1      34.989 -19.060  22.462  1.00  0.00     0.031 C 
HETATM   24  C25 UNL     1      36.173 -18.342  23.081  1.00  0.00     0.114 C 
HETATM   25  N3  UNL     1      36.922 -17.787  22.001  1.00  0.00    -0.421 N 
HETATM   26  C26 UNL     1      37.351 -18.689  20.995  1.00  0.00     0.121 C 
ATOM     27  H3  UNL     1      37.138 -16.791  21.955  1.00  0.00     0.153 HD
HETATM   28  C27 UNL     1      36.716 -20.006  20.898  1.00  0.00     0.037 C 
BRANCH  28  29
HETATM   29  C28 UNL     1      36.431 -20.296  19.417  1.00  0.00     0.171 C 
BRANCH  29  30
HETATM   30  O2  UNL     1      35.408 -19.493  18.930  1.00  0.00    -0.400 OA
ATOM     31  H2  UNL     1      35.709 -18.606  18.766  1.00  0.00     0.209 HD
ENDBRANCH  29  30
ENDBRANCH  28  29
ENDBRANCH  20  22
ENDBRANCH  14  17
ENDBRANCH   6   9
BRANCH   3  32
HETATM   32  O1  UNL     1      39.699 -18.991  29.671  1.00  0.00    -0.348 OA
BRANCH  32  33
HETATM   33  C6  UNL     1      39.238 -17.877  28.930  1.00  0.00     0.177 C 
BRANCH  33  34
HETATM   34  C7  UNL     1      37.966 -17.317  29.543  1.00  0.00     0.057 C 
BRANCH  34  35
HETATM   35  C8  UNL     1      37.686 -15.920  29.076  1.00  0.00     0.274 C 
BRANCH  35  36
HETATM   36  N1  UNL     1      36.548 -15.810  28.216  1.00  0.00     0.088 N 
HETATM   37  C9  UNL     1      35.502 -14.963  28.756  1.00  0.00     0.272 C 
HETATM   38  C10 UNL     1      35.812 -13.563  28.280  1.00  0.00     0.032 C 
HETATM   39  C11 UNL     1      36.981 -13.710  27.363  1.00  0.00     0.032 C 
HETATM   40  C12 UNL     1      36.961 -15.165  26.985  1.00  0.00     0.272 C 
ENDBRANCH  35  36
ENDBRANCH  34  35
ENDBRANCH  33  34
ENDBRANCH  32  33
ENDBRANCH   3  32
BRANCH   1  41
HETATM   41  C2  UNL     1      43.654 -21.691  28.493  1.00  0.00    -0.012 C 
HETATM   42  C1  UNL     1      44.322 -21.559  27.143  1.00  0.00     0.020 C 
HETATM   43  C30 UNL     1      44.237 -20.632  29.428  1.00  0.00     0.024 C 
HETATM   44  C31 UNL     1      45.724 -20.634  29.496  1.00  0.00     0.075 C 
HETATM   45  S1  UNL     1      46.497 -22.251  29.336  1.00  0.00    -0.169 SA
HETATM   46  C32 UNL     1      45.316 -23.505  28.841  1.00  0.00     0.075 C 
HETATM   47  C33 UNL     1      43.888 -23.054  29.053  1.00  0.00     0.024 C 
ENDBRANCH   1  41
TORSDOF 11
ENDMDL
MODEL 5
REMARK VINA RESULT: -8.873976619      4.088      8.785
REMARK  11 active torsions:
REMARK  status: ('A' for Active; 'I' for Inactive)
REMARK    1  A    between atoms: C2_2  and  C3_3 
REMARK    2  A    between atoms: C5_5  and  O1_6 
REMARK    3  A    between atoms: O1_6  and  C6_7 
REMARK    4  A    between atoms: C6_7  and  C7_8 
REMARK    5  A    between atoms: C7_8  and  C8_9 
REMARK    6  A    between atoms: C8_9  and  N1_10 
REMARK    7  A    between atoms: C14_17  and  C15_18 
REMARK    8  A    between atoms: C18_23  and  C19_24 
REMARK    9  A    between atoms: C22_27  and  C23_28 
REMARK   10  A    between atoms: C27_34  and  C28_35 
REMARK   11  A    between atoms: C28_35  and  O2_36 
ROOT
HETATM    1  C3  UNL     1      37.719 -19.993  26.368  1.00  0.00    -0.007 A 
HETATM    2  C4  UNL     1      37.346 -18.766  26.898  1.00  0.00     0.051 A 
HETATM    3  C5  UNL     1      37.928 -18.252  28.048  1.00  0.00     0.109 A 
HETATM    4  C13 UNL     1      38.914 -18.957  28.708  1.00  0.00     0.166 A 
HETATM    5  F1  UNL     1      39.491 -18.458  29.837  1.00  0.00    -0.202 F 
HETATM    6  C14 UNL     1      39.312 -20.182  28.211  1.00  0.00     0.088 A 
HETATM    7  C29 UNL     1      38.703 -20.657  27.062  1.00  0.00     0.140 A 
HETATM    8  F2  UNL     1      39.127 -21.866  26.642  1.00  0.00    -0.204 F 
ENDROOT
BRANCH   6   9
HETATM    9  C15 UNL     1      40.349 -20.942  28.901  1.00  0.00     0.122 A 
HETATM   10  N2  UNL     1      39.945 -21.996  29.658  1.00  0.00    -0.351 N 
HETATM   11  C16 UNL     1      40.792 -22.778  30.343  1.00  0.00     0.092 A 
ATOM     12  H2  UNL     1      38.948 -22.203  29.708  1.00  0.00     0.166 HD
HETATM   13  C17 UNL     1      42.139 -22.474  30.259  1.00  0.00     0.049 A 
HETATM   14  C18 UNL     1      42.586 -21.409  29.500  1.00  0.00     0.069 A 
HETATM   15  N4  UNL     1      41.655 -20.682  28.847  1.00  0.00    -0.339 N 
ATOM     16  H4  UNL     1      41.967 -19.892  28.282  1.00  0.00     0.167 HD
BRANCH  14  17
HETATM   17  C19 UNL     1      44.011 -21.089  29.410  1.00  0.00     0.102 A 
HETATM   18  C20 UNL     1      44.788 -20.576  30.428  1.00  0.00     0.042 A 
HETATM   19  C21 UNL     1      46.065 -20.442  29.872  1.00  0.00     0.036 A 
HETATM   20  C22 UNL     1      45.998 -20.872  28.565  1.00  0.00     0.058 A 
HETATM   21  O3  UNL     1      44.739 -21.250  28.345  1.00  0.00    -0.312 OA
BRANCH  20  22
HETATM   22  C23 UNL     1      47.120 -20.909  27.588  1.00  0.00     0.052 C 
HETATM   23  C24 UNL     1      47.927 -22.139  27.928  1.00  0.00     0.031 C 
HETATM   24  C25 UNL     1      47.328 -23.362  27.259  1.00  0.00     0.114 C 
HETATM   25  N3  UNL     1      47.497 -23.179  25.854  1.00  0.00    -0.421 N 
HETATM   26  C26 UNL     1      46.964 -21.989  25.298  1.00  0.00     0.121 C 
ATOM     27  H3  UNL     1      47.978 -23.870  25.278  1.00  0.00     0.153 HD
HETATM   28  C27 UNL     1      46.627 -20.873  26.187  1.00  0.00     0.037 C 
BRANCH  28  29
HETATM   29  C28 UNL     1      47.139 -19.575  25.545  1.00  0.00     0.171 C 
BRANCH  29  30
HETATM   30  O2  UNL     1      46.750 -19.478  24.215  1.00  0.00    -0.400 OA
ATOM     31  H2  UNL     1      46.488 -18.592  23.992  1.00  0.00     0.209 HD
ENDBRANCH  29  30
ENDBRANCH  28  29
ENDBRANCH  20  22
ENDBRANCH  14  17
ENDBRANCH   6   9
BRANCH   3  32
HETATM   32  O1  UNL     1      37.548 -17.026  28.568  1.00  0.00    -0.348 OA
BRANCH  32  33
HETATM   33  C6  UNL     1      36.858 -16.114  27.734  1.00  0.00     0.177 C 
BRANCH  33  34
HETATM   34  C7  UNL     1      37.829 -15.140  27.090  1.00  0.00     0.057 C 
BRANCH  34  35
HETATM   35  C8  UNL     1      37.928 -15.344  25.608  1.00  0.00     0.274 C 
BRANCH  35  36
HETATM   36  N1  UNL     1      39.262 -15.273  25.097  1.00  0.00     0.088 N 
HETATM   37  C9  UNL     1      40.197 -16.116  25.817  1.00  0.00     0.272 C 
HETATM   38  C10 UNL     1      40.162 -17.461  25.129  1.00  0.00     0.032 C 
HETATM   39  C11 UNL     1      39.279 -17.270  23.941  1.00  0.00     0.032 C 
HETATM   40  C12 UNL     1      39.263 -15.781  23.739  1.00  0.00     0.272 C 
ENDBRANCH  35  36
ENDBRANCH  34  35
ENDBRANCH  33  34
ENDBRANCH  32  33
ENDBRANCH   3  32
BRANCH   1  41
HETATM   41  C2  UNL     1      37.100 -20.515  25.112  1.00  0.00    -0.012 C 
HETATM   42  C1  UNL     1      38.166 -21.007  24.159  1.00  0.00     0.020 C 
HETATM   43  C30 UNL     1      36.230 -21.703  25.520  1.00  0.00     0.024 C 
HETATM   44  C31 UNL     1      35.690 -22.485  24.373  1.00  0.00     0.075 C 
HETATM   45  S1  UNL     1      35.307 -21.522  22.903  1.00  0.00    -0.169 SA
HETATM   46  C32 UNL     1      35.924 -19.844  23.027  1.00  0.00     0.075 C 
HETATM   47  C33 UNL     1      36.262 -19.470  24.453  1.00  0.00     0.024 C 
ENDBRANCH   1  41
TORSDOF 11
ENDMDL
