MODEL 1
REMARK VINA RESULT: -8.192572063      0.000      0.000
REMARK  13 active torsions:
REMARK  status: ('A' for Active; 'I' for Inactive)
REMARK    1  A    between atoms: C3_3  and  N1_4 
REMARK    2  A    between atoms: N1_4  and  C4_5 
REMARK    3  A    between atoms: N1_4  and  C8_9 
REMARK    4  A    between atoms: C4_5  and  C5_6 
REMARK    5  A    between atoms: C10_12  and  N2_13 
REMARK    6  A    between atoms: N2_13  and  C11_14 
REMARK    7  A    between atoms: N2_13  and  C18_26 
REMARK    8  A    between atoms: C11_14  and  C12_15 
REMARK    9  A    between atoms: C15_19  and  O1_20 
REMARK   10  A    between atoms: C17_23  and  O2_24 
REMARK   11  A    between atoms: C25_34  and  O3_35 
REMARK   12  A    between atoms: C27_37  and  O4_38 
REMARK   13  A    between atoms: C30_41  and  O5_42 
ROOT
HETATM    1  C1  UNL     1      38.845 -23.687  25.771  1.00  0.00     0.018 C 
HETATM    2  C2  UNL     1      39.727 -23.174  26.395  1.00  0.00    -0.072 C 
HETATM    3  C3  UNL     1      40.753 -22.562  27.183  1.00  0.00     0.160 C 
ENDROOT
BRANCH   3   4
HETATM    4  N1  UNL     1      41.295 -21.304  26.834  1.00  0.00    -0.325 N 
BRANCH   4   5
HETATM    5  C4  UNL     1      42.609 -20.982  26.456  1.00  0.00     0.075 C 
BRANCH   5   6
HETATM    6  C5  UNL     1      43.819 -21.287  27.217  1.00  0.00     0.025 A 
HETATM    7  C6  UNL     1      44.239 -20.738  28.496  1.00  0.00     0.010 A 
HETATM    8  C7  UNL     1      45.003 -20.374  27.225  1.00  0.00     0.010 A 
ENDBRANCH   5   6
ENDBRANCH   4   5
BRANCH   4   9
HETATM    9  C8  UNL     1      40.384 -20.178  27.006  1.00  0.00     0.086 A 
HETATM   10  C9  UNL     1      39.799 -19.665  25.850  1.00  0.00     0.171 A 
HETATM   11  F1  UNL     1      40.118 -20.259  24.698  1.00  0.00    -0.201 F 
HETATM   12  C10 UNL     1      38.920 -18.574  25.893  1.00  0.00     0.090 A 
HETATM   13  C24 UNL     1      38.641 -18.015  27.076  1.00  0.00     0.044 A 
HETATM   14  C25 UNL     1      37.871 -16.915  27.230  1.00  0.00     0.115 A 
HETATM   15  C31 UNL     1      39.242 -18.536  28.263  1.00  0.00     0.021 A 
HETATM   16  C27 UNL     1      37.656 -16.293  28.469  1.00  0.00     0.105 A 
HETATM   17  C29 UNL     1      38.237 -16.806  29.579  1.00  0.00     0.077 A 
HETATM   18  C30 UNL     1      39.030 -17.933  29.467  1.00  0.00     0.080 A 
HETATM   19  C32 UNL     1      40.106 -19.618  28.208  1.00  0.00    -0.018 A 
HETATM   20  C33 UNL     1      40.663 -20.143  29.480  1.00  0.00     0.052 C 
BRANCH  12  21
HETATM   21  N2  UNL     1      38.435 -18.127  24.592  1.00  0.00    -0.348 N 
BRANCH  21  22
HETATM   22  C11 UNL     1      37.048 -18.260  24.477  1.00  0.00     0.106 C 
BRANCH  22  23
HETATM   23  C12 UNL     1      36.302 -19.396  24.073  1.00  0.00     0.014 A 
HETATM   24  C13 UNL     1      36.264 -20.652  24.593  1.00  0.00     0.042 A 
HETATM   25  C14 UNL     1      35.490 -21.688  24.044  1.00  0.00     0.068 A 
HETATM   26 CL1  UNL     1      35.495 -23.287  24.786  1.00  0.00    -0.081 Cl
HETATM   27  C15 UNL     1      34.736 -21.455  22.943  1.00  0.00     0.090 A 
HETATM   28  C16 UNL     1      34.741 -20.205  22.379  1.00  0.00     0.075 A 
HETATM   29  C17 UNL     1      35.500 -19.198  22.922  1.00  0.00     0.080 A 
BRANCH  27  30
HETATM   30  O1  UNL     1      33.951 -22.450  22.359  1.00  0.00    -0.359 OA
ATOM     31  H1  UNL     1      34.000 -22.650  21.432  1.00  0.00     0.217 HD
ENDBRANCH  27  30
BRANCH  29  32
HETATM   32  O2  UNL     1      35.441 -17.967  22.280  1.00  0.00    -0.360 OA
ATOM     33  H2  UNL     1      34.611 -17.556  22.068  1.00  0.00     0.217 HD
ENDBRANCH  29  32
ENDBRANCH  22  23
ENDBRANCH  21  22
BRANCH  21  34
HETATM   34  C18 UNL     1      39.448 -17.755  23.659  1.00  0.00     0.093 C 
HETATM   35  C19 UNL     1      40.227 -16.523  24.132  1.00  0.00     0.056 C 
HETATM   36  C20 UNL     1      40.296 -15.429  23.098  1.00  0.00     0.274 C 
HETATM   37  N3  UNL     1      40.801 -15.933  21.839  1.00  0.00     0.084 N 
HETATM   38  C21 UNL     1      40.808 -14.886  20.869  1.00  0.00     0.309 C 
HETATM   39  C22 UNL     1      40.105 -17.085  21.373  1.00  0.00     0.274 C 
HETATM   40  C23 UNL     1      38.896 -17.299  22.309  1.00  0.00     0.056 C 
ENDBRANCH  21  34
ENDBRANCH  12  21
BRANCH  14  41
HETATM   41  O3  UNL     1      37.192 -16.294  26.160  1.00  0.00    -0.352 OA
HETATM   42  C26 UNL     1      37.743 -14.970  25.910  1.00  0.00     0.210 C 
ENDBRANCH  14  41
BRANCH  16  43
HETATM   43  O4  UNL     1      36.855 -15.161  28.543  1.00  0.00    -0.353 OA
HETATM   44  C28 UNL     1      35.510 -15.298  28.940  1.00  0.00     0.210 C 
ENDBRANCH  16  43
BRANCH  18  45
HETATM   45  O5  UNL     1      39.577 -18.383  30.638  1.00  0.00    -0.360 OA
ATOM     46  H5  UNL     1      39.915 -19.270  30.614  1.00  0.00     0.217 HD
ENDBRANCH  18  45
ENDBRANCH   4   9
ENDBRANCH   3   4
TORSDOF 13
ENDMDL
MODEL 2
REMARK VINA RESULT: -8.170038750      0.557      1.869
REMARK  13 active torsions:
REMARK  status: ('A' for Active; 'I' for Inactive)
REMARK    1  A    between atoms: C3_3  and  N1_4 
REMARK    2  A    between atoms: N1_4  and  C4_5 
REMARK    3  A    between atoms: N1_4  and  C8_9 
REMARK    4  A    between atoms: C4_5  and  C5_6 
REMARK    5  A    between atoms: C10_12  and  N2_13 
REMARK    6  A    between atoms: N2_13  and  C11_14 
REMARK    7  A    between atoms: N2_13  and  C18_26 
REMARK    8  A    between atoms: C11_14  and  C12_15 
REMARK    9  A    between atoms: C15_19  and  O1_20 
REMARK   10  A    between atoms: C17_23  and  O2_24 
REMARK   11  A    between atoms: C25_34  and  O3_35 
REMARK   12  A    between atoms: C27_37  and  O4_38 
REMARK   13  A    between atoms: C30_41  and  O5_42 
ROOT
HETATM    1  C1  UNL     1      44.378 -21.229  28.649  1.00  0.00     0.018 C 
HETATM    2  C2  UNL     1      43.585 -21.126  27.760  1.00  0.00    -0.072 C 
HETATM    3  C3  UNL     1      42.647 -20.953  26.694  1.00  0.00     0.160 C 
ENDROOT
BRANCH   3   4
HETATM    4  N1  UNL     1      41.285 -21.298  26.850  1.00  0.00    -0.325 N 
BRANCH   4   5
HETATM    5  C4  UNL     1      40.677 -22.562  26.759  1.00  0.00     0.075 C 
BRANCH   5   6
HETATM    6  C5  UNL     1      40.415 -23.469  27.875  1.00  0.00     0.025 A 
HETATM    7  C6  UNL     1      41.281 -23.785  28.999  1.00  0.00     0.010 A 
HETATM    8  C7  UNL     1      41.002 -24.843  27.934  1.00  0.00     0.010 A 
ENDBRANCH   5   6
ENDBRANCH   4   5
BRANCH   4   9
HETATM    9  C8  UNL     1      40.383 -20.164  27.015  1.00  0.00     0.086 A 
HETATM   10  C9  UNL     1      39.810 -19.648  25.854  1.00  0.00     0.171 A 
HETATM   11  F1  UNL     1      40.131 -20.246  24.705  1.00  0.00    -0.201 F 
HETATM   12  C10 UNL     1      38.940 -18.549  25.891  1.00  0.00     0.090 A 
HETATM   13  C24 UNL     1      38.658 -17.986  27.072  1.00  0.00     0.044 A 
HETATM   14  C25 UNL     1      37.896 -16.880  27.219  1.00  0.00     0.115 A 
HETATM   15  C31 UNL     1      39.247 -18.511  28.263  1.00  0.00     0.021 A 
HETATM   16  C27 UNL     1      37.679 -16.254  28.456  1.00  0.00     0.105 A 
HETATM   17  C29 UNL     1      38.248 -16.770  29.570  1.00  0.00     0.077 A 
HETATM   18  C30 UNL     1      39.032 -17.905  29.465  1.00  0.00     0.080 A 
HETATM   19  C32 UNL     1      40.102 -19.600  28.215  1.00  0.00    -0.018 A 
HETATM   20  C33 UNL     1      40.647 -20.128  29.491  1.00  0.00     0.052 C 
BRANCH  12  21
HETATM   21  N2  UNL     1      38.467 -18.100  24.586  1.00  0.00    -0.348 N 
BRANCH  21  22
HETATM   22  C11 UNL     1      37.083 -18.247  24.453  1.00  0.00     0.106 C 
BRANCH  22  23
HETATM   23  C12 UNL     1      36.354 -19.392  24.044  1.00  0.00     0.014 A 
HETATM   24  C13 UNL     1      36.344 -20.654  24.551  1.00  0.00     0.042 A 
HETATM   25  C14 UNL     1      35.583 -21.698  23.999  1.00  0.00     0.068 A 
HETATM   26 CL1  UNL     1      35.625 -23.304  24.724  1.00  0.00    -0.081 Cl
HETATM   27  C15 UNL     1      34.813 -21.467  22.908  1.00  0.00     0.090 A 
HETATM   28  C16 UNL     1      34.790 -20.212  22.358  1.00  0.00     0.075 A 
HETATM   29  C17 UNL     1      35.536 -19.196  22.904  1.00  0.00     0.080 A 
BRANCH  27  30
HETATM   30  O1  UNL     1      34.040 -22.470  22.323  1.00  0.00    -0.359 OA
ATOM     31  H1  UNL     1      34.378 -23.026  21.631  1.00  0.00     0.217 HD
ENDBRANCH  27  30
BRANCH  29  32
HETATM   32  O2  UNL     1      35.447 -17.960  22.276  1.00  0.00    -0.360 OA
ATOM     33  H2  UNL     1      34.933 -17.251  22.644  1.00  0.00     0.217 HD
ENDBRANCH  29  32
ENDBRANCH  22  23
ENDBRANCH  21  22
BRANCH  21  34
HETATM   34  C18 UNL     1      39.488 -17.711  23.668  1.00  0.00     0.093 C 
HETATM   35  C19 UNL     1      40.225 -16.454  24.142  1.00  0.00     0.056 C 
HETATM   36  C20 UNL     1      40.286 -15.370  23.097  1.00  0.00     0.274 C 
HETATM   37  N3  UNL     1      40.828 -15.875  21.854  1.00  0.00     0.084 N 
HETATM   38  C21 UNL     1      40.827 -14.839  20.872  1.00  0.00     0.309 C 
HETATM   39  C22 UNL     1      40.171 -17.050  21.388  1.00  0.00     0.274 C 
HETATM   40  C23 UNL     1      38.951 -17.285  22.303  1.00  0.00     0.056 C 
ENDBRANCH  21  34
ENDBRANCH  12  21
BRANCH  14  41
HETATM   41  O3  UNL     1      37.230 -16.254  26.144  1.00  0.00    -0.352 OA
HETATM   42  C26 UNL     1      37.788 -14.932  25.901  1.00  0.00     0.210 C 
ENDBRANCH  14  41
BRANCH  16  43
HETATM   43  O4  UNL     1      36.887 -15.116  28.523  1.00  0.00    -0.353 OA
HETATM   44  C28 UNL     1      35.535 -15.242  28.899  1.00  0.00     0.210 C 
ENDBRANCH  16  43
BRANCH  18  45
HETATM   45  O5  UNL     1      39.568 -18.358  30.640  1.00  0.00    -0.360 OA
ATOM     46  H5  UNL     1      40.346 -17.900  30.935  1.00  0.00     0.217 HD
ENDBRANCH  18  45
ENDBRANCH   4   9
ENDBRANCH   3   4
TORSDOF 13
ENDMDL
MODEL 3
REMARK VINA RESULT: -8.065128870      1.548      2.042
REMARK  13 active torsions:
REMARK  status: ('A' for Active; 'I' for Inactive)
REMARK    1  A    between atoms: C3_3  and  N1_4 
REMARK    2  A    between atoms: N1_4  and  C4_5 
REMARK    3  A    between atoms: N1_4  and  C8_9 
REMARK    4  A    between atoms: C4_5  and  C5_6 
REMARK    5  A    between atoms: C10_12  and  N2_13 
REMARK    6  A    between atoms: N2_13  and  C11_14 
REMARK    7  A    between atoms: N2_13  and  C18_26 
REMARK    8  A    between atoms: C11_14  and  C12_15 
REMARK    9  A    between atoms: C15_19  and  O1_20 
REMARK   10  A    between atoms: C17_23  and  O2_24 
REMARK   11  A    between atoms: C25_34  and  O3_35 
REMARK   12  A    between atoms: C27_37  and  O4_38 
REMARK   13  A    between atoms: C30_41  and  O5_42 
ROOT
HETATM    1  C1  UNL     1      38.523 -24.630  25.848  1.00  0.00     0.018 C 
HETATM    2  C2  UNL     1      39.165 -23.966  26.607  1.00  0.00    -0.072 C 
HETATM    3  C3  UNL     1      39.892 -23.163  27.542  1.00  0.00     0.160 C 
ENDROOT
BRANCH   3   4
HETATM    4  N1  UNL     1      40.591 -22.006  27.130  1.00  0.00    -0.325 N 
BRANCH   4   5
HETATM    5  C4  UNL     1      41.944 -21.871  26.775  1.00  0.00     0.075 C 
BRANCH   5   6
HETATM    6  C5  UNL     1      42.580 -20.656  26.269  1.00  0.00     0.025 A 
HETATM    7  C6  UNL     1      42.958 -20.341  24.902  1.00  0.00     0.010 A 
HETATM    8  C7  UNL     1      44.039 -20.598  25.949  1.00  0.00     0.010 A 
ENDBRANCH   5   6
ENDBRANCH   4   5
BRANCH   4   9
HETATM    9  C8  UNL     1      39.821 -20.770  27.197  1.00  0.00     0.086 A 
HETATM   10  C9  UNL     1      39.172 -20.374  26.029  1.00  0.00     0.171 A 
HETATM   11  F1  UNL     1      39.308 -21.168  24.965  1.00  0.00    -0.201 F 
HETATM   12  C10 UNL     1      38.415 -19.195  25.972  1.00  0.00     0.090 A 
HETATM   13  C24 UNL     1      38.320 -18.435  27.070  1.00  0.00     0.044 A 
HETATM   14  C25 UNL     1      37.683 -17.244  27.111  1.00  0.00     0.115 A 
HETATM   15  C31 UNL     1      38.986 -18.837  28.267  1.00  0.00     0.021 A 
HETATM   16  C27 UNL     1      37.663 -16.421  28.247  1.00  0.00     0.105 A 
HETATM   17  C29 UNL     1      38.302 -16.823  29.370  1.00  0.00     0.077 A 
HETATM   18  C30 UNL     1      38.963 -18.038  29.373  1.00  0.00     0.080 A 
HETATM   19  C32 UNL     1      39.727 -20.007  28.313  1.00  0.00    -0.018 A 
HETATM   20  C33 UNL     1      40.360 -20.394  29.599  1.00  0.00     0.052 C 
BRANCH  12  21
HETATM   21  N2  UNL     1      37.844 -18.897  24.664  1.00  0.00    -0.348 N 
BRANCH  21  22
HETATM   22  C11 UNL     1      36.563 -19.439  24.517  1.00  0.00     0.106 C 
BRANCH  22  23
HETATM   23  C12 UNL     1      36.201 -20.765  24.171  1.00  0.00     0.014 A 
HETATM   24  C13 UNL     1      36.140 -21.369  22.954  1.00  0.00     0.042 A 
HETATM   25  C14 UNL     1      35.719 -22.698  22.776  1.00  0.00     0.068 A 
HETATM   26 CL1  UNL     1      35.675 -23.405  21.163  1.00  0.00    -0.081 Cl
HETATM   27  C15 UNL     1      35.350 -23.437  23.850  1.00  0.00     0.090 A 
HETATM   28  C16 UNL     1      35.392 -22.873  25.099  1.00  0.00     0.075 A 
HETATM   29  C17 UNL     1      35.805 -21.574  25.264  1.00  0.00     0.080 A 
BRANCH  27  30
HETATM   30  O1  UNL     1      34.924 -24.760  23.726  1.00  0.00    -0.359 OA
ATOM     31  H1  UNL     1      35.473 -25.491  23.984  1.00  0.00     0.217 HD
ENDBRANCH  27  30
BRANCH  29  32
HETATM   32  O2  UNL     1      35.813 -21.091  26.567  1.00  0.00    -0.360 OA
ATOM     33  H2  UNL     1      36.471 -21.366  27.196  1.00  0.00     0.217 HD
ENDBRANCH  29  32
ENDBRANCH  22  23
ENDBRANCH  21  22
BRANCH  21  34
HETATM   34  C18 UNL     1      38.716 -18.226  23.756  1.00  0.00     0.093 C 
HETATM   35  C19 UNL     1      38.943 -19.045  22.481  1.00  0.00     0.056 C 
HETATM   36  C20 UNL     1      40.401 -19.238  22.149  1.00  0.00     0.274 C 
HETATM   37  N3  UNL     1      41.097 -17.970  22.105  1.00  0.00     0.084 N 
HETATM   38  C21 UNL     1      42.481 -18.191  21.837  1.00  0.00     0.309 C 
HETATM   39  C22 UNL     1      40.900 -17.178  23.271  1.00  0.00     0.274 C 
HETATM   40  C23 UNL     1      40.135 -18.048  24.292  1.00  0.00     0.056 C 
ENDBRANCH  21  34
ENDBRANCH  12  21
BRANCH  14  41
HETATM   41  O3  UNL     1      36.962 -16.717  26.018  1.00  0.00    -0.352 OA
HETATM   42  C26 UNL     1      37.642 -15.551  25.474  1.00  0.00     0.210 C 
ENDBRANCH  14  41
BRANCH  16  43
HETATM   43  O4  UNL     1      36.991 -15.206  28.207  1.00  0.00    -0.353 OA
HETATM   44  C28 UNL     1      35.742 -15.092  28.849  1.00  0.00     0.210 C 
ENDBRANCH  16  43
BRANCH  18  45
HETATM   45  O5  UNL     1      39.581 -18.366  30.548  1.00  0.00    -0.360 OA
ATOM     46  H5  UNL     1      39.714 -19.295  30.693  1.00  0.00     0.217 HD
ENDBRANCH  18  45
ENDBRANCH   4   9
ENDBRANCH   3   4
TORSDOF 13
ENDMDL
MODEL 4
REMARK VINA RESULT: -7.950425442      1.486      2.503
REMARK  13 active torsions:
REMARK  status: ('A' for Active; 'I' for Inactive)
REMARK    1  A    between atoms: C3_3  and  N1_4 
REMARK    2  A    between atoms: N1_4  and  C4_5 
REMARK    3  A    between atoms: N1_4  and  C8_9 
REMARK    4  A    between atoms: C4_5  and  C5_6 
REMARK    5  A    between atoms: C10_12  and  N2_13 
REMARK    6  A    between atoms: N2_13  and  C11_14 
REMARK    7  A    between atoms: N2_13  and  C18_26 
REMARK    8  A    between atoms: C11_14  and  C12_15 
REMARK    9  A    between atoms: C15_19  and  O1_20 
REMARK   10  A    between atoms: C17_23  and  O2_24 
REMARK   11  A    between atoms: C25_34  and  O3_35 
REMARK   12  A    between atoms: C27_37  and  O4_38 
REMARK   13  A    between atoms: C30_41  and  O5_42 
ROOT
HETATM    1  C1  UNL     1      44.270 -20.921  29.044  1.00  0.00     0.018 C 
HETATM    2  C2  UNL     1      43.462 -21.195  28.206  1.00  0.00    -0.072 C 
HETATM    3  C3  UNL     1      42.505 -21.478  27.181  1.00  0.00     0.160 C 
ENDROOT
BRANCH   3   4
HETATM    4  N1  UNL     1      41.156 -21.760  27.494  1.00  0.00    -0.325 N 
BRANCH   4   5
HETATM    5  C4  UNL     1      40.546 -23.003  27.736  1.00  0.00     0.075 C 
BRANCH   5   6
HETATM    6  C5  UNL     1      40.300 -23.594  29.050  1.00  0.00     0.025 A 
HETATM    7  C6  UNL     1      41.242 -23.783  30.142  1.00  0.00     0.010 A 
HETATM    8  C7  UNL     1      40.711 -24.994  29.379  1.00  0.00     0.010 A 
ENDBRANCH   5   6
ENDBRANCH   4   5
BRANCH   4   9
HETATM    9  C8  UNL     1      40.264 -20.608  27.442  1.00  0.00     0.086 A 
HETATM   10  C9  UNL     1      39.673 -20.330  26.210  1.00  0.00     0.171 A 
HETATM   11  F1  UNL     1      39.971 -21.150  25.199  1.00  0.00    -0.201 F 
HETATM   12  C10 UNL     1      38.810 -19.239  26.038  1.00  0.00     0.090 A 
HETATM   13  C24 UNL     1      38.552 -18.448  27.087  1.00  0.00     0.044 A 
HETATM   14  C25 UNL     1      37.799 -17.328  27.021  1.00  0.00     0.115 A 
HETATM   15  C31 UNL     1      39.158 -18.728  28.349  1.00  0.00     0.021 A 
HETATM   16  C27 UNL     1      37.607 -16.464  28.110  1.00  0.00     0.105 A 
HETATM   17  C29 UNL     1      38.192 -16.751  29.296  1.00  0.00     0.077 A 
HETATM   18  C30 UNL     1      38.968 -17.890  29.409  1.00  0.00     0.080 A 
HETATM   19  C32 UNL     1      40.006 -19.812  28.508  1.00  0.00    -0.018 A 
HETATM   20  C33 UNL     1      40.570 -20.078  29.855  1.00  0.00     0.052 C 
BRANCH  12  21
HETATM   21  N2  UNL     1      38.317 -19.056  24.678  1.00  0.00    -0.348 N 
BRANCH  21  22
HETATM   22  C11 UNL     1      36.983 -19.452  24.548  1.00  0.00     0.106 C 
BRANCH  22  23
HETATM   23  C12 UNL     1      36.471 -20.728  24.201  1.00  0.00     0.014 A 
HETATM   24  C13 UNL     1      36.330 -21.316  22.983  1.00  0.00     0.042 A 
HETATM   25  C14 UNL     1      35.761 -22.589  22.806  1.00  0.00     0.068 A 
HETATM   26 CL1  UNL     1      35.621 -23.279  21.190  1.00  0.00    -0.081 Cl
HETATM   27  C15 UNL     1      35.324 -23.287  23.881  1.00  0.00     0.090 A 
HETATM   28  C16 UNL     1      35.442 -22.737  25.131  1.00  0.00     0.075 A 
HETATM   29  C17 UNL     1      35.999 -21.492  25.296  1.00  0.00     0.080 A 
BRANCH  27  30
HETATM   30  O1  UNL     1      34.752 -24.553  23.758  1.00  0.00    -0.359 OA
ATOM     31  H1  UNL     1      34.515 -24.918  22.914  1.00  0.00     0.217 HD
ENDBRANCH  27  30
BRANCH  29  32
HETATM   32  O2  UNL     1      36.076 -21.020  26.601  1.00  0.00    -0.360 OA
ATOM     33  H2  UNL     1      35.955 -20.100  26.805  1.00  0.00     0.217 HD
ENDBRANCH  29  32
ENDBRANCH  22  23
ENDBRANCH  21  22
BRANCH  21  34
HETATM   34  C18 UNL     1      39.292 -18.629  23.729  1.00  0.00     0.093 C 
HETATM   35  C19 UNL     1      40.342 -17.714  24.369  1.00  0.00     0.056 C 
HETATM   36  C20 UNL     1      40.531 -16.415  23.629  1.00  0.00     0.274 C 
HETATM   37  N3  UNL     1      40.806 -16.650  22.227  1.00  0.00     0.084 N 
HETATM   38  C21 UNL     1      40.931 -15.401  21.546  1.00  0.00     0.309 C 
HETATM   39  C22 UNL     1      39.854 -17.504  21.602  1.00  0.00     0.274 C 
HETATM   40  C23 UNL     1      38.720 -17.748  22.619  1.00  0.00     0.056 C 
ENDBRANCH  21  34
ENDBRANCH  12  21
BRANCH  14  41
HETATM   41  O3  UNL     1      37.118 -16.924  25.853  1.00  0.00    -0.352 OA
HETATM   42  C26 UNL     1      37.609 -15.631  25.398  1.00  0.00     0.210 C 
ENDBRANCH  14  41
BRANCH  16  43
HETATM   43  O4  UNL     1      36.823 -15.328  27.960  1.00  0.00    -0.353 OA
HETATM   44  C28 UNL     1      35.719 -15.139  28.814  1.00  0.00     0.210 C 
ENDBRANCH  16  43
BRANCH  18  45
HETATM   45  O5  UNL     1      39.521 -18.103  30.642  1.00  0.00    -0.360 OA
ATOM     46  H5  UNL     1      40.113 -17.425  30.944  1.00  0.00     0.217 HD
ENDBRANCH  18  45
ENDBRANCH   4   9
ENDBRANCH   3   4
TORSDOF 13
ENDMDL
MODEL 5
REMARK VINA RESULT: -7.934082481      1.548      2.653
REMARK  13 active torsions:
REMARK  status: ('A' for Active; 'I' for Inactive)
REMARK    1  A    between atoms: C3_3  and  N1_4 
REMARK    2  A    between atoms: N1_4  and  C4_5 
REMARK    3  A    between atoms: N1_4  and  C8_9 
REMARK    4  A    between atoms: C4_5  and  C5_6 
REMARK    5  A    between atoms: C10_12  and  N2_13 
REMARK    6  A    between atoms: N2_13  and  C11_14 
REMARK    7  A    between atoms: N2_13  and  C18_26 
REMARK    8  A    between atoms: C11_14  and  C12_15 
REMARK    9  A    between atoms: C15_19  and  O1_20 
REMARK   10  A    between atoms: C17_23  and  O2_24 
REMARK   11  A    between atoms: C25_34  and  O3_35 
REMARK   12  A    between atoms: C27_37  and  O4_38 
REMARK   13  A    between atoms: C30_41  and  O5_42 
ROOT
HETATM    1  C1  UNL     1      42.591 -22.609  23.815  1.00  0.00     0.018 C 
HETATM    2  C2  UNL     1      42.275 -22.086  24.843  1.00  0.00    -0.072 C 
HETATM    3  C3  UNL     1      41.936 -21.483  26.095  1.00  0.00     0.160 C 
ENDROOT
BRANCH   3   4
HETATM    4  N1  UNL     1      40.681 -21.709  26.704  1.00  0.00    -0.325 N 
BRANCH   4   5
HETATM    5  C4  UNL     1      40.057 -22.929  27.017  1.00  0.00     0.075 C 
BRANCH   5   6
HETATM    6  C5  UNL     1      38.901 -23.502  26.330  1.00  0.00     0.025 A 
HETATM    7  C6  UNL     1      38.620 -24.901  26.055  1.00  0.00     0.010 A 
HETATM    8  C7  UNL     1      38.970 -23.958  24.907  1.00  0.00     0.010 A 
ENDBRANCH   5   6
ENDBRANCH   4   5
BRANCH   4   9
HETATM    9  C8  UNL     1      39.885 -20.508  26.927  1.00  0.00     0.086 A 
HETATM   10  C9  UNL     1      39.198 -19.999  25.826  1.00  0.00     0.171 A 
HETATM   11  F1  UNL     1      39.325 -20.664  24.676  1.00  0.00    -0.201 F 
HETATM   12  C10 UNL     1      38.414 -18.841  25.920  1.00  0.00     0.090 A 
HETATM   13  C24 UNL     1      38.329 -18.212  27.099  1.00  0.00     0.044 A 
HETATM   14  C25 UNL     1      37.667 -17.049  27.289  1.00  0.00     0.115 A 
HETATM   15  C31 UNL     1      39.034 -18.729  28.228  1.00  0.00     0.021 A 
HETATM   16  C27 UNL     1      37.657 -16.360  28.511  1.00  0.00     0.105 A 
HETATM   17  C29 UNL     1      38.333 -16.870  29.566  1.00  0.00     0.077 A 
HETATM   18  C30 UNL     1      39.021 -18.061  29.417  1.00  0.00     0.080 A 
HETATM   19  C32 UNL     1      39.802 -19.878  28.124  1.00  0.00    -0.018 A 
HETATM   20  C33 UNL     1      40.475 -20.392  29.344  1.00  0.00     0.052 C 
BRANCH  12  21
HETATM   21  N2  UNL     1      37.804 -18.412  24.668  1.00  0.00    -0.348 N 
BRANCH  21  22
HETATM   22  C11 UNL     1      36.563 -19.019  24.456  1.00  0.00     0.106 C 
BRANCH  22  23
HETATM   23  C12 UNL     1      36.291 -20.337  24.009  1.00  0.00     0.014 A 
HETATM   24  C13 UNL     1      36.342 -20.868  22.758  1.00  0.00     0.042 A 
HETATM   25  C14 UNL     1      36.000 -22.202  22.475  1.00  0.00     0.068 A 
HETATM   26 CL1  UNL     1      36.100 -22.810  20.824  1.00  0.00    -0.081 Cl
HETATM   27  C15 UNL     1      35.597 -23.021  23.476  1.00  0.00     0.090 A 
HETATM   28  C16 UNL     1      35.527 -22.533  24.755  1.00  0.00     0.075 A 
HETATM   29  C17 UNL     1      35.863 -21.228  25.023  1.00  0.00     0.080 A 
BRANCH  27  30
HETATM   30  O1  UNL     1      35.247 -24.352  23.246  1.00  0.00    -0.359 OA
ATOM     31  H1  UNL     1      34.493 -24.590  22.721  1.00  0.00     0.217 HD
ENDBRANCH  27  30
BRANCH  29  32
HETATM   32  O2  UNL     1      35.760 -20.826  26.350  1.00  0.00    -0.360 OA
ATOM     33  H2  UNL     1      34.986 -20.383  26.676  1.00  0.00     0.217 HD
ENDBRANCH  29  32
ENDBRANCH  22  23
ENDBRANCH  21  22
BRANCH  21  34
HETATM   34  C18 UNL     1      38.613 -17.564  23.854  1.00  0.00     0.093 C 
HETATM   35  C19 UNL     1      38.756 -18.114  22.431  1.00  0.00     0.056 C 
HETATM   36  C20 UNL     1      40.188 -18.217  21.974  1.00  0.00     0.274 C 
HETATM   37  N3  UNL     1      40.878 -16.955  22.134  1.00  0.00     0.084 N 
HETATM   38  C21 UNL     1      42.242 -17.099  21.738  1.00  0.00     0.309 C 
HETATM   39  C22 UNL     1      40.758 -16.410  23.443  1.00  0.00     0.274 C 
HETATM   40  C23 UNL     1      40.065 -17.473  24.321  1.00  0.00     0.056 C 
ENDBRANCH  21  34
ENDBRANCH  12  21
BRANCH  14  41
HETATM   41  O3  UNL     1      36.907 -16.421  26.279  1.00  0.00    -0.352 OA
HETATM   42  C26 UNL     1      37.534 -15.171  25.875  1.00  0.00     0.210 C 
ENDBRANCH  14  41
BRANCH  16  43
HETATM   43  O4  UNL     1      36.957 -15.166  28.623  1.00  0.00    -0.353 OA
HETATM   44  C28 UNL     1      35.601 -15.200  29.004  1.00  0.00     0.210 C 
ENDBRANCH  16  43
BRANCH  18  45
HETATM   45  O5  UNL     1      39.676 -18.503  30.534  1.00  0.00    -0.360 OA
ATOM     46  H5  UNL     1      39.779 -19.445  30.598  1.00  0.00     0.217 HD
ENDBRANCH  18  45
ENDBRANCH   4   9
ENDBRANCH   3   4
TORSDOF 13
ENDMDL
