MODEL 1
REMARK VINA RESULT: -5.407471745      0.000      0.000
REMARK  1 active torsions:
REMARK  status: ('A' for Active; 'I' for Inactive)
REMARK    1  A    between atoms: C5_5  and  C6_6 
ROOT
HETATM    1  C1  UNL     1       9.493  34.241  28.695  1.00  0.00     0.011 C 
HETATM    2  C2  UNL     1       9.345  35.563  27.924  1.00  0.00     0.007 C 
HETATM    3  C3  UNL     1       8.114  36.275  28.310  1.00  0.00     0.008 C 
HETATM    4  C4  UNL     1       7.040  36.361  27.298  1.00  0.00     0.035 C 
HETATM    5  C5  UNL     1       7.519  36.391  25.875  1.00  0.00     0.216 C 
HETATM    6  N2  UNL     1       8.384  35.275  25.676  1.00  0.00    -0.069 N 
ATOM      7  H21 UNL     1       8.633  35.187  24.691  1.00  0.00     0.277 HD
ATOM      8  H22 UNL     1       7.876  34.400  25.805  1.00  0.00     0.277 HD
HETATM    9  C11 UNL     1       9.551  35.296  26.484  1.00  0.00     0.237 C 
ENDROOT
BRANCH   5  10
HETATM   10  C6  UNL     1       8.178  37.688  25.494  1.00  0.00     0.216 C 
HETATM   11  C7  UNL     1       7.306  38.880  25.713  1.00  0.00     0.035 C 
HETATM   12  C8  UNL     1       6.190  38.892  24.712  1.00  0.00     0.004 C 
HETATM   13  C9  UNL     1       6.791  39.121  23.339  1.00  0.00     0.027 C 
HETATM   14  C10 UNL     1       8.261  38.789  23.354  1.00  0.00     0.233 C 
HETATM   15  N1  UNL     1       8.561  37.617  24.116  1.00  0.00    -0.069 N 
ATOM     16  H12 UNL     1       9.551  37.385  24.035  1.00  0.00     0.277 HD
ATOM     17  H11 UNL     1       8.151  36.793  23.676  1.00  0.00     0.277 HD
ENDBRANCH   5  10
TORSDOF 1
ENDMDL
MODEL 2
REMARK VINA RESULT: -5.282532226      1.936      5.137
REMARK  1 active torsions:
REMARK  status: ('A' for Active; 'I' for Inactive)
REMARK    1  A    between atoms: C5_5  and  C6_6 
ROOT
HETATM    1  C1  UNL     1       6.497  39.600  26.058  1.00  0.00     0.011 C 
HETATM    2  C2  UNL     1       7.630  38.670  26.518  1.00  0.00     0.007 C 
HETATM    3  C3  UNL     1       7.952  37.665  25.489  1.00  0.00     0.008 C 
HETATM    4  C4  UNL     1       7.606  36.259  25.790  1.00  0.00     0.035 C 
HETATM    5  C5  UNL     1       7.657  35.897  27.246  1.00  0.00     0.216 C 
HETATM    6  N2  UNL     1       6.857  36.834  27.964  1.00  0.00    -0.069 N 
ATOM      7  H21 UNL     1       6.764  36.552  28.940  1.00  0.00     0.277 HD
ATOM      8  H22 UNL     1       5.882  36.770  27.671  1.00  0.00     0.277 HD
HETATM    9  C11 UNL     1       7.314  38.175  27.875  1.00  0.00     0.237 C 
ENDROOT
BRANCH   5  10
HETATM   10  C6  UNL     1       9.057  35.819  27.793  1.00  0.00     0.216 C 
HETATM   11  C7  UNL     1       9.957  34.944  26.987  1.00  0.00     0.035 C 
HETATM   12  C8  UNL     1       9.568  33.506  27.161  1.00  0.00     0.004 C 
HETATM   13  C9  UNL     1       9.855  33.110  28.597  1.00  0.00     0.027 C 
HETATM   14  C10 UNL     1       9.965  34.340  29.462  1.00  0.00     0.233 C 
HETATM   15  N1  UNL     1       8.993  35.339  29.140  1.00  0.00    -0.069 N 
ATOM     16  H12 UNL     1       9.052  36.116  29.798  1.00  0.00     0.277 HD
ATOM     17  H11 UNL     1       8.054  35.001  29.352  1.00  0.00     0.277 HD
ENDBRANCH   5  10
TORSDOF 1
ENDMDL
MODEL 3
REMARK VINA RESULT: -4.833334421      2.601      3.758
REMARK  1 active torsions:
REMARK  status: ('A' for Active; 'I' for Inactive)
REMARK    1  A    between atoms: C5_5  and  C6_6 
ROOT
HETATM    1  C1  UNL     1      10.567  31.959  29.180  1.00  0.00     0.011 C 
HETATM    2  C2  UNL     1       9.477  33.005  28.901  1.00  0.00     0.007 C 
HETATM    3  C3  UNL     1       9.499  33.443  27.494  1.00  0.00     0.008 C 
HETATM    4  C4  UNL     1       9.934  34.831  27.227  1.00  0.00     0.035 C 
HETATM    5  C5  UNL     1       9.617  35.810  28.322  1.00  0.00     0.216 C 
HETATM    6  N2  UNL     1      10.134  35.289  29.545  1.00  0.00    -0.069 N 
ATOM      7  H21 UNL     1      10.050  35.979  30.291  1.00  0.00     0.277 HD
ATOM      8  H22 UNL     1      11.150  35.207  29.498  1.00  0.00     0.277 HD
HETATM    9  C11 UNL     1       9.554  34.055  29.940  1.00  0.00     0.237 C 
ENDROOT
BRANCH   5  10
HETATM   10  C6  UNL     1       8.152  36.137  28.425  1.00  0.00     0.216 C 
HETATM   11  C7  UNL     1       7.532  36.485  27.114  1.00  0.00     0.035 C 
HETATM   12  C8  UNL     1       8.028  37.821  26.648  1.00  0.00     0.004 C 
HETATM   13  C9  UNL     1       7.500  38.878  27.599  1.00  0.00     0.027 C 
HETATM   14  C10 UNL     1       7.087  38.243  28.902  1.00  0.00     0.233 C 
HETATM   15  N1  UNL     1       7.992  37.226  29.340  1.00  0.00    -0.069 N 
ATOM     16  H12 UNL     1       7.719  36.880  30.260  1.00  0.00     0.277 HD
ATOM     17  H11 UNL     1       8.899  37.634  29.568  1.00  0.00     0.277 HD
ENDBRANCH   5  10
TORSDOF 1
ENDMDL
MODEL 4
REMARK VINA RESULT: -4.813951580      1.167      4.699
REMARK  1 active torsions:
REMARK  status: ('A' for Active; 'I' for Inactive)
REMARK    1  A    between atoms: C5_5  and  C6_6 
ROOT
HETATM    1  C1  UNL     1       5.744  39.521  24.384  1.00  0.00     0.011 C 
HETATM    2  C2  UNL     1       6.116  38.250  25.165  1.00  0.00     0.007 C 
HETATM    3  C3  UNL     1       6.529  38.568  26.543  1.00  0.00     0.008 C 
HETATM    4  C4  UNL     1       7.954  38.365  26.883  1.00  0.00     0.035 C 
HETATM    5  C5  UNL     1       8.629  37.259  26.125  1.00  0.00     0.216 C 
HETATM    6  N2  UNL     1       8.414  37.481  24.732  1.00  0.00    -0.069 N 
ATOM      7  H21 UNL     1       8.960  36.822  24.177  1.00  0.00     0.277 HD
ATOM      8  H22 UNL     1       8.847  38.356  24.439  1.00  0.00     0.277 HD
HETATM    9  C11 UNL     1       7.049  37.448  24.344  1.00  0.00     0.237 C 
ENDROOT
BRANCH   5  10
HETATM   10  C6  UNL     1       8.184  35.886  26.549  1.00  0.00     0.216 C 
HETATM   11  C7  UNL     1       8.160  35.705  28.030  1.00  0.00     0.035 C 
HETATM   12  C8  UNL     1       9.560  35.664  28.567  1.00  0.00     0.004 C 
HETATM   13  C9  UNL     1      10.225  34.402  28.051  1.00  0.00     0.027 C 
HETATM   14  C10 UNL     1       9.486  33.881  26.845  1.00  0.00     0.233 C 
HETATM   15  N1  UNL     1       9.061  34.920  25.959  1.00  0.00    -0.069 N 
ATOM     16  H12 UNL     1       8.636  34.520  25.122  1.00  0.00     0.277 HD
ATOM     17  H11 UNL     1       9.869  35.383  25.542  1.00  0.00     0.277 HD
ENDBRANCH   5  10
TORSDOF 1
ENDMDL
MODEL 5
REMARK VINA RESULT: -4.714703998      2.213      3.056
REMARK  1 active torsions:
REMARK  status: ('A' for Active; 'I' for Inactive)
REMARK    1  A    between atoms: C5_5  and  C6_6 
ROOT
HETATM    1  C1  UNL     1      10.711  33.512  27.980  1.00  0.00     0.011 C 
HETATM    2  C2  UNL     1       9.321  34.141  27.792  1.00  0.00     0.007 C 
HETATM    3  C3  UNL     1       9.149  34.665  26.425  1.00  0.00     0.008 C 
HETATM    4  C4  UNL     1       9.076  36.134  26.272  1.00  0.00     0.035 C 
HETATM    5  C5  UNL     1       8.479  36.859  27.444  1.00  0.00     0.216 C 
HETATM    6  N2  UNL     1       9.180  36.455  28.618  1.00  0.00    -0.069 N 
ATOM      7  H21 UNL     1       8.888  37.016  29.419  1.00  0.00     0.277 HD
ATOM      8  H22 UNL     1      10.160  36.729  28.562  1.00  0.00     0.277 HD
HETATM    9  C11 UNL     1       9.067  35.071  28.913  1.00  0.00     0.237 C 
ENDROOT
BRANCH   5  10
HETATM   10  C6  UNL     1       6.994  36.656  27.578  1.00  0.00     0.216 C 
HETATM   11  C7  UNL     1       6.262  36.785  26.284  1.00  0.00     0.035 C 
HETATM   12  C8  UNL     1       6.254  38.217  25.838  1.00  0.00     0.004 C 
HETATM   13  C9  UNL     1       5.413  39.011  26.820  1.00  0.00     0.027 C 
HETATM   14  C10 UNL     1       5.275  38.254  28.116  1.00  0.00     0.233 C 
HETATM   15  N1  UNL     1       6.487  37.609  28.518  1.00  0.00    -0.069 N 
ATOM     16  H12 UNL     1       6.371  37.177  29.434  1.00  0.00     0.277 HD
ATOM     17  H11 UNL     1       7.201  38.303  28.740  1.00  0.00     0.277 HD
ENDBRANCH   5  10
TORSDOF 1
ENDMDL
