MODEL 1
REMARK VINA RESULT: -5.431212099      0.000      0.000
REMARK  2 active torsions:
REMARK  status: ('A' for Active; 'I' for Inactive)
REMARK    1  A    between atoms: C2_2  and  N2_6 
REMARK    2  A    between atoms: N2_6  and  C3_8 
ROOT
HETATM    1  C3  UNL     1       7.954  36.652  26.190  1.00  0.00     0.122 C 
HETATM    2  C4  UNL     1       7.287  37.087  24.908  1.00  0.00     0.028 C 
HETATM    3  C5  UNL     1       7.583  38.559  24.708  1.00  0.00     0.002 C 
HETATM    4  C6  UNL     1       7.022  39.409  25.804  1.00  0.00     0.005 C 
HETATM    5  C7  UNL     1       7.822  39.294  27.093  1.00  0.00    -0.011 C 
HETATM    6  C8  UNL     1       7.704  40.630  27.842  1.00  0.00     0.010 C 
HETATM    7  C9  UNL     1       7.153  38.264  27.946  1.00  0.00     0.034 A 
HETATM    8  C10 UNL     1       7.877  37.208  28.656  1.00  0.00     0.054 A 
HETATM    9  C11 UNL     1       7.079  36.915  27.398  1.00  0.00     0.128 A 
HETATM   10  F1  UNL     1       5.952  36.153  27.473  1.00  0.00    -0.240 F 
ENDROOT
BRANCH   1  11
HETATM   11  N2  UNL     1       8.277  35.250  26.213  1.00  0.00    -0.373 N 
ATOM     12  H2  UNL     1       7.517  34.591  26.043  1.00  0.00     0.161 HD
BRANCH  11  13
HETATM   13  C2  UNL     1       9.553  34.716  26.451  1.00  0.00     0.066 C 
HETATM   14  C1  UNL     1       9.809  34.098  27.779  1.00  0.00     0.088 C 
HETATM   15  N1  UNL     1      10.517  34.721  25.607  1.00  0.00    -0.389 N 
ATOM     16  H12 UNL     1      11.444  34.332  25.779  1.00  0.00     0.157 HD
ATOM     17  H11 UNL     1      10.341  35.144  24.696  1.00  0.00     0.157 HD
ENDBRANCH  11  13
ENDBRANCH   1  11
TORSDOF 2
ENDMDL
MODEL 2
REMARK VINA RESULT: -5.273182659      2.847      5.137
REMARK  2 active torsions:
REMARK  status: ('A' for Active; 'I' for Inactive)
REMARK    1  A    between atoms: C2_2  and  N2_6 
REMARK    2  A    between atoms: N2_6  and  C3_8 
ROOT
HETATM    1  C3  UNL     1       8.515  35.727  28.430  1.00  0.00     0.122 C 
HETATM    2  C4  UNL     1       8.842  36.346  27.095  1.00  0.00     0.028 C 
HETATM    3  C5  UNL     1       8.822  35.244  26.055  1.00  0.00     0.002 C 
HETATM    4  C6  UNL     1       9.853  34.192  26.315  1.00  0.00     0.005 C 
HETATM    5  C7  UNL     1       9.471  33.282  27.472  1.00  0.00    -0.011 C 
HETATM    6  C8  UNL     1      10.090  31.900  27.208  1.00  0.00     0.010 C 
HETATM    7  C9  UNL     1      10.130  33.819  28.703  1.00  0.00     0.034 A 
HETATM    8  C10 UNL     1       9.444  33.965  29.988  1.00  0.00     0.054 A 
HETATM    9  C11 UNL     1       9.746  35.166  29.109  1.00  0.00     0.128 A 
HETATM   10  F1  UNL     1      10.654  36.094  29.521  1.00  0.00    -0.240 F 
ENDROOT
BRANCH   1  11
HETATM   11  N2  UNL     1       7.923  36.656  29.356  1.00  0.00    -0.373 N 
ATOM     12  H2  UNL     1       7.767  36.333  30.310  1.00  0.00     0.161 HD
BRANCH  11  13
HETATM   13  C2  UNL     1       7.542  37.973  29.051  1.00  0.00     0.066 C 
HETATM   14  C1  UNL     1       8.585  39.030  29.123  1.00  0.00     0.088 C 
HETATM   15  N1  UNL     1       6.359  38.332  28.714  1.00  0.00    -0.389 N 
ATOM     16  H12 UNL     1       6.082  39.289  28.492  1.00  0.00     0.157 HD
ATOM     17  H11 UNL     1       5.644  37.607  28.665  1.00  0.00     0.157 HD
ENDBRANCH  11  13
ENDBRANCH   1  11
TORSDOF 2
ENDMDL
MODEL 3
REMARK VINA RESULT: -5.072328730      1.794      3.019
REMARK  2 active torsions:
REMARK  status: ('A' for Active; 'I' for Inactive)
REMARK    1  A    between atoms: C2_2  and  N2_6 
REMARK    2  A    between atoms: N2_6  and  C3_8 
ROOT
HETATM    1  C3  UNL     1       7.479  36.633  26.475  1.00  0.00     0.122 C 
HETATM    2  C4  UNL     1       6.398  36.654  27.527  1.00  0.00     0.028 C 
HETATM    3  C5  UNL     1       5.064  36.509  26.823  1.00  0.00     0.002 C 
HETATM    4  C6  UNL     1       4.785  37.640  25.885  1.00  0.00     0.005 C 
HETATM    5  C7  UNL     1       5.610  37.551  24.610  1.00  0.00    -0.011 C 
HETATM    6  C8  UNL     1       4.799  38.201  23.478  1.00  0.00     0.010 C 
HETATM    7  C9  UNL     1       6.829  38.397  24.805  1.00  0.00     0.034 A 
HETATM    8  C10 UNL     1       8.179  37.964  24.441  1.00  0.00     0.054 A 
HETATM    9  C11 UNL     1       7.723  38.008  25.889  1.00  0.00     0.128 A 
HETATM   10  F1  UNL     1       8.274  38.913  26.745  1.00  0.00    -0.240 F 
ENDROOT
BRANCH   1  11
HETATM   11  N2  UNL     1       8.746  36.169  26.974  1.00  0.00    -0.373 N 
ATOM     12  H2  UNL     1       9.281  36.807  27.563  1.00  0.00     0.161 HD
BRANCH  11  13
HETATM   13  C2  UNL     1       9.306  34.907  26.716  1.00  0.00     0.066 C 
HETATM   14  C1  UNL     1       9.710  34.077  27.881  1.00  0.00     0.088 C 
HETATM   15  N1  UNL     1       9.495  34.416  25.548  1.00  0.00    -0.389 N 
ATOM     16  H12 UNL     1       9.902  33.499  25.360  1.00  0.00     0.157 HD
ATOM     17  H11 UNL     1       9.218  34.985  24.749  1.00  0.00     0.157 HD
ENDBRANCH  11  13
ENDBRANCH   1  11
TORSDOF 2
ENDMDL
MODEL 4
REMARK VINA RESULT: -5.027150662      2.254      3.725
REMARK  2 active torsions:
REMARK  status: ('A' for Active; 'I' for Inactive)
REMARK    1  A    between atoms: C2_2  and  N2_6 
REMARK    2  A    between atoms: N2_6  and  C3_8 
ROOT
HETATM    1  C3  UNL     1       7.260  36.554  26.188  1.00  0.00     0.122 C 
HETATM    2  C4  UNL     1       8.305  35.561  26.633  1.00  0.00     0.028 C 
HETATM    3  C5  UNL     1       8.485  35.717  28.129  1.00  0.00     0.002 C 
HETATM    4  C6  UNL     1       8.981  37.076  28.508  1.00  0.00     0.005 C 
HETATM    5  C7  UNL     1       7.899  38.138  28.400  1.00  0.00    -0.011 C 
HETATM    6  C8  UNL     1       8.201  39.226  29.443  1.00  0.00     0.010 C 
HETATM    7  C9  UNL     1       8.034  38.783  27.057  1.00  0.00     0.034 A 
HETATM    8  C10 UNL     1       6.900  39.057  26.174  1.00  0.00     0.054 A 
HETATM    9  C11 UNL     1       7.861  37.914  25.899  1.00  0.00     0.128 A 
HETATM   10  F1  UNL     1       8.681  37.966  24.813  1.00  0.00    -0.240 F 
ENDROOT
BRANCH   1  11
HETATM   11  N2  UNL     1       6.566  36.149  24.994  1.00  0.00    -0.373 N 
ATOM     12  H2  UNL     1       7.133  35.883  24.189  1.00  0.00     0.161 HD
BRANCH  11  13
HETATM   13  C2  UNL     1       5.171  36.091  24.847  1.00  0.00     0.066 C 
HETATM   14  C1  UNL     1       4.337  36.725  25.902  1.00  0.00     0.088 C 
HETATM   15  N1  UNL     1       4.561  35.532  23.869  1.00  0.00    -0.389 N 
ATOM     16  H12 UNL     1       3.547  35.490  23.762  1.00  0.00     0.157 HD
ATOM     17  H11 UNL     1       5.133  35.098  23.145  1.00  0.00     0.157 HD
ENDBRANCH  11  13
ENDBRANCH   1  11
TORSDOF 2
ENDMDL
MODEL 5
REMARK VINA RESULT: -4.996727601      1.461      2.445
REMARK  2 active torsions:
REMARK  status: ('A' for Active; 'I' for Inactive)
REMARK    1  A    between atoms: C2_2  and  N2_6 
REMARK    2  A    between atoms: N2_6  and  C3_8 
ROOT
HETATM    1  C3  UNL     1       7.803  36.534  26.834  1.00  0.00     0.122 C 
HETATM    2  C4  UNL     1       8.786  37.092  27.833  1.00  0.00     0.028 C 
HETATM    3  C5  UNL     1       8.039  38.058  28.729  1.00  0.00     0.002 C 
HETATM    4  C6  UNL     1       7.474  39.219  27.974  1.00  0.00     0.005 C 
HETATM    5  C7  UNL     1       6.251  38.836  27.154  1.00  0.00    -0.011 C 
HETATM    6  C8  UNL     1       5.345  40.073  27.054  1.00  0.00     0.010 C 
HETATM    7  C9  UNL     1       6.719  38.535  25.765  1.00  0.00     0.034 A 
HETATM    8  C10 UNL     1       6.277  37.369  24.999  1.00  0.00     0.054 A 
HETATM    9  C11 UNL     1       7.660  37.430  25.622  1.00  0.00     0.128 A 
HETATM   10  F1  UNL     1       8.760  37.503  24.822  1.00  0.00    -0.240 F 
ENDROOT
BRANCH   1  11
HETATM   11  N2  UNL     1       8.173  35.233  26.342  1.00  0.00    -0.373 N 
ATOM     12  H2  UNL     1       7.453  34.690  25.865  1.00  0.00     0.161 HD
BRANCH  11  13
HETATM   13  C2  UNL     1       9.444  34.650  26.465  1.00  0.00     0.066 C 
HETATM   14  C1  UNL     1       9.688  33.759  27.629  1.00  0.00     0.088 C 
HETATM   15  N1  UNL     1      10.413  34.830  25.646  1.00  0.00    -0.389 N 
ATOM     16  H12 UNL     1      11.337  34.406  25.735  1.00  0.00     0.157 HD
ATOM     17  H11 UNL     1      10.246  35.441  24.847  1.00  0.00     0.157 HD
ENDBRANCH  11  13
ENDBRANCH   1  11
TORSDOF 2
ENDMDL
