MODEL 1
REMARK VINA RESULT: -7.678622084      0.000      0.000
REMARK  1 active torsions:
REMARK  status: ('A' for Active; 'I' for Inactive)
REMARK    1  A    between atoms: O1_1  and  C1_3 
ROOT
HETATM    1  C1  UNL     1       5.093  -9.323 -23.585  1.00  0.00     0.066 C 
HETATM    2  C2  UNL     1       6.392  -8.661 -23.736  1.00  0.00     0.038 C 
HETATM    3  C3  UNL     1       6.529  -7.460 -24.585  1.00  0.00     0.003 C 
HETATM    4  C4  UNL     1       5.998  -6.178 -24.020  1.00  0.00     0.003 C 
HETATM    5  C5  UNL     1       4.534  -5.933 -24.262  1.00  0.00     0.047 C 
HETATM    6  C6  UNL     1       3.793  -7.118 -23.830  1.00  0.00     0.223 A 
HETATM    7  C7  UNL     1       4.030  -7.436 -22.488  1.00  0.00     0.269 A 
HETATM    8  C8  UNL     1       4.456  -8.862 -22.278  1.00  0.00     0.077 C 
HETATM    9  N1  UNL     1       2.786  -7.104 -22.738  1.00  0.00     0.111 N 
HETATM   10  C9  UNL     1       1.791  -6.325 -23.163  1.00  0.00     0.275 C 
HETATM   11  C10 UNL     1       1.020  -7.138 -24.215  1.00  0.00     0.044 C 
HETATM   12  C11 UNL     1       1.817  -8.306 -24.739  1.00  0.00     0.007 C 
HETATM   13  C12 UNL     1       1.380  -9.530 -24.018  1.00  0.00     0.013 C 
HETATM   14  C13 UNL     1       2.170 -10.752 -24.271  1.00  0.00     0.001 C 
HETATM   15  C14 UNL     1       3.434 -10.587 -25.017  1.00  0.00     0.011 C 
HETATM   16  C15 UNL     1       4.162  -9.284 -24.761  1.00  0.00     0.058 C 
HETATM   17  C16 UNL     1       3.286  -8.075 -24.836  1.00  0.00     0.117 C 
HETATM   18  O2  UNL     1       3.446  -7.456 -26.103  1.00  0.00    -0.346 OA
HETATM   19  C17 UNL     1       2.312  -7.390 -26.782  1.00  0.00     0.269 C 
HETATM   20  O3  UNL     1       2.317  -7.587 -28.129  1.00  0.00    -0.357 OA
HETATM   21  C18 UNL     1       1.114  -8.067 -28.604  1.00  0.00     0.198 C 
HETATM   22  C19 UNL     1      -0.082  -7.694 -27.811  1.00  0.00    -0.004 C 
HETATM   23  C20 UNL     1       0.037  -7.885 -26.475  1.00  0.00    -0.018 C 
HETATM   24  C21 UNL     1       1.408  -8.442 -26.173  1.00  0.00     0.075 C 
ENDROOT
BRANCH   1  25
HETATM   25  O1  UNL     1       5.373 -10.693 -23.320  1.00  0.00    -0.389 OA
ATOM     26  H1  UNL     1       4.764 -10.963 -22.643  1.00  0.00     0.210 HD
ENDBRANCH   1  25
TORSDOF 1
ENDMDL
MODEL 2
REMARK VINA RESULT: -7.336497989      1.702      5.352
REMARK  1 active torsions:
REMARK  status: ('A' for Active; 'I' for Inactive)
REMARK    1  A    between atoms: O1_1  and  C1_3 
ROOT
HETATM    1  C1  UNL     1       0.171  -8.530 -27.705  1.00  0.00     0.066 C 
HETATM    2  C2  UNL     1      -0.827  -9.603 -27.740  1.00  0.00     0.038 C 
HETATM    3  C3  UNL     1      -0.794 -10.693 -26.744  1.00  0.00     0.003 C 
HETATM    4  C4  UNL     1      -1.278 -10.357 -25.367  1.00  0.00     0.003 C 
HETATM    5  C5  UNL     1      -0.240  -9.765 -24.453  1.00  0.00     0.047 C 
HETATM    6  C6  UNL     1       0.395  -8.643 -25.145  1.00  0.00     0.223 A 
HETATM    7  C7  UNL     1      -0.529  -7.671 -25.545  1.00  0.00     0.269 A 
HETATM    8  C8  UNL     1      -0.433  -7.319 -27.003  1.00  0.00     0.077 C 
HETATM    9  N1  UNL     1       0.337  -7.241 -24.660  1.00  0.00     0.111 N 
HETATM   10  C9  UNL     1       0.992  -7.224 -23.499  1.00  0.00     0.275 C 
HETATM   11  C10 UNL     1       2.487  -7.318 -23.841  1.00  0.00     0.044 C 
HETATM   12  C11 UNL     1       2.728  -7.814 -25.244  1.00  0.00     0.007 C 
HETATM   13  C12 UNL     1       2.985  -6.639 -26.117  1.00  0.00     0.013 C 
HETATM   14  C13 UNL     1       3.072  -6.909 -27.567  1.00  0.00     0.001 C 
HETATM   15  C14 UNL     1       2.667  -8.256 -28.019  1.00  0.00     0.011 C 
HETATM   16  C15 UNL     1       1.546  -8.889 -27.221  1.00  0.00     0.058 C 
HETATM   17  C16 UNL     1       1.737  -8.811 -25.740  1.00  0.00     0.117 C 
HETATM   18  O2  UNL     1       2.240 -10.050 -25.265  1.00  0.00    -0.346 OA
HETATM   19  C17 UNL     1       3.412  -9.924 -24.663  1.00  0.00     0.269 C 
HETATM   20  O3  UNL     1       4.366 -10.881 -24.832  1.00  0.00    -0.357 OA
HETATM   21  C18 UNL     1       5.647 -10.392 -24.679  1.00  0.00     0.198 C 
HETATM   22  C19 UNL     1       5.781  -9.216 -23.786  1.00  0.00    -0.004 C 
HETATM   23  C20 UNL     1       4.893  -8.219 -24.018  1.00  0.00    -0.018 C 
HETATM   24  C21 UNL     1       3.990  -8.615 -25.162  1.00  0.00     0.075 C 
ENDROOT
BRANCH   1  25
HETATM   25  O1  UNL     1       0.308  -8.070 -29.044  1.00  0.00    -0.389 OA
ATOM     26  H1  UNL     1       0.266  -7.122 -29.005  1.00  0.00     0.210 HD
ENDBRANCH   1  25
TORSDOF 1
ENDMDL
MODEL 3
REMARK VINA RESULT: -6.979912979      2.053      4.827
REMARK  1 active torsions:
REMARK  status: ('A' for Active; 'I' for Inactive)
REMARK    1  A    between atoms: O1_1  and  C1_3 
ROOT
HETATM    1  C1  UNL     1       2.671 -10.412 -24.404  1.00  0.00     0.066 C 
HETATM    2  C2  UNL     1       1.287 -10.872 -24.548  1.00  0.00     0.038 C 
HETATM    3  C3  UNL     1       0.159  -9.950 -24.301  1.00  0.00     0.003 C 
HETATM    4  C4  UNL     1      -0.121  -8.935 -25.366  1.00  0.00     0.003 C 
HETATM    5  C5  UNL     1       0.676  -7.664 -25.261  1.00  0.00     0.047 C 
HETATM    6  C6  UNL     1       2.090  -8.017 -25.141  1.00  0.00     0.223 A 
HETATM    7  C7  UNL     1       2.538  -8.798 -26.212  1.00  0.00     0.269 A 
HETATM    8  C8  UNL     1       3.220 -10.067 -25.784  1.00  0.00     0.077 C 
HETATM    9  N1  UNL     1       3.121  -7.626 -26.136  1.00  0.00     0.111 N 
HETATM   10  C9  UNL     1       3.189  -6.295 -26.094  1.00  0.00     0.275 C 
HETATM   11  C10 UNL     1       3.932  -5.938 -24.798  1.00  0.00     0.044 C 
HETATM   12  C11 UNL     1       3.965  -7.082 -23.816  1.00  0.00     0.007 C 
HETATM   13  C12 UNL     1       5.278  -7.766 -23.940  1.00  0.00     0.013 C 
HETATM   14  C13 UNL     1       5.434  -9.023 -23.180  1.00  0.00     0.001 C 
HETATM   15  C14 UNL     1       4.212  -9.590 -22.574  1.00  0.00     0.011 C 
HETATM   16  C15 UNL     1       2.940  -9.364 -23.364  1.00  0.00     0.058 C 
HETATM   17  C16 UNL     1       2.755  -7.953 -23.822  1.00  0.00     0.117 C 
HETATM   18  O2  UNL     1       1.858  -7.288 -22.947  1.00  0.00    -0.346 OA
HETATM   19  C17 UNL     1       2.404  -6.231 -22.368  1.00  0.00     0.269 C 
HETATM   20  O3  UNL     1       2.118  -5.946 -21.068  1.00  0.00    -0.357 OA
HETATM   21  C18 UNL     1       3.127  -5.248 -20.438  1.00  0.00     0.198 C 
HETATM   22  C19 UNL     1       3.968  -4.403 -21.320  1.00  0.00    -0.004 C 
HETATM   23  C20 UNL     1       4.414  -5.018 -22.441  1.00  0.00    -0.018 C 
HETATM   24  C21 UNL     1       3.902  -6.439 -22.466  1.00  0.00     0.075 C 
ENDROOT
BRANCH   1  25
HETATM   25  O1  UNL     1       3.436 -11.558 -24.049  1.00  0.00    -0.389 OA
ATOM     26  H1  UNL     1       4.323 -11.386 -24.342  1.00  0.00     0.210 HD
ENDBRANCH   1  25
TORSDOF 1
ENDMDL
MODEL 4
REMARK VINA RESULT: -6.507318342      2.254      3.912
REMARK  1 active torsions:
REMARK  status: ('A' for Active; 'I' for Inactive)
REMARK    1  A    between atoms: O1_1  and  C1_3 
ROOT
HETATM    1  C1  UNL     1       2.954  -6.550 -23.539  1.00  0.00     0.066 C 
HETATM    2  C2  UNL     1       4.188  -6.965 -22.866  1.00  0.00     0.038 C 
HETATM    3  C3  UNL     1       4.598  -8.384 -22.856  1.00  0.00     0.003 C 
HETATM    4  C4  UNL     1       5.171  -8.924 -24.130  1.00  0.00     0.003 C 
HETATM    5  C5  UNL     1       4.158  -9.434 -25.119  1.00  0.00     0.047 C 
HETATM    6  C6  UNL     1       3.150  -8.394 -25.321  1.00  0.00     0.223 A 
HETATM    7  C7  UNL     1       3.708  -7.187 -25.756  1.00  0.00     0.269 A 
HETATM    8  C8  UNL     1       3.306  -6.005 -24.919  1.00  0.00     0.077 C 
HETATM    9  N1  UNL     1       2.898  -7.737 -26.629  1.00  0.00     0.111 N 
HETATM   10  C9  UNL     1       2.441  -8.692 -27.440  1.00  0.00     0.275 C 
HETATM   11  C10 UNL     1       0.993  -8.973 -27.009  1.00  0.00     0.044 C 
HETATM   12  C11 UNL     1       0.691  -8.453 -25.626  1.00  0.00     0.007 C 
HETATM   13  C12 UNL     1       0.001  -7.144 -25.761  1.00  0.00     0.013 C 
HETATM   14  C13 UNL     1      -0.222  -6.392 -24.509  1.00  0.00     0.001 C 
HETATM   15  C14 UNL     1       0.460  -6.895 -23.299  1.00  0.00     0.011 C 
HETATM   16  C15 UNL     1       1.814  -7.526 -23.544  1.00  0.00     0.058 C 
HETATM   17  C16 UNL     1       1.829  -8.513 -24.666  1.00  0.00     0.117 C 
HETATM   18  O2  UNL     1       1.755  -9.828 -24.138  1.00  0.00    -0.346 OA
HETATM   19  C17 UNL     1       0.695 -10.489 -24.572  1.00  0.00     0.269 C 
HETATM   20  O3  UNL     1       0.020 -11.317 -23.728  1.00  0.00    -0.357 OA
HETATM   21  C18 UNL     1      -1.309 -11.464 -24.071  1.00  0.00     0.198 C 
HETATM   22  C19 UNL     1      -1.621 -11.291 -25.510  1.00  0.00    -0.004 C 
HETATM   23  C20 UNL     1      -1.079 -10.189 -26.082  1.00  0.00    -0.018 C 
HETATM   24  C21 UNL     1      -0.282  -9.432 -25.047  1.00  0.00     0.075 C 
ENDROOT
BRANCH   1  25
HETATM   25  O1  UNL     1       2.503  -5.385 -22.857  1.00  0.00    -0.389 OA
ATOM     26  H1  UNL     1       2.382  -5.638 -21.950  1.00  0.00     0.210 HD
ENDBRANCH   1  25
TORSDOF 1
ENDMDL
MODEL 5
REMARK VINA RESULT: -6.387947257      2.100      5.074
REMARK  1 active torsions:
REMARK  status: ('A' for Active; 'I' for Inactive)
REMARK    1  A    between atoms: O1_1  and  C1_3 
ROOT
HETATM    1  C1  UNL     1       5.114  -6.277 -24.608  1.00  0.00     0.066 C 
HETATM    2  C2  UNL     1       3.837  -5.938 -25.241  1.00  0.00     0.038 C 
HETATM    3  C3  UNL     1       2.821  -6.981 -25.490  1.00  0.00     0.003 C 
HETATM    4  C4  UNL     1       2.046  -7.457 -24.299  1.00  0.00     0.003 C 
HETATM    5  C5  UNL     1       2.697  -8.564 -23.515  1.00  0.00     0.047 C 
HETATM    6  C6  UNL     1       4.068  -8.160 -23.203  1.00  0.00     0.223 A 
HETATM    7  C7  UNL     1       4.122  -6.953 -22.498  1.00  0.00     0.269 A 
HETATM    8  C8  UNL     1       5.033  -5.934 -23.124  1.00  0.00     0.077 C 
HETATM    9  N1  UNL     1       4.575  -7.979 -21.819  1.00  0.00     0.111 N 
HETATM   10  C9  UNL     1       4.531  -9.183 -21.248  1.00  0.00     0.275 C 
HETATM   11  C10 UNL     1       5.693  -9.991 -21.846  1.00  0.00     0.044 C 
HETATM   12  C11 UNL     1       6.220  -9.388 -23.123  1.00  0.00     0.007 C 
HETATM   13  C12 UNL     1       7.433  -8.593 -22.797  1.00  0.00     0.013 C 
HETATM   14  C13 UNL     1       7.994  -7.780 -23.896  1.00  0.00     0.001 C 
HETATM   15  C14 UNL     1       7.174  -7.654 -25.118  1.00  0.00     0.011 C 
HETATM   16  C15 UNL     1       5.678  -7.640 -24.886  1.00  0.00     0.058 C 
HETATM   17  C16 UNL     1       5.195  -8.723 -23.977  1.00  0.00     0.117 C 
HETATM   18  O2  UNL     1       4.664  -9.786 -24.753  1.00  0.00    -0.346 OA
HETATM   19  C17 UNL     1       5.295 -10.931 -24.545  1.00  0.00     0.269 C 
HETATM   20  O3  UNL     1       5.526 -11.777 -25.586  1.00  0.00    -0.357 OA
HETATM   21  C18 UNL     1       6.632 -12.577 -25.391  1.00  0.00     0.198 C 
HETATM   22  C19 UNL     1       6.970 -12.869 -23.977  1.00  0.00    -0.004 C 
HETATM   23  C20 UNL     1       6.987 -11.789 -23.160  1.00  0.00    -0.018 C 
HETATM   24  C21 UNL     1       6.642 -10.555 -23.960  1.00  0.00     0.075 C 
ENDROOT
BRANCH   1  25
HETATM   25  O1  UNL     1       6.060  -5.328 -25.088  1.00  0.00    -0.389 OA
ATOM     26  H1  UNL     1       6.774  -5.324 -24.460  1.00  0.00     0.210 HD
ENDBRANCH   1  25
TORSDOF 1
ENDMDL
