MODEL 1
REMARK VINA RESULT: -7.398180481      0.000      0.000
REMARK  3 active torsions:
REMARK  status: ('A' for Active; 'I' for Inactive)
REMARK    1  A    between atoms: O1_2  and  C2_3 
REMARK    2  A    between atoms: C14_16  and  C15_17 
REMARK    3  A    between atoms: C18_20  and  O3_21 
ROOT
HETATM    1  C2  UNL     1       3.770  -7.263 -24.910  1.00  0.00     0.138 C 
HETATM    2  C3  UNL     1       2.445  -7.189 -25.670  1.00  0.00     0.077 C 
HETATM    3  C4  UNL     1       1.787  -8.396 -25.127  1.00  0.00     0.122 A 
HETATM    4  O2  UNL     1       0.993  -8.662 -24.131  1.00  0.00    -0.359 OA
HETATM    5  C5  UNL     1       1.982  -7.968 -23.651  1.00  0.00     0.105 A 
HETATM    6  C6  UNL     1       1.535  -6.568 -23.269  1.00  0.00     0.050 C 
HETATM    7  C7  UNL     1       3.463  -8.084 -23.639  1.00  0.00     0.050 C 
HETATM    8  C8  UNL     1       4.088  -7.317 -22.503  1.00  0.00     0.024 C 
HETATM    9  C9  UNL     1       3.892  -9.487 -23.755  1.00  0.00     0.100 C 
HETATM   10  C10 UNL     1       3.026 -10.439 -22.983  1.00  0.00     0.046 C 
HETATM   11  C11 UNL     1       2.572 -11.520 -23.941  1.00  0.00    -0.009 C 
HETATM   12  C12 UNL     1       3.612 -12.496 -24.260  1.00  0.00     0.005 C 
HETATM   13  C13 UNL     1       4.996 -12.062 -24.504  1.00  0.00     0.008 C 
HETATM   14  C14 UNL     1       5.651 -11.235 -23.470  1.00  0.00     0.021 C 
HETATM   15  C18 UNL     1       5.315  -9.795 -23.375  1.00  0.00     0.158 C 
HETATM   16  C19 UNL     1       1.852 -10.926 -25.151  1.00  0.00     0.039 C 
HETATM   17  C20 UNL     1       2.544  -9.630 -25.522  1.00  0.00     0.161 C 
HETATM   18  O4  UNL     1       3.837  -9.726 -25.151  1.00  0.00    -0.368 OA
ENDROOT
BRANCH  14  19
HETATM   19  C15 UNL     1       7.170 -11.418 -23.661  1.00  0.00    -0.016 C 
HETATM   20  C16 UNL     1       7.464 -12.503 -24.662  1.00  0.00     0.010 C 
HETATM   21  C17 UNL     1       7.837 -10.131 -24.026  1.00  0.00     0.010 C 
ENDBRANCH  14  19
BRANCH  15  22
HETATM   22  O3  UNL     1       5.593  -9.445 -22.030  1.00  0.00    -0.392 OA
ATOM     23  H3  UNL     1       6.524  -9.465 -21.842  1.00  0.00     0.210 HD
ENDBRANCH  15  22
BRANCH   1  24
HETATM   24  O1  UNL     1       4.341  -6.056 -24.656  1.00  0.00    -0.390 OA
HETATM   25  C1  UNL     1       4.089  -5.118 -25.632  1.00  0.00     0.202 C 
ENDBRANCH   1  24
TORSDOF 3
ENDMDL
MODEL 2
REMARK VINA RESULT: -7.132056491      1.539      2.115
REMARK  3 active torsions:
REMARK  status: ('A' for Active; 'I' for Inactive)
REMARK    1  A    between atoms: O1_2  and  C2_3 
REMARK    2  A    between atoms: C14_16  and  C15_17 
REMARK    3  A    between atoms: C18_20  and  O3_21 
ROOT
HETATM    1  C2  UNL     1       5.375  -8.325 -24.583  1.00  0.00     0.138 C 
HETATM    2  C3  UNL     1       4.064  -7.578 -24.833  1.00  0.00     0.077 C 
HETATM    3  C4  UNL     1       3.114  -8.564 -24.275  1.00  0.00     0.122 A 
HETATM    4  O2  UNL     1       2.560  -8.780 -23.117  1.00  0.00    -0.359 OA
HETATM    5  C5  UNL     1       3.836  -8.644 -22.907  1.00  0.00     0.105 A 
HETATM    6  C6  UNL     1       4.139  -7.333 -22.204  1.00  0.00     0.050 C 
HETATM    7  C7  UNL     1       5.077  -9.285 -23.412  1.00  0.00     0.050 C 
HETATM    8  C8  UNL     1       6.232  -9.127 -22.457  1.00  0.00     0.024 C 
HETATM    9  C9  UNL     1       4.824 -10.664 -23.862  1.00  0.00     0.100 C 
HETATM   10  C10 UNL     1       3.859 -11.407 -22.985  1.00  0.00     0.046 C 
HETATM   11  C11 UNL     1       2.764 -11.955 -23.875  1.00  0.00    -0.009 C 
HETATM   12  C12 UNL     1       3.172 -13.118 -24.660  1.00  0.00     0.005 C 
HETATM   13  C13 UNL     1       4.499 -13.165 -25.293  1.00  0.00     0.008 C 
HETATM   14  C14 UNL     1       5.680 -12.937 -24.436  1.00  0.00     0.021 C 
HETATM   15  C18 UNL     1       6.026 -11.554 -24.031  1.00  0.00     0.158 C 
HETATM   16  C19 UNL     1       2.088 -10.842 -24.675  1.00  0.00     0.039 C 
HETATM   17  C20 UNL     1       3.147  -9.835 -25.072  1.00  0.00     0.161 C 
HETATM   18  O4  UNL     1       4.323 -10.486 -25.176  1.00  0.00    -0.368 OA
ENDROOT
BRANCH  14  19
HETATM   19  C15 UNL     1       6.875 -13.598 -25.152  1.00  0.00    -0.016 C 
HETATM   20  C16 UNL     1       6.970 -15.061 -24.810  1.00  0.00     0.010 C 
HETATM   21  C17 UNL     1       6.822 -13.376 -26.630  1.00  0.00     0.010 C 
ENDBRANCH  14  19
BRANCH  15  22
HETATM   22  O3  UNL     1       6.753 -11.698 -22.824  1.00  0.00    -0.392 OA
ATOM     23  H3  UNL     1       7.563 -11.202 -22.835  1.00  0.00     0.210 HD
ENDBRANCH  15  22
BRANCH   1  24
HETATM   24  O1  UNL     1       6.449  -7.520 -24.370  1.00  0.00    -0.390 OA
HETATM   25  C1  UNL     1       6.269  -6.236 -24.837  1.00  0.00     0.202 C 
ENDBRANCH   1  24
TORSDOF 3
ENDMDL
MODEL 3
REMARK VINA RESULT: -7.093464939      2.201      4.894
REMARK  3 active torsions:
REMARK  status: ('A' for Active; 'I' for Inactive)
REMARK    1  A    between atoms: O1_2  and  C2_3 
REMARK    2  A    between atoms: C14_16  and  C15_17 
REMARK    3  A    between atoms: C18_20  and  O3_21 
ROOT
HETATM    1  C2  UNL     1       5.629  -9.893 -22.447  1.00  0.00     0.138 C 
HETATM    2  C3  UNL     1       7.114 -10.130 -22.172  1.00  0.00     0.077 C 
HETATM    3  C4  UNL     1       7.455 -10.936 -23.364  1.00  0.00     0.122 A 
HETATM    4  O2  UNL     1       7.901 -10.694 -24.562  1.00  0.00    -0.359 OA
HETATM    5  C5  UNL     1       6.899  -9.889 -24.361  1.00  0.00     0.105 A 
HETATM    6  C6  UNL     1       7.372  -8.456 -24.199  1.00  0.00     0.050 C 
HETATM    7  C7  UNL     1       5.472 -10.034 -23.976  1.00  0.00     0.050 C 
HETATM    8  C8  UNL     1       4.640  -8.855 -24.407  1.00  0.00     0.024 C 
HETATM    9  C9  UNL     1       4.941 -11.350 -24.371  1.00  0.00     0.100 C 
HETATM   10  C10 UNL     1       5.444 -11.818 -25.705  1.00  0.00     0.046 C 
HETATM   11  C11 UNL     1       6.028 -13.201 -25.512  1.00  0.00    -0.009 C 
HETATM   12  C12 UNL     1       5.019 -14.248 -25.361  1.00  0.00     0.005 C 
HETATM   13  C13 UNL     1       3.817 -14.017 -24.545  1.00  0.00     0.008 C 
HETATM   14  C14 UNL     1       2.992 -12.832 -24.855  1.00  0.00     0.021 C 
HETATM   15  C18 UNL     1       3.443 -11.496 -24.399  1.00  0.00     0.158 C 
HETATM   16  C19 UNL     1       7.121 -13.199 -24.444  1.00  0.00     0.039 C 
HETATM   17  C20 UNL     1       6.710 -12.238 -23.348  1.00  0.00     0.161 C 
HETATM   18  O4  UNL     1       5.362 -12.196 -23.314  1.00  0.00    -0.368 OA
ENDROOT
BRANCH  14  19
HETATM   19  C15 UNL     1       1.579 -13.130 -24.317  1.00  0.00    -0.016 C 
HETATM   20  C16 UNL     1       1.315 -14.611 -24.277  1.00  0.00     0.010 C 
HETATM   21  C17 UNL     1       1.351 -12.490 -22.984  1.00  0.00     0.010 C 
ENDBRANCH  14  19
BRANCH  15  22
HETATM   22  O3  UNL     1       2.838 -10.581 -25.296  1.00  0.00    -0.392 OA
ATOM     23  H3  UNL     1       2.539 -11.007 -26.090  1.00  0.00     0.210 HD
ENDBRANCH  15  22
BRANCH   1  24
HETATM   24  O1  UNL     1       5.146  -8.721 -21.955  1.00  0.00    -0.390 OA
HETATM   25  C1  UNL     1       4.621  -8.838 -20.687  1.00  0.00     0.202 C 
ENDBRANCH   1  24
TORSDOF 3
ENDMDL
MODEL 4
REMARK VINA RESULT: -7.072235560      1.742      4.348
REMARK  3 active torsions:
REMARK  status: ('A' for Active; 'I' for Inactive)
REMARK    1  A    between atoms: O1_2  and  C2_3 
REMARK    2  A    between atoms: C14_16  and  C15_17 
REMARK    3  A    between atoms: C18_20  and  O3_21 
ROOT
HETATM    1  C2  UNL     1       2.922  -7.217 -22.942  1.00  0.00     0.138 C 
HETATM    2  C3  UNL     1       4.346  -7.162 -22.387  1.00  0.00     0.077 C 
HETATM    3  C4  UNL     1       4.955  -8.254 -23.177  1.00  0.00     0.122 A 
HETATM    4  O2  UNL     1       5.592  -8.350 -24.307  1.00  0.00    -0.359 OA
HETATM    5  C5  UNL     1       4.515  -7.658 -24.538  1.00  0.00     0.105 A 
HETATM    6  C6  UNL     1       4.845  -6.199 -24.796  1.00  0.00     0.050 C 
HETATM    7  C7  UNL     1       3.056  -7.855 -24.341  1.00  0.00     0.050 C 
HETATM    8  C8  UNL     1       2.233  -6.990 -25.260  1.00  0.00     0.024 C 
HETATM    9  C9  UNL     1       2.702  -9.285 -24.347  1.00  0.00     0.100 C 
HETATM   10  C10 UNL     1       3.471 -10.083 -25.358  1.00  0.00     0.046 C 
HETATM   11  C11 UNL     1       4.109 -11.247 -24.629  1.00  0.00    -0.009 C 
HETATM   12  C12 UNL     1       3.168 -12.312 -24.287  1.00  0.00     0.005 C 
HETATM   13  C13 UNL     1       1.824 -11.990 -23.783  1.00  0.00     0.008 C 
HETATM   14  C14 UNL     1       0.986 -11.080 -24.589  1.00  0.00     0.021 C 
HETATM   15  C18 UNL     1       1.249  -9.623 -24.545  1.00  0.00     0.158 C 
HETATM   16  C19 UNL     1       4.987 -10.767 -23.474  1.00  0.00     0.039 C 
HETATM   17  C20 UNL     1       4.315  -9.568 -22.837  1.00  0.00     0.161 C 
HETATM   18  O4  UNL     1       2.984  -9.690 -23.018  1.00  0.00    -0.368 OA
ENDROOT
BRANCH  14  19
HETATM   19  C15 UNL     1      -0.477 -11.371 -24.197  1.00  0.00    -0.016 C 
HETATM   20  C16 UNL     1      -1.370 -11.389 -25.408  1.00  0.00     0.010 C 
HETATM   21  C17 UNL     1      -0.593 -12.633 -23.404  1.00  0.00     0.010 C 
ENDBRANCH  14  19
BRANCH  15  22
HETATM   22  O3  UNL     1       0.752  -9.125 -25.775  1.00  0.00    -0.392 OA
ATOM     23  H3  UNL     1      -0.190  -9.229 -25.845  1.00  0.00     0.210 HD
ENDBRANCH  15  22
BRANCH   1  24
HETATM   24  O1  UNL     1       2.274  -6.022 -22.947  1.00  0.00    -0.390 OA
HETATM   25  C1  UNL     1       2.734  -5.149 -21.986  1.00  0.00     0.202 C 
ENDBRANCH   1  24
TORSDOF 3
ENDMDL
MODEL 5
REMARK VINA RESULT: -6.817431977      1.765      4.214
REMARK  3 active torsions:
REMARK  status: ('A' for Active; 'I' for Inactive)
REMARK    1  A    between atoms: O1_2  and  C2_3 
REMARK    2  A    between atoms: C14_16  and  C15_17 
REMARK    3  A    between atoms: C18_20  and  O3_21 
ROOT
HETATM    1  C2  UNL     1       2.523  -6.524 -23.863  1.00  0.00     0.138 C 
HETATM    2  C3  UNL     1       3.620  -6.146 -22.867  1.00  0.00     0.077 C 
HETATM    3  C4  UNL     1       4.525  -7.301 -23.055  1.00  0.00     0.122 A 
HETATM    4  O2  UNL     1       5.551  -7.574 -23.806  1.00  0.00    -0.359 OA
HETATM    5  C5  UNL     1       4.622  -7.110 -24.589  1.00  0.00     0.105 A 
HETATM    6  C6  UNL     1       4.974  -5.723 -25.095  1.00  0.00     0.050 C 
HETATM    7  C7  UNL     1       3.208  -7.452 -24.889  1.00  0.00     0.050 C 
HETATM    8  C8  UNL     1       2.773  -6.949 -26.241  1.00  0.00     0.024 C 
HETATM    9  C9  UNL     1       2.935  -8.876 -24.635  1.00  0.00     0.100 C 
HETATM   10  C10 UNL     1       4.062  -9.779 -25.042  1.00  0.00     0.046 C 
HETATM   11  C11 UNL     1       4.412 -10.639 -23.846  1.00  0.00    -0.009 C 
HETATM   12  C12 UNL     1       3.450 -11.711 -23.593  1.00  0.00     0.005 C 
HETATM   13  C13 UNL     1       2.005 -11.465 -23.717  1.00  0.00     0.008 C 
HETATM   14  C14 UNL     1       1.511 -10.895 -24.987  1.00  0.00     0.021 C 
HETATM   15  C18 UNL     1       1.684  -9.446 -25.247  1.00  0.00     0.158 C 
HETATM   16  C19 UNL     1       4.759  -9.784 -22.628  1.00  0.00     0.039 C 
HETATM   17  C20 UNL     1       3.851  -8.571 -22.627  1.00  0.00     0.161 C 
HETATM   18  O4  UNL     1       2.698  -8.913 -23.238  1.00  0.00    -0.368 OA
ENDROOT
BRANCH  14  19
HETATM   19  C15 UNL     1       0.021 -11.281 -25.088  1.00  0.00    -0.016 C 
HETATM   20  C16 UNL     1      -0.334 -12.343 -24.083  1.00  0.00     0.010 C 
HETATM   21  C17 UNL     1      -0.867 -10.084 -24.966  1.00  0.00     0.010 C 
ENDBRANCH  14  19
BRANCH  15  22
HETATM   22  O3  UNL     1       1.682  -9.327 -26.659  1.00  0.00    -0.392 OA
ATOM     23  H3  UNL     1       2.178 -10.022 -27.075  1.00  0.00     0.210 HD
ENDBRANCH  15  22
BRANCH   1  24
HETATM   24  O1  UNL     1       1.885  -5.464 -24.426  1.00  0.00    -0.390 OA
HETATM   25  C1  UNL     1       1.999  -4.306 -23.689  1.00  0.00     0.202 C 
ENDBRANCH   1  24
TORSDOF 3
ENDMDL
