MODEL 1
REMARK VINA RESULT: -7.474881994      0.000      0.000
REMARK  5 active torsions:
REMARK  status: ('A' for Active; 'I' for Inactive)
REMARK    1  A    between atoms: O1_2  and  C2_3 
REMARK    2  A    between atoms: C2_3  and  C3_5 
REMARK    3  A    between atoms: C5_7  and  O3_8 
REMARK    4  A    between atoms: C15_20  and  C16_21 
REMARK    5  A    between atoms: C16_21  and  C17_23 
ROOT
HETATM    1  C3  UNL     1       4.138  -4.856 -23.186  1.00  0.00     0.074 C 
HETATM    2  C4  UNL     1       5.649  -4.614 -22.979  1.00  0.00     0.029 C 
HETATM    3  C5  UNL     1       3.740  -3.712 -24.080  1.00  0.00     0.136 C 
HETATM    4  C6  UNL     1       2.404  -3.838 -24.697  1.00  0.00     0.034 C 
HETATM    5  C7  UNL     1       1.766  -5.129 -24.376  1.00  0.00     0.015 C 
HETATM    6  C8  UNL     1       2.684  -6.337 -24.661  1.00  0.00    -0.003 C 
HETATM    7  C9  UNL     1       3.075  -6.105 -26.109  1.00  0.00     0.019 C 
HETATM    8  C10 UNL     1       3.842  -6.207 -23.704  1.00  0.00     0.017 C 
HETATM    9  C11 UNL     1       4.999  -6.955 -24.320  1.00  0.00     0.010 C 
HETATM   10  C12 UNL     1       5.408  -8.118 -23.504  1.00  0.00     0.039 C 
HETATM   11  C13 UNL     1       4.789  -9.419 -23.774  1.00  0.00     0.069 C 
HETATM   12  C14 UNL     1       4.315 -10.100 -22.481  1.00  0.00     0.047 C 
HETATM   13  O4  UNL     1       5.845 -10.266 -24.232  1.00  0.00    -0.337 OA
HETATM   14  C15 UNL     1       5.595 -11.558 -24.646  1.00  0.00     0.112 C 
HETATM   15  C20 UNL     1       4.391 -11.797 -25.046  1.00  0.00     0.014 C 
HETATM   16  C21 UNL     1       3.254 -10.870 -25.112  1.00  0.00     0.038 C 
HETATM   17  C22 UNL     1       3.627  -9.421 -24.752  1.00  0.00     0.031 C 
HETATM   18  C23 UNL     1       2.399  -8.849 -24.180  1.00  0.00     0.033 C 
HETATM   19  C24 UNL     1       1.095  -9.372 -24.812  1.00  0.00     0.011 C 
HETATM   20  C25 UNL     1       1.046  -8.046 -25.591  1.00  0.00     0.045 C 
HETATM   21  C26 UNL     1       1.883  -7.536 -24.407  1.00  0.00     0.115 C 
HETATM   22  F1  UNL     1       0.922  -7.251 -23.400  1.00  0.00    -0.242 F 
ENDROOT
BRANCH   1  23
HETATM   23  C2  UNL     1       3.605  -4.649 -21.794  1.00  0.00     0.269 C 
HETATM   24  O2  UNL     1       2.563  -5.139 -21.349  1.00  0.00    -0.264 OA
BRANCH  23  25
HETATM   25  O1  UNL     1       4.362  -3.838 -20.963  1.00  0.00    -0.326 OA
HETATM   26  C1  UNL     1       3.847  -3.283 -19.759  1.00  0.00     0.213 C 
ENDBRANCH  23  25
ENDBRANCH   1  23
BRANCH   3  27
HETATM   27  O3  UNL     1       3.828  -2.547 -23.277  1.00  0.00    -0.394 OA
ATOM     28  H3  UNL     1       3.163  -1.955 -23.608  1.00  0.00     0.210 HD
ENDBRANCH   3  27
BRANCH  14  29
HETATM   29  C16 UNL     1       6.623 -12.604 -24.642  1.00  0.00     0.185 C 
HETATM   30  O5  UNL     1       7.586 -12.473 -23.835  1.00  0.00    -0.290 OA
BRANCH  29  31
HETATM   31  C17 UNL     1       6.579 -13.776 -25.520  1.00  0.00     0.054 C 
HETATM   32  C18 UNL     1       7.220 -13.460 -26.851  1.00  0.00     0.018 C 
HETATM   33  C19 UNL     1       7.382 -14.897 -24.851  1.00  0.00     0.018 C 
ENDBRANCH  29  31
ENDBRANCH  14  29
TORSDOF 5
ENDMDL
MODEL 2
REMARK VINA RESULT: -6.859583913      2.158      3.471
REMARK  5 active torsions:
REMARK  status: ('A' for Active; 'I' for Inactive)
REMARK    1  A    between atoms: O1_2  and  C2_3 
REMARK    2  A    between atoms: C2_3  and  C3_5 
REMARK    3  A    between atoms: C5_7  and  O3_8 
REMARK    4  A    between atoms: C15_20  and  C16_21 
REMARK    5  A    between atoms: C16_21  and  C17_23 
ROOT
HETATM    1  C3  UNL     1       4.576  -7.598 -23.048  1.00  0.00     0.074 C 
HETATM    2  C4  UNL     1       5.796  -6.661 -23.178  1.00  0.00     0.029 C 
HETATM    3  C5  UNL     1       3.465  -6.779 -23.649  1.00  0.00     0.136 C 
HETATM    4  C6  UNL     1       2.225  -7.528 -23.939  1.00  0.00     0.034 C 
HETATM    5  C7  UNL     1       2.371  -8.968 -23.659  1.00  0.00     0.015 C 
HETATM    6  C8  UNL     1       3.621  -9.584 -24.324  1.00  0.00    -0.003 C 
HETATM    7  C9  UNL     1       3.440  -9.181 -25.776  1.00  0.00     0.019 C 
HETATM    8  C10 UNL     1       4.804  -8.921 -23.664  1.00  0.00     0.017 C 
HETATM    9  C11 UNL     1       5.952  -9.015 -24.640  1.00  0.00     0.010 C 
HETATM   10  C12 UNL     1       7.059  -9.844 -24.118  1.00  0.00     0.039 C 
HETATM   11  C13 UNL     1       7.061 -11.280 -24.412  1.00  0.00     0.069 C 
HETATM   12  C14 UNL     1       7.334 -12.116 -23.153  1.00  0.00     0.047 C 
HETATM   13  O4  UNL     1       8.213 -11.511 -25.225  1.00  0.00    -0.337 OA
HETATM   14  C15 UNL     1       8.482 -12.760 -25.746  1.00  0.00     0.112 C 
HETATM   15  C20 UNL     1       7.464 -13.546 -25.874  1.00  0.00     0.014 C 
HETATM   16  C21 UNL     1       6.062 -13.280 -25.533  1.00  0.00     0.038 C 
HETATM   17  C22 UNL     1       5.809 -11.833 -25.073  1.00  0.00     0.031 C 
HETATM   18  C23 UNL     1       4.671 -11.927 -24.148  1.00  0.00     0.033 C 
HETATM   19  C24 UNL     1       3.635 -13.008 -24.514  1.00  0.00     0.011 C 
HETATM   20  C25 UNL     1       2.767 -11.863 -25.064  1.00  0.00     0.045 C 
HETATM   21  C26 UNL     1       3.569 -11.023 -24.056  1.00  0.00     0.115 C 
HETATM   22  F1  UNL     1       2.907 -11.243 -22.818  1.00  0.00    -0.242 F 
ENDROOT
BRANCH   1  23
HETATM   23  C2  UNL     1       4.420  -7.684 -21.554  1.00  0.00     0.269 C 
HETATM   24  O2  UNL     1       4.489  -8.722 -20.888  1.00  0.00    -0.264 OA
BRANCH  23  25
HETATM   25  O1  UNL     1       4.178  -6.490 -20.893  1.00  0.00    -0.326 OA
HETATM   26  C1  UNL     1       4.039  -6.412 -19.479  1.00  0.00     0.213 C 
ENDBRANCH  23  25
ENDBRANCH   1  23
BRANCH   3  27
HETATM   27  O3  UNL     1       3.227  -5.723 -22.735  1.00  0.00    -0.394 OA
ATOM     28  H3  UNL     1       3.354  -6.095 -21.871  1.00  0.00     0.210 HD
ENDBRANCH   3  27
BRANCH  14  29
HETATM   29  C16 UNL     1       9.830 -13.182 -26.136  1.00  0.00     0.185 C 
HETATM   30  O5  UNL     1      10.806 -12.633 -25.552  1.00  0.00    -0.290 OA
BRANCH  29  31
HETATM   31  C17 UNL     1      10.088 -14.200 -27.158  1.00  0.00     0.054 C 
HETATM   32  C18 UNL     1      11.199 -13.752 -28.079  1.00  0.00     0.018 C 
HETATM   33  C19 UNL     1      10.538 -15.480 -26.446  1.00  0.00     0.018 C 
ENDBRANCH  29  31
ENDBRANCH  14  29
TORSDOF 5
ENDMDL
MODEL 3
REMARK VINA RESULT: -6.536276635      1.140      1.464
REMARK  5 active torsions:
REMARK  status: ('A' for Active; 'I' for Inactive)
REMARK    1  A    between atoms: O1_2  and  C2_3 
REMARK    2  A    between atoms: C2_3  and  C3_5 
REMARK    3  A    between atoms: C5_7  and  O3_8 
REMARK    4  A    between atoms: C15_20  and  C16_21 
REMARK    5  A    between atoms: C16_21  and  C17_23 
ROOT
HETATM    1  C3  UNL     1       5.016  -4.154 -23.213  1.00  0.00     0.074 C 
HETATM    2  C4  UNL     1       6.557  -4.216 -23.147  1.00  0.00     0.029 C 
HETATM    3  C5  UNL     1       4.771  -2.957 -24.091  1.00  0.00     0.136 C 
HETATM    4  C6  UNL     1       3.385  -2.817 -24.584  1.00  0.00     0.034 C 
HETATM    5  C7  UNL     1       2.538  -3.955 -24.180  1.00  0.00     0.015 C 
HETATM    6  C8  UNL     1       3.170  -5.322 -24.521  1.00  0.00    -0.003 C 
HETATM    7  C9  UNL     1       3.464  -5.176 -26.003  1.00  0.00     0.019 C 
HETATM    8  C10 UNL     1       4.413  -5.422 -23.674  1.00  0.00     0.017 C 
HETATM    9  C11 UNL     1       5.338  -6.386 -24.376  1.00  0.00     0.010 C 
HETATM   10  C12 UNL     1       5.583  -7.605 -23.575  1.00  0.00     0.039 C 
HETATM   11  C13 UNL     1       4.698  -8.758 -23.762  1.00  0.00     0.069 C 
HETATM   12  C14 UNL     1       4.220  -9.327 -22.418  1.00  0.00     0.047 C 
HETATM   13  O4  UNL     1       5.520  -9.799 -24.295  1.00  0.00    -0.337 OA
HETATM   14  C15 UNL     1       4.983 -11.016 -24.659  1.00  0.00     0.112 C 
HETATM   15  C20 UNL     1       3.724 -11.013 -24.944  1.00  0.00     0.014 C 
HETATM   16  C21 UNL     1       2.791  -9.879 -24.927  1.00  0.00     0.038 C 
HETATM   17  C22 UNL     1       3.473  -8.532 -24.632  1.00  0.00     0.031 C 
HETATM   18  C23 UNL     1       2.441  -7.726 -23.965  1.00  0.00     0.033 C 
HETATM   19  C24 UNL     1       1.006  -7.982 -24.466  1.00  0.00     0.011 C 
HETATM   20  C25 UNL     1       1.148  -6.675 -25.265  1.00  0.00     0.045 C 
HETATM   21  C26 UNL     1       2.175  -6.338 -24.171  1.00  0.00     0.115 C 
HETATM   22  F1  UNL     1       1.385  -5.865 -23.089  1.00  0.00    -0.242 F 
ENDROOT
BRANCH   1  23
HETATM   23  C2  UNL     1       4.665  -3.842 -21.783  1.00  0.00     0.269 C 
HETATM   24  O2  UNL     1       4.994  -2.819 -21.175  1.00  0.00    -0.264 OA
BRANCH  23  25
HETATM   25  O1  UNL     1       3.913  -4.796 -21.116  1.00  0.00    -0.326 OA
HETATM   26  C1  UNL     1       2.751  -4.465 -20.364  1.00  0.00     0.213 C 
ENDBRANCH  23  25
ENDBRANCH   1  23
BRANCH   3  27
HETATM   27  O3  UNL     1       5.160  -1.830 -23.324  1.00  0.00    -0.394 OA
ATOM     28  H3  UNL     1       5.232  -2.139 -22.429  1.00  0.00     0.210 HD
ENDBRANCH   3  27
BRANCH  14  29
HETATM   29  C16 UNL     1       5.781 -12.245 -24.724  1.00  0.00     0.185 C 
HETATM   30  O5  UNL     1       5.232 -13.318 -24.347  1.00  0.00    -0.290 OA
BRANCH  29  31
HETATM   31  C17 UNL     1       7.165 -12.278 -25.203  1.00  0.00     0.054 C 
HETATM   32  C18 UNL     1       8.086 -11.631 -24.195  1.00  0.00     0.018 C 
HETATM   33  C19 UNL     1       7.575 -13.747 -25.358  1.00  0.00     0.018 C 
ENDBRANCH  29  31
ENDBRANCH  14  29
TORSDOF 5
ENDMDL
MODEL 4
REMARK VINA RESULT: -6.501335642      2.940      4.903
REMARK  5 active torsions:
REMARK  status: ('A' for Active; 'I' for Inactive)
REMARK    1  A    between atoms: O1_2  and  C2_3 
REMARK    2  A    between atoms: C2_3  and  C3_5 
REMARK    3  A    between atoms: C5_7  and  O3_8 
REMARK    4  A    between atoms: C15_20  and  C16_21 
REMARK    5  A    between atoms: C16_21  and  C17_23 
ROOT
HETATM    1  C3  UNL     1       3.201  -4.268 -24.257  1.00  0.00     0.074 C 
HETATM    2  C4  UNL     1       1.713  -3.860 -24.325  1.00  0.00     0.029 C 
HETATM    3  C5  UNL     1       3.739  -3.377 -23.171  1.00  0.00     0.136 C 
HETATM    4  C6  UNL     1       5.079  -3.745 -22.669  1.00  0.00     0.034 C 
HETATM    5  C7  UNL     1       5.578  -4.988 -23.285  1.00  0.00     0.015 C 
HETATM    6  C8  UNL     1       4.560  -6.146 -23.204  1.00  0.00    -0.003 C 
HETATM    7  C9  UNL     1       4.247  -6.192 -21.719  1.00  0.00     0.019 C 
HETATM    8  C10 UNL     1       3.385  -5.719 -24.047  1.00  0.00     0.017 C 
HETATM    9  C11 UNL     1       2.185  -6.478 -23.534  1.00  0.00     0.010 C 
HETATM   10  C12 UNL     1       1.636  -7.403 -24.549  1.00  0.00     0.039 C 
HETATM   11  C13 UNL     1       2.137  -8.780 -24.588  1.00  0.00     0.069 C 
HETATM   12  C14 UNL     1       2.496  -9.212 -26.018  1.00  0.00     0.047 C 
HETATM   13  O4  UNL     1       1.023  -9.611 -24.256  1.00  0.00    -0.337 OA
HETATM   14  C15 UNL     1       1.163 -10.978 -24.131  1.00  0.00     0.112 C 
HETATM   15  C20 UNL     1       2.353 -11.398 -23.857  1.00  0.00     0.014 C 
HETATM   16  C21 UNL     1       3.575 -10.607 -23.666  1.00  0.00     0.038 C 
HETATM   17  C22 UNL     1       3.330  -9.088 -23.698  1.00  0.00     0.031 C 
HETATM   18  C23 UNL     1       4.584  -8.516 -24.208  1.00  0.00     0.033 C 
HETATM   19  C24 UNL     1       5.856  -9.270 -23.772  1.00  0.00     0.011 C 
HETATM   20  C25 UNL     1       6.060  -8.147 -22.740  1.00  0.00     0.045 C 
HETATM   21  C26 UNL     1       5.232  -7.330 -23.745  1.00  0.00     0.115 C 
HETATM   22  F1  UNL     1       6.178  -6.923 -24.724  1.00  0.00    -0.242 F 
ENDROOT
BRANCH   1  23
HETATM   23  C2  UNL     1       3.698  -3.820 -25.605  1.00  0.00     0.269 C 
HETATM   24  O2  UNL     1       4.677  -4.287 -26.195  1.00  0.00    -0.264 OA
BRANCH  23  25
HETATM   25  O1  UNL     1       2.985  -2.798 -26.212  1.00  0.00    -0.326 OA
HETATM   26  C1  UNL     1       3.565  -1.928 -27.177  1.00  0.00     0.213 C 
ENDBRANCH  23  25
ENDBRANCH   1  23
BRANCH   3  27
HETATM   27  O3  UNL     1       3.734  -2.066 -23.710  1.00  0.00    -0.394 OA
ATOM     28  H3  UNL     1       4.442  -1.606 -23.277  1.00  0.00     0.210 HD
ENDBRANCH   3  27
BRANCH  14  29
HETATM   29  C16 UNL     1       0.040 -11.907 -24.293  1.00  0.00     0.185 C 
HETATM   30  O5  UNL     1       0.311 -13.102 -24.596  1.00  0.00    -0.290 OA
BRANCH  29  31
HETATM   31  C17 UNL     1      -1.360 -11.511 -24.120  1.00  0.00     0.054 C 
HETATM   32  C18 UNL     1      -2.006 -11.260 -25.462  1.00  0.00     0.018 C 
HETATM   33  C19 UNL     1      -2.096 -12.670 -23.438  1.00  0.00     0.018 C 
ENDBRANCH  29  31
ENDBRANCH  14  29
TORSDOF 5
ENDMDL
MODEL 5
REMARK VINA RESULT: -6.346920556      7.017      9.597
REMARK  5 active torsions:
REMARK  status: ('A' for Active; 'I' for Inactive)
REMARK    1  A    between atoms: O1_2  and  C2_3 
REMARK    2  A    between atoms: C2_3  and  C3_5 
REMARK    3  A    between atoms: C5_7  and  O3_8 
REMARK    4  A    between atoms: C15_20  and  C16_21 
REMARK    5  A    between atoms: C16_21  and  C17_23 
ROOT
HETATM    1  C3  UNL     1       1.318  -4.386 -33.854  1.00  0.00     0.074 C 
HETATM    2  C4  UNL     1      -0.226  -4.347 -33.845  1.00  0.00     0.029 C 
HETATM    3  C5  UNL     1       1.682  -2.972 -34.220  1.00  0.00     0.136 C 
HETATM    4  C6  UNL     1       3.102  -2.622 -34.016  1.00  0.00     0.034 C 
HETATM    5  C7  UNL     1       3.861  -3.724 -33.396  1.00  0.00     0.015 C 
HETATM    6  C8  UNL     1       3.183  -4.276 -32.124  1.00  0.00    -0.003 C 
HETATM    7  C9  UNL     1       2.995  -3.020 -31.293  1.00  0.00     0.019 C 
HETATM    8  C10 UNL     1       1.883  -4.886 -32.584  1.00  0.00     0.017 C 
HETATM    9  C11 UNL     1       0.956  -4.881 -31.392  1.00  0.00     0.010 C 
HETATM   10  C12 UNL     1       0.596  -6.248 -30.961  1.00  0.00     0.039 C 
HETATM   11  C13 UNL     1       1.430  -6.911 -29.954  1.00  0.00     0.069 C 
HETATM   12  C14 UNL     1       1.789  -8.345 -30.370  1.00  0.00     0.047 C 
HETATM   13  O4  UNL     1       0.592  -7.092 -28.810  1.00  0.00    -0.337 OA
HETATM   14  C15 UNL     1       1.087  -7.630 -27.640  1.00  0.00     0.112 C 
HETATM   15  C20 UNL     1       2.361  -7.514 -27.464  1.00  0.00     0.014 C 
HETATM   16  C21 UNL     1       3.349  -6.886 -28.350  1.00  0.00     0.038 C 
HETATM   17  C22 UNL     1       2.720  -6.201 -29.576  1.00  0.00     0.031 C 
HETATM   18  C23 UNL     1       3.747  -6.290 -30.624  1.00  0.00     0.033 C 
HETATM   19  C24 UNL     1       5.196  -6.187 -30.110  1.00  0.00     0.011 C 
HETATM   20  C25 UNL     1       5.175  -4.732 -30.610  1.00  0.00     0.045 C 
HETATM   21  C26 UNL     1       4.098  -5.273 -31.564  1.00  0.00     0.115 C 
HETATM   22  F1  UNL     1       4.838  -5.872 -32.619  1.00  0.00    -0.242 F 
ENDROOT
BRANCH   1  23
HETATM   23  C2  UNL     1       1.590  -5.317 -35.005  1.00  0.00     0.269 C 
HETATM   24  O2  UNL     1       0.782  -5.611 -35.891  1.00  0.00    -0.264 OA
BRANCH  23  25
HETATM   25  O1  UNL     1       2.856  -5.878 -35.051  1.00  0.00    -0.326 OA
HETATM   26  C1  UNL     1       3.116  -7.130 -35.677  1.00  0.00     0.213 C 
ENDBRANCH  23  25
ENDBRANCH   1  23
BRANCH   3  27
HETATM   27  O3  UNL     1       1.303  -2.815 -35.576  1.00  0.00    -0.394 OA
ATOM     28  H3  UNL     1       1.002  -1.918 -35.658  1.00  0.00     0.210 HD
ENDBRANCH   3  27
BRANCH  14  29
HETATM   29  C16 UNL     1       0.233  -8.292 -26.650  1.00  0.00     0.185 C 
HETATM   30  O5  UNL     1      -0.374  -7.559 -25.819  1.00  0.00    -0.290 OA
BRANCH  29  31
HETATM   31  C17 UNL     1       0.056  -9.745 -26.586  1.00  0.00     0.054 C 
HETATM   32  C18 UNL     1      -0.396 -10.160 -25.205  1.00  0.00     0.018 C 
HETATM   33  C19 UNL     1      -1.036 -10.132 -27.588  1.00  0.00     0.018 C 
ENDBRANCH  29  31
ENDBRANCH  14  29
TORSDOF 5
ENDMDL
