MODEL 1
REMARK VINA RESULT: -8.152545023      0.000      0.000
REMARK  13 active torsions:
REMARK  status: ('A' for Active; 'I' for Inactive)
REMARK    1  A    between atoms: C2_2  and  C3_3 
REMARK    2  A    between atoms: C3_3  and  C5_5 
REMARK    3  A    between atoms: C5_5  and  C6_6 
REMARK    4  A    between atoms: C5_5  and  N1_9 
REMARK    5  A    between atoms: C6_6  and  O1_7 
REMARK    6  A    between atoms: C11_13  and  C12_14 
REMARK    7  A    between atoms: C12_14  and  N2_15 
REMARK    8  A    between atoms: N2_15  and  C13_16 
REMARK    9  A    between atoms: N2_15  and  C18_22 
REMARK   10  A    between atoms: C13_16  and  C14_17 
REMARK   11  A    between atoms: C22_26  and  N3_27 
REMARK   12  A    between atoms: C29_35  and  C30_36 
REMARK   13  A    between atoms: C30_36  and  O3_37 
ROOT
HETATM    1  N2  UNL     1       3.771   1.391 -21.887  1.00  0.00    -0.333 N 
ENDROOT
BRANCH   1   2
HETATM    2  C12 UNL     1       3.493   1.231 -23.296  1.00  0.00     0.076 C 
BRANCH   2   3
HETATM    3  C11 UNL     1       4.450   0.714 -24.245  1.00  0.00     0.052 C 
HETATM    4  C9  UNL     1       4.457   1.657 -25.470  1.00  0.00     0.031 C 
HETATM    5  C8  UNL     1       5.878   1.904 -25.926  1.00  0.00     0.083 C 
HETATM    6  C10 UNL     1       3.832   2.991 -25.178  1.00  0.00     0.016 C 
HETATM    7  N1  UNL     1       6.393   0.993 -26.870  1.00  0.00    -0.266 N 
HETATM    8  S1  UNL     1       5.683  -0.529 -26.968  1.00  0.00     0.321 S 
HETATM    9  N5  UNL     1       5.366  -1.209 -25.417  1.00  0.00    -0.302 N 
HETATM   10  O4  UNL     1       4.445  -0.556 -27.835  1.00  0.00    -0.182 OA
HETATM   11  O5  UNL     1       6.643  -1.475 -27.673  1.00  0.00    -0.182 OA
HETATM   12  C31 UNL     1       4.112  -0.630 -24.903  1.00  0.00     0.144 C 
ATOM     13  H5  UNL     1       5.947  -1.896 -24.936  1.00  0.00     0.173 HD
BRANCH   7  14
HETATM   14  C5  UNL     1       7.762   1.113 -27.170  1.00  0.00     0.129 C 
BRANCH  14  15
HETATM   15  C3  UNL     1       8.097   2.198 -28.206  1.00  0.00     0.007 C 
HETATM   16  C4  UNL     1       9.107   1.578 -29.187  1.00  0.00     0.012 C 
BRANCH  15  17
HETATM   17  C2  UNL     1       8.779   3.395 -27.609  1.00  0.00     0.002 C 
HETATM   18  C1  UNL     1       9.290   4.256 -28.759  1.00  0.00     0.005 C 
ENDBRANCH  15  17
ENDBRANCH  14  15
BRANCH  14  19
HETATM   19  C6  UNL     1       8.643   1.198 -25.986  1.00  0.00     0.193 C 
BRANCH  19  20
HETATM   20  O1  UNL     1       9.119  -0.005 -25.561  1.00  0.00    -0.394 OA
HETATM   21  C7  UNL     1       8.724  -0.318 -24.288  1.00  0.00     0.201 C 
ENDBRANCH  19  20
ENDBRANCH  14  19
ENDBRANCH   7  14
ENDBRANCH   2   3
ENDBRANCH   1   2
BRANCH   1  22
HETATM   22  C13 UNL     1       5.075   1.430 -21.334  1.00  0.00     0.128 C 
BRANCH  22  23
HETATM   23  C14 UNL     1       6.040   2.507 -21.555  1.00  0.00     0.062 C 
HETATM   24  C15 UNL     1       7.450   2.188 -21.901  1.00  0.00     0.068 C 
HETATM   25  C16 UNL     1       7.693   3.225 -23.026  1.00  0.00     0.033 C 
HETATM   26  C17 UNL     1       6.778   4.344 -22.503  1.00  0.00     0.175 C 
HETATM   27  O2  UNL     1       5.634   3.662 -22.164  1.00  0.00    -0.354 OA
ENDBRANCH  22  23
ENDBRANCH   1  22
BRANCH   1  28
HETATM   28  C18 UNL     1       2.594   1.450 -21.103  1.00  0.00     0.052 A 
HETATM   29  C19 UNL     1       1.885   0.306 -20.807  1.00  0.00    -0.032 A 
HETATM   30  C20 UNL     1       2.242  -1.011 -21.437  1.00  0.00     0.050 C 
HETATM   31  C21 UNL     1       0.773   0.320 -19.994  1.00  0.00     0.038 A 
HETATM   32  C22 UNL     1       0.313   1.472 -19.444  1.00  0.00     0.031 A 
HETATM   33  C28 UNL     1       1.001   2.631 -19.728  1.00  0.00     0.041 A 
HETATM   34  C29 UNL     1       2.132   2.607 -20.558  1.00  0.00    -0.005 A 
BRANCH  32  35
HETATM   35  N3  UNL     1      -0.837   1.453 -18.629  1.00  0.00    -0.377 N 
HETATM   36  C23 UNL     1      -1.025   2.357 -17.539  1.00  0.00     0.153 C 
HETATM   37  C24 UNL     1      -2.394   2.999 -17.534  1.00  0.00     0.291 C 
HETATM   38  N4  UNL     1      -3.428   2.076 -17.930  1.00  0.00     0.087 N 
HETATM   39  C25 UNL     1      -4.744   2.613 -17.818  1.00  0.00     0.310 C 
HETATM   40  C26 UNL     1      -3.149   1.365 -19.129  1.00  0.00     0.291 C 
HETATM   41  C27 UNL     1      -1.892   0.508 -18.893  1.00  0.00     0.153 C 
ENDBRANCH  32  35
BRANCH  34  42
HETATM   42  C30 UNL     1       2.664   3.954 -20.867  1.00  0.00     0.205 C 
BRANCH  42  43
HETATM   43  O3  UNL     1       3.649   4.375 -19.959  1.00  0.00    -0.396 OA
ATOM     44  H3  UNL     1       4.357   3.749 -19.865  1.00  0.00     0.209 HD
ENDBRANCH  42  43
ENDBRANCH  34  42
ENDBRANCH   1  28
TORSDOF 13
ENDMDL
MODEL 2
REMARK VINA RESULT: -8.013419452      1.035      1.123
REMARK  13 active torsions:
REMARK  status: ('A' for Active; 'I' for Inactive)
REMARK    1  A    between atoms: C2_2  and  C3_3 
REMARK    2  A    between atoms: C3_3  and  C5_5 
REMARK    3  A    between atoms: C5_5  and  C6_6 
REMARK    4  A    between atoms: C5_5  and  N1_9 
REMARK    5  A    between atoms: C6_6  and  O1_7 
REMARK    6  A    between atoms: C11_13  and  C12_14 
REMARK    7  A    between atoms: C12_14  and  N2_15 
REMARK    8  A    between atoms: N2_15  and  C13_16 
REMARK    9  A    between atoms: N2_15  and  C18_22 
REMARK   10  A    between atoms: C13_16  and  C14_17 
REMARK   11  A    between atoms: C22_26  and  N3_27 
REMARK   12  A    between atoms: C29_35  and  C30_36 
REMARK   13  A    between atoms: C30_36  and  O3_37 
ROOT
HETATM    1  N2  UNL     1       3.597   1.317 -21.840  1.00  0.00    -0.333 N 
ENDROOT
BRANCH   1   2
HETATM    2  C12 UNL     1       3.244   1.077 -23.220  1.00  0.00     0.076 C 
BRANCH   2   3
HETATM    3  C11 UNL     1       4.022   0.251 -24.111  1.00  0.00     0.052 C 
HETATM    4  C9  UNL     1       4.021   0.925 -25.502  1.00  0.00     0.031 C 
HETATM    5  C8  UNL     1       5.406   0.866 -26.108  1.00  0.00     0.083 C 
HETATM    6  C10 UNL     1       3.606   2.367 -25.447  1.00  0.00     0.016 C 
HETATM    7  N1  UNL     1       5.699  -0.276 -26.878  1.00  0.00    -0.266 N 
HETATM    8  S1  UNL     1       4.793  -1.667 -26.602  1.00  0.00     0.321 S 
HETATM    9  N5  UNL     1       4.556  -1.978 -24.924  1.00  0.00    -0.302 N 
HETATM   10  O4  UNL     1       3.477  -1.682 -27.347  1.00  0.00    -0.182 OA
HETATM   11  O5  UNL     1       5.545  -2.864 -27.167  1.00  0.00    -0.182 OA
HETATM   12  C31 UNL     1       3.447  -1.132 -24.448  1.00  0.00     0.144 C 
ATOM     13  H5  UNL     1       5.092  -2.635 -24.357  1.00  0.00     0.173 HD
BRANCH   7  14
HETATM   14  C5  UNL     1       7.032  -0.420 -27.300  1.00  0.00     0.129 C 
BRANCH  14  15
HETATM   15  C3  UNL     1       7.485   0.609 -28.348  1.00  0.00     0.007 C 
HETATM   16  C4  UNL     1       8.111  -0.184 -29.509  1.00  0.00     0.012 C 
BRANCH  15  17
HETATM   17  C2  UNL     1       8.560   1.531 -27.848  1.00  0.00     0.002 C 
HETATM   18  C1  UNL     1       7.944   2.915 -27.686  1.00  0.00     0.005 C 
ENDBRANCH  15  17
ENDBRANCH  14  15
BRANCH  14  19
HETATM   19  C6  UNL     1       8.013  -0.547 -26.201  1.00  0.00     0.193 C 
BRANCH  19  20
HETATM   20  O1  UNL     1       8.510  -1.804 -26.044  1.00  0.00    -0.394 OA
HETATM   21  C7  UNL     1       8.208  -2.352 -24.826  1.00  0.00     0.201 C 
ENDBRANCH  19  20
ENDBRANCH  14  19
ENDBRANCH   7  14
ENDBRANCH   2   3
ENDBRANCH   1   2
BRANCH   1  22
HETATM   22  C13 UNL     1       4.928   1.348 -21.354  1.00  0.00     0.128 C 
BRANCH  22  23
HETATM   23  C14 UNL     1       5.951   2.299 -21.788  1.00  0.00     0.062 C 
HETATM   24  C15 UNL     1       6.901   1.933 -22.871  1.00  0.00     0.068 C 
HETATM   25  C16 UNL     1       6.894   3.247 -23.691  1.00  0.00     0.033 C 
HETATM   26  C17 UNL     1       6.669   4.234 -22.534  1.00  0.00     0.175 C 
HETATM   27  O2  UNL     1       5.659   3.634 -21.821  1.00  0.00    -0.354 OA
ENDBRANCH  22  23
ENDBRANCH   1  22
BRANCH   1  28
HETATM   28  C18 UNL     1       2.464   1.468 -21.005  1.00  0.00     0.052 A 
HETATM   29  C19 UNL     1       1.718   0.373 -20.625  1.00  0.00    -0.032 A 
HETATM   30  C20 UNL     1       1.982  -0.986 -21.211  1.00  0.00     0.050 C 
HETATM   31  C21 UNL     1       0.649   0.476 -19.763  1.00  0.00     0.038 A 
HETATM   32  C22 UNL     1       0.270   1.672 -19.244  1.00  0.00     0.031 A 
HETATM   33  C28 UNL     1       0.997   2.783 -19.613  1.00  0.00     0.041 A 
HETATM   34  C29 UNL     1       2.084   2.668 -20.491  1.00  0.00    -0.005 A 
BRANCH  32  35
HETATM   35  N3  UNL     1      -0.839   1.744 -18.376  1.00  0.00    -0.377 N 
HETATM   36  C23 UNL     1      -1.356   2.982 -17.888  1.00  0.00     0.153 C 
HETATM   37  C24 UNL     1      -2.859   3.085 -18.011  1.00  0.00     0.291 C 
HETATM   38  N4  UNL     1      -3.514   1.832 -17.725  1.00  0.00     0.087 N 
HETATM   39  C25 UNL     1      -4.937   1.924 -17.714  1.00  0.00     0.310 C 
HETATM   40  C26 UNL     1      -2.971   0.716 -18.419  1.00  0.00     0.291 C 
HETATM   41  C27 UNL     1      -1.511   0.538 -17.964  1.00  0.00     0.153 C 
ENDBRANCH  32  35
BRANCH  34  42
HETATM   42  C30 UNL     1       2.662   3.973 -20.885  1.00  0.00     0.205 C 
BRANCH  42  43
HETATM   43  O3  UNL     1       3.664   4.415 -20.007  1.00  0.00    -0.396 OA
ATOM     44  H3  UNL     1       3.746   5.361 -19.985  1.00  0.00     0.209 HD
ENDBRANCH  42  43
ENDBRANCH  34  42
ENDBRANCH   1  28
TORSDOF 13
ENDMDL
MODEL 3
REMARK VINA RESULT: -7.998991280      1.588      2.157
REMARK  13 active torsions:
REMARK  status: ('A' for Active; 'I' for Inactive)
REMARK    1  A    between atoms: C2_2  and  C3_3 
REMARK    2  A    between atoms: C3_3  and  C5_5 
REMARK    3  A    between atoms: C5_5  and  C6_6 
REMARK    4  A    between atoms: C5_5  and  N1_9 
REMARK    5  A    between atoms: C6_6  and  O1_7 
REMARK    6  A    between atoms: C11_13  and  C12_14 
REMARK    7  A    between atoms: C12_14  and  N2_15 
REMARK    8  A    between atoms: N2_15  and  C13_16 
REMARK    9  A    between atoms: N2_15  and  C18_22 
REMARK   10  A    between atoms: C13_16  and  C14_17 
REMARK   11  A    between atoms: C22_26  and  N3_27 
REMARK   12  A    between atoms: C29_35  and  C30_36 
REMARK   13  A    between atoms: C30_36  and  O3_37 
ROOT
HETATM    1  N2  UNL     1       3.343   1.109 -21.855  1.00  0.00    -0.333 N 
ENDROOT
BRANCH   1   2
HETATM    2  C12 UNL     1       2.972   0.779 -23.211  1.00  0.00     0.076 C 
BRANCH   2   3
HETATM    3  C11 UNL     1       3.809   0.013 -24.104  1.00  0.00     0.052 C 
HETATM    4  C9  UNL     1       3.804   0.720 -25.479  1.00  0.00     0.031 C 
HETATM    5  C8  UNL     1       5.203   0.744 -26.055  1.00  0.00     0.083 C 
HETATM    6  C10 UNL     1       3.317   2.138 -25.399  1.00  0.00     0.016 C 
HETATM    7  N1  UNL     1       5.568  -0.364 -26.844  1.00  0.00    -0.266 N 
HETATM    8  S1  UNL     1       4.726  -1.804 -26.621  1.00  0.00     0.321 S 
HETATM    9  N5  UNL     1       4.470  -2.166 -24.956  1.00  0.00    -0.302 N 
HETATM   10  O4  UNL     1       3.429  -1.865 -27.395  1.00  0.00    -0.182 OA
HETATM   11  O5  UNL     1       5.548  -2.949 -27.196  1.00  0.00    -0.182 OA
HETATM   12  C31 UNL     1       3.311  -1.388 -24.485  1.00  0.00     0.144 C 
ATOM     13  H5  UNL     1       5.025  -2.810 -24.392  1.00  0.00     0.173 HD
BRANCH   7  14
HETATM   14  C5  UNL     1       6.915  -0.432 -27.240  1.00  0.00     0.129 C 
BRANCH  14  15
HETATM   15  C3  UNL     1       7.311   0.571 -28.335  1.00  0.00     0.007 C 
HETATM   16  C4  UNL     1       7.855  -0.251 -29.516  1.00  0.00     0.012 C 
BRANCH  15  17
HETATM   17  C2  UNL     1       8.425   1.491 -27.921  1.00  0.00     0.002 C 
HETATM   18  C1  UNL     1       7.823   2.873 -27.696  1.00  0.00     0.005 C 
ENDBRANCH  15  17
ENDBRANCH  14  15
BRANCH  14  19
HETATM   19  C6  UNL     1       7.883  -0.430 -26.122  1.00  0.00     0.193 C 
BRANCH  19  20
HETATM   20  O1  UNL     1       7.703  -1.443 -25.230  1.00  0.00    -0.394 OA
HETATM   21  C7  UNL     1       7.720  -1.019 -23.928  1.00  0.00     0.201 C 
ENDBRANCH  19  20
ENDBRANCH  14  19
ENDBRANCH   7  14
ENDBRANCH   2   3
ENDBRANCH   1   2
BRANCH   1  22
HETATM   22  C13 UNL     1       4.676   1.335 -21.428  1.00  0.00     0.128 C 
BRANCH  22  23
HETATM   23  C14 UNL     1       5.684   2.063 -22.197  1.00  0.00     0.062 C 
HETATM   24  C15 UNL     1       5.384   3.418 -22.729  1.00  0.00     0.068 C 
HETATM   25  C16 UNL     1       6.709   4.143 -22.385  1.00  0.00     0.033 C 
HETATM   26  C17 UNL     1       7.664   2.948 -22.532  1.00  0.00     0.175 C 
HETATM   27  O2  UNL     1       7.003   1.950 -21.856  1.00  0.00    -0.354 OA
ENDBRANCH  22  23
ENDBRANCH   1  22
BRANCH   1  28
HETATM   28  C18 UNL     1       2.233   1.131 -20.977  1.00  0.00     0.052 A 
HETATM   29  C19 UNL     1       1.789   2.316 -20.432  1.00  0.00    -0.032 A 
HETATM   30  C20 UNL     1       2.560   3.593 -20.621  1.00  0.00     0.050 C 
HETATM   31  C21 UNL     1       0.674   2.382 -19.626  1.00  0.00     0.038 A 
HETATM   32  C22 UNL     1      -0.046   1.273 -19.321  1.00  0.00     0.031 A 
HETATM   33  C28 UNL     1       0.381   0.074 -19.848  1.00  0.00     0.041 A 
HETATM   34  C29 UNL     1       1.518   0.017 -20.668  1.00  0.00    -0.005 A 
BRANCH  32  35
HETATM   35  N3  UNL     1      -1.173   1.373 -18.479  1.00  0.00    -0.377 N 
HETATM   36  C23 UNL     1      -1.287   2.368 -17.461  1.00  0.00     0.153 C 
HETATM   37  C24 UNL     1      -2.624   3.074 -17.473  1.00  0.00     0.291 C 
HETATM   38  N4  UNL     1      -3.711   2.174 -17.769  1.00  0.00     0.087 N 
HETATM   39  C25 UNL     1      -4.997   2.782 -17.669  1.00  0.00     0.310 C 
HETATM   40  C26 UNL     1      -3.499   1.359 -18.915  1.00  0.00     0.291 C 
HETATM   41  C27 UNL     1      -2.277   0.463 -18.642  1.00  0.00     0.153 C 
ENDBRANCH  32  35
BRANCH  34  42
HETATM   42  C30 UNL     1       1.911  -1.363 -21.034  1.00  0.00     0.205 C 
BRANCH  42  43
HETATM   43  O3  UNL     1       0.811  -2.193 -21.301  1.00  0.00    -0.396 OA
ATOM     44  H3  UNL     1       0.943  -3.087 -21.010  1.00  0.00     0.209 HD
ENDBRANCH  42  43
ENDBRANCH  34  42
ENDBRANCH   1  28
TORSDOF 13
ENDMDL
MODEL 4
REMARK VINA RESULT: -7.977972547      1.062      1.709
REMARK  13 active torsions:
REMARK  status: ('A' for Active; 'I' for Inactive)
REMARK    1  A    between atoms: C2_2  and  C3_3 
REMARK    2  A    between atoms: C3_3  and  C5_5 
REMARK    3  A    between atoms: C5_5  and  C6_6 
REMARK    4  A    between atoms: C5_5  and  N1_9 
REMARK    5  A    between atoms: C6_6  and  O1_7 
REMARK    6  A    between atoms: C11_13  and  C12_14 
REMARK    7  A    between atoms: C12_14  and  N2_15 
REMARK    8  A    between atoms: N2_15  and  C13_16 
REMARK    9  A    between atoms: N2_15  and  C18_22 
REMARK   10  A    between atoms: C13_16  and  C14_17 
REMARK   11  A    between atoms: C22_26  and  N3_27 
REMARK   12  A    between atoms: C29_35  and  C30_36 
REMARK   13  A    between atoms: C30_36  and  O3_37 
ROOT
HETATM    1  N2  UNL     1       3.650   1.339 -21.767  1.00  0.00    -0.333 N 
ENDROOT
BRANCH   1   2
HETATM    2  C12 UNL     1       3.361   1.212 -23.177  1.00  0.00     0.076 C 
BRANCH   2   3
HETATM    3  C11 UNL     1       4.301   0.690 -24.140  1.00  0.00     0.052 C 
HETATM    4  C9  UNL     1       4.317   1.649 -25.353  1.00  0.00     0.031 C 
HETATM    5  C8  UNL     1       5.739   1.874 -25.817  1.00  0.00     0.083 C 
HETATM    6  C10 UNL     1       3.721   2.991 -25.037  1.00  0.00     0.016 C 
HETATM    7  N1  UNL     1       6.229   0.966 -26.776  1.00  0.00    -0.266 N 
HETATM    8  S1  UNL     1       5.487  -0.540 -26.890  1.00  0.00     0.321 S 
HETATM    9  N5  UNL     1       5.169  -1.235 -25.346  1.00  0.00    -0.302 N 
HETATM   10  O4  UNL     1       4.242  -0.531 -27.747  1.00  0.00    -0.182 OA
HETATM   11  O5  UNL     1       6.423  -1.495 -27.616  1.00  0.00    -0.182 OA
HETATM   12  C31 UNL     1       3.930  -0.638 -24.815  1.00  0.00     0.144 C 
ATOM     13  H5  UNL     1       5.740  -1.940 -24.879  1.00  0.00     0.173 HD
BRANCH   7  14
HETATM   14  C5  UNL     1       7.597   1.063 -27.086  1.00  0.00     0.129 C 
BRANCH  14  15
HETATM   15  C3  UNL     1       7.939   2.112 -28.156  1.00  0.00     0.007 C 
HETATM   16  C4  UNL     1       9.032   1.497 -29.047  1.00  0.00     0.012 C 
BRANCH  15  17
HETATM   17  C2  UNL     1       8.526   3.370 -27.586  1.00  0.00     0.002 C 
HETATM   18  C1  UNL     1       9.112   4.172 -28.742  1.00  0.00     0.005 C 
ENDBRANCH  15  17
ENDBRANCH  14  15
BRANCH  14  19
HETATM   19  C6  UNL     1       8.485   1.175 -25.908  1.00  0.00     0.193 C 
BRANCH  19  20
HETATM   20  O1  UNL     1       8.928  -0.020 -25.431  1.00  0.00    -0.394 OA
HETATM   21  C7  UNL     1       8.496  -0.282 -24.158  1.00  0.00     0.201 C 
ENDBRANCH  19  20
ENDBRANCH  14  19
ENDBRANCH   7  14
ENDBRANCH   2   3
ENDBRANCH   1   2
BRANCH   1  22
HETATM   22  C13 UNL     1       4.957   1.441 -21.230  1.00  0.00     0.128 C 
BRANCH  22  23
HETATM   23  C14 UNL     1       5.881   2.545 -21.491  1.00  0.00     0.062 C 
HETATM   24  C15 UNL     1       7.316   2.271 -21.766  1.00  0.00     0.068 C 
HETATM   25  C16 UNL     1       7.554   3.240 -22.950  1.00  0.00     0.033 C 
HETATM   26  C17 UNL     1       6.571   4.347 -22.536  1.00  0.00     0.175 C 
HETATM   27  O2  UNL     1       5.446   3.635 -22.191  1.00  0.00    -0.354 OA
ENDBRANCH  22  23
ENDBRANCH   1  22
BRANCH   1  28
HETATM   28  C18 UNL     1       2.484   1.298 -20.966  1.00  0.00     0.052 A 
HETATM   29  C19 UNL     1       1.995   2.442 -20.373  1.00  0.00    -0.032 A 
HETATM   30  C20 UNL     1       2.768   3.730 -20.420  1.00  0.00     0.050 C 
HETATM   31  C21 UNL     1       0.829   2.448 -19.640  1.00  0.00     0.038 A 
HETATM   32  C22 UNL     1       0.098   1.319 -19.462  1.00  0.00     0.031 A 
HETATM   33  C28 UNL     1       0.568   0.160 -20.041  1.00  0.00     0.041 A 
HETATM   34  C29 UNL     1       1.757   0.163 -20.784  1.00  0.00    -0.005 A 
BRANCH  32  35
HETATM   35  N3  UNL     1      -1.083   1.358 -18.693  1.00  0.00    -0.377 N 
HETATM   36  C23 UNL     1      -1.231   2.202 -17.550  1.00  0.00     0.153 C 
HETATM   37  C24 UNL     1      -2.532   2.972 -17.550  1.00  0.00     0.291 C 
HETATM   38  N4  UNL     1      -3.631   2.182 -18.047  1.00  0.00     0.087 N 
HETATM   39  C25 UNL     1      -4.894   2.837 -17.947  1.00  0.00     0.310 C 
HETATM   40  C26 UNL     1      -3.369   1.529 -19.283  1.00  0.00     0.291 C 
HETATM   41  C27 UNL     1      -2.210   0.540 -19.061  1.00  0.00     0.153 C 
ENDBRANCH  32  35
BRANCH  34  42
HETATM   42  C30 UNL     1       2.184  -1.187 -21.217  1.00  0.00     0.205 C 
BRANCH  42  43
HETATM   43  O3  UNL     1       1.251  -1.811 -22.061  1.00  0.00    -0.396 OA
ATOM     44  H3  UNL     1       1.225  -2.753 -21.950  1.00  0.00     0.209 HD
ENDBRANCH  42  43
ENDBRANCH  34  42
ENDBRANCH   1  28
TORSDOF 13
ENDMDL
MODEL 5
REMARK VINA RESULT: -7.827171544      2.543      3.733
REMARK  13 active torsions:
REMARK  status: ('A' for Active; 'I' for Inactive)
REMARK    1  A    between atoms: C2_2  and  C3_3 
REMARK    2  A    between atoms: C3_3  and  C5_5 
REMARK    3  A    between atoms: C5_5  and  C6_6 
REMARK    4  A    between atoms: C5_5  and  N1_9 
REMARK    5  A    between atoms: C6_6  and  O1_7 
REMARK    6  A    between atoms: C11_13  and  C12_14 
REMARK    7  A    between atoms: C12_14  and  N2_15 
REMARK    8  A    between atoms: N2_15  and  C13_16 
REMARK    9  A    between atoms: N2_15  and  C18_22 
REMARK   10  A    between atoms: C13_16  and  C14_17 
REMARK   11  A    between atoms: C22_26  and  N3_27 
REMARK   12  A    between atoms: C29_35  and  C30_36 
REMARK   13  A    between atoms: C30_36  and  O3_37 
ROOT
HETATM    1  N2  UNL     1       3.678  -1.498 -23.305  1.00  0.00    -0.333 N 
ENDROOT
BRANCH   1   2
HETATM    2  C12 UNL     1       3.470  -1.168 -24.696  1.00  0.00     0.076 C 
BRANCH   2   3
HETATM    3  C11 UNL     1       4.446  -1.419 -25.730  1.00  0.00     0.052 C 
HETATM    4  C9  UNL     1       4.522  -0.160 -26.623  1.00  0.00     0.031 C 
HETATM    5  C8  UNL     1       5.965   0.157 -26.951  1.00  0.00     0.083 C 
HETATM    6  C10 UNL     1       3.924   1.052 -25.968  1.00  0.00     0.016 C 
HETATM    7  N1  UNL     1       6.487  -0.456 -28.106  1.00  0.00    -0.266 N 
HETATM    8  S1  UNL     1       5.738  -1.855 -28.666  1.00  0.00     0.321 S 
HETATM    9  N5  UNL     1       5.348  -2.948 -27.392  1.00  0.00    -0.302 N 
HETATM   10  O4  UNL     1       4.532  -1.582 -29.534  1.00  0.00    -0.182 OA
HETATM   11  O5  UNL     1       6.696  -2.589 -29.593  1.00  0.00    -0.182 OA
HETATM   12  C31 UNL     1       4.093  -2.498 -26.763  1.00  0.00     0.144 C 
ATOM     13  H5  UNL     1       5.893  -3.766 -27.119  1.00  0.00     0.173 HD
BRANCH   7  14
HETATM   14  C5  UNL     1       7.868  -0.305 -28.323  1.00  0.00     0.129 C 
BRANCH  14  15
HETATM   15  C3  UNL     1       8.269   1.015 -29.000  1.00  0.00     0.007 C 
HETATM   16  C4  UNL     1       9.286   0.661 -30.099  1.00  0.00     0.012 C 
BRANCH  15  17
HETATM   17  C2  UNL     1       8.972   1.967 -28.075  1.00  0.00     0.002 C 
HETATM   18  C1  UNL     1       8.005   3.101 -27.757  1.00  0.00     0.005 C 
ENDBRANCH  15  17
ENDBRANCH  14  15
BRANCH  14  19
HETATM   19  C6  UNL     1       8.709  -0.588 -27.140  1.00  0.00     0.193 C 
BRANCH  19  20
HETATM   20  O1  UNL     1       8.994  -1.908 -26.965  1.00  0.00    -0.394 OA
HETATM   21  C7  UNL     1       9.828  -2.408 -27.929  1.00  0.00     0.201 C 
ENDBRANCH  19  20
ENDBRANCH  14  19
ENDBRANCH   7  14
ENDBRANCH   2   3
ENDBRANCH   1   2
BRANCH   1  22
HETATM   22  C13 UNL     1       4.548  -2.520 -22.852  1.00  0.00     0.128 C 
BRANCH  22  23
HETATM   23  C14 UNL     1       4.116  -3.848 -22.414  1.00  0.00     0.062 C 
HETATM   24  C15 UNL     1       4.861  -5.058 -22.850  1.00  0.00     0.068 C 
HETATM   25  C16 UNL     1       4.913  -5.839 -21.514  1.00  0.00     0.033 C 
HETATM   26  C17 UNL     1       3.576  -5.364 -20.923  1.00  0.00     0.175 C 
HETATM   27  O2  UNL     1       3.610  -4.010 -21.155  1.00  0.00    -0.354 OA
ENDBRANCH  22  23
ENDBRANCH   1  22
BRANCH   1  28
HETATM   28  C18 UNL     1       2.873  -0.723 -22.435  1.00  0.00     0.052 A 
HETATM   29  C19 UNL     1       1.588  -1.114 -22.128  1.00  0.00    -0.032 A 
HETATM   30  C20 UNL     1       0.944  -2.278 -22.827  1.00  0.00     0.050 C 
HETATM   31  C21 UNL     1       0.802  -0.418 -21.236  1.00  0.00     0.038 A 
HETATM   32  C22 UNL     1       1.256   0.700 -20.614  1.00  0.00     0.031 A 
HETATM   33  C28 UNL     1       2.537   1.115 -20.908  1.00  0.00     0.041 A 
HETATM   34  C29 UNL     1       3.329   0.400 -21.818  1.00  0.00    -0.005 A 
BRANCH  32  35
HETATM   35  N3  UNL     1       0.420   1.397 -19.719  1.00  0.00    -0.377 N 
HETATM   36  C23 UNL     1       0.266   2.816 -19.754  1.00  0.00     0.153 C 
HETATM   37  C24 UNL     1      -1.179   3.256 -19.696  1.00  0.00     0.291 C 
HETATM   38  N4  UNL     1      -1.960   2.438 -18.801  1.00  0.00     0.087 N 
HETATM   39  C25 UNL     1      -3.299   2.899 -18.630  1.00  0.00     0.310 C 
HETATM   40  C26 UNL     1      -1.809   1.039 -19.005  1.00  0.00     0.291 C 
HETATM   41  C27 UNL     1      -0.339   0.674 -18.730  1.00  0.00     0.153 C 
ENDBRANCH  32  35
BRANCH  34  42
HETATM   42  C30 UNL     1       4.620   1.060 -22.119  1.00  0.00     0.205 C 
BRANCH  42  43
HETATM   43  O3  UNL     1       5.379   1.328 -20.969  1.00  0.00    -0.396 OA
ATOM     44  H3  UNL     1       5.054   2.072 -20.477  1.00  0.00     0.209 HD
ENDBRANCH  42  43
ENDBRANCH  34  42
ENDBRANCH   1  28
TORSDOF 13
ENDMDL
