MODEL 1
REMARK VINA RESULT: -9.250139381      0.000      0.000
REMARK  13 active torsions:
REMARK  status: ('A' for Active; 'I' for Inactive)
REMARK    1  A    between atoms: C2_2  and  N1_3 
REMARK    2  A    between atoms: N1_3  and  C3_4 
REMARK       I    between atoms: N1_3  and  C5_6 
REMARK    3  A    between atoms: C5_6  and  C6_8 
REMARK    4  A    between atoms: C6_8  and  C7_9 
REMARK    5  A    between atoms: C12_14  and  C13_15 
REMARK    6  A    between atoms: C13_15  and  C14_16 
REMARK    7  A    between atoms: C13_15  and  N2_20 
REMARK    8  A    between atoms: C14_16  and  C15_17 
REMARK       I    between atoms: N2_20  and  C18_22 
REMARK    9  A    between atoms: C18_22  and  C19_24 
REMARK       I    between atoms: C19_24  and  N3_26 
REMARK   10  A    between atoms: N4_29  and  C22_30 
REMARK   11  A    between atoms: N5_38  and  C30_39 
REMARK   12  A    between atoms: C30_39  and  O4_40 
REMARK   13  A    between atoms: C30_39  and  C31_42 
ROOT
HETATM    1  C7  UNL     1       0.147   1.798 -20.062  1.00  0.00     0.234 C 
HETATM    2  C8  UNL     1       0.273   0.509 -19.343  1.00  0.00     0.038 C 
HETATM    3  C9  UNL     1       1.253  -0.284 -20.216  1.00  0.00     0.038 C 
HETATM    4  C10 UNL     1       1.610   0.646 -21.301  1.00  0.00     0.228 C 
HETATM    5  C11 UNL     1       3.011   0.526 -21.859  1.00  0.00     0.074 C 
HETATM    6  C12 UNL     1       3.412   1.973 -22.148  1.00  0.00     0.253 C 
HETATM    7  N5  UNL     1       3.633   2.702 -20.969  1.00  0.00     0.159 N 
HETATM    8  C33 UNL     1       2.316   2.755 -20.288  1.00  0.00     0.548 C 
HETATM    9  N6  UNL     1       1.306   1.982 -20.879  1.00  0.00     0.126 N 
ENDROOT
BRANCH   6  10
HETATM   10  C13 UNL     1       4.349   2.019 -23.285  1.00  0.00     0.118 C 
BRANCH  10  11
HETATM   11  C14 UNL     1       3.799   2.766 -24.491  1.00  0.00     0.031 C 
BRANCH  11  12
HETATM   12  C15 UNL     1       4.827   3.620 -25.180  1.00  0.00    -0.021 C 
HETATM   13  C16 UNL     1       5.618   2.910 -26.229  1.00  0.00     0.009 C 
HETATM   14  C17 UNL     1       5.799   4.229 -24.187  1.00  0.00     0.009 C 
ENDBRANCH  11  12
ENDBRANCH  10  11
BRANCH  10  15
HETATM   15  N2  UNL     1       4.464   0.632 -23.779  1.00  0.00    -0.346 N 
HETATM   16  C18 UNL     1       5.583  -0.183 -23.625  1.00  0.00     0.309 C 
HETATM   17  O2  UNL     1       6.596   0.244 -23.027  1.00  0.00    -0.262 OA
ATOM     18  H2  UNL     1       3.660   0.240 -24.270  1.00  0.00     0.163 HD
BRANCH  16  19
HETATM   19  C19 UNL     1       5.594  -1.528 -24.152  1.00  0.00     0.311 C 
HETATM   20  O3  UNL     1       5.256  -2.488 -23.381  1.00  0.00    -0.262 OA
HETATM   21  N3  UNL     1       5.955  -1.864 -25.475  1.00  0.00    -0.341 N 
HETATM   22  C20 UNL     1       5.934  -3.250 -25.914  1.00  0.00     0.156 C 
HETATM   23  C29 UNL     1       6.346  -0.863 -26.427  1.00  0.00     0.156 C 
HETATM   24  C21 UNL     1       5.152  -3.399 -27.202  1.00  0.00     0.292 C 
HETATM   25  N4  UNL     1       5.407  -2.290 -28.109  1.00  0.00     0.096 N 
HETATM   26  C28 UNL     1       6.580  -1.566 -27.772  1.00  0.00     0.292 C 
BRANCH  25  27
HETATM   27  C22 UNL     1       5.272  -2.692 -29.477  1.00  0.00     0.223 C 
HETATM   28  C23 UNL     1       5.320  -1.475 -30.383  1.00  0.00     0.036 C 
HETATM   29  C24 UNL     1       4.831  -1.855 -31.764  1.00  0.00     0.002 C 
HETATM   30  C25 UNL     1       5.747  -2.925 -32.321  1.00  0.00     0.000 C 
HETATM   31  C26 UNL     1       5.908  -4.079 -31.391  1.00  0.00     0.002 C 
HETATM   32  C27 UNL     1       6.269  -3.686 -29.969  1.00  0.00     0.036 C 
ENDBRANCH  25  27
ENDBRANCH  16  19
ENDBRANCH  10  15
ENDBRANCH   6  10
BRANCH   7  33
HETATM   33  C30 UNL     1       4.599   2.367 -20.013  1.00  0.00     0.429 C 
BRANCH  33  34
HETATM   34  O4  UNL     1       5.492   1.361 -20.421  1.00  0.00    -0.362 OA
ATOM     35  H4  UNL     1       5.841   0.836 -19.711  1.00  0.00     0.212 HD
ENDBRANCH  33  34
BRANCH  33  36
HETATM   36  C31 UNL     1       5.397   3.410 -19.364  1.00  0.00     0.181 C 
HETATM   37  C32 UNL     1       5.595   3.487 -17.872  1.00  0.00     0.096 C 
HETATM   38  O5  UNL     1       5.939   4.264 -20.015  1.00  0.00    -0.294 OA
ENDBRANCH  33  36
ENDBRANCH   7  33
BRANCH   1  39
HETATM   39  C6  UNL     1      -0.177   2.995 -19.217  1.00  0.00     0.139 C 
BRANCH  39  40
HETATM   40  C5  UNL     1      -1.211   2.626 -18.223  1.00  0.00     0.221 C 
HETATM   41  N1  UNL     1      -2.603   2.730 -18.508  1.00  0.00    -0.353 N 
HETATM   42  O1  UNL     1      -0.924   2.203 -17.073  1.00  0.00    -0.273 OA
BRANCH  41  43
HETATM   43  C2  UNL     1      -3.606   2.377 -17.542  1.00  0.00     0.121 C 
HETATM   44  C1  UNL     1      -4.336   3.556 -16.983  1.00  0.00     0.026 C 
ENDBRANCH  41  43
BRANCH  41  45
HETATM   45  C3  UNL     1      -2.996   3.202 -19.815  1.00  0.00     0.121 C 
HETATM   46  C4  UNL     1      -3.551   2.101 -20.693  1.00  0.00     0.026 C 
ENDBRANCH  41  45
ENDBRANCH  39  40
ENDBRANCH   1  39
TORSDOF 13
ENDMDL
MODEL 2
REMARK VINA RESULT: -9.164673046      2.636      8.641
REMARK  13 active torsions:
REMARK  status: ('A' for Active; 'I' for Inactive)
REMARK    1  A    between atoms: C2_2  and  N1_3 
REMARK    2  A    between atoms: N1_3  and  C3_4 
REMARK       I    between atoms: N1_3  and  C5_6 
REMARK    3  A    between atoms: C5_6  and  C6_8 
REMARK    4  A    between atoms: C6_8  and  C7_9 
REMARK    5  A    between atoms: C12_14  and  C13_15 
REMARK    6  A    between atoms: C13_15  and  C14_16 
REMARK    7  A    between atoms: C13_15  and  N2_20 
REMARK    8  A    between atoms: C14_16  and  C15_17 
REMARK       I    between atoms: N2_20  and  C18_22 
REMARK    9  A    between atoms: C18_22  and  C19_24 
REMARK       I    between atoms: C19_24  and  N3_26 
REMARK   10  A    between atoms: N4_29  and  C22_30 
REMARK   11  A    between atoms: N5_38  and  C30_39 
REMARK   12  A    between atoms: C30_39  and  O4_40 
REMARK   13  A    between atoms: C30_39  and  C31_42 
ROOT
HETATM    1  C7  UNL     1       4.531  -2.305 -27.085  1.00  0.00     0.234 C 
HETATM    2  C8  UNL     1       5.560  -3.083 -27.813  1.00  0.00     0.038 C 
HETATM    3  C9  UNL     1       6.504  -2.000 -28.349  1.00  0.00     0.038 C 
HETATM    4  C10 UNL     1       5.942  -0.740 -27.834  1.00  0.00     0.228 C 
HETATM    5  C11 UNL     1       6.931   0.361 -27.517  1.00  0.00     0.074 C 
HETATM    6  C12 UNL     1       6.350   1.021 -26.267  1.00  0.00     0.253 C 
HETATM    7  N5  UNL     1       6.465   0.196 -25.136  1.00  0.00     0.159 N 
HETATM    8  C33 UNL     1       5.615  -0.985 -25.425  1.00  0.00     0.548 C 
HETATM    9  N6  UNL     1       5.086  -1.038 -26.723  1.00  0.00     0.126 N 
ENDROOT
BRANCH   6  10
HETATM   10  C13 UNL     1       6.715   2.449 -26.235  1.00  0.00     0.118 C 
BRANCH  10  11
HETATM   11  C14 UNL     1       8.215   2.690 -26.325  1.00  0.00     0.031 C 
BRANCH  11  12
HETATM   12  C15 UNL     1       8.572   3.932 -27.094  1.00  0.00    -0.021 C 
HETATM   13  C16 UNL     1       8.925   3.694 -28.525  1.00  0.00     0.009 C 
HETATM   14  C17 UNL     1       9.722   4.677 -26.441  1.00  0.00     0.009 C 
ENDBRANCH  11  12
ENDBRANCH  10  11
BRANCH  10  15
HETATM   15  N2  UNL     1       6.383   2.927 -24.878  1.00  0.00    -0.346 N 
HETATM   16  C18 UNL     1       5.170   3.502 -24.507  1.00  0.00     0.309 C 
HETATM   17  O2  UNL     1       4.256   3.645 -25.350  1.00  0.00    -0.262 OA
ATOM     18  H2  UNL     1       7.097   2.828 -24.157  1.00  0.00     0.163 HD
BRANCH  16  19
HETATM   19  C19 UNL     1       4.947   3.943 -23.149  1.00  0.00     0.311 C 
HETATM   20  O3  UNL     1       5.311   5.123 -22.824  1.00  0.00    -0.262 OA
HETATM   21  N3  UNL     1       4.348   3.156 -22.142  1.00  0.00    -0.341 N 
HETATM   22  C20 UNL     1       4.166   3.689 -20.802  1.00  0.00     0.156 C 
HETATM   23  C29 UNL     1       3.897   1.818 -22.401  1.00  0.00     0.156 C 
HETATM   24  C21 UNL     1       2.737   3.504 -20.335  1.00  0.00     0.292 C 
HETATM   25  N4  UNL     1       2.206   2.213 -20.747  1.00  0.00     0.096 N 
HETATM   26  C28 UNL     1       3.224   1.298 -21.122  1.00  0.00     0.292 C 
BRANCH  25  27
HETATM   27  C22 UNL     1       1.221   1.734 -19.825  1.00  0.00     0.223 C 
HETATM   28  C23 UNL     1       0.097   2.746 -19.693  1.00  0.00     0.036 C 
HETATM   29  C24 UNL     1      -0.743   2.411 -18.479  1.00  0.00     0.002 C 
HETATM   30  C25 UNL     1      -1.337   1.030 -18.674  1.00  0.00     0.000 C 
HETATM   31  C26 UNL     1      -0.306   0.007 -19.004  1.00  0.00     0.002 C 
HETATM   32  C27 UNL     1       0.624   0.404 -20.138  1.00  0.00     0.036 C 
ENDBRANCH  25  27
ENDBRANCH  16  19
ENDBRANCH  10  15
ENDBRANCH   6  10
BRANCH   7  33
HETATM   33  C30 UNL     1       7.684  -0.265 -24.626  1.00  0.00     0.429 C 
BRANCH  33  34
HETATM   34  O4  UNL     1       8.205   0.514 -23.579  1.00  0.00    -0.362 OA
ATOM     35  H4  UNL     1       9.142   0.666 -23.633  1.00  0.00     0.212 HD
ENDBRANCH  33  34
BRANCH  33  36
HETATM   36  C31 UNL     1       7.844  -1.668 -24.236  1.00  0.00     0.181 C 
HETATM   37  C32 UNL     1       8.395  -2.722 -25.161  1.00  0.00     0.096 C 
HETATM   38  O5  UNL     1       7.534  -2.039 -23.135  1.00  0.00    -0.294 OA
ENDBRANCH  33  36
ENDBRANCH   7  33
BRANCH   1  39
HETATM   39  C6  UNL     1       3.863  -3.007 -25.939  1.00  0.00     0.139 C 
BRANCH  39  40
HETATM   40  C5  UNL     1       2.602  -2.305 -25.604  1.00  0.00     0.221 C 
HETATM   41  N1  UNL     1       1.976  -2.447 -24.332  1.00  0.00    -0.353 N 
HETATM   42  O1  UNL     1       2.012  -1.547 -26.416  1.00  0.00    -0.273 OA
BRANCH  41  43
HETATM   43  C2  UNL     1       0.750  -1.770 -24.007  1.00  0.00     0.121 C 
HETATM   44  C1  UNL     1       0.944  -0.340 -23.619  1.00  0.00     0.026 C 
ENDBRANCH  41  43
BRANCH  41  45
HETATM   45  C3  UNL     1       2.610  -3.298 -23.352  1.00  0.00     0.121 C 
HETATM   46  C4  UNL     1       3.374  -2.516 -22.304  1.00  0.00     0.026 C 
ENDBRANCH  41  45
ENDBRANCH  39  40
ENDBRANCH   1  39
TORSDOF 13
ENDMDL
MODEL 3
REMARK VINA RESULT: -9.146578249      2.519      4.038
REMARK  13 active torsions:
REMARK  status: ('A' for Active; 'I' for Inactive)
REMARK    1  A    between atoms: C2_2  and  N1_3 
REMARK    2  A    between atoms: N1_3  and  C3_4 
REMARK       I    between atoms: N1_3  and  C5_6 
REMARK    3  A    between atoms: C5_6  and  C6_8 
REMARK    4  A    between atoms: C6_8  and  C7_9 
REMARK    5  A    between atoms: C12_14  and  C13_15 
REMARK    6  A    between atoms: C13_15  and  C14_16 
REMARK    7  A    between atoms: C13_15  and  N2_20 
REMARK    8  A    between atoms: C14_16  and  C15_17 
REMARK       I    between atoms: N2_20  and  C18_22 
REMARK    9  A    between atoms: C18_22  and  C19_24 
REMARK       I    between atoms: C19_24  and  N3_26 
REMARK   10  A    between atoms: N4_29  and  C22_30 
REMARK   11  A    between atoms: N5_38  and  C30_39 
REMARK   12  A    between atoms: C30_39  and  O4_40 
REMARK   13  A    between atoms: C30_39  and  C31_42 
ROOT
HETATM    1  C7  UNL     1       0.010   1.648 -20.095  1.00  0.00     0.234 C 
HETATM    2  C8  UNL     1       0.155   0.405 -19.302  1.00  0.00     0.038 C 
HETATM    3  C9  UNL     1       1.091  -0.452 -20.162  1.00  0.00     0.038 C 
HETATM    4  C10 UNL     1       1.413   0.405 -21.316  1.00  0.00     0.228 C 
HETATM    5  C11 UNL     1       2.789   0.234 -21.921  1.00  0.00     0.074 C 
HETATM    6  C12 UNL     1       3.190   1.655 -22.316  1.00  0.00     0.253 C 
HETATM    7  N5  UNL     1       3.466   2.455 -21.195  1.00  0.00     0.159 N 
HETATM    8  C33 UNL     1       2.178   2.564 -20.466  1.00  0.00     0.548 C 
HETATM    9  N6  UNL     1       1.137   1.768 -20.967  1.00  0.00     0.126 N 
ENDROOT
BRANCH   6  10
HETATM   10  C13 UNL     1       4.081   1.620 -23.490  1.00  0.00     0.118 C 
BRANCH  10  11
HETATM   11  C14 UNL     1       3.624   2.530 -24.621  1.00  0.00     0.031 C 
BRANCH  11  12
HETATM   12  C15 UNL     1       4.696   3.474 -25.093  1.00  0.00    -0.021 C 
HETATM   13  C16 UNL     1       5.566   2.931 -26.177  1.00  0.00     0.009 C 
HETATM   14  C17 UNL     1       5.588   3.918 -23.948  1.00  0.00     0.009 C 
ENDBRANCH  11  12
ENDBRANCH  10  11
BRANCH  10  15
HETATM   15  N2  UNL     1       3.939   0.271 -24.072  1.00  0.00    -0.346 N 
HETATM   16  C18 UNL     1       4.986  -0.499 -24.574  1.00  0.00     0.309 C 
HETATM   17  O2  UNL     1       6.158  -0.061 -24.550  1.00  0.00    -0.262 OA
ATOM     18  H2  UNL     1       3.001  -0.129 -24.109  1.00  0.00     0.163 HD
BRANCH  16  19
HETATM   19  C19 UNL     1       4.738  -1.810 -25.129  1.00  0.00     0.311 C 
HETATM   20  O3  UNL     1       4.473  -1.904 -26.375  1.00  0.00    -0.262 OA
HETATM   21  N3  UNL     1       4.768  -3.010 -24.386  1.00  0.00    -0.341 N 
HETATM   22  C20 UNL     1       4.505  -4.284 -25.035  1.00  0.00     0.156 C 
HETATM   23  C29 UNL     1       5.060  -3.019 -22.981  1.00  0.00     0.156 C 
HETATM   24  C21 UNL     1       5.594  -5.288 -24.720  1.00  0.00     0.292 C 
HETATM   25  N4  UNL     1       6.026  -5.185 -23.334  1.00  0.00     0.096 N 
HETATM   26  C28 UNL     1       5.097  -4.484 -22.522  1.00  0.00     0.292 C 
BRANCH  25  27
HETATM   27  C22 UNL     1       6.490  -6.445 -22.835  1.00  0.00     0.223 C 
HETATM   28  C23 UNL     1       6.948  -7.322 -23.986  1.00  0.00     0.036 C 
HETATM   29  C24 UNL     1       7.097  -8.749 -23.504  1.00  0.00     0.002 C 
HETATM   30  C25 UNL     1       8.145  -8.778 -22.409  1.00  0.00     0.000 C 
HETATM   31  C26 UNL     1       7.865  -7.793 -21.326  1.00  0.00     0.002 C 
HETATM   32  C27 UNL     1       7.583  -6.386 -21.822  1.00  0.00     0.036 C 
ENDBRANCH  25  27
ENDBRANCH  16  19
ENDBRANCH  10  15
ENDBRANCH   6  10
BRANCH   7  33
HETATM   33  C30 UNL     1       4.466   2.168 -20.259  1.00  0.00     0.429 C 
BRANCH  33  34
HETATM   34  O4  UNL     1       5.585   1.506 -20.792  1.00  0.00    -0.362 OA
ATOM     35  H4  UNL     1       5.691   0.611 -20.491  1.00  0.00     0.212 HD
ENDBRANCH  33  34
BRANCH  33  36
HETATM   36  C31 UNL     1       4.974   3.215 -19.369  1.00  0.00     0.181 C 
HETATM   37  C32 UNL     1       5.980   2.951 -18.278  1.00  0.00     0.096 C 
HETATM   38  O5  UNL     1       4.598   4.352 -19.478  1.00  0.00    -0.294 OA
ENDBRANCH  33  36
ENDBRANCH   7  33
BRANCH   1  39
HETATM   39  C6  UNL     1      -0.268   2.899 -19.314  1.00  0.00     0.139 C 
BRANCH  39  40
HETATM   40  C5  UNL     1      -1.303   2.617 -18.293  1.00  0.00     0.221 C 
HETATM   41  N1  UNL     1      -2.693   2.760 -18.569  1.00  0.00    -0.353 N 
HETATM   42  O1  UNL     1      -1.019   2.238 -17.127  1.00  0.00    -0.273 OA
BRANCH  41  43
HETATM   43  C2  UNL     1      -3.698   2.492 -17.576  1.00  0.00     0.121 C 
HETATM   44  C1  UNL     1      -4.270   3.728 -16.959  1.00  0.00     0.026 C 
ENDBRANCH  41  43
BRANCH  41  45
HETATM   45  C3  UNL     1      -3.084   3.185 -19.892  1.00  0.00     0.121 C 
HETATM   46  C4  UNL     1      -3.654   2.056 -20.725  1.00  0.00     0.026 C 
ENDBRANCH  41  45
ENDBRANCH  39  40
ENDBRANCH   1  39
TORSDOF 13
ENDMDL
MODEL 4
REMARK VINA RESULT: -9.144700425      2.513     10.341
REMARK  13 active torsions:
REMARK  status: ('A' for Active; 'I' for Inactive)
REMARK    1  A    between atoms: C2_2  and  N1_3 
REMARK    2  A    between atoms: N1_3  and  C3_4 
REMARK       I    between atoms: N1_3  and  C5_6 
REMARK    3  A    between atoms: C5_6  and  C6_8 
REMARK    4  A    between atoms: C6_8  and  C7_9 
REMARK    5  A    between atoms: C12_14  and  C13_15 
REMARK    6  A    between atoms: C13_15  and  C14_16 
REMARK    7  A    between atoms: C13_15  and  N2_20 
REMARK    8  A    between atoms: C14_16  and  C15_17 
REMARK       I    between atoms: N2_20  and  C18_22 
REMARK    9  A    between atoms: C18_22  and  C19_24 
REMARK       I    between atoms: C19_24  and  N3_26 
REMARK   10  A    between atoms: N4_29  and  C22_30 
REMARK   11  A    between atoms: N5_38  and  C30_39 
REMARK   12  A    between atoms: C30_39  and  O4_40 
REMARK   13  A    between atoms: C30_39  and  C31_42 
ROOT
HETATM    1  C7  UNL     1       6.559  -2.919 -26.978  1.00  0.00     0.234 C 
HETATM    2  C8  UNL     1       6.495  -3.470 -25.604  1.00  0.00     0.038 C 
HETATM    3  C9  UNL     1       6.841  -2.263 -24.726  1.00  0.00     0.038 C 
HETATM    4  C10 UNL     1       7.015  -1.155 -25.681  1.00  0.00     0.228 C 
HETATM    5  C11 UNL     1       6.622   0.223 -25.197  1.00  0.00     0.074 C 
HETATM    6  C12 UNL     1       6.009   0.881 -26.433  1.00  0.00     0.253 C 
HETATM    7  N5  UNL     1       4.762   0.324 -26.761  1.00  0.00     0.159 N 
HETATM    8  C33 UNL     1       5.047  -1.085 -27.128  1.00  0.00     0.548 C 
HETATM    9  N6  UNL     1       6.368  -1.504 -26.912  1.00  0.00     0.126 N 
ENDROOT
BRANCH   6  10
HETATM   10  C13 UNL     1       6.229   2.338 -26.390  1.00  0.00     0.118 C 
BRANCH  10  11
HETATM   11  C14 UNL     1       7.674   2.738 -26.652  1.00  0.00     0.031 C 
BRANCH  11  12
HETATM   12  C15 UNL     1       8.039   2.722 -28.111  1.00  0.00    -0.021 C 
HETATM   13  C16 UNL     1       8.753   1.488 -28.556  1.00  0.00     0.009 C 
HETATM   14  C17 UNL     1       8.891   3.921 -28.483  1.00  0.00     0.009 C 
ENDBRANCH  11  12
ENDBRANCH  10  11
BRANCH  10  15
HETATM   15  N2  UNL     1       6.023   2.743 -24.985  1.00  0.00    -0.346 N 
HETATM   16  C18 UNL     1       4.921   3.451 -24.510  1.00  0.00     0.309 C 
HETATM   17  O2  UNL     1       4.006   3.792 -25.292  1.00  0.00    -0.262 OA
ATOM     18  H2  UNL     1       6.742   2.483 -24.310  1.00  0.00     0.163 HD
BRANCH  16  19
HETATM   19  C19 UNL     1       4.818   3.803 -23.112  1.00  0.00     0.311 C 
HETATM   20  O3  UNL     1       5.315   4.914 -22.725  1.00  0.00    -0.262 OA
HETATM   21  N3  UNL     1       4.199   3.000 -22.131  1.00  0.00    -0.341 N 
HETATM   22  C20 UNL     1       4.144   3.441 -20.746  1.00  0.00     0.156 C 
HETATM   23  C29 UNL     1       3.604   1.735 -22.457  1.00  0.00     0.156 C 
HETATM   24  C21 UNL     1       2.732   3.357 -20.206  1.00  0.00     0.292 C 
HETATM   25  N4  UNL     1       2.053   2.159 -20.678  1.00  0.00     0.096 N 
HETATM   26  C28 UNL     1       2.953   1.183 -21.181  1.00  0.00     0.292 C 
BRANCH  25  27
HETATM   27  C22 UNL     1       1.077   1.705 -19.734  1.00  0.00     0.223 C 
HETATM   28  C23 UNL     1       0.044   2.790 -19.492  1.00  0.00     0.036 C 
HETATM   29  C24 UNL     1      -0.763   2.453 -18.257  1.00  0.00     0.002 C 
HETATM   30  C25 UNL     1      -1.473   1.135 -18.494  1.00  0.00     0.000 C 
HETATM   31  C26 UNL     1      -0.542   0.056 -18.930  1.00  0.00     0.002 C 
HETATM   32  C27 UNL     1       0.363   0.444 -20.086  1.00  0.00     0.036 C 
ENDBRANCH  25  27
ENDBRANCH  16  19
ENDBRANCH  10  15
ENDBRANCH   6  10
BRANCH   7  33
HETATM   33  C30 UNL     1       3.655   0.331 -25.905  1.00  0.00     0.429 C 
BRANCH  33  34
HETATM   34  O4  UNL     1       2.685   1.298 -26.221  1.00  0.00    -0.362 OA
ATOM     35  H4  UNL     1       2.079   1.490 -25.516  1.00  0.00     0.212 HD
ENDBRANCH  33  34
BRANCH  33  36
HETATM   36  C31 UNL     1       2.938  -0.911 -25.607  1.00  0.00     0.181 C 
HETATM   37  C32 UNL     1       3.134  -1.687 -24.330  1.00  0.00     0.096 C 
HETATM   38  O5  UNL     1       2.147  -1.369 -26.388  1.00  0.00    -0.294 OA
ENDBRANCH  33  36
ENDBRANCH   7  33
BRANCH   1  39
HETATM   39  C6  UNL     1       5.683  -3.587 -27.997  1.00  0.00     0.139 C 
BRANCH  39  40
HETATM   40  C5  UNL     1       6.481  -3.880 -29.211  1.00  0.00     0.221 C 
HETATM   41  N1  UNL     1       6.088  -3.418 -30.500  1.00  0.00    -0.353 N 
HETATM   42  O1  UNL     1       7.545  -4.549 -29.177  1.00  0.00    -0.273 OA
BRANCH  41  43
HETATM   43  C2  UNL     1       6.858  -3.706 -31.679  1.00  0.00     0.121 C 
HETATM   44  C1  UNL     1       6.209  -4.702 -32.586  1.00  0.00     0.026 C 
ENDBRANCH  41  43
BRANCH  41  45
HETATM   45  C3  UNL     1       4.878  -2.636 -30.603  1.00  0.00     0.121 C 
HETATM   46  C4  UNL     1       5.114  -1.270 -31.213  1.00  0.00     0.026 C 
ENDBRANCH  41  45
ENDBRANCH  39  40
ENDBRANCH   1  39
TORSDOF 13
ENDMDL
MODEL 5
REMARK VINA RESULT: -8.837880822      2.790      9.630
REMARK  13 active torsions:
REMARK  status: ('A' for Active; 'I' for Inactive)
REMARK    1  A    between atoms: C2_2  and  N1_3 
REMARK    2  A    between atoms: N1_3  and  C3_4 
REMARK       I    between atoms: N1_3  and  C5_6 
REMARK    3  A    between atoms: C5_6  and  C6_8 
REMARK    4  A    between atoms: C6_8  and  C7_9 
REMARK    5  A    between atoms: C12_14  and  C13_15 
REMARK    6  A    between atoms: C13_15  and  C14_16 
REMARK    7  A    between atoms: C13_15  and  N2_20 
REMARK    8  A    between atoms: C14_16  and  C15_17 
REMARK       I    between atoms: N2_20  and  C18_22 
REMARK    9  A    between atoms: C18_22  and  C19_24 
REMARK       I    between atoms: C19_24  and  N3_26 
REMARK   10  A    between atoms: N4_29  and  C22_30 
REMARK   11  A    between atoms: N5_38  and  C30_39 
REMARK   12  A    between atoms: C30_39  and  O4_40 
REMARK   13  A    between atoms: C30_39  and  C31_42 
ROOT
HETATM    1  C7  UNL     1       3.261  -3.365 -23.331  1.00  0.00     0.234 C 
HETATM    2  C8  UNL     1       1.894  -3.564 -23.866  1.00  0.00     0.038 C 
HETATM    3  C9  UNL     1       1.342  -2.136 -23.958  1.00  0.00     0.038 C 
HETATM    4  C10 UNL     1       2.460  -1.285 -23.514  1.00  0.00     0.228 C 
HETATM    5  C11 UNL     1       2.562   0.083 -24.154  1.00  0.00     0.074 C 
HETATM    6  C12 UNL     1       4.067   0.303 -24.302  1.00  0.00     0.253 C 
HETATM    7  N5  UNL     1       4.623  -0.521 -25.295  1.00  0.00     0.159 N 
HETATM    8  C33 UNL     1       4.443  -1.908 -24.799  1.00  0.00     0.548 C 
HETATM    9  N6  UNL     1       3.679  -2.031 -23.629  1.00  0.00     0.126 N 
ENDROOT
BRANCH   6  10
HETATM   10  C13 UNL     1       4.378   1.741 -24.214  1.00  0.00     0.118 C 
BRANCH  10  11
HETATM   11  C14 UNL     1       5.849   2.025 -23.948  1.00  0.00     0.031 C 
BRANCH  11  12
HETATM   12  C15 UNL     1       6.523   2.769 -25.067  1.00  0.00    -0.021 C 
HETATM   13  C16 UNL     1       7.274   3.986 -24.638  1.00  0.00     0.009 C 
HETATM   14  C17 UNL     1       5.529   3.180 -26.138  1.00  0.00     0.009 C 
ENDBRANCH  11  12
ENDBRANCH  10  11
BRANCH  10  15
HETATM   15  N2  UNL     1       3.718   2.229 -22.987  1.00  0.00    -0.346 N 
HETATM   16  C18 UNL     1       3.992   1.779 -21.697  1.00  0.00     0.309 C 
HETATM   17  O2  UNL     1       4.859   0.897 -21.509  1.00  0.00    -0.262 OA
ATOM     18  H2  UNL     1       3.006   2.952 -23.092  1.00  0.00     0.163 HD
BRANCH  16  19
HETATM   19  C19 UNL     1       3.283   2.321 -20.561  1.00  0.00     0.311 C 
HETATM   20  O3  UNL     1       3.795   3.312 -19.939  1.00  0.00    -0.262 OA
HETATM   21  N3  UNL     1       2.049   1.830 -20.082  1.00  0.00    -0.341 N 
HETATM   22  C20 UNL     1       1.411   2.443 -18.929  1.00  0.00     0.156 C 
HETATM   23  C29 UNL     1       1.384   0.724 -20.710  1.00  0.00     0.156 C 
HETATM   24  C21 UNL     1      -0.034   2.785 -19.227  1.00  0.00     0.292 C 
HETATM   25  N4  UNL     1      -0.673   1.745 -20.020  1.00  0.00     0.096 N 
HETATM   26  C28 UNL     1       0.042   0.519 -19.992  1.00  0.00     0.292 C 
BRANCH  25  27
HETATM   27  C22 UNL     1      -2.078   1.674 -19.754  1.00  0.00     0.223 C 
HETATM   28  C23 UNL     1      -2.359   0.598 -18.721  1.00  0.00     0.036 C 
HETATM   29  C24 UNL     1      -3.839   0.286 -18.707  1.00  0.00     0.002 C 
HETATM   30  C25 UNL     1      -4.592   1.546 -18.329  1.00  0.00     0.000 C 
HETATM   31  C26 UNL     1      -4.221   2.709 -19.183  1.00  0.00     0.002 C 
HETATM   32  C27 UNL     1      -2.725   2.940 -19.305  1.00  0.00     0.036 C 
ENDBRANCH  25  27
ENDBRANCH  16  19
ENDBRANCH  10  15
ENDBRANCH   6  10
BRANCH   7  33
HETATM   33  C30 UNL     1       4.236  -0.492 -26.640  1.00  0.00     0.429 C 
BRANCH  33  34
HETATM   34  O4  UNL     1       3.335   0.537 -26.961  1.00  0.00    -0.362 OA
ATOM     35  H4  UNL     1       3.408   0.858 -27.853  1.00  0.00     0.212 HD
ENDBRANCH  33  34
BRANCH  33  36
HETATM   36  C31 UNL     1       5.243  -0.527 -27.704  1.00  0.00     0.181 C 
HETATM   37  C32 UNL     1       6.657  -0.043 -27.515  1.00  0.00     0.096 C 
HETATM   38  O5  UNL     1       4.971  -0.954 -28.795  1.00  0.00    -0.294 OA
ENDBRANCH  33  36
ENDBRANCH   7  33
BRANCH   1  39
HETATM   39  C6  UNL     1       4.276  -4.401 -23.714  1.00  0.00     0.139 C 
BRANCH  39  40
HETATM   40  C5  UNL     1       4.722  -5.122 -22.500  1.00  0.00     0.221 C 
HETATM   41  N1  UNL     1       6.095  -5.412 -22.256  1.00  0.00    -0.353 N 
HETATM   42  O1  UNL     1       3.920  -5.520 -21.615  1.00  0.00    -0.273 OA
BRANCH  41  43
HETATM   43  C2  UNL     1       6.528  -6.116 -21.081  1.00  0.00     0.121 C 
HETATM   44  C1  UNL     1       7.520  -7.198 -21.365  1.00  0.00     0.026 C 
ENDBRANCH  41  43
BRANCH  41  45
HETATM   45  C3  UNL     1       7.066  -4.974 -23.232  1.00  0.00     0.121 C 
HETATM   46  C4  UNL     1       7.809  -3.727 -22.799  1.00  0.00     0.026 C 
ENDBRANCH  41  45
ENDBRANCH  39  40
ENDBRANCH   1  39
TORSDOF 13
ENDMDL
