MODEL 1
REMARK VINA RESULT: -5.460556645      0.000      0.000
REMARK  8 active torsions:
REMARK  status: ('A' for Active; 'I' for Inactive)
REMARK    1  A    between atoms: N1_2  and  C2_5 
REMARK    2  A    between atoms: C2_5  and  C3_6 
REMARK    3  A    between atoms: C3_6  and  C4_7 
REMARK    4  A    between atoms: C3_6  and  N4_18 
REMARK    5  A    between atoms: C4_7  and  N2_8 
REMARK    6  A    between atoms: N2_8  and  C5_10 
REMARK    7  A    between atoms: N4_18  and  C10_20 
REMARK    8  A    between atoms: C10_20  and  C11_21 
ROOT
HETATM    1  C3  UNL     1     -19.442  -3.700 -16.688  1.00  0.00     0.124 C 
ENDROOT
BRANCH   1   2
HETATM    2  C2  UNL     1     -19.439  -4.698 -17.796  1.00  0.00     0.258 C 
BRANCH   2   3
HETATM    3  N1  UNL     1     -20.655  -4.815 -18.536  1.00  0.00    -0.077 N 
HETATM    4  C1  UNL     1     -21.261  -6.109 -18.443  1.00  0.00     0.267 C 
ATOM      5  H12 UNL     1     -20.510  -4.554 -19.511  1.00  0.00     0.276 HD
ATOM      6  H11 UNL     1     -21.315  -4.088 -18.260  1.00  0.00     0.276 HD
ENDBRANCH   2   3
ENDBRANCH   1   2
BRANCH   1   7
HETATM    7  C4  UNL     1     -18.985  -4.304 -15.388  1.00  0.00     0.146 C 
BRANCH   7   8
HETATM    8  N2  UNL     1     -19.729  -5.521 -15.139  1.00  0.00    -0.388 N 
ATOM      9  H2  UNL     1     -19.698  -6.276 -15.824  1.00  0.00     0.159 HD
BRANCH   8  10
HETATM   10  C5  UNL     1     -20.511  -5.682 -13.948  1.00  0.00     0.034 A 
HETATM   11  C6  UNL     1     -21.389  -4.708 -13.541  1.00  0.00     0.046 A 
HETATM   12  C7  UNL     1     -22.157  -4.828 -12.398  1.00  0.00     0.093 A 
HETATM   13  N3  UNL     1     -22.038  -5.947 -11.651  1.00  0.00    -0.334 N 
HETATM   14  C8  UNL     1     -21.181  -6.912 -12.037  1.00  0.00     0.247 A 
ATOM     15  H3  UNL     1     -22.592  -6.060 -10.802  1.00  0.00     0.168 HD
HETATM   16  O1  UNL     1     -21.050  -7.969 -11.356  1.00  0.00    -0.268 OA
HETATM   17  C9  UNL     1     -20.401  -6.816 -13.179  1.00  0.00     0.103 A 
ENDBRANCH   8  10
ENDBRANCH   7   8
ENDBRANCH   1   7
BRANCH   1  18
HETATM   18  N4  UNL     1     -20.621  -2.940 -16.652  1.00  0.00    -0.389 N 
ATOM     19  H4  UNL     1     -21.514  -3.382 -16.871  1.00  0.00     0.159 HD
BRANCH  18  20
HETATM   20  C10 UNL     1     -20.586  -1.574 -16.317  1.00  0.00     0.114 C 
BRANCH  20  21
HETATM   21  C11 UNL     1     -21.397  -0.817 -17.340  1.00  0.00     0.064 A 
HETATM   22  C12 UNL     1     -21.575  -1.167 -18.655  1.00  0.00     0.122 A 
HETATM   23  N5  UNL     1     -22.365  -0.240 -19.251  1.00  0.00    -0.355 N 
HETATM   24  C13 UNL     1     -22.777  -0.274 -20.655  1.00  0.00     0.156 C 
HETATM   25  C14 UNL     1     -22.662   0.660 -18.310  1.00  0.00     0.182 A 
HETATM   26  N6  UNL     1     -22.080   0.320 -17.147  1.00  0.00    -0.350 N 
ATOM     27  H6  UNL     1     -22.146   0.838 -16.271  1.00  0.00     0.166 HD
ENDBRANCH  20  21
ENDBRANCH  18  20
ENDBRANCH   1  18
TORSDOF 8
ENDMDL
MODEL 2
REMARK VINA RESULT: -5.428743629      1.436      1.744
REMARK  8 active torsions:
REMARK  status: ('A' for Active; 'I' for Inactive)
REMARK    1  A    between atoms: N1_2  and  C2_5 
REMARK    2  A    between atoms: C2_5  and  C3_6 
REMARK    3  A    between atoms: C3_6  and  C4_7 
REMARK    4  A    between atoms: C3_6  and  N4_18 
REMARK    5  A    between atoms: C4_7  and  N2_8 
REMARK    6  A    between atoms: N2_8  and  C5_10 
REMARK    7  A    between atoms: N4_18  and  C10_20 
REMARK    8  A    between atoms: C10_20  and  C11_21 
ROOT
HETATM    1  C3  UNL     1     -18.321  -4.796 -16.024  1.00  0.00     0.124 C 
ENDROOT
BRANCH   1   2
HETATM    2  C2  UNL     1     -18.731  -6.033 -16.751  1.00  0.00     0.258 C 
BRANCH   2   3
HETATM    3  N1  UNL     1     -18.892  -7.205 -15.949  1.00  0.00    -0.077 N 
HETATM    4  C1  UNL     1     -20.225  -7.728 -15.958  1.00  0.00     0.267 C 
ATOM      5  H12 UNL     1     -18.578  -7.033 -14.994  1.00  0.00     0.276 HD
ATOM      6  H11 UNL     1     -18.221  -7.923 -16.223  1.00  0.00     0.276 HD
ENDBRANCH   2   3
ENDBRANCH   1   2
BRANCH   1   7
HETATM    7  C4  UNL     1     -18.001  -5.074 -14.581  1.00  0.00     0.146 C 
BRANCH   7   8
HETATM    8  N2  UNL     1     -18.944  -4.368 -13.739  1.00  0.00    -0.388 N 
ATOM      9  H2  UNL     1     -18.809  -3.373 -13.560  1.00  0.00     0.159 HD
BRANCH   8  10
HETATM   10  C5  UNL     1     -20.064  -5.044 -13.150  1.00  0.00     0.034 A 
HETATM   11  C6  UNL     1     -21.316  -4.480 -13.166  1.00  0.00     0.046 A 
HETATM   12  C7  UNL     1     -22.418  -5.100 -12.607  1.00  0.00     0.093 A 
HETATM   13  N3  UNL     1     -22.257  -6.306 -12.022  1.00  0.00    -0.334 N 
HETATM   14  C8  UNL     1     -21.034  -6.872 -11.998  1.00  0.00     0.247 A 
ATOM     15  H3  UNL     1     -23.053  -6.785 -11.601  1.00  0.00     0.168 HD
HETATM   16  O1  UNL     1     -20.855  -8.001 -11.458  1.00  0.00    -0.268 OA
HETATM   17  C9  UNL     1     -19.914  -6.271 -12.552  1.00  0.00     0.103 A 
ENDBRANCH   8  10
ENDBRANCH   7   8
ENDBRANCH   1   7
BRANCH   1  18
HETATM   18  N4  UNL     1     -19.172  -3.712 -16.286  1.00  0.00    -0.389 N 
ATOM     19  H4  UNL     1     -18.887  -2.770 -16.018  1.00  0.00     0.159 HD
BRANCH  18  20
HETATM   20  C10 UNL     1     -20.415  -3.910 -16.916  1.00  0.00     0.114 C 
BRANCH  20  21
HETATM   21  C11 UNL     1     -20.924  -2.568 -17.382  1.00  0.00     0.064 A 
HETATM   22  C12 UNL     1     -21.314  -2.247 -18.658  1.00  0.00     0.122 A 
HETATM   23  N5  UNL     1     -21.709  -0.950 -18.683  1.00  0.00    -0.355 N 
HETATM   24  C13 UNL     1     -22.192  -0.247 -19.871  1.00  0.00     0.156 C 
HETATM   25  C14 UNL     1     -21.561  -0.491 -17.437  1.00  0.00     0.182 A 
HETATM   26  N6  UNL     1     -21.086  -1.463 -16.641  1.00  0.00    -0.350 N 
ATOM     27  H6  UNL     1     -20.883  -1.376 -15.644  1.00  0.00     0.166 HD
ENDBRANCH  20  21
ENDBRANCH  18  20
ENDBRANCH   1  18
TORSDOF 8
ENDMDL
MODEL 3
REMARK VINA RESULT: -5.409566372      1.878      2.923
REMARK  8 active torsions:
REMARK  status: ('A' for Active; 'I' for Inactive)
REMARK    1  A    between atoms: N1_2  and  C2_5 
REMARK    2  A    between atoms: C2_5  and  C3_6 
REMARK    3  A    between atoms: C3_6  and  C4_7 
REMARK    4  A    between atoms: C3_6  and  N4_18 
REMARK    5  A    between atoms: C4_7  and  N2_8 
REMARK    6  A    between atoms: N2_8  and  C5_10 
REMARK    7  A    between atoms: N4_18  and  C10_20 
REMARK    8  A    between atoms: C10_20  and  C11_21 
ROOT
HETATM    1  C3  UNL     1     -18.790  -6.199 -16.357  1.00  0.00     0.124 C 
ENDROOT
BRANCH   1   2
HETATM    2  C2  UNL     1     -18.883  -7.683 -16.244  1.00  0.00     0.258 C 
BRANCH   2   3
HETATM    3  N1  UNL     1     -17.969  -8.299 -15.335  1.00  0.00    -0.077 N 
HETATM    4  C1  UNL     1     -16.920  -9.029 -15.981  1.00  0.00     0.267 C 
ATOM      5  H12 UNL     1     -18.466  -8.894 -14.671  1.00  0.00     0.276 HD
ATOM      6  H11 UNL     1     -17.583  -7.610 -14.690  1.00  0.00     0.276 HD
ENDBRANCH   2   3
ENDBRANCH   1   2
BRANCH   1   7
HETATM    7  C4  UNL     1     -18.360  -5.563 -15.063  1.00  0.00     0.146 C 
BRANCH   7   8
HETATM    8  N2  UNL     1     -19.430  -4.726 -14.564  1.00  0.00    -0.388 N 
ATOM      9  H2  UNL     1     -19.526  -3.773 -14.914  1.00  0.00     0.159 HD
BRANCH   8  10
HETATM   10  C5  UNL     1     -20.359  -5.213 -13.585  1.00  0.00     0.034 A 
HETATM   11  C6  UNL     1     -21.492  -4.503 -13.272  1.00  0.00     0.046 A 
HETATM   12  C7  UNL     1     -22.408  -4.940 -12.333  1.00  0.00     0.093 A 
HETATM   13  N3  UNL     1     -22.178  -6.110 -11.697  1.00  0.00    -0.334 N 
HETATM   14  C8  UNL     1     -21.070  -6.817 -11.993  1.00  0.00     0.247 A 
ATOM     15  H3  UNL     1     -22.836  -6.454 -10.999  1.00  0.00     0.168 HD
HETATM   16  O1  UNL     1     -20.831  -7.915 -11.414  1.00  0.00    -0.268 OA
HETATM   17  C9  UNL     1     -20.137  -6.401 -12.931  1.00  0.00     0.103 A 
ENDBRANCH   8  10
ENDBRANCH   7   8
ENDBRANCH   1   7
BRANCH   1  18
HETATM   18  N4  UNL     1     -19.905  -5.638 -16.998  1.00  0.00    -0.389 N 
ATOM     19  H4  UNL     1     -20.760  -5.470 -16.468  1.00  0.00     0.159 HD
BRANCH  18  20
HETATM   20  C10 UNL     1     -19.856  -5.304 -18.364  1.00  0.00     0.114 C 
BRANCH  20  21
HETATM   21  C11 UNL     1     -20.516  -3.959 -18.543  1.00  0.00     0.064 A 
HETATM   22  C12 UNL     1     -20.607  -2.967 -17.599  1.00  0.00     0.122 A 
HETATM   23  N5  UNL     1     -21.270  -1.912 -18.134  1.00  0.00    -0.355 N 
HETATM   24  C13 UNL     1     -21.562  -0.664 -17.428  1.00  0.00     0.156 C 
HETATM   25  C14 UNL     1     -21.576  -2.260 -19.387  1.00  0.00     0.182 A 
HETATM   26  N6  UNL     1     -21.124  -3.498 -19.646  1.00  0.00    -0.350 N 
ATOM     27  H6  UNL     1     -21.226  -4.001 -20.528  1.00  0.00     0.166 HD
ENDBRANCH  20  21
ENDBRANCH  18  20
ENDBRANCH   1  18
TORSDOF 8
ENDMDL
MODEL 4
REMARK VINA RESULT: -5.332197092      2.101      3.046
REMARK  8 active torsions:
REMARK  status: ('A' for Active; 'I' for Inactive)
REMARK    1  A    between atoms: N1_2  and  C2_5 
REMARK    2  A    between atoms: C2_5  and  C3_6 
REMARK    3  A    between atoms: C3_6  and  C4_7 
REMARK    4  A    between atoms: C3_6  and  N4_18 
REMARK    5  A    between atoms: C4_7  and  N2_8 
REMARK    6  A    between atoms: N2_8  and  C5_10 
REMARK    7  A    between atoms: N4_18  and  C10_20 
REMARK    8  A    between atoms: C10_20  and  C11_21 
ROOT
HETATM    1  C3  UNL     1     -20.303  -3.594 -16.912  1.00  0.00     0.124 C 
ENDROOT
BRANCH   1   2
HETATM    2  C2  UNL     1     -20.703  -3.407 -18.337  1.00  0.00     0.258 C 
BRANCH   2   3
HETATM    3  N1  UNL     1     -20.889  -4.602 -19.096  1.00  0.00    -0.077 N 
HETATM    4  C1  UNL     1     -21.292  -4.367 -20.450  1.00  0.00     0.267 C 
ATOM      5  H12 UNL     1     -21.546  -5.227 -18.628  1.00  0.00     0.276 HD
ATOM      6  H11 UNL     1     -20.051  -5.183 -19.065  1.00  0.00     0.276 HD
ENDBRANCH   2   3
ENDBRANCH   1   2
BRANCH   1   7
HETATM    7  C4  UNL     1     -20.841  -4.878 -16.343  1.00  0.00     0.146 C 
BRANCH   7   8
HETATM    8  N2  UNL     1     -20.074  -5.238 -15.169  1.00  0.00    -0.388 N 
ATOM      9  H2  UNL     1     -19.057  -5.292 -15.231  1.00  0.00     0.159 HD
BRANCH   8  10
HETATM   10  C5  UNL     1     -20.719  -5.520 -13.919  1.00  0.00     0.034 A 
HETATM   11  C6  UNL     1     -21.607  -4.631 -13.366  1.00  0.00     0.046 A 
HETATM   12  C7  UNL     1     -22.246  -4.868 -12.162  1.00  0.00     0.093 A 
HETATM   13  N3  UNL     1     -21.984  -6.018 -11.505  1.00  0.00    -0.334 N 
HETATM   14  C8  UNL     1     -21.114  -6.900 -12.035  1.00  0.00     0.247 A 
ATOM     15  H3  UNL     1     -22.440  -6.217 -10.615  1.00  0.00     0.168 HD
HETATM   16  O1  UNL     1     -20.852  -7.985 -11.440  1.00  0.00    -0.268 OA
HETATM   17  C9  UNL     1     -20.463  -6.687 -13.239  1.00  0.00     0.103 A 
ENDBRANCH   8  10
ENDBRANCH   7   8
ENDBRANCH   1   7
BRANCH   1  18
HETATM   18  N4  UNL     1     -20.490  -2.434 -16.145  1.00  0.00    -0.389 N 
ATOM     19  H4  UNL     1     -20.572  -2.508 -15.130  1.00  0.00     0.159 HD
BRANCH  18  20
HETATM   20  C10 UNL     1     -20.566  -1.171 -16.759  1.00  0.00     0.114 C 
BRANCH  20  21
HETATM   21  C11 UNL     1     -19.822  -0.182 -15.895  1.00  0.00     0.064 A 
HETATM   22  C12 UNL     1     -18.585  -0.368 -15.331  1.00  0.00     0.122 A 
HETATM   23  N5  UNL     1     -18.253   0.743 -14.627  1.00  0.00    -0.355 N 
HETATM   24  C13 UNL     1     -17.005   0.919 -13.884  1.00  0.00     0.156 C 
HETATM   25  C14 UNL     1     -19.276   1.591 -14.763  1.00  0.00     0.182 A 
HETATM   26  N6  UNL     1     -20.233   1.040 -15.529  1.00  0.00    -0.350 N 
ATOM     27  H6  UNL     1     -21.118   1.477 -15.788  1.00  0.00     0.166 HD
ENDBRANCH  20  21
ENDBRANCH  18  20
ENDBRANCH   1  18
TORSDOF 8
ENDMDL
MODEL 5
REMARK VINA RESULT: -5.317994490      2.607      3.686
REMARK  8 active torsions:
REMARK  status: ('A' for Active; 'I' for Inactive)
REMARK    1  A    between atoms: N1_2  and  C2_5 
REMARK    2  A    between atoms: C2_5  and  C3_6 
REMARK    3  A    between atoms: C3_6  and  C4_7 
REMARK    4  A    between atoms: C3_6  and  N4_18 
REMARK    5  A    between atoms: C4_7  and  N2_8 
REMARK    6  A    between atoms: N2_8  and  C5_10 
REMARK    7  A    between atoms: N4_18  and  C10_20 
REMARK    8  A    between atoms: C10_20  and  C11_21 
ROOT
HETATM    1  C3  UNL     1     -18.332  -6.207 -16.036  1.00  0.00     0.124 C 
ENDROOT
BRANCH   1   2
HETATM    2  C2  UNL     1     -18.504  -7.687 -15.974  1.00  0.00     0.258 C 
BRANCH   2   3
HETATM    3  N1  UNL     1     -17.505  -8.402 -15.245  1.00  0.00    -0.077 N 
HETATM    4  C1  UNL     1     -16.773  -9.341 -16.041  1.00  0.00     0.267 C 
ATOM      5  H12 UNL     1     -17.913  -8.861 -14.430  1.00  0.00     0.276 HD
ATOM      6  H11 UNL     1     -16.870  -7.756 -14.776  1.00  0.00     0.276 HD
ENDBRANCH   2   3
ENDBRANCH   1   2
BRANCH   1   7
HETATM    7  C4  UNL     1     -18.052  -5.617 -14.680  1.00  0.00     0.146 C 
BRANCH   7   8
HETATM    8  N2  UNL     1     -19.154  -4.761 -14.295  1.00  0.00    -0.388 N 
ATOM      9  H2  UNL     1     -19.188  -3.802 -14.640  1.00  0.00     0.159 HD
BRANCH   8  10
HETATM   10  C5  UNL     1     -20.199  -5.238 -13.436  1.00  0.00     0.034 A 
HETATM   11  C6  UNL     1     -21.346  -4.507 -13.245  1.00  0.00     0.046 A 
HETATM   12  C7  UNL     1     -22.372  -4.933 -12.424  1.00  0.00     0.093 A 
HETATM   13  N3  UNL     1     -22.242  -6.115 -11.782  1.00  0.00    -0.334 N 
HETATM   14  C8  UNL     1     -21.122  -6.843 -11.959  1.00  0.00     0.247 A 
ATOM     15  H3  UNL     1     -22.984  -6.452 -11.169  1.00  0.00     0.168 HD
HETATM   16  O1  UNL     1     -20.975  -7.953 -11.371  1.00  0.00    -0.268 OA
HETATM   17  C9  UNL     1     -20.080  -6.438 -12.777  1.00  0.00     0.103 A 
ENDBRANCH   8  10
ENDBRANCH   7   8
ENDBRANCH   1   7
BRANCH   1  18
HETATM   18  N4  UNL     1     -19.326  -5.582 -16.804  1.00  0.00    -0.389 N 
ATOM     19  H4  UNL     1     -19.259  -4.583 -17.002  1.00  0.00     0.159 HD
BRANCH  18  20
HETATM   20  C10 UNL     1     -20.416  -6.318 -17.305  1.00  0.00     0.114 C 
BRANCH  20  21
HETATM   21  C11 UNL     1     -20.856  -5.683 -18.601  1.00  0.00     0.064 A 
HETATM   22  C12 UNL     1     -20.813  -4.346 -18.906  1.00  0.00     0.122 A 
HETATM   23  N5  UNL     1     -21.294  -4.167 -20.161  1.00  0.00    -0.355 N 
HETATM   24  C13 UNL     1     -21.404  -2.873 -20.836  1.00  0.00     0.156 C 
HETATM   25  C14 UNL     1     -21.624  -5.380 -20.611  1.00  0.00     0.182 A 
HETATM   26  N6  UNL     1     -21.364  -6.307 -19.674  1.00  0.00    -0.350 N 
ATOM     27  H6  UNL     1     -21.524  -7.311 -19.763  1.00  0.00     0.166 HD
ENDBRANCH  20  21
ENDBRANCH  18  20
ENDBRANCH   1  18
TORSDOF 8
ENDMDL
