MODEL 1
REMARK VINA RESULT: -5.846489664      0.000      0.000
REMARK  8 active torsions:
REMARK  status: ('A' for Active; 'I' for Inactive)
REMARK    1  A    between atoms: C1_2  and  C2_4 
REMARK    2  A    between atoms: C2_4  and  N2_5 
REMARK    3  A    between atoms: N2_5  and  C3_7 
REMARK    4  A    between atoms: C3_7  and  C4_8 
REMARK    5  A    between atoms: C4_8  and  C5_9 
REMARK    6  A    between atoms: C8_12  and  N3_13 
REMARK    7  A    between atoms: N3_13  and  C9_15 
REMARK    8  A    between atoms: C9_15  and  C10_16 
ROOT
HETATM    1  C5  UNL     1     -10.548 -59.987 -10.127  1.00  0.00    -0.057 A 
HETATM    2  C6  UNL     1     -10.159 -59.723 -11.421  1.00  0.00     0.009 A 
HETATM    3  C7  UNL     1     -11.000 -59.833 -12.505  1.00  0.00     0.029 A 
HETATM    4  C8  UNL     1     -12.299 -60.227 -12.304  1.00  0.00     0.028 A 
HETATM    5  C11 UNL     1     -12.721 -60.498 -11.016  1.00  0.00     0.029 A 
HETATM    6  C12 UNL     1     -11.878 -60.386  -9.934  1.00  0.00     0.009 A 
ENDROOT
BRANCH   4   7
HETATM    7  N3  UNL     1     -13.201 -60.374 -13.377  1.00  0.00    -0.383 N 
ATOM      8  H3  UNL     1     -13.096 -59.730 -14.160  1.00  0.00     0.160 HD
BRANCH   7   9
HETATM    9  C9  UNL     1     -14.250 -61.341 -13.469  1.00  0.00     0.198 C 
BRANCH   9  10
HETATM   10  C10 UNL     1     -15.603 -60.732 -13.406  1.00  0.00     0.124 A 
HETATM   11  N4  UNL     1     -15.780 -59.448 -12.994  1.00  0.00    -0.272 N 
HETATM   12  N5  UNL     1     -17.071 -59.166 -13.028  1.00  0.00    -0.007 NA
ATOM     13  H4  UNL     1     -15.039 -58.809 -12.706  1.00  0.00     0.185 HD
HETATM   14  N6  UNL     1     -17.700 -60.250 -13.456  1.00  0.00    -0.007 NA
HETATM   15  N7  UNL     1     -16.812 -61.200 -13.685  1.00  0.00    -0.272 N 
ATOM     16  H7  UNL     1     -17.021 -62.140 -14.021  1.00  0.00     0.185 HD
ENDBRANCH   9  10
ENDBRANCH   7   9
ENDBRANCH   4   7
BRANCH   1  17
HETATM   17  C4  UNL     1      -9.622 -59.867  -8.984  1.00  0.00     0.057 C 
BRANCH  17  18
HETATM   18  C3  UNL     1      -9.177 -58.458  -8.696  1.00  0.00     0.118 C 
BRANCH  18  19
HETATM   19  N2  UNL     1      -9.907 -58.009  -7.539  1.00  0.00    -0.413 N 
ATOM     20  H2  UNL     1     -10.779 -57.484  -7.615  1.00  0.00     0.153 HD
BRANCH  19  21
HETATM   21  C2  UNL     1      -9.328 -58.348  -6.279  1.00  0.00     0.213 C 
BRANCH  21  22
HETATM   22  C1  UNL     1      -9.723 -57.504  -5.149  1.00  0.00     0.248 C 
HETATM   23  N1  UNL     1     -10.597 -56.406  -5.351  1.00  0.00    -0.061 NA
HETATM   24  O1  UNL     1      -9.303 -57.730  -3.987  1.00  0.00    -0.275 OA
ENDBRANCH  21  22
ENDBRANCH  19  21
ENDBRANCH  18  19
ENDBRANCH  17  18
ENDBRANCH   1  17
TORSDOF 8
ENDMDL
MODEL 2
REMARK VINA RESULT: -5.835541194      0.132      1.332
REMARK  8 active torsions:
REMARK  status: ('A' for Active; 'I' for Inactive)
REMARK    1  A    between atoms: C1_2  and  C2_4 
REMARK    2  A    between atoms: C2_4  and  N2_5 
REMARK    3  A    between atoms: N2_5  and  C3_7 
REMARK    4  A    between atoms: C3_7  and  C4_8 
REMARK    5  A    between atoms: C4_8  and  C5_9 
REMARK    6  A    between atoms: C8_12  and  N3_13 
REMARK    7  A    between atoms: N3_13  and  C9_15 
REMARK    8  A    between atoms: C9_15  and  C10_16 
ROOT
HETATM    1  C5  UNL     1     -10.578 -60.038 -10.146  1.00  0.00    -0.057 A 
HETATM    2  C6  UNL     1     -11.893 -60.414  -9.984  1.00  0.00     0.009 A 
HETATM    3  C7  UNL     1     -12.786 -60.524 -11.024  1.00  0.00     0.029 A 
HETATM    4  C8  UNL     1     -12.363 -60.247 -12.300  1.00  0.00     0.028 A 
HETATM    5  C11 UNL     1     -11.048 -59.867 -12.496  1.00  0.00     0.029 A 
HETATM    6  C12 UNL     1     -10.156 -59.759 -11.453  1.00  0.00     0.009 A 
ENDROOT
BRANCH   4   7
HETATM    7  N3  UNL     1     -13.236 -60.326 -13.402  1.00  0.00    -0.383 N 
ATOM      8  H3  UNL     1     -13.047 -59.704 -14.187  1.00  0.00     0.160 HD
BRANCH   7   9
HETATM    9  C9  UNL     1     -14.363 -61.197 -13.523  1.00  0.00     0.198 C 
BRANCH   9  10
HETATM   10  C10 UNL     1     -15.660 -60.485 -13.388  1.00  0.00     0.124 A 
HETATM   11  N4  UNL     1     -16.835 -61.095 -13.700  1.00  0.00    -0.272 N 
HETATM   12  N5  UNL     1     -17.823 -60.240 -13.495  1.00  0.00    -0.007 NA
ATOM     13  H4  UNL     1     -16.936 -62.052 -14.036  1.00  0.00     0.185 HD
HETATM   14  N6  UNL     1     -17.284 -59.112 -13.060  1.00  0.00    -0.007 NA
HETATM   15  N7  UNL     1     -15.974 -59.258 -12.995  1.00  0.00    -0.272 N 
ATOM     16  H7  UNL     1     -15.311 -58.544 -12.693  1.00  0.00     0.185 HD
ENDBRANCH   9  10
ENDBRANCH   7   9
ENDBRANCH   4   7
BRANCH   1  17
HETATM   17  C4  UNL     1      -9.644 -59.921  -9.010  1.00  0.00     0.057 C 
BRANCH  17  18
HETATM   18  C3  UNL     1      -9.225 -58.509  -8.699  1.00  0.00     0.118 C 
BRANCH  18  19
HETATM   19  N2  UNL     1      -9.919 -58.114  -7.500  1.00  0.00    -0.413 N 
ATOM     20  H2  UNL     1     -10.847 -57.691  -7.522  1.00  0.00     0.153 HD
BRANCH  19  21
HETATM   21  C2  UNL     1      -9.219 -58.353  -6.280  1.00  0.00     0.213 C 
BRANCH  21  22
HETATM   22  C1  UNL     1      -9.619 -57.521  -5.142  1.00  0.00     0.248 C 
HETATM   23  N1  UNL     1     -10.531 -56.451  -5.328  1.00  0.00    -0.061 NA
HETATM   24  O1  UNL     1      -9.171 -57.734  -3.988  1.00  0.00    -0.275 OA
ENDBRANCH  21  22
ENDBRANCH  19  21
ENDBRANCH  18  19
ENDBRANCH  17  18
ENDBRANCH   1  17
TORSDOF 8
ENDMDL
MODEL 3
REMARK VINA RESULT: -5.775495114      1.072      1.502
REMARK  8 active torsions:
REMARK  status: ('A' for Active; 'I' for Inactive)
REMARK    1  A    between atoms: C1_2  and  C2_4 
REMARK    2  A    between atoms: C2_4  and  N2_5 
REMARK    3  A    between atoms: N2_5  and  C3_7 
REMARK    4  A    between atoms: C3_7  and  C4_8 
REMARK    5  A    between atoms: C4_8  and  C5_9 
REMARK    6  A    between atoms: C8_12  and  N3_13 
REMARK    7  A    between atoms: N3_13  and  C9_15 
REMARK    8  A    between atoms: C9_15  and  C10_16 
ROOT
HETATM    1  C5  UNL     1     -10.465 -59.788 -10.598  1.00  0.00    -0.057 A 
HETATM    2  C6  UNL     1     -11.644 -60.189 -10.012  1.00  0.00     0.009 A 
HETATM    3  C7  UNL     1     -12.775 -60.514 -10.724  1.00  0.00     0.029 A 
HETATM    4  C8  UNL     1     -12.745 -60.441 -12.094  1.00  0.00     0.028 A 
HETATM    5  C11 UNL     1     -11.575 -60.042 -12.713  1.00  0.00     0.029 A 
HETATM    6  C12 UNL     1     -10.445 -59.718 -11.998  1.00  0.00     0.009 A 
ENDROOT
BRANCH   4   7
HETATM    7  N3  UNL     1     -13.877 -60.746 -12.876  1.00  0.00    -0.383 N 
ATOM      8  H3  UNL     1     -14.252 -61.691 -12.796  1.00  0.00     0.160 HD
BRANCH   7   9
HETATM    9  C9  UNL     1     -14.548 -59.855 -13.770  1.00  0.00     0.198 C 
BRANCH   9  10
HETATM   10  C10 UNL     1     -16.013 -59.790 -13.528  1.00  0.00     0.124 A 
HETATM   11  N4  UNL     1     -16.582 -58.702 -12.942  1.00  0.00    -0.272 N 
HETATM   12  N5  UNL     1     -17.885 -58.908 -12.843  1.00  0.00    -0.007 NA
ATOM     13  H4  UNL     1     -16.087 -57.867 -12.633  1.00  0.00     0.185 HD
HETATM   14  N6  UNL     1     -18.134 -60.103 -13.356  1.00  0.00    -0.007 NA
HETATM   15  N7  UNL     1     -17.001 -60.639 -13.771  1.00  0.00    -0.272 N 
ATOM     16  H7  UNL     1     -16.902 -61.556 -14.207  1.00  0.00     0.185 HD
ENDBRANCH   9  10
ENDBRANCH   7   9
ENDBRANCH   4   7
BRANCH   1  17
HETATM   17  C4  UNL     1      -9.269 -59.437  -9.808  1.00  0.00     0.057 C 
BRANCH  17  18
HETATM   18  C3  UNL     1      -9.336 -59.864  -8.366  1.00  0.00     0.118 C 
BRANCH  18  19
HETATM   19  N2  UNL     1      -9.198 -58.677  -7.563  1.00  0.00    -0.413 N 
ATOM     20  H2  UNL     1      -9.078 -57.752  -7.975  1.00  0.00     0.153 HD
BRANCH  19  21
HETATM   21  C2  UNL     1      -9.241 -58.883  -6.151  1.00  0.00     0.213 C 
BRANCH  21  22
HETATM   22  C1  UNL     1      -9.409 -57.678  -5.337  1.00  0.00     0.248 C 
HETATM   23  N1  UNL     1      -9.097 -57.704  -3.953  1.00  0.00    -0.061 NA
HETATM   24  O1  UNL     1      -9.826 -56.603  -5.837  1.00  0.00    -0.275 OA
ENDBRANCH  21  22
ENDBRANCH  19  21
ENDBRANCH  18  19
ENDBRANCH  17  18
ENDBRANCH   1  17
TORSDOF 8
ENDMDL
MODEL 4
REMARK VINA RESULT: -5.770174736      3.347      8.242
REMARK  8 active torsions:
REMARK  status: ('A' for Active; 'I' for Inactive)
REMARK    1  A    between atoms: C1_2  and  C2_4 
REMARK    2  A    between atoms: C2_4  and  N2_5 
REMARK    3  A    between atoms: N2_5  and  C3_7 
REMARK    4  A    between atoms: C3_7  and  C4_8 
REMARK    5  A    between atoms: C4_8  and  C5_9 
REMARK    6  A    between atoms: C8_12  and  N3_13 
REMARK    7  A    between atoms: N3_13  and  C9_15 
REMARK    8  A    between atoms: C9_15  and  C10_16 
ROOT
HETATM    1  C5  UNL     1      -9.692 -59.439 -11.153  1.00  0.00    -0.057 A 
HETATM    2  C6  UNL     1     -10.079 -59.631  -9.845  1.00  0.00     0.009 A 
HETATM    3  C7  UNL     1      -9.416 -59.088  -8.770  1.00  0.00     0.029 A 
HETATM    4  C8  UNL     1      -8.306 -58.312  -8.992  1.00  0.00     0.028 A 
HETATM    5  C11 UNL     1      -7.893 -58.100 -10.294  1.00  0.00     0.029 A 
HETATM    6  C12 UNL     1      -8.559 -58.644 -11.368  1.00  0.00     0.009 A 
ENDROOT
BRANCH   4   7
HETATM    7  N3  UNL     1      -7.576 -57.744  -7.929  1.00  0.00    -0.383 N 
ATOM      8  H3  UNL     1      -6.663 -58.150  -7.727  1.00  0.00     0.160 HD
BRANCH   7   9
HETATM    9  C9  UNL     1      -7.996 -56.652  -7.108  1.00  0.00     0.198 C 
BRANCH   9  10
HETATM   10  C10 UNL     1      -8.457 -57.085  -5.764  1.00  0.00     0.124 A 
HETATM   11  N4  UNL     1      -7.572 -57.329  -4.760  1.00  0.00    -0.272 N 
HETATM   12  N5  UNL     1      -8.245 -57.701  -3.684  1.00  0.00    -0.007 NA
ATOM     13  H4  UNL     1      -6.559 -57.240  -4.826  1.00  0.00     0.185 HD
HETATM   14  N6  UNL     1      -9.531 -57.690  -4.000  1.00  0.00    -0.007 NA
HETATM   15  N7  UNL     1      -9.661 -57.318  -5.260  1.00  0.00    -0.272 N 
ATOM     16  H7  UNL     1     -10.543 -57.225  -5.764  1.00  0.00     0.185 HD
ENDBRANCH   9  10
ENDBRANCH   7   9
ENDBRANCH   4   7
BRANCH   1  17
HETATM   17  C4  UNL     1     -10.420 -60.040 -12.288  1.00  0.00     0.057 C 
BRANCH  17  18
HETATM   18  C3  UNL     1     -10.466 -61.545 -12.262  1.00  0.00     0.118 C 
BRANCH  18  19
HETATM   19  N2  UNL     1     -11.853 -61.927 -12.199  1.00  0.00    -0.413 N 
ATOM     20  H2  UNL     1     -12.153 -62.833 -11.839  1.00  0.00     0.153 HD
BRANCH  19  21
HETATM   21  C2  UNL     1     -12.781 -60.951 -12.675  1.00  0.00     0.213 C 
BRANCH  21  22
HETATM   22  C1  UNL     1     -13.834 -60.563 -11.735  1.00  0.00     0.248 C 
HETATM   23  N1  UNL     1     -13.564 -60.508 -10.344  1.00  0.00    -0.061 NA
HETATM   24  O1  UNL     1     -14.989 -60.270 -12.133  1.00  0.00    -0.275 OA
ENDBRANCH  21  22
ENDBRANCH  19  21
ENDBRANCH  18  19
ENDBRANCH  17  18
ENDBRANCH   1  17
TORSDOF 8
ENDMDL
MODEL 5
REMARK VINA RESULT: -5.766575989      2.760      8.391
REMARK  8 active torsions:
REMARK  status: ('A' for Active; 'I' for Inactive)
REMARK    1  A    between atoms: C1_2  and  C2_4 
REMARK    2  A    between atoms: C2_4  and  N2_5 
REMARK    3  A    between atoms: N2_5  and  C3_7 
REMARK    4  A    between atoms: C3_7  and  C4_8 
REMARK    5  A    between atoms: C4_8  and  C5_9 
REMARK    6  A    between atoms: C8_12  and  N3_13 
REMARK    7  A    between atoms: N3_13  and  C9_15 
REMARK    8  A    between atoms: C9_15  and  C10_16 
ROOT
HETATM    1  C5  UNL     1     -10.125 -59.555 -11.124  1.00  0.00    -0.057 A 
HETATM    2  C6  UNL     1      -8.950 -58.880 -11.366  1.00  0.00     0.009 A 
HETATM    3  C7  UNL     1      -8.130 -58.401 -10.371  1.00  0.00     0.029 A 
HETATM    4  C8  UNL     1      -8.486 -58.598  -9.060  1.00  0.00     0.028 A 
HETATM    5  C11 UNL     1      -9.659 -59.273  -8.784  1.00  0.00     0.029 A 
HETATM    6  C12 UNL     1     -10.478 -59.752  -9.782  1.00  0.00     0.009 A 
ENDROOT
BRANCH   4   7
HETATM    7  N3  UNL     1      -7.694 -58.116  -7.999  1.00  0.00    -0.383 N 
ATOM      8  H3  UNL     1      -6.856 -58.649  -7.769  1.00  0.00     0.160 HD
BRANCH   7   9
HETATM    9  C9  UNL     1      -7.955 -56.950  -7.214  1.00  0.00     0.198 C 
BRANCH   9  10
HETATM   10  C10 UNL     1      -8.288 -57.268  -5.802  1.00  0.00     0.124 A 
HETATM   11  N4  UNL     1      -9.575 -57.465  -5.408  1.00  0.00    -0.272 N 
HETATM   12  N5  UNL     1      -9.586 -57.724  -4.111  1.00  0.00    -0.007 NA
ATOM     13  H4  UNL     1     -10.395 -57.420  -6.012  1.00  0.00     0.185 HD
HETATM   14  N6  UNL     1      -8.330 -57.694  -3.693  1.00  0.00    -0.007 NA
HETATM   15  N7  UNL     1      -7.543 -57.417  -4.716  1.00  0.00    -0.272 N 
ATOM     16  H7  UNL     1      -6.527 -57.332  -4.677  1.00  0.00     0.185 HD
ENDBRANCH   9  10
ENDBRANCH   7   9
ENDBRANCH   4   7
BRANCH   1  17
HETATM   17  C4  UNL     1     -10.990 -60.051 -12.212  1.00  0.00     0.057 C 
BRANCH  17  18
HETATM   18  C3  UNL     1     -11.026 -61.551 -12.336  1.00  0.00     0.118 C 
BRANCH  18  19
HETATM   19  N2  UNL     1     -12.343 -61.980 -11.942  1.00  0.00    -0.413 N 
ATOM     20  H2  UNL     1     -12.538 -62.357 -11.015  1.00  0.00     0.153 HD
BRANCH  19  21
HETATM   21  C2  UNL     1     -13.356 -61.842 -12.938  1.00  0.00     0.213 C 
BRANCH  21  22
HETATM   22  C1  UNL     1     -14.588 -61.179 -12.505  1.00  0.00     0.248 C 
HETATM   23  N1  UNL     1     -15.845 -61.621 -12.991  1.00  0.00    -0.061 NA
HETATM   24  O1  UNL     1     -14.563 -60.214 -11.701  1.00  0.00    -0.275 OA
ENDBRANCH  21  22
ENDBRANCH  19  21
ENDBRANCH  18  19
ENDBRANCH  17  18
ENDBRANCH   1  17
TORSDOF 8
ENDMDL
