MODEL 1
REMARK VINA RESULT: -7.667216233      0.000      0.000
REMARK  4 active torsions:
REMARK  status: ('A' for Active; 'I' for Inactive)
REMARK    1  A    between atoms: C3_5  and  C4_6 
REMARK       I    between atoms: C4_6  and  N2_8 
REMARK    2  A    between atoms: N2_8  and  C5_10 
REMARK    3  A    between atoms: C8_15  and  C9_16 
REMARK    4  A    between atoms: C9_16  and  O2_17 
ROOT
HETATM    1  C5  UNL     1      -7.174 -26.612 -67.966  1.00  0.00     0.152 A 
HETATM    2  N3  UNL     1      -6.428 -27.255 -68.870  1.00  0.00    -0.339 N 
ATOM      3  H3  UNL     1      -5.450 -27.472 -68.682  1.00  0.00     0.168 HD
HETATM    4  C6  UNL     1      -6.984 -27.596 -70.000  1.00  0.00     0.026 A 
HETATM    5  C7  UNL     1      -6.218 -28.330 -71.092  1.00  0.00     0.069 C 
HETATM    6  C8  UNL     1      -8.301 -27.277 -70.194  1.00  0.00     0.074 A 
HETATM    7  S1  UNL     1      -8.689 -26.490 -68.728  1.00  0.00    -0.051 SA
ENDROOT
BRANCH   1   8
HETATM    8  N2  UNL     1      -6.803 -26.192 -66.790  1.00  0.00    -0.302 N 
HETATM    9  C4  UNL     1      -7.577 -26.381 -65.637  1.00  0.00     0.274 C 
HETATM   10  O1  UNL     1      -7.792 -27.550 -65.265  1.00  0.00    -0.266 OA
ATOM     11  H2  UNL     1      -5.911 -25.704 -66.704  1.00  0.00     0.171 HD
BRANCH   9  12
HETATM   12  C3  UNL     1      -8.110 -25.193 -64.905  1.00  0.00     0.108 A 
HETATM   13  N1  UNL     1      -8.891 -25.267 -63.869  1.00  0.00    -0.349 N 
HETATM   14  C2  UNL     1      -9.317 -24.164 -63.283  1.00  0.00     0.047 A 
ATOM     15  H1  UNL     1      -9.175 -26.178 -63.508  1.00  0.00     0.166 HD
HETATM   16  C1  UNL     1     -10.224 -24.044 -62.075  1.00  0.00     0.076 C 
HETATM   17  S2  UNL     1      -8.593 -22.938 -64.222  1.00  0.00    -0.087 SA
HETATM   18  C10 UNL     1      -7.767 -23.933 -65.338  1.00  0.00     0.086 A 
ENDBRANCH   9  12
ENDBRANCH   1   8
BRANCH   6  19
HETATM   19  C9  UNL     1      -9.161 -27.559 -71.399  1.00  0.00     0.251 C 
HETATM   20 CL1  UNL     1     -10.827 -27.003 -71.117  1.00  0.00    -0.065 Cl
HETATM   21 CL2  UNL     1      -9.154 -29.321 -71.644  1.00  0.00    -0.065 Cl
BRANCH  19  22
HETATM   22  O2  UNL     1      -8.616 -26.975 -72.541  1.00  0.00    -0.358 OA
ATOM     23  H2  UNL     1      -8.809 -27.497 -73.310  1.00  0.00     0.213 HD
ENDBRANCH  19  22
ENDBRANCH   6  19
TORSDOF 4
ENDMDL
MODEL 2
REMARK VINA RESULT: -7.488432729      1.304      1.755
REMARK  4 active torsions:
REMARK  status: ('A' for Active; 'I' for Inactive)
REMARK    1  A    between atoms: C3_5  and  C4_6 
REMARK       I    between atoms: C4_6  and  N2_8 
REMARK    2  A    between atoms: N2_8  and  C5_10 
REMARK    3  A    between atoms: C8_15  and  C9_16 
REMARK    4  A    between atoms: C9_16  and  O2_17 
ROOT
HETATM    1  C5  UNL     1      -7.575 -26.681 -68.154  1.00  0.00     0.152 A 
HETATM    2  N3  UNL     1      -8.821 -26.515 -68.609  1.00  0.00    -0.339 N 
ATOM      3  H3  UNL     1      -9.485 -25.920 -68.113  1.00  0.00     0.168 HD
HETATM    4  C6  UNL     1      -9.167 -27.136 -69.703  1.00  0.00     0.026 A 
HETATM    5  C7  UNL     1     -10.562 -27.012 -70.300  1.00  0.00     0.069 C 
HETATM    6  C8  UNL     1      -8.233 -27.921 -70.323  1.00  0.00     0.074 A 
HETATM    7  S1  UNL     1      -6.881 -27.732 -69.295  1.00  0.00    -0.051 SA
ENDROOT
BRANCH   1   8
HETATM    8  N2  UNL     1      -7.046 -26.150 -67.088  1.00  0.00    -0.302 N 
HETATM    9  C4  UNL     1      -7.560 -26.358 -65.801  1.00  0.00     0.274 C 
HETATM   10  O1  UNL     1      -7.552 -27.520 -65.351  1.00  0.00    -0.266 OA
ATOM     11  H2  UNL     1      -6.222 -25.558 -67.194  1.00  0.00     0.171 HD
BRANCH   9  12
HETATM   12  C3  UNL     1      -8.092 -25.199 -65.023  1.00  0.00     0.108 A 
HETATM   13  N1  UNL     1      -8.860 -25.311 -63.982  1.00  0.00    -0.349 N 
HETATM   14  C2  UNL     1      -9.285 -24.232 -63.355  1.00  0.00     0.047 A 
ATOM     15  H1  UNL     1      -9.134 -26.235 -63.648  1.00  0.00     0.166 HD
HETATM   16  C1  UNL     1     -10.179 -24.157 -62.134  1.00  0.00     0.076 C 
HETATM   17  S2  UNL     1      -8.580 -22.970 -64.261  1.00  0.00    -0.087 SA
HETATM   18  C10 UNL     1      -7.761 -23.923 -65.419  1.00  0.00     0.086 A 
ENDBRANCH   9  12
ENDBRANCH   1   8
BRANCH   6  19
HETATM   19  C9  UNL     1      -8.384 -28.731 -71.584  1.00  0.00     0.251 C 
HETATM   20 CL1  UNL     1      -9.531 -30.067 -71.331  1.00  0.00    -0.065 Cl
HETATM   21 CL2  UNL     1      -6.780 -29.389 -71.979  1.00  0.00    -0.065 Cl
BRANCH  19  22
HETATM   22  O2  UNL     1      -8.777 -27.919 -72.647  1.00  0.00    -0.358 OA
ATOM     23  H2  UNL     1      -8.164 -27.990 -73.369  1.00  0.00     0.213 HD
ENDBRANCH  19  22
ENDBRANCH   6  19
TORSDOF 4
ENDMDL
MODEL 3
REMARK VINA RESULT: -7.451302798      3.668      7.414
REMARK  4 active torsions:
REMARK  status: ('A' for Active; 'I' for Inactive)
REMARK    1  A    between atoms: C3_5  and  C4_6 
REMARK       I    between atoms: C4_6  and  N2_8 
REMARK    2  A    between atoms: N2_8  and  C5_10 
REMARK    3  A    between atoms: C8_15  and  C9_16 
REMARK    4  A    between atoms: C9_16  and  O2_17 
ROOT
HETATM    1  C5  UNL     1      -7.717 -26.511 -69.324  1.00  0.00     0.152 A 
HETATM    2  N3  UNL     1      -8.842 -25.949 -68.871  1.00  0.00    -0.339 N 
ATOM      3  H3  UNL     1      -9.675 -25.900 -69.457  1.00  0.00     0.168 HD
HETATM    4  C6  UNL     1      -8.846 -25.463 -67.660  1.00  0.00     0.026 A 
HETATM    5  C7  UNL     1     -10.077 -24.803 -67.055  1.00  0.00     0.069 C 
HETATM    6  C8  UNL     1      -7.697 -25.558 -66.923  1.00  0.00     0.074 A 
HETATM    7  S1  UNL     1      -6.647 -26.350 -68.013  1.00  0.00    -0.051 SA
ENDROOT
BRANCH   1   8
HETATM    8  N2  UNL     1      -7.517 -27.047 -70.495  1.00  0.00    -0.302 N 
HETATM    9  C4  UNL     1      -8.337 -28.054 -71.019  1.00  0.00     0.274 C 
HETATM   10  O1  UNL     1      -9.532 -27.779 -71.236  1.00  0.00    -0.266 OA
ATOM     11  H2  UNL     1      -6.729 -26.718 -71.055  1.00  0.00     0.171 HD
BRANCH   9  12
HETATM   12  C3  UNL     1      -7.760 -29.404 -71.296  1.00  0.00     0.108 A 
HETATM   13  N1  UNL     1      -8.394 -30.521 -71.101  1.00  0.00    -0.349 N 
HETATM   14  C2  UNL     1      -7.807 -31.671 -71.372  1.00  0.00     0.047 A 
ATOM     15  H1  UNL     1      -9.347 -30.509 -70.737  1.00  0.00     0.166 HD
HETATM   16  C1  UNL     1      -8.375 -33.066 -71.212  1.00  0.00     0.076 C 
HETATM   17  S2  UNL     1      -6.272 -31.183 -71.936  1.00  0.00    -0.087 SA
HETATM   18  C10 UNL     1      -6.478 -29.493 -71.788  1.00  0.00     0.086 A 
ENDBRANCH   9  12
ENDBRANCH   1   8
BRANCH   6  19
HETATM   19  C9  UNL     1      -7.450 -25.079 -65.516  1.00  0.00     0.251 C 
HETATM   20 CL1  UNL     1      -8.784 -25.576 -64.448  1.00  0.00    -0.065 Cl
HETATM   21 CL2  UNL     1      -7.364 -23.304 -65.575  1.00  0.00    -0.065 Cl
BRANCH  19  22
HETATM   22  O2  UNL     1      -6.224 -25.543 -65.045  1.00  0.00    -0.358 OA
ATOM     23  H2  UNL     1      -6.156 -25.420 -64.106  1.00  0.00     0.213 HD
ENDBRANCH  19  22
ENDBRANCH   6  19
TORSDOF 4
ENDMDL
MODEL 4
REMARK VINA RESULT: -7.447810765      1.835      2.264
REMARK  4 active torsions:
REMARK  status: ('A' for Active; 'I' for Inactive)
REMARK    1  A    between atoms: C3_5  and  C4_6 
REMARK       I    between atoms: C4_6  and  N2_8 
REMARK    2  A    between atoms: N2_8  and  C5_10 
REMARK    3  A    between atoms: C8_15  and  C9_16 
REMARK    4  A    between atoms: C9_16  and  O2_17 
ROOT
HETATM    1  C5  UNL     1      -8.468 -26.709 -68.223  1.00  0.00     0.152 A 
HETATM    2  N3  UNL     1      -9.644 -26.307 -68.714  1.00  0.00    -0.339 N 
ATOM      3  H3  UNL     1     -10.055 -25.419 -68.427  1.00  0.00     0.168 HD
HETATM    4  C6  UNL     1     -10.253 -27.081 -69.570  1.00  0.00     0.026 A 
HETATM    5  C7  UNL     1     -11.596 -26.712 -70.184  1.00  0.00     0.069 C 
HETATM    6  C8  UNL     1      -9.652 -28.260 -69.917  1.00  0.00     0.074 A 
HETATM    7  S1  UNL     1      -8.219 -28.207 -68.987  1.00  0.00    -0.051 SA
ENDROOT
BRANCH   1   8
HETATM    8  N2  UNL     1      -7.713 -26.081 -67.366  1.00  0.00    -0.302 N 
HETATM    9  C4  UNL     1      -7.801 -26.288 -65.983  1.00  0.00     0.274 C 
HETATM   10  O1  UNL     1      -7.531 -27.423 -65.545  1.00  0.00    -0.266 OA
ATOM     11  H2  UNL     1      -7.029 -25.411 -67.716  1.00  0.00     0.171 HD
BRANCH   9  12
HETATM   12  C3  UNL     1      -8.209 -25.160 -65.093  1.00  0.00     0.108 A 
HETATM   13  N1  UNL     1      -8.949 -25.298 -64.035  1.00  0.00    -0.349 N 
HETATM   14  C2  UNL     1      -9.264 -24.245 -63.305  1.00  0.00     0.047 A 
ATOM     15  H1  UNL     1      -9.289 -26.222 -63.767  1.00  0.00     0.166 HD
HETATM   16  C1  UNL     1     -10.108 -24.202 -62.048  1.00  0.00     0.076 C 
HETATM   17  S2  UNL     1      -8.486 -22.972 -64.133  1.00  0.00    -0.087 SA
HETATM   18  C10 UNL     1      -7.786 -23.886 -65.396  1.00  0.00     0.086 A 
ENDBRANCH   9  12
ENDBRANCH   1   8
BRANCH   6  19
HETATM   19  C9  UNL     1     -10.147 -29.313 -70.873  1.00  0.00     0.251 C 
HETATM   20 CL1  UNL     1     -10.323 -28.633 -72.508  1.00  0.00    -0.065 Cl
HETATM   21 CL2  UNL     1     -11.733 -29.855 -70.279  1.00  0.00    -0.065 Cl
BRANCH  19  22
HETATM   22  O2  UNL     1      -9.298 -30.418 -70.872  1.00  0.00    -0.358 OA
ATOM     23  H2  UNL     1      -9.796 -31.224 -70.802  1.00  0.00     0.213 HD
ENDBRANCH  19  22
ENDBRANCH   6  19
TORSDOF 4
ENDMDL
MODEL 5
REMARK VINA RESULT: -7.412507897      2.044      2.420
REMARK  4 active torsions:
REMARK  status: ('A' for Active; 'I' for Inactive)
REMARK    1  A    between atoms: C3_5  and  C4_6 
REMARK       I    between atoms: C4_6  and  N2_8 
REMARK    2  A    between atoms: N2_8  and  C5_10 
REMARK    3  A    between atoms: C8_15  and  C9_16 
REMARK    4  A    between atoms: C9_16  and  O2_17 
ROOT
HETATM    1  C5  UNL     1      -6.989 -26.320 -68.698  1.00  0.00     0.152 A 
HETATM    2  N3  UNL     1      -6.051 -27.269 -68.624  1.00  0.00    -0.339 N 
ATOM      3  H3  UNL     1      -5.255 -27.170 -67.994  1.00  0.00     0.168 HD
HETATM    4  C6  UNL     1      -6.180 -28.325 -69.379  1.00  0.00     0.026 A 
HETATM    5  C7  UNL     1      -5.165 -29.460 -69.367  1.00  0.00     0.069 C 
HETATM    6  C8  UNL     1      -7.270 -28.401 -70.203  1.00  0.00     0.074 A 
HETATM    7  S1  UNL     1      -8.073 -26.934 -69.854  1.00  0.00    -0.051 SA
ENDROOT
BRANCH   1   8
HETATM    8  N2  UNL     1      -7.036 -25.202 -68.030  1.00  0.00    -0.302 N 
HETATM    9  C4  UNL     1      -6.537 -25.073 -66.727  1.00  0.00     0.274 C 
HETATM   10  O1  UNL     1      -5.316 -25.246 -66.552  1.00  0.00    -0.266 OA
ATOM     11  H2  UNL     1      -7.454 -24.384 -68.475  1.00  0.00     0.171 HD
BRANCH   9  12
HETATM   12  C3  UNL     1      -7.470 -24.740 -65.610  1.00  0.00     0.108 A 
HETATM   13  N1  UNL     1      -7.795 -23.530 -65.268  1.00  0.00    -0.349 N 
HETATM   14  C2  UNL     1      -8.628 -23.327 -64.265  1.00  0.00     0.047 A 
ATOM     15  H1  UNL     1      -7.406 -22.735 -65.775  1.00  0.00     0.166 HD
HETATM   16  C1  UNL     1      -9.123 -22.003 -63.721  1.00  0.00     0.076 C 
HETATM   17  S2  UNL     1      -8.992 -24.913 -63.755  1.00  0.00    -0.087 SA
HETATM   18  C10 UNL     1      -8.032 -25.765 -64.883  1.00  0.00     0.086 A 
ENDBRANCH   9  12
ENDBRANCH   1   8
BRANCH   6  19
HETATM   19  C9  UNL     1      -7.641 -29.505 -71.159  1.00  0.00     0.251 C 
HETATM   20 CL1  UNL     1      -6.327 -29.785 -72.325  1.00  0.00    -0.065 Cl
HETATM   21 CL2  UNL     1      -9.103 -28.977 -72.024  1.00  0.00    -0.065 Cl
BRANCH  19  22
HETATM   22  O2  UNL     1      -7.963 -30.670 -70.466  1.00  0.00    -0.358 OA
ATOM     23  H2  UNL     1      -7.203 -31.234 -70.387  1.00  0.00     0.213 HD
ENDBRANCH  19  22
ENDBRANCH   6  19
TORSDOF 4
ENDMDL
