MODEL 1
REMARK VINA RESULT: -8.451968470      0.000      0.000
REMARK  14 active torsions:
REMARK  status: ('A' for Active; 'I' for Inactive)
REMARK    1  A    between atoms: C2_2  and  C4_4 
REMARK    2  A    between atoms: C4_4  and  N1_6 
REMARK       I    between atoms: N1_6  and  C6_8 
REMARK    3  A    between atoms: C6_8  and  C7_10 
REMARK    4  A    between atoms: C7_10  and  C8_11 
REMARK    5  A    between atoms: C7_10  and  N2_15 
REMARK    6  A    between atoms: C8_11  and  C9_12 
REMARK    7  A    between atoms: C11_17  and  C12_18 
REMARK    8  A    between atoms: C12_18  and  N3_19 
REMARK    9  A    between atoms: N3_19  and  O4_20 
REMARK   10  A    between atoms: O4_20  and  C13_21 
REMARK   11  A    between atoms: C13_21  and  C14_23 
REMARK   12  A    between atoms: C14_23  and  O6_24 
REMARK   13  A    between atoms: C14_23  and  N4_26 
REMARK   14  A    between atoms: C14_23  and  C17_34 
REMARK       I    between atoms: N4_26  and  C15_28 
REMARK       I    between atoms: C15_28  and  N5_30 
ROOT
HETATM    1  N4  UNL     1      -3.888  -1.180   6.956  1.00  0.00    -0.298 N 
ATOM      2  H4  UNL     1      -4.238  -0.803   6.075  1.00  0.00     0.168 HD
HETATM    3  C15 UNL     1      -3.816  -2.580   7.113  1.00  0.00     0.332 C 
HETATM    4  O7  UNL     1      -3.386  -3.044   8.198  1.00  0.00    -0.246 OA
HETATM    5  N5  UNL     1      -4.216  -3.465   6.078  1.00  0.00    -0.245 N 
ATOM      6  H5  UNL     1      -4.561  -3.061   5.207  1.00  0.00     0.183 HD
HETATM    7  C16 UNL     1      -4.164  -4.849   6.182  1.00  0.00     0.185 C 
HETATM    8  N6  UNL     1      -4.125  -6.016   6.291  1.00  0.00    -0.172 NA
ENDROOT
BRANCH   1   9
HETATM    9  C14 UNL     1      -3.481  -0.248   8.004  1.00  0.00     0.258 C 
BRANCH   9  10
HETATM   10  C13 UNL     1      -3.200   1.097   7.466  1.00  0.00     0.355 C 
HETATM   11  O5  UNL     1      -2.405   1.848   8.089  1.00  0.00    -0.256 OA
BRANCH  10  12
HETATM   12  O4  UNL     1      -3.748   1.595   6.319  1.00  0.00    -0.121 OA
BRANCH  12  13
HETATM   13  N3  UNL     1      -3.558   1.395   5.095  1.00  0.00    -0.284 NA
BRANCH  13  14
HETATM   14  C12 UNL     1      -3.384   1.220   3.926  1.00  0.00     0.237 C 
BRANCH  14  15
HETATM   15  C11 UNL     1      -4.348   0.823   2.889  1.00  0.00     0.080 A 
HETATM   16  C10 UNL     1      -5.611   0.340   3.203  1.00  0.00     0.121 A 
HETATM   17  N2  UNL     1      -6.506  -0.019   2.303  1.00  0.00    -0.272 N 
HETATM   18  C24 UNL     1      -6.147   0.100   0.986  1.00  0.00     0.333 A 
HETATM   19  N7  UNL     1      -4.937   0.562   0.678  1.00  0.00    -0.274 N 
HETATM   20  O9  UNL     1      -6.978  -0.234   0.075  1.00  0.00    -0.246 OA
HETATM   21  C23 UNL     1      -4.007   0.935   1.568  1.00  0.00     0.263 A 
ATOM     22  H7  UNL     1      -4.700   0.639  -0.311  1.00  0.00     0.173 HD
HETATM   23  O8  UNL     1      -2.899   1.356   1.181  1.00  0.00    -0.267 OA
BRANCH  17  24
HETATM   24  C7  UNL     1      -7.828  -0.536   2.569  1.00  0.00     0.098 C 
BRANCH  24  25
HETATM   25  C6  UNL     1      -8.635   0.275   3.489  1.00  0.00     0.265 C 
HETATM   26  N1  UNL     1      -8.918  -0.101   4.826  1.00  0.00    -0.351 N 
ATOM     27  H1  UNL     1      -8.538  -0.984   5.169  1.00  0.00     0.163 HD
HETATM   28  O1  UNL     1      -9.119   1.360   3.103  1.00  0.00    -0.266 OA
BRANCH  26  29
HETATM   29  C4  UNL     1      -9.710   0.694   5.727  1.00  0.00     0.084 C 
HETATM   30  C5  UNL     1      -8.930   0.759   7.034  1.00  0.00     0.032 C 
BRANCH  29  31
HETATM   31  C2  UNL     1     -11.097   0.138   5.946  1.00  0.00    -0.000 C 
HETATM   32  C1  UNL     1     -12.043   0.896   5.004  1.00  0.00     0.011 C 
HETATM   33  C3  UNL     1     -11.168  -1.314   5.528  1.00  0.00     0.011 C 
ENDBRANCH  29  31
ENDBRANCH  26  29
ENDBRANCH  24  25
BRANCH  24  34
HETATM   34  C8  UNL     1      -7.896  -2.005   2.782  1.00  0.00     0.176 C 
BRANCH  34  35
HETATM   35  C9  UNL     1      -6.883  -2.641   3.591  1.00  0.00     0.178 C 
HETATM   36  O2  UNL     1      -5.893  -3.317   3.252  1.00  0.00    -0.648 OA
HETATM   37  O3  UNL     1      -7.020  -2.483   4.988  1.00  0.00    -0.648 OA
ENDBRANCH  34  35
ENDBRANCH  24  34
ENDBRANCH  17  24
ENDBRANCH  14  15
ENDBRANCH  13  14
ENDBRANCH  12  13
ENDBRANCH  10  12
ENDBRANCH   9  10
BRANCH   9  38
HETATM   38  O6  UNL     1      -2.299  -0.803   8.564  1.00  0.00    -0.359 OA
ATOM     39  H6  UNL     1      -1.536  -0.354   8.221  1.00  0.00     0.213 HD
ENDBRANCH   9  38
BRANCH   9  40
HETATM   40  C17 UNL     1      -4.481  -0.229   9.106  1.00  0.00     0.007 A 
HETATM   41  C18 UNL     1      -5.816  -0.212   8.853  1.00  0.00     0.015 A 
HETATM   42  C19 UNL     1      -6.692  -0.194   9.943  1.00  0.00     0.043 A 
HETATM   43  C20 UNL     1      -6.233  -0.195  11.243  1.00  0.00     0.116 A 
HETATM   44  F1  UNL     1      -7.080  -0.177  12.294  1.00  0.00    -0.206 F 
HETATM   45  C21 UNL     1      -4.883  -0.211  11.496  1.00  0.00     0.043 A 
HETATM   46  C22 UNL     1      -4.039  -0.229  10.410  1.00  0.00     0.015 A 
ENDBRANCH   9  40
ENDBRANCH   1   9
TORSDOF 14
ENDMDL
MODEL 2
REMARK VINA RESULT: -8.135501448      2.091      3.081
REMARK  14 active torsions:
REMARK  status: ('A' for Active; 'I' for Inactive)
REMARK    1  A    between atoms: C2_2  and  C4_4 
REMARK    2  A    between atoms: C4_4  and  N1_6 
REMARK       I    between atoms: N1_6  and  C6_8 
REMARK    3  A    between atoms: C6_8  and  C7_10 
REMARK    4  A    between atoms: C7_10  and  C8_11 
REMARK    5  A    between atoms: C7_10  and  N2_15 
REMARK    6  A    between atoms: C8_11  and  C9_12 
REMARK    7  A    between atoms: C11_17  and  C12_18 
REMARK    8  A    between atoms: C12_18  and  N3_19 
REMARK    9  A    between atoms: N3_19  and  O4_20 
REMARK   10  A    between atoms: O4_20  and  C13_21 
REMARK   11  A    between atoms: C13_21  and  C14_23 
REMARK   12  A    between atoms: C14_23  and  O6_24 
REMARK   13  A    between atoms: C14_23  and  N4_26 
REMARK   14  A    between atoms: C14_23  and  C17_34 
REMARK       I    between atoms: N4_26  and  C15_28 
REMARK       I    between atoms: C15_28  and  N5_30 
ROOT
HETATM    1  N4  UNL     1      -3.635  -1.182   7.524  1.00  0.00    -0.298 N 
ATOM      2  H4  UNL     1      -3.501  -0.680   6.646  1.00  0.00     0.168 HD
HETATM    3  C15 UNL     1      -3.792  -2.584   7.487  1.00  0.00     0.332 C 
HETATM    4  O7  UNL     1      -3.958  -3.200   8.568  1.00  0.00    -0.246 OA
HETATM    5  N5  UNL     1      -3.766  -3.301   6.263  1.00  0.00    -0.245 N 
ATOM      6  H5  UNL     1      -3.631  -2.775   5.400  1.00  0.00     0.183 HD
HETATM    7  C16 UNL     1      -3.915  -4.679   6.172  1.00  0.00     0.185 C 
HETATM    8  N6  UNL     1      -4.055  -5.842   6.113  1.00  0.00    -0.172 NA
ENDROOT
BRANCH   1   9
HETATM    9  C14 UNL     1      -3.656  -0.420   8.770  1.00  0.00     0.258 C 
BRANCH   9  10
HETATM   10  C13 UNL     1      -2.985   0.887   8.627  1.00  0.00     0.355 C 
HETATM   11  O5  UNL     1      -2.375   1.370   9.616  1.00  0.00    -0.256 OA
BRANCH  10  12
HETATM   12  O4  UNL     1      -2.977   1.623   7.477  1.00  0.00    -0.121 OA
BRANCH  12  13
HETATM   13  N3  UNL     1      -3.753   1.734   6.498  1.00  0.00    -0.284 NA
BRANCH  13  14
HETATM   14  C12 UNL     1      -4.498   1.823   5.568  1.00  0.00     0.237 C 
BRANCH  14  15
HETATM   15  C11 UNL     1      -5.408   0.817   5.003  1.00  0.00     0.080 A 
HETATM   16  C10 UNL     1      -6.780   1.023   4.928  1.00  0.00     0.121 A 
HETATM   17  N2  UNL     1      -7.627   0.148   4.421  1.00  0.00    -0.272 N 
HETATM   18  C24 UNL     1      -7.104  -1.026   3.949  1.00  0.00     0.333 A 
HETATM   19  N7  UNL     1      -5.790  -1.231   4.019  1.00  0.00    -0.274 N 
HETATM   20  O9  UNL     1      -7.883  -1.907   3.449  1.00  0.00    -0.246 OA
HETATM   21  C23 UNL     1      -4.903  -0.363   4.527  1.00  0.00     0.263 A 
ATOM     22  H7  UNL     1      -5.431  -2.115   3.660  1.00  0.00     0.173 HD
HETATM   23  O8  UNL     1      -3.689  -0.646   4.549  1.00  0.00    -0.267 OA
BRANCH  17  24
HETATM   24  C7  UNL     1      -9.061   0.302   4.324  1.00  0.00     0.098 C 
BRANCH  24  25
HETATM   25  C6  UNL     1      -9.520   1.103   3.182  1.00  0.00     0.265 C 
HETATM   26  N1  UNL     1     -10.094   2.392   3.307  1.00  0.00    -0.351 N 
ATOM     27  H1  UNL     1     -10.193   2.787   4.242  1.00  0.00     0.163 HD
HETATM   28  O1  UNL     1      -9.417   0.650   2.022  1.00  0.00    -0.266 OA
BRANCH  26  29
HETATM   29  C4  UNL     1     -10.545   3.176   2.187  1.00  0.00     0.084 C 
HETATM   30  C5  UNL     1      -9.861   4.531   2.314  1.00  0.00     0.032 C 
BRANCH  29  31
HETATM   31  C2  UNL     1     -12.047   3.326   2.134  1.00  0.00    -0.000 C 
HETATM   32  C1  UNL     1     -12.578   2.229   1.199  1.00  0.00     0.011 C 
HETATM   33  C3  UNL     1     -12.665   3.054   3.488  1.00  0.00     0.011 C 
ENDBRANCH  29  31
ENDBRANCH  26  29
ENDBRANCH  24  25
BRANCH  24  34
HETATM   34  C8  UNL     1      -9.751   0.570   5.613  1.00  0.00     0.176 C 
BRANCH  34  35
HETATM   35  C9  UNL     1     -11.094   0.075   5.802  1.00  0.00     0.178 C 
HETATM   36  O2  UNL     1     -12.072   0.603   6.366  1.00  0.00    -0.648 OA
HETATM   37  O3  UNL     1     -11.360  -1.206   5.270  1.00  0.00    -0.648 OA
ENDBRANCH  34  35
ENDBRANCH  24  34
ENDBRANCH  17  24
ENDBRANCH  14  15
ENDBRANCH  13  14
ENDBRANCH  12  13
ENDBRANCH  10  12
ENDBRANCH   9  10
BRANCH   9  38
HETATM   38  O6  UNL     1      -2.959  -1.222   9.714  1.00  0.00    -0.359 OA
ATOM     39  H6  UNL     1      -3.259  -2.121   9.659  1.00  0.00     0.213 HD
ENDBRANCH   9  38
BRANCH   9  40
HETATM   40  C17 UNL     1      -5.045  -0.300   9.289  1.00  0.00     0.007 A 
HETATM   41  C18 UNL     1      -6.104  -0.142   8.452  1.00  0.00     0.015 A 
HETATM   42  C19 UNL     1      -7.379  -0.035   9.016  1.00  0.00     0.043 A 
HETATM   43  C20 UNL     1      -7.576  -0.089  10.379  1.00  0.00     0.116 A 
HETATM   44  F1  UNL     1      -8.807   0.015  10.923  1.00  0.00    -0.206 F 
HETATM   45  C21 UNL     1      -6.504  -0.249  11.223  1.00  0.00     0.043 A 
HETATM   46  C22 UNL     1      -5.258  -0.351  10.647  1.00  0.00     0.015 A 
ENDBRANCH   9  40
ENDBRANCH   1   9
TORSDOF 14
ENDMDL
MODEL 3
REMARK VINA RESULT: -8.106626733      2.308      4.631
REMARK  14 active torsions:
REMARK  status: ('A' for Active; 'I' for Inactive)
REMARK    1  A    between atoms: C2_2  and  C4_4 
REMARK    2  A    between atoms: C4_4  and  N1_6 
REMARK       I    between atoms: N1_6  and  C6_8 
REMARK    3  A    between atoms: C6_8  and  C7_10 
REMARK    4  A    between atoms: C7_10  and  C8_11 
REMARK    5  A    between atoms: C7_10  and  N2_15 
REMARK    6  A    between atoms: C8_11  and  C9_12 
REMARK    7  A    between atoms: C11_17  and  C12_18 
REMARK    8  A    between atoms: C12_18  and  N3_19 
REMARK    9  A    between atoms: N3_19  and  O4_20 
REMARK   10  A    between atoms: O4_20  and  C13_21 
REMARK   11  A    between atoms: C13_21  and  C14_23 
REMARK   12  A    between atoms: C14_23  and  O6_24 
REMARK   13  A    between atoms: C14_23  and  N4_26 
REMARK   14  A    between atoms: C14_23  and  C17_34 
REMARK       I    between atoms: N4_26  and  C15_28 
REMARK       I    between atoms: C15_28  and  N5_30 
ROOT
HETATM    1  N4  UNL     1      -4.220   0.899   8.624  1.00  0.00    -0.298 N 
ATOM      2  H4  UNL     1      -3.913   1.417   9.448  1.00  0.00     0.168 HD
HETATM    3  C15 UNL     1      -3.779   1.326   7.353  1.00  0.00     0.332 C 
HETATM    4  O7  UNL     1      -4.159   0.689   6.339  1.00  0.00    -0.246 OA
HETATM    5  N5  UNL     1      -2.925   2.449   7.202  1.00  0.00    -0.245 N 
ATOM      6  H5  UNL     1      -2.634   2.948   8.042  1.00  0.00     0.183 HD
HETATM    7  C16 UNL     1      -2.464   2.908   5.975  1.00  0.00     0.185 C 
HETATM    8  N6  UNL     1      -2.094   3.291   4.929  1.00  0.00    -0.172 NA
ENDROOT
BRANCH   1   9
HETATM    9  C14 UNL     1      -5.097  -0.254   8.808  1.00  0.00     0.258 C 
BRANCH   9  10
HETATM   10  C13 UNL     1      -4.431  -1.518   8.438  1.00  0.00     0.355 C 
HETATM   11  O5  UNL     1      -3.270  -1.743   8.870  1.00  0.00    -0.256 OA
BRANCH  10  12
HETATM   12  O4  UNL     1      -4.994  -2.480   7.649  1.00  0.00    -0.121 OA
BRANCH  12  13
HETATM   13  N3  UNL     1      -5.191  -2.601   6.416  1.00  0.00    -0.284 NA
BRANCH  13  14
HETATM   14  C12 UNL     1      -5.385  -2.700   5.241  1.00  0.00     0.237 C 
BRANCH  14  15
HETATM   15  C11 UNL     1      -6.380  -2.020   4.400  1.00  0.00     0.080 A 
HETATM   16  C10 UNL     1      -7.095  -0.917   4.849  1.00  0.00     0.121 A 
HETATM   17  N2  UNL     1      -7.989  -0.275   4.123  1.00  0.00    -0.272 N 
HETATM   18  C24 UNL     1      -8.212  -0.741   2.854  1.00  0.00     0.333 A 
HETATM   19  N7  UNL     1      -7.531  -1.798   2.417  1.00  0.00    -0.274 N 
HETATM   20  O9  UNL     1      -9.069  -0.154   2.109  1.00  0.00    -0.246 OA
HETATM   21  C23 UNL     1      -6.616  -2.471   3.129  1.00  0.00     0.263 A 
ATOM     22  H7  UNL     1      -7.719  -2.120   1.468  1.00  0.00     0.173 HD
HETATM   23  O8  UNL     1      -6.029  -3.452   2.632  1.00  0.00    -0.267 OA
BRANCH  17  24
HETATM   24  C7  UNL     1      -8.768   0.868   4.538  1.00  0.00     0.098 C 
BRANCH  24  25
HETATM   25  C6  UNL     1      -8.109   2.167   4.349  1.00  0.00     0.265 C 
HETATM   26  N1  UNL     1      -8.244   2.954   3.179  1.00  0.00    -0.351 N 
ATOM     27  H1  UNL     1      -8.833   2.599   2.425  1.00  0.00     0.163 HD
HETATM   28  O1  UNL     1      -7.377   2.630   5.249  1.00  0.00    -0.266 OA
BRANCH  26  29
HETATM   29  C4  UNL     1      -7.596   4.226   2.994  1.00  0.00     0.084 C 
HETATM   30  C5  UNL     1      -8.690   5.205   2.590  1.00  0.00     0.032 C 
BRANCH  29  31
HETATM   31  C2  UNL     1      -6.491   4.185   1.964  1.00  0.00    -0.000 C 
HETATM   32  C1  UNL     1      -5.186   3.880   2.713  1.00  0.00     0.011 C 
HETATM   33  C3  UNL     1      -6.696   3.039   0.999  1.00  0.00     0.011 C 
ENDBRANCH  29  31
ENDBRANCH  26  29
ENDBRANCH  24  25
BRANCH  24  34
HETATM   34  C8  UNL     1      -9.493   0.700   5.825  1.00  0.00     0.176 C 
BRANCH  34  35
HETATM   35  C9  UNL     1     -10.729  -0.046   5.839  1.00  0.00     0.178 C 
HETATM   36  O2  UNL     1     -10.977  -1.194   5.424  1.00  0.00    -0.648 OA
HETATM   37  O3  UNL     1     -11.841   0.614   6.406  1.00  0.00    -0.648 OA
ENDBRANCH  34  35
ENDBRANCH  24  34
ENDBRANCH  17  24
ENDBRANCH  14  15
ENDBRANCH  13  14
ENDBRANCH  12  13
ENDBRANCH  10  12
ENDBRANCH   9  10
BRANCH   9  38
HETATM   38  O6  UNL     1      -6.207  -0.022   7.951  1.00  0.00    -0.359 OA
ATOM     39  H6  UNL     1      -6.676   0.755   8.231  1.00  0.00     0.213 HD
ENDBRANCH   9  38
BRANCH   9  40
HETATM   40  C17 UNL     1      -5.650  -0.278  10.189  1.00  0.00     0.007 A 
HETATM   41  C18 UNL     1      -4.839  -0.222  11.278  1.00  0.00     0.015 A 
HETATM   42  C19 UNL     1      -5.435  -0.251  12.544  1.00  0.00     0.043 A 
HETATM   43  C20 UNL     1      -6.802  -0.331  12.700  1.00  0.00     0.116 A 
HETATM   44  F1  UNL     1      -7.376  -0.358  13.923  1.00  0.00    -0.206 F 
HETATM   45  C21 UNL     1      -7.618  -0.387  11.597  1.00  0.00     0.043 A 
HETATM   46  C22 UNL     1      -7.013  -0.358  10.362  1.00  0.00     0.015 A 
ENDBRANCH   9  40
ENDBRANCH   1   9
TORSDOF 14
ENDMDL
MODEL 4
REMARK VINA RESULT: -8.043972883      1.007      1.518
REMARK  14 active torsions:
REMARK  status: ('A' for Active; 'I' for Inactive)
REMARK    1  A    between atoms: C2_2  and  C4_4 
REMARK    2  A    between atoms: C4_4  and  N1_6 
REMARK       I    between atoms: N1_6  and  C6_8 
REMARK    3  A    between atoms: C6_8  and  C7_10 
REMARK    4  A    between atoms: C7_10  and  C8_11 
REMARK    5  A    between atoms: C7_10  and  N2_15 
REMARK    6  A    between atoms: C8_11  and  C9_12 
REMARK    7  A    between atoms: C11_17  and  C12_18 
REMARK    8  A    between atoms: C12_18  and  N3_19 
REMARK    9  A    between atoms: N3_19  and  O4_20 
REMARK   10  A    between atoms: O4_20  and  C13_21 
REMARK   11  A    between atoms: C13_21  and  C14_23 
REMARK   12  A    between atoms: C14_23  and  O6_24 
REMARK   13  A    between atoms: C14_23  and  N4_26 
REMARK   14  A    between atoms: C14_23  and  C17_34 
REMARK       I    between atoms: N4_26  and  C15_28 
REMARK       I    between atoms: C15_28  and  N5_30 
ROOT
HETATM    1  N4  UNL     1      -3.786  -1.069   7.246  1.00  0.00    -0.298 N 
ATOM      2  H4  UNL     1      -4.043  -0.612   6.371  1.00  0.00     0.168 HD
HETATM    3  C15 UNL     1      -3.760  -2.479   7.290  1.00  0.00     0.332 C 
HETATM    4  O7  UNL     1      -3.445  -3.042   8.368  1.00  0.00    -0.246 OA
HETATM    5  N5  UNL     1      -4.080  -3.265   6.153  1.00  0.00    -0.245 N 
ATOM      6  H5  UNL     1      -4.333  -2.781   5.291  1.00  0.00     0.183 HD
HETATM    7  C16 UNL     1      -4.069  -4.653   6.145  1.00  0.00     0.185 C 
HETATM    8  N6  UNL     1      -4.067  -5.826   6.159  1.00  0.00    -0.172 NA
ENDROOT
BRANCH   1   9
HETATM    9  C14 UNL     1      -3.459  -0.238   8.401  1.00  0.00     0.258 C 
BRANCH   9  10
HETATM   10  C13 UNL     1      -3.039   1.119   8.002  1.00  0.00     0.355 C 
HETATM   11  O5  UNL     1      -2.173   1.716   8.692  1.00  0.00    -0.256 OA
BRANCH  10  12
HETATM   12  O4  UNL     1      -3.530   1.786   6.916  1.00  0.00    -0.121 OA
BRANCH  12  13
HETATM   13  N3  UNL     1      -3.237   1.816   5.696  1.00  0.00    -0.284 NA
BRANCH  13  14
HETATM   14  C12 UNL     1      -2.941   1.839   4.538  1.00  0.00     0.237 C 
BRANCH  14  15
HETATM   15  C11 UNL     1      -3.707   1.377   3.372  1.00  0.00     0.080 A 
HETATM   16  C10 UNL     1      -4.697   0.409   3.476  1.00  0.00     0.121 A 
HETATM   17  N2  UNL     1      -5.411  -0.025   2.456  1.00  0.00    -0.272 N 
HETATM   18  C24 UNL     1      -5.142   0.524   1.229  1.00  0.00     0.333 A 
HETATM   19  N7  UNL     1      -4.194   1.451   1.122  1.00  0.00    -0.274 N 
HETATM   20  O9  UNL     1      -5.806   0.137   0.208  1.00  0.00    -0.246 OA
HETATM   21  C23 UNL     1      -3.452   1.914   2.139  1.00  0.00     0.263 A 
ATOM     22  H7  UNL     1      -4.017   1.840   0.195  1.00  0.00     0.173 HD
HETATM   23  O8  UNL     1      -2.585   2.786   1.938  1.00  0.00    -0.267 OA
BRANCH  17  24
HETATM   24  C7  UNL     1      -6.445  -1.033   2.501  1.00  0.00     0.098 C 
BRANCH  24  25
HETATM   25  C6  UNL     1      -7.805  -0.514   2.692  1.00  0.00     0.265 C 
HETATM   26  N1  UNL     1      -8.233   0.156   3.863  1.00  0.00    -0.351 N 
ATOM     27  H1  UNL     1      -7.559   0.288   4.617  1.00  0.00     0.163 HD
HETATM   28  O1  UNL     1      -8.659  -0.660   1.791  1.00  0.00    -0.266 OA
BRANCH  26  29
HETATM   29  C4  UNL     1      -9.568   0.663   4.050  1.00  0.00     0.084 C 
HETATM   30  C5  UNL     1      -9.538   2.116   3.593  1.00  0.00     0.032 C 
BRANCH  29  31
HETATM   31  C2  UNL     1     -10.052   0.549   5.477  1.00  0.00    -0.000 C 
HETATM   32  C1  UNL     1     -10.917  -0.717   5.560  1.00  0.00     0.011 C 
HETATM   33  C3  UNL     1      -8.894   0.326   6.423  1.00  0.00     0.011 C 
ENDBRANCH  29  31
ENDBRANCH  26  29
ENDBRANCH  24  25
BRANCH  24  34
HETATM   34  C8  UNL     1      -6.105  -2.245   3.292  1.00  0.00     0.176 C 
BRANCH  34  35
HETATM   35  C9  UNL     1      -6.881  -3.446   3.098  1.00  0.00     0.178 C 
HETATM   36  O2  UNL     1      -7.480  -3.860   2.087  1.00  0.00    -0.648 OA
HETATM   37  O3  UNL     1      -6.991  -4.297   4.219  1.00  0.00    -0.648 OA
ENDBRANCH  34  35
ENDBRANCH  24  34
ENDBRANCH  17  24
ENDBRANCH  14  15
ENDBRANCH  13  14
ENDBRANCH  12  13
ENDBRANCH  10  12
ENDBRANCH   9  10
BRANCH   9  38
HETATM   38  O6  UNL     1      -2.387  -0.905   9.053  1.00  0.00    -0.359 OA
ATOM     39  H6  UNL     1      -2.701  -1.326   9.845  1.00  0.00     0.213 HD
ENDBRANCH   9  38
BRANCH   9  40
HETATM   40  C17 UNL     1      -4.583  -0.229   9.376  1.00  0.00     0.007 A 
HETATM   41  C18 UNL     1      -4.359  -0.232  10.716  1.00  0.00     0.015 A 
HETATM   42  C19 UNL     1      -5.468  -0.224  11.568  1.00  0.00     0.043 A 
HETATM   43  C20 UNL     1      -6.758  -0.210  11.081  1.00  0.00     0.116 A 
HETATM   44  F1  UNL     1      -7.828  -0.203  11.905  1.00  0.00    -0.206 F 
HETATM   45  C21 UNL     1      -6.980  -0.207   9.726  1.00  0.00     0.043 A 
HETATM   46  C22 UNL     1      -5.876  -0.216   8.905  1.00  0.00     0.015 A 
ENDBRANCH   9  40
ENDBRANCH   1   9
TORSDOF 14
ENDMDL
MODEL 5
REMARK VINA RESULT: -8.023307218      1.525      2.160
REMARK  14 active torsions:
REMARK  status: ('A' for Active; 'I' for Inactive)
REMARK    1  A    between atoms: C2_2  and  C4_4 
REMARK    2  A    between atoms: C4_4  and  N1_6 
REMARK       I    between atoms: N1_6  and  C6_8 
REMARK    3  A    between atoms: C6_8  and  C7_10 
REMARK    4  A    between atoms: C7_10  and  C8_11 
REMARK    5  A    between atoms: C7_10  and  N2_15 
REMARK    6  A    between atoms: C8_11  and  C9_12 
REMARK    7  A    between atoms: C11_17  and  C12_18 
REMARK    8  A    between atoms: C12_18  and  N3_19 
REMARK    9  A    between atoms: N3_19  and  O4_20 
REMARK   10  A    between atoms: O4_20  and  C13_21 
REMARK   11  A    between atoms: C13_21  and  C14_23 
REMARK   12  A    between atoms: C14_23  and  O6_24 
REMARK   13  A    between atoms: C14_23  and  N4_26 
REMARK   14  A    between atoms: C14_23  and  C17_34 
REMARK       I    between atoms: N4_26  and  C15_28 
REMARK       I    between atoms: C15_28  and  N5_30 
ROOT
HETATM    1  N4  UNL     1      -3.923  -1.302   6.979  1.00  0.00    -0.298 N 
ATOM      2  H4  UNL     1      -4.196  -0.960   6.057  1.00  0.00     0.168 HD
HETATM    3  C15 UNL     1      -3.847  -2.695   7.190  1.00  0.00     0.332 C 
HETATM    4  O7  UNL     1      -3.513  -3.115   8.325  1.00  0.00    -0.246 OA
HETATM    5  N5  UNL     1      -4.138  -3.620   6.153  1.00  0.00    -0.245 N 
ATOM      6  H5  UNL     1      -4.407  -3.251   5.242  1.00  0.00     0.183 HD
HETATM    7  C16 UNL     1      -4.077  -4.998   6.310  1.00  0.00     0.185 C 
HETATM    8  N6  UNL     1      -4.032  -6.161   6.462  1.00  0.00    -0.172 NA
ENDROOT
BRANCH   1   9
HETATM    9  C14 UNL     1      -3.628  -0.329   8.027  1.00  0.00     0.258 C 
BRANCH   9  10
HETATM   10  C13 UNL     1      -3.318   1.003   7.472  1.00  0.00     0.355 C 
HETATM   11  O5  UNL     1      -2.501   1.741   8.080  1.00  0.00    -0.256 OA
BRANCH  10  12
HETATM   12  O4  UNL     1      -3.862   1.500   6.322  1.00  0.00    -0.121 OA
BRANCH  12  13
HETATM   13  N3  UNL     1      -3.659   1.309   5.099  1.00  0.00    -0.284 NA
BRANCH  13  14
HETATM   14  C12 UNL     1      -3.471   1.143   3.930  1.00  0.00     0.237 C 
BRANCH  14  15
HETATM   15  C11 UNL     1      -4.423   0.760   2.879  1.00  0.00     0.080 A 
HETATM   16  C10 UNL     1      -5.670   0.224   3.172  1.00  0.00     0.121 A 
HETATM   17  N2  UNL     1      -6.554  -0.124   2.258  1.00  0.00    -0.272 N 
HETATM   18  C24 UNL     1      -6.202   0.062   0.947  1.00  0.00     0.333 A 
HETATM   19  N7  UNL     1      -5.008   0.576   0.658  1.00  0.00    -0.274 N 
HETATM   20  O9  UNL     1      -7.023  -0.259   0.022  1.00  0.00    -0.246 OA
HETATM   21  C23 UNL     1      -4.088   0.939   1.563  1.00  0.00     0.263 A 
ATOM     22  H7  UNL     1      -4.775   0.702  -0.327  1.00  0.00     0.173 HD
HETATM   23  O8  UNL     1      -2.995   1.412   1.194  1.00  0.00    -0.267 OA
BRANCH  17  24
HETATM   24  C7  UNL     1      -7.859  -0.694   2.501  1.00  0.00     0.098 C 
BRANCH  24  25
HETATM   25  C6  UNL     1      -8.915   0.283   2.795  1.00  0.00     0.265 C 
HETATM   26  N1  UNL     1      -9.277   1.336   1.919  1.00  0.00    -0.351 N 
ATOM     27  H1  UNL     1      -8.777   1.420   1.034  1.00  0.00     0.163 HD
HETATM   28  O1  UNL     1      -9.546   0.213   3.871  1.00  0.00    -0.266 OA
BRANCH  26  29
HETATM   29  C4  UNL     1     -10.312   2.294   2.209  1.00  0.00     0.084 C 
HETATM   30  C5  UNL     1     -11.476   1.953   1.288  1.00  0.00     0.032 C 
BRANCH  29  31
HETATM   31  C2  UNL     1      -9.866   3.725   2.019  1.00  0.00    -0.000 C 
HETATM   32  C1  UNL     1      -8.578   3.909   2.834  1.00  0.00     0.011 C 
HETATM   33  C3  UNL     1      -9.487   3.985   0.577  1.00  0.00     0.011 C 
ENDBRANCH  29  31
ENDBRANCH  26  29
ENDBRANCH  24  25
BRANCH  24  34
HETATM   34  C8  UNL     1      -7.862  -1.914   3.351  1.00  0.00     0.176 C 
BRANCH  34  35
HETATM   35  C9  UNL     1      -7.115  -3.070   2.915  1.00  0.00     0.178 C 
HETATM   36  O2  UNL     1      -7.376  -3.906   2.029  1.00  0.00    -0.648 OA
HETATM   37  O3  UNL     1      -5.896  -3.307   3.588  1.00  0.00    -0.648 OA
ENDBRANCH  34  35
ENDBRANCH  24  34
ENDBRANCH  17  24
ENDBRANCH  14  15
ENDBRANCH  13  14
ENDBRANCH  12  13
ENDBRANCH  10  12
ENDBRANCH   9  10
BRANCH   9  38
HETATM   38  O6  UNL     1      -2.494  -0.845   8.712  1.00  0.00    -0.359 OA
ATOM     39  H6  UNL     1      -2.585  -1.784   8.827  1.00  0.00     0.213 HD
ENDBRANCH   9  38
BRANCH   9  40
HETATM   40  C17 UNL     1      -4.725  -0.291   9.032  1.00  0.00     0.007 A 
HETATM   41  C18 UNL     1      -6.031  -0.284   8.658  1.00  0.00     0.015 A 
HETATM   42  C19 UNL     1      -7.004  -0.247   9.662  1.00  0.00     0.043 A 
HETATM   43  C20 UNL     1      -6.666  -0.220  10.998  1.00  0.00     0.116 A 
HETATM   44  F1  UNL     1      -7.606  -0.184  11.967  1.00  0.00    -0.206 F 
HETATM   45  C21 UNL     1      -5.345  -0.227  11.374  1.00  0.00     0.043 A 
HETATM   46  C22 UNL     1      -4.404  -0.263  10.371  1.00  0.00     0.015 A 
ENDBRANCH   9  40
ENDBRANCH   1   9
TORSDOF 14
ENDMDL
