MODEL 1
REMARK VINA RESULT: -8.542453771      0.000      0.000
REMARK  14 active torsions:
REMARK  status: ('A' for Active; 'I' for Inactive)
REMARK    1  A    between atoms: C2_2  and  O1_3 
REMARK    2  A    between atoms: O1_3  and  C3_4 
REMARK    3  A    between atoms: C3_4  and  C15_29 
REMARK    4  A    between atoms: N1_5  and  N2_7 
REMARK       I    between atoms: N2_7  and  C4_9 
REMARK    5  A    between atoms: C4_9  and  C5_11 
REMARK    6  A    between atoms: C8_17  and  N4_18 
REMARK    7  A    between atoms: N4_18  and  C9_20 
REMARK    8  A    between atoms: C15_29  and  C16_30 
REMARK    9  A    between atoms: C15_29  and  C18_41 
REMARK       I    between atoms: C16_30  and  N6_32 
REMARK   10  A    between atoms: N6_32  and  N7_34 
REMARK       I    between atoms: N7_34  and  C17_36 
REMARK   11  A    between atoms: C18_41  and  O5_42 
REMARK   12  A    between atoms: C18_41  and  C21_46 
REMARK   13  A    between atoms: O5_42  and  C19_43 
REMARK   14  A    between atoms: C21_46  and  O8_48 
ROOT
HETATM    1  C3  UNL     1      -7.475   1.675   3.444  1.00  0.00     0.149 C 
HETATM    2  N1  UNL     1      -7.361   1.095   4.501  1.00  0.00    -0.280 N 
ATOM      3  H1  UNL     1      -8.246   0.606   4.631  1.00  0.00     0.189 HD
ENDROOT
BRANCH   1   4
HETATM    4  O1  UNL     1      -6.421   2.452   2.976  1.00  0.00    -0.338 OA
BRANCH   4   5
HETATM    5  C2  UNL     1      -5.601   2.192   1.895  1.00  0.00     0.172 C 
HETATM    6  C1  UNL     1      -4.940   0.847   1.892  1.00  0.00     0.034 C 
ENDBRANCH   4   5
ENDBRANCH   1   4
BRANCH   1   7
HETATM    7  C15 UNL     1      -8.740   1.546   2.666  1.00  0.00     0.195 C 
BRANCH   7   8
HETATM    8  C16 UNL     1      -8.822   0.294   1.883  1.00  0.00     0.251 C 
HETATM    9  O4  UNL     1      -9.490   0.205   0.814  1.00  0.00    -0.271 OA
HETATM   10  N6  UNL     1      -8.138  -0.855   2.324  1.00  0.00    -0.267 N 
ATOM     11  H6  UNL     1      -7.587  -0.812   3.182  1.00  0.00     0.190 HD
BRANCH  10  12
HETATM   12  N7  UNL     1      -8.200  -2.046   1.612  1.00  0.00    -0.271 N 
HETATM   13  C17 UNL     1      -7.743  -3.283   2.157  1.00  0.00     0.200 C 
HETATM   14  N8  UNL     1      -8.559  -4.274   2.247  1.00  0.00    -0.372 N 
HETATM   15  N9  UNL     1      -6.406  -3.445   2.602  1.00  0.00    -0.062 NA
ATOM     16  H82 UNL     1      -9.521  -4.157   1.927  1.00  0.00     0.158 HD
ATOM     17  H81 UNL     1      -8.232  -5.158   2.636  1.00  0.00     0.158 HD
ATOM     18  H7  UNL     1      -8.586  -2.036   0.668  1.00  0.00     0.189 HD
ENDBRANCH  10  12
ENDBRANCH   7   8
BRANCH   7  19
HETATM   19  C18 UNL     1      -9.960   1.615   3.565  1.00  0.00     0.252 C 
BRANCH  19  20
HETATM   20  O5  UNL     1     -10.210   0.363   4.181  1.00  0.00    -0.305 OA
BRANCH  20  21
HETATM   21  C19 UNL     1     -10.574   0.217   5.514  1.00  0.00     0.255 C 
HETATM   22  C20 UNL     1     -11.986   0.158   5.967  1.00  0.00     0.126 C 
HETATM   23  O6  UNL     1      -9.616   0.139   6.306  1.00  0.00    -0.266 OA
ENDBRANCH  20  21
ENDBRANCH  19  20
BRANCH  19  24
HETATM   24  C21 UNL     1     -11.123   2.201   2.916  1.00  0.00     0.289 C 
HETATM   25  O7  UNL     1     -11.186   3.426   2.723  1.00  0.00    -0.262 OA
BRANCH  24  26
HETATM   26  O8  UNL     1     -12.189   1.447   2.492  1.00  0.00    -0.324 OA
HETATM   27  C22 UNL     1     -13.495   1.723   2.959  1.00  0.00     0.213 C 
ENDBRANCH  24  26
ENDBRANCH  19  24
ENDBRANCH   7  19
ENDBRANCH   1   7
BRANCH   2  28
HETATM   28  N2  UNL     1      -6.639   0.792   5.568  1.00  0.00    -0.263 N 
HETATM   29  C4  UNL     1      -6.268  -0.530   5.980  1.00  0.00     0.287 C 
HETATM   30  O2  UNL     1      -6.668  -1.467   5.253  1.00  0.00    -0.264 OA
ATOM     31  H2  UNL     1      -6.320   1.568   6.149  1.00  0.00     0.190 HD
BRANCH  29  32
HETATM   32  C5  UNL     1      -5.479  -0.827   7.154  1.00  0.00     0.123 A 
HETATM   33  C6  UNL     1      -4.693  -1.965   7.160  1.00  0.00     0.110 A 
HETATM   34  C7  UNL     1      -3.942  -2.270   8.258  1.00  0.00     0.261 A 
HETATM   35  O3  UNL     1      -3.227  -3.321   8.244  1.00  0.00    -0.268 OA
HETATM   36  N3  UNL     1      -3.981  -1.448   9.328  1.00  0.00    -0.156 N 
HETATM   37  C8  UNL     1      -4.731  -0.339   9.354  1.00  0.00     0.686 A 
ATOM     38  H3  UNL     1      -3.419  -1.680  10.147  1.00  0.00     0.187 HD
HETATM   39  N5  UNL     1      -5.469  -0.051   8.257  1.00  0.00    -0.186 N 
ATOM     40  H5  UNL     1      -6.044   0.791   8.264  1.00  0.00     0.184 HD
BRANCH  37  41
HETATM   41  N4  UNL     1      -4.729   0.408  10.412  1.00  0.00    -0.190 N 
ATOM     42  H4  UNL     1      -4.266   1.316  10.376  1.00  0.00     0.184 HD
BRANCH  41  43
HETATM   43  C9  UNL     1      -5.355  -0.002  11.623  1.00  0.00     0.070 A 
HETATM   44  C10 UNL     1      -4.600  -0.282  12.740  1.00  0.00     0.032 A 
HETATM   45  C11 UNL     1      -5.215  -0.678  13.919  1.00  0.00     0.002 A 
HETATM   46  C12 UNL     1      -6.588  -0.778  13.927  1.00  0.00     0.002 A 
HETATM   47  C13 UNL     1      -7.359  -0.497  12.800  1.00  0.00     0.026 A 
HETATM   48  C14 UNL     1      -6.735  -0.105  11.637  1.00  0.00     0.061 A 
HETATM   49 CL1  UNL     1      -7.696   0.251  10.212  1.00  0.00    -0.082 Cl
ENDBRANCH  41  43
ENDBRANCH  37  41
ENDBRANCH  29  32
ENDBRANCH   2  28
TORSDOF 14
ENDMDL
MODEL 2
REMARK VINA RESULT: -8.354818163      1.352      1.594
REMARK  14 active torsions:
REMARK  status: ('A' for Active; 'I' for Inactive)
REMARK    1  A    between atoms: C2_2  and  O1_3 
REMARK    2  A    between atoms: O1_3  and  C3_4 
REMARK    3  A    between atoms: C3_4  and  C15_29 
REMARK    4  A    between atoms: N1_5  and  N2_7 
REMARK       I    between atoms: N2_7  and  C4_9 
REMARK    5  A    between atoms: C4_9  and  C5_11 
REMARK    6  A    between atoms: C8_17  and  N4_18 
REMARK    7  A    between atoms: N4_18  and  C9_20 
REMARK    8  A    between atoms: C15_29  and  C16_30 
REMARK    9  A    between atoms: C15_29  and  C18_41 
REMARK       I    between atoms: C16_30  and  N6_32 
REMARK   10  A    between atoms: N6_32  and  N7_34 
REMARK       I    between atoms: N7_34  and  C17_36 
REMARK   11  A    between atoms: C18_41  and  O5_42 
REMARK   12  A    between atoms: C18_41  and  C21_46 
REMARK   13  A    between atoms: O5_42  and  C19_43 
REMARK   14  A    between atoms: C21_46  and  O8_48 
ROOT
HETATM    1  C3  UNL     1      -6.832   1.624   3.024  1.00  0.00     0.149 C 
HETATM    2  N1  UNL     1      -6.829   0.877   3.977  1.00  0.00    -0.280 N 
ATOM      3  H1  UNL     1      -7.620   0.251   3.826  1.00  0.00     0.189 HD
ENDROOT
BRANCH   1   4
HETATM    4  O1  UNL     1      -5.864   2.618   2.934  1.00  0.00    -0.338 OA
BRANCH   4   5
HETATM    5  C2  UNL     1      -4.521   2.458   2.655  1.00  0.00     0.172 C 
HETATM    6  C1  UNL     1      -4.197   1.483   1.565  1.00  0.00     0.034 C 
ENDBRANCH   4   5
ENDBRANCH   1   4
BRANCH   1   7
HETATM    7  C15 UNL     1      -7.873   1.466   1.968  1.00  0.00     0.195 C 
BRANCH   7   8
HETATM    8  C16 UNL     1      -7.845   0.141   1.312  1.00  0.00     0.251 C 
HETATM    9  O4  UNL     1      -7.500  -0.010   0.106  1.00  0.00    -0.271 OA
HETATM   10  N6  UNL     1      -8.213  -1.008   2.037  1.00  0.00    -0.267 N 
ATOM     11  H6  UNL     1      -8.493  -0.917   3.013  1.00  0.00     0.190 HD
BRANCH  10  12
HETATM   12  N7  UNL     1      -8.201  -2.265   1.445  1.00  0.00    -0.271 N 
HETATM   13  C17 UNL     1      -7.758  -3.429   2.141  1.00  0.00     0.200 C 
HETATM   14  N8  UNL     1      -8.558  -4.428   2.275  1.00  0.00    -0.372 N 
HETATM   15  N9  UNL     1      -6.453  -3.511   2.690  1.00  0.00    -0.062 NA
ATOM     16  H82 UNL     1      -9.498  -4.369   1.880  1.00  0.00     0.158 HD
ATOM     17  H81 UNL     1      -8.242  -5.261   2.772  1.00  0.00     0.158 HD
ATOM     18  H7  UNL     1      -8.520  -2.359   0.481  1.00  0.00     0.189 HD
ENDBRANCH  10  12
ENDBRANCH   7   8
BRANCH   7  19
HETATM   19  C18 UNL     1      -9.269   1.685   2.520  1.00  0.00     0.252 C 
BRANCH  19  20
HETATM   20  O5  UNL     1      -9.655   0.615   3.367  1.00  0.00    -0.305 OA
BRANCH  20  21
HETATM   21  C19 UNL     1     -10.202   0.790   4.632  1.00  0.00     0.255 C 
HETATM   22  C20 UNL     1     -11.650   1.025   4.863  1.00  0.00     0.126 C 
HETATM   23  O6  UNL     1      -9.379   0.736   5.564  1.00  0.00    -0.266 OA
ENDBRANCH  20  21
ENDBRANCH  19  20
BRANCH  19  24
HETATM   24  C21 UNL     1     -10.249   2.016   1.497  1.00  0.00     0.289 C 
HETATM   25  O7  UNL     1     -10.173   3.089   0.877  1.00  0.00    -0.262 OA
BRANCH  24  26
HETATM   26  O8  UNL     1     -11.287   1.179   1.171  1.00  0.00    -0.324 OA
HETATM   27  C22 UNL     1     -12.617   1.659   1.148  1.00  0.00     0.213 C 
ENDBRANCH  24  26
ENDBRANCH  19  24
ENDBRANCH   7  19
ENDBRANCH   1   7
BRANCH   2  28
HETATM   28  N2  UNL     1      -6.292   0.483   5.121  1.00  0.00    -0.263 N 
HETATM   29  C4  UNL     1      -5.213  -0.451   5.262  1.00  0.00     0.287 C 
HETATM   30  O2  UNL     1      -4.750  -0.923   4.199  1.00  0.00    -0.264 OA
ATOM     31  H2  UNL     1      -6.680   0.879   5.977  1.00  0.00     0.190 HD
BRANCH  29  32
HETATM   32  C5  UNL     1      -4.650  -0.862   6.528  1.00  0.00     0.123 A 
HETATM   33  C6  UNL     1      -3.878  -2.008   6.574  1.00  0.00     0.110 A 
HETATM   34  C7  UNL     1      -3.337  -2.420   7.758  1.00  0.00     0.261 A 
HETATM   35  O3  UNL     1      -2.631  -3.476   7.779  1.00  0.00    -0.268 OA
HETATM   36  N3  UNL     1      -3.570  -1.694   8.872  1.00  0.00    -0.156 N 
HETATM   37  C8  UNL     1      -4.313  -0.580   8.861  1.00  0.00     0.686 A 
ATOM     38  H3  UNL     1      -3.165  -2.006   9.756  1.00  0.00     0.187 HD
HETATM   39  N5  UNL     1      -4.841  -0.186   7.679  1.00  0.00    -0.186 N 
ATOM     40  H5  UNL     1      -5.408   0.662   7.657  1.00  0.00     0.184 HD
BRANCH  37  41
HETATM   41  N4  UNL     1      -4.503   0.071   9.964  1.00  0.00    -0.190 N 
ATOM     42  H4  UNL     1      -3.809   0.758  10.259  1.00  0.00     0.184 HD
BRANCH  41  43
HETATM   43  C9  UNL     1      -5.653  -0.144  10.776  1.00  0.00     0.070 A 
HETATM   44  C10 UNL     1      -6.876  -0.409  10.199  1.00  0.00     0.032 A 
HETATM   45  C11 UNL     1      -7.992  -0.620  10.995  1.00  0.00     0.002 A 
HETATM   46  C12 UNL     1      -7.832  -0.556  12.360  1.00  0.00     0.002 A 
HETATM   47  C13 UNL     1      -6.598  -0.289  12.951  1.00  0.00     0.026 A 
HETATM   48  C14 UNL     1      -5.497  -0.081  12.149  1.00  0.00     0.061 A 
HETATM   49 CL1  UNL     1      -3.939   0.258  12.881  1.00  0.00    -0.082 Cl
ENDBRANCH  41  43
ENDBRANCH  37  41
ENDBRANCH  29  32
ENDBRANCH   2  28
TORSDOF 14
ENDMDL
MODEL 3
REMARK VINA RESULT: -8.125335724      2.311      4.473
REMARK  14 active torsions:
REMARK  status: ('A' for Active; 'I' for Inactive)
REMARK    1  A    between atoms: C2_2  and  O1_3 
REMARK    2  A    between atoms: O1_3  and  C3_4 
REMARK    3  A    between atoms: C3_4  and  C15_29 
REMARK    4  A    between atoms: N1_5  and  N2_7 
REMARK       I    between atoms: N2_7  and  C4_9 
REMARK    5  A    between atoms: C4_9  and  C5_11 
REMARK    6  A    between atoms: C8_17  and  N4_18 
REMARK    7  A    between atoms: N4_18  and  C9_20 
REMARK    8  A    between atoms: C15_29  and  C16_30 
REMARK    9  A    between atoms: C15_29  and  C18_41 
REMARK       I    between atoms: C16_30  and  N6_32 
REMARK   10  A    between atoms: N6_32  and  N7_34 
REMARK       I    between atoms: N7_34  and  C17_36 
REMARK   11  A    between atoms: C18_41  and  O5_42 
REMARK   12  A    between atoms: C18_41  and  C21_46 
REMARK   13  A    between atoms: O5_42  and  C19_43 
REMARK   14  A    between atoms: C21_46  and  O8_48 
ROOT
HETATM    1  C3  UNL     1      -8.583   0.094   3.633  1.00  0.00     0.149 C 
HETATM    2  N1  UNL     1      -7.549   0.185   4.257  1.00  0.00    -0.280 N 
ATOM      3  H1  UNL     1      -6.943   0.771   3.682  1.00  0.00     0.189 HD
ENDROOT
BRANCH   1   4
HETATM    4  O1  UNL     1      -9.629  -0.659   4.154  1.00  0.00    -0.338 OA
BRANCH   4   5
HETATM    5  C2  UNL     1     -10.108  -0.647   5.450  1.00  0.00     0.172 C 
HETATM    6  C1  UNL     1     -11.543  -0.248   5.606  1.00  0.00     0.034 C 
ENDBRANCH   4   5
ENDBRANCH   1   4
BRANCH   1   7
HETATM    7  C15 UNL     1      -8.714   0.788   2.319  1.00  0.00     0.195 C 
BRANCH   7   8
HETATM    8  C16 UNL     1      -9.892   1.679   2.242  1.00  0.00     0.251 C 
HETATM    9  O4  UNL     1     -10.541   1.852   1.172  1.00  0.00    -0.271 OA
HETATM   10  N6  UNL     1     -10.325   2.370   3.390  1.00  0.00    -0.267 N 
ATOM     11  H6  UNL     1      -9.822   2.246   4.269  1.00  0.00     0.190 HD
BRANCH  10  12
HETATM   12  N7  UNL     1     -11.425   3.217   3.346  1.00  0.00    -0.271 N 
HETATM   13  C17 UNL     1     -12.712   2.817   3.814  1.00  0.00     0.200 C 
HETATM   14  N8  UNL     1     -13.286   3.496   4.744  1.00  0.00    -0.372 N 
HETATM   15  N9  UNL     1     -13.375   1.684   3.276  1.00  0.00    -0.062 NA
ATOM     16  H82 UNL     1     -12.809   4.311   5.131  1.00  0.00     0.158 HD
ATOM     17  H81 UNL     1     -14.206   3.210   5.078  1.00  0.00     0.158 HD
ATOM     18  H7  UNL     1     -11.308   4.156   2.968  1.00  0.00     0.189 HD
ENDBRANCH  10  12
ENDBRANCH   7   8
BRANCH   7  19
HETATM   19  C18 UNL     1      -7.482   1.613   1.996  1.00  0.00     0.252 C 
BRANCH  19  20
HETATM   20  O5  UNL     1      -7.629   2.947   2.454  1.00  0.00    -0.305 OA
BRANCH  20  21
HETATM   21  C19 UNL     1      -6.769   3.549   3.364  1.00  0.00     0.255 C 
HETATM   22  C20 UNL     1      -5.999   4.781   3.058  1.00  0.00     0.126 C 
HETATM   23  O6  UNL     1      -6.693   2.972   4.464  1.00  0.00    -0.266 OA
ENDBRANCH  20  21
ENDBRANCH  19  20
BRANCH  19  24
HETATM   24  C21 UNL     1      -7.062   1.503   0.607  1.00  0.00     0.289 C 
HETATM   25  O7  UNL     1      -6.830   0.391   0.106  1.00  0.00    -0.262 OA
BRANCH  24  26
HETATM   26  O8  UNL     1      -6.905   2.599  -0.204  1.00  0.00    -0.324 OA
HETATM   27  C22 UNL     1      -5.615   3.107  -0.484  1.00  0.00     0.213 C 
ENDBRANCH  24  26
ENDBRANCH  19  24
ENDBRANCH   7  19
ENDBRANCH   1   7
BRANCH   2  28
HETATM   28  N2  UNL     1      -6.827  -0.111   5.326  1.00  0.00    -0.263 N 
HETATM   29  C4  UNL     1      -5.614  -0.873   5.333  1.00  0.00     0.287 C 
HETATM   30  O2  UNL     1      -5.215  -1.285   4.220  1.00  0.00    -0.264 OA
ATOM     31  H2  UNL     1      -7.165   0.234   6.225  1.00  0.00     0.190 HD
BRANCH  29  32
HETATM   32  C5  UNL     1      -4.850  -1.181   6.520  1.00  0.00     0.123 A 
HETATM   33  C6  UNL     1      -3.942  -2.224   6.479  1.00  0.00     0.110 A 
HETATM   34  C7  UNL     1      -3.211  -2.537   7.589  1.00  0.00     0.261 A 
HETATM   35  O3  UNL     1      -2.383  -3.499   7.530  1.00  0.00    -0.268 OA
HETATM   36  N3  UNL     1      -3.390  -1.817   8.716  1.00  0.00    -0.156 N 
HETATM   37  C8  UNL     1      -4.260  -0.802   8.789  1.00  0.00     0.686 A 
ATOM     38  H3  UNL     1      -2.842  -2.055   9.544  1.00  0.00     0.187 HD
HETATM   39  N5  UNL     1      -4.976  -0.504   7.680  1.00  0.00    -0.186 N 
ATOM     40  H5  UNL     1      -5.642   0.267   7.722  1.00  0.00     0.184 HD
BRANCH  37  41
HETATM   41  N4  UNL     1      -4.390  -0.151   9.901  1.00  0.00    -0.190 N 
ATOM     42  H4  UNL     1      -3.629   0.453  10.212  1.00  0.00     0.184 HD
BRANCH  41  43
HETATM   43  C9  UNL     1      -5.563  -0.254  10.700  1.00  0.00     0.070 A 
HETATM   44  C10 UNL     1      -6.790  -0.475  10.115  1.00  0.00     0.032 A 
HETATM   45  C11 UNL     1      -7.930  -0.578  10.899  1.00  0.00     0.002 A 
HETATM   46  C12 UNL     1      -7.788  -0.452  12.263  1.00  0.00     0.002 A 
HETATM   47  C13 UNL     1      -6.549  -0.229  12.862  1.00  0.00     0.026 A 
HETATM   48  C14 UNL     1      -5.425  -0.129  12.071  1.00  0.00     0.061 A 
HETATM   49 CL1  UNL     1      -3.862   0.154  12.815  1.00  0.00    -0.082 Cl
ENDBRANCH  41  43
ENDBRANCH  37  41
ENDBRANCH  29  32
ENDBRANCH   2  28
TORSDOF 14
ENDMDL
MODEL 4
REMARK VINA RESULT: -7.945995326      3.313      9.012
REMARK  14 active torsions:
REMARK  status: ('A' for Active; 'I' for Inactive)
REMARK    1  A    between atoms: C2_2  and  O1_3 
REMARK    2  A    between atoms: O1_3  and  C3_4 
REMARK    3  A    between atoms: C3_4  and  C15_29 
REMARK    4  A    between atoms: N1_5  and  N2_7 
REMARK       I    between atoms: N2_7  and  C4_9 
REMARK    5  A    between atoms: C4_9  and  C5_11 
REMARK    6  A    between atoms: C8_17  and  N4_18 
REMARK    7  A    between atoms: N4_18  and  C9_20 
REMARK    8  A    between atoms: C15_29  and  C16_30 
REMARK    9  A    between atoms: C15_29  and  C18_41 
REMARK       I    between atoms: C16_30  and  N6_32 
REMARK   10  A    between atoms: N6_32  and  N7_34 
REMARK       I    between atoms: N7_34  and  C17_36 
REMARK   11  A    between atoms: C18_41  and  O5_42 
REMARK   12  A    between atoms: C18_41  and  C21_46 
REMARK   13  A    between atoms: O5_42  and  C19_43 
REMARK   14  A    between atoms: C21_46  and  O8_48 
ROOT
HETATM    1  C3  UNL     1      -3.932  -1.579   7.705  1.00  0.00     0.149 C 
HETATM    2  N1  UNL     1      -4.897  -1.283   7.036  1.00  0.00    -0.280 N 
ATOM      3  H1  UNL     1      -5.228  -0.400   7.425  1.00  0.00     0.189 HD
ENDROOT
BRANCH   1   4
HETATM    4  O1  UNL     1      -3.245  -2.756   7.427  1.00  0.00    -0.338 OA
BRANCH   4   5
HETATM    5  C2  UNL     1      -3.703  -4.050   7.576  1.00  0.00     0.172 C 
HETATM    6  C1  UNL     1      -3.870  -4.829   6.307  1.00  0.00     0.034 C 
ENDBRANCH   4   5
ENDBRANCH   1   4
BRANCH   1   7
HETATM    7  C15 UNL     1      -3.499  -0.679   8.812  1.00  0.00     0.195 C 
BRANCH   7   8
HETATM    8  C16 UNL     1      -3.168   0.690   8.360  1.00  0.00     0.251 C 
HETATM    9  O4  UNL     1      -3.353   1.073   7.170  1.00  0.00    -0.271 OA
HETATM   10  N6  UNL     1      -2.626   1.617   9.270  1.00  0.00    -0.267 N 
ATOM     11  H6  UNL     1      -2.469   1.336  10.238  1.00  0.00     0.190 HD
BRANCH  10  12
HETATM   12  N7  UNL     1      -2.301   2.908   8.873  1.00  0.00    -0.271 N 
HETATM   13  C17 UNL     1      -0.968   3.286   8.531  1.00  0.00     0.200 C 
HETATM   14  N8  UNL     1      -0.728   3.769   7.363  1.00  0.00    -0.372 N 
HETATM   15  N9  UNL     1       0.101   3.140   9.453  1.00  0.00    -0.062 NA
ATOM     16  H82 UNL     1      -1.497   3.874   6.701  1.00  0.00     0.158 HD
ATOM     17  H81 UNL     1       0.225   4.040   7.119  1.00  0.00     0.158 HD
ATOM     18  H7  UNL     1      -3.039   3.608   8.823  1.00  0.00     0.189 HD
ENDBRANCH  10  12
ENDBRANCH   7   8
BRANCH   7  19
HETATM   19  C18 UNL     1      -4.559  -0.571   9.892  1.00  0.00     0.252 C 
BRANCH  19  20
HETATM   20  O5  UNL     1      -5.583   0.333   9.512  1.00  0.00    -0.305 OA
BRANCH  20  21
HETATM   21  C19 UNL     1      -6.924  -0.016   9.415  1.00  0.00     0.255 C 
HETATM   22  C20 UNL     1      -7.754  -0.380  10.592  1.00  0.00     0.126 C 
HETATM   23  O6  UNL     1      -7.381  -0.001   8.257  1.00  0.00    -0.266 OA
ENDBRANCH  20  21
ENDBRANCH  19  20
BRANCH  19  24
HETATM   24  C21 UNL     1      -4.010  -0.324  11.217  1.00  0.00     0.289 C 
HETATM   25  O7  UNL     1      -2.832  -0.618  11.475  1.00  0.00    -0.262 OA
BRANCH  24  26
HETATM   26  O8  UNL     1      -4.750   0.236  12.229  1.00  0.00    -0.324 OA
HETATM   27  C22 UNL     1      -5.137  -0.537  13.347  1.00  0.00     0.213 C 
ENDBRANCH  24  26
ENDBRANCH  19  24
ENDBRANCH   7  19
ENDBRANCH   1   7
BRANCH   2  28
HETATM   28  N2  UNL     1      -5.729  -1.555   6.043  1.00  0.00    -0.263 N 
HETATM   29  C4  UNL     1      -5.446  -1.396   4.647  1.00  0.00     0.287 C 
HETATM   30  O2  UNL     1      -4.307  -0.962   4.360  1.00  0.00    -0.264 OA
ATOM     31  H2  UNL     1      -6.651  -1.910   6.294  1.00  0.00     0.190 HD
BRANCH  29  32
HETATM   32  C5  UNL     1      -6.378  -1.701   3.585  1.00  0.00     0.123 A 
HETATM   33  C6  UNL     1      -6.627  -3.026   3.275  1.00  0.00     0.110 A 
HETATM   34  C7  UNL     1      -7.501  -3.340   2.275  1.00  0.00     0.261 A 
HETATM   35  O3  UNL     1      -7.714  -4.563   2.005  1.00  0.00    -0.268 OA
HETATM   36  N3  UNL     1      -8.111  -2.343   1.600  1.00  0.00    -0.156 N 
HETATM   37  C8  UNL     1      -7.893  -1.051   1.876  1.00  0.00     0.686 A 
ATOM     38  H3  UNL     1      -8.763  -2.583   0.852  1.00  0.00     0.187 HD
HETATM   39  N5  UNL     1      -7.024  -0.757   2.871  1.00  0.00    -0.186 N 
ATOM     40  H5  UNL     1      -6.849   0.224   3.091  1.00  0.00     0.184 HD
BRANCH  37  41
HETATM   41  N4  UNL     1      -8.506  -0.140   1.190  1.00  0.00    -0.190 N 
ATOM     42  H4  UNL     1      -8.880  -0.379   0.272  1.00  0.00     0.184 HD
BRANCH  41  43
HETATM   43  C9  UNL     1      -8.674   1.186   1.682  1.00  0.00     0.070 A 
HETATM   44  C10 UNL     1      -9.652   1.468   2.609  1.00  0.00     0.032 A 
HETATM   45  C11 UNL     1      -9.809   2.761   3.088  1.00  0.00     0.002 A 
HETATM   46  C12 UNL     1      -8.963   3.734   2.605  1.00  0.00     0.002 A 
HETATM   47  C13 UNL     1      -7.971   3.455   1.666  1.00  0.00     0.026 A 
HETATM   48  C14 UNL     1      -7.826   2.167   1.200  1.00  0.00     0.061 A 
HETATM   49 CL1  UNL     1      -6.581   1.805   0.017  1.00  0.00    -0.082 Cl
ENDBRANCH  41  43
ENDBRANCH  37  41
ENDBRANCH  29  32
ENDBRANCH   2  28
TORSDOF 14
ENDMDL
MODEL 5
REMARK VINA RESULT: -7.944623399      3.226      5.256
REMARK  14 active torsions:
REMARK  status: ('A' for Active; 'I' for Inactive)
REMARK    1  A    between atoms: C2_2  and  O1_3 
REMARK    2  A    between atoms: O1_3  and  C3_4 
REMARK    3  A    between atoms: C3_4  and  C15_29 
REMARK    4  A    between atoms: N1_5  and  N2_7 
REMARK       I    between atoms: N2_7  and  C4_9 
REMARK    5  A    between atoms: C4_9  and  C5_11 
REMARK    6  A    between atoms: C8_17  and  N4_18 
REMARK    7  A    between atoms: N4_18  and  C9_20 
REMARK    8  A    between atoms: C15_29  and  C16_30 
REMARK    9  A    between atoms: C15_29  and  C18_41 
REMARK       I    between atoms: C16_30  and  N6_32 
REMARK   10  A    between atoms: N6_32  and  N7_34 
REMARK       I    between atoms: N7_34  and  C17_36 
REMARK   11  A    between atoms: C18_41  and  O5_42 
REMARK   12  A    between atoms: C18_41  and  C21_46 
REMARK   13  A    between atoms: O5_42  and  C19_43 
REMARK   14  A    between atoms: C21_46  and  O8_48 
ROOT
HETATM    1  C3  UNL     1      -5.075  -2.023   5.564  1.00  0.00     0.149 C 
HETATM    2  N1  UNL     1      -4.873  -1.030   6.227  1.00  0.00    -0.280 N 
ATOM      3  H1  UNL     1      -5.106  -0.249   5.614  1.00  0.00     0.189 HD
ENDROOT
BRANCH   1   4
HETATM    4  O1  UNL     1      -4.841  -3.275   6.123  1.00  0.00    -0.338 OA
BRANCH   4   5
HETATM    5  C2  UNL     1      -3.625  -3.814   6.494  1.00  0.00     0.172 C 
HETATM    6  C1  UNL     1      -3.438  -4.044   7.962  1.00  0.00     0.034 C 
ENDBRANCH   4   5
ENDBRANCH   1   4
BRANCH   1   7
HETATM    7  C15 UNL     1      -5.569  -1.885   4.164  1.00  0.00     0.195 C 
BRANCH   7   8
HETATM    8  C16 UNL     1      -6.878  -2.534   3.938  1.00  0.00     0.251 C 
HETATM    9  O4  UNL     1      -7.733  -2.673   4.858  1.00  0.00    -0.271 OA
HETATM   10  N6  UNL     1      -7.208  -3.022   2.659  1.00  0.00    -0.267 N 
ATOM     11  H6  UNL     1      -6.538  -2.921   1.896  1.00  0.00     0.190 HD
BRANCH  10  12
HETATM   12  N7  UNL     1      -8.428  -3.640   2.418  1.00  0.00    -0.271 N 
HETATM   13  C17 UNL     1      -8.525  -5.008   2.029  1.00  0.00     0.200 C 
HETATM   14  N8  UNL     1      -9.210  -5.825   2.751  1.00  0.00    -0.372 N 
HETATM   15  N9  UNL     1      -7.880  -5.492   0.861  1.00  0.00    -0.062 NA
ATOM     16  H82 UNL     1      -9.673  -5.477   3.591  1.00  0.00     0.158 HD
ATOM     17  H81 UNL     1      -9.279  -6.803   2.472  1.00  0.00     0.158 HD
ATOM     18  H7  UNL     1      -9.285  -3.096   2.524  1.00  0.00     0.189 HD
ENDBRANCH  10  12
ENDBRANCH   7   8
BRANCH   7  19
HETATM   19  C18 UNL     1      -5.690  -0.430   3.753  1.00  0.00     0.252 C 
BRANCH  19  20
HETATM   20  O5  UNL     1      -7.001   0.057   3.987  1.00  0.00    -0.305 OA
BRANCH  20  21
HETATM   21  C19 UNL     1      -7.282   1.181   4.753  1.00  0.00     0.255 C 
HETATM   22  C20 UNL     1      -7.854   2.427   4.185  1.00  0.00     0.126 C 
HETATM   23  O6  UNL     1      -7.015   1.062   5.964  1.00  0.00    -0.266 OA
ENDBRANCH  20  21
ENDBRANCH  19  20
BRANCH  19  24
HETATM   24  C21 UNL     1      -5.187  -0.164   2.414  1.00  0.00     0.289 C 
HETATM   25  O7  UNL     1      -4.136   0.478   2.253  1.00  0.00    -0.262 OA
BRANCH  24  26
HETATM   26  O8  UNL     1      -5.833  -0.599   1.284  1.00  0.00    -0.324 OA
HETATM   27  C22 UNL     1      -6.605   0.295   0.508  1.00  0.00     0.213 C 
ENDBRANCH  24  26
ENDBRANCH  19  24
ENDBRANCH   7  19
ENDBRANCH   1   7
BRANCH   2  28
HETATM   28  N2  UNL     1      -4.494  -0.471   7.366  1.00  0.00    -0.263 N 
HETATM   29  C4  UNL     1      -5.049  -0.747   8.659  1.00  0.00     0.287 C 
HETATM   30  O2  UNL     1      -5.969  -1.595   8.695  1.00  0.00    -0.264 OA
ATOM     31  H2  UNL     1      -3.741   0.216   7.319  1.00  0.00     0.190 HD
BRANCH  29  32
HETATM   32  C5  UNL     1      -4.613  -0.117   9.885  1.00  0.00     0.123 A 
HETATM   33  C6  UNL     1      -5.253  -0.443  11.067  1.00  0.00     0.110 A 
HETATM   34  C7  UNL     1      -4.863   0.141  12.238  1.00  0.00     0.261 A 
HETATM   35  O3  UNL     1      -5.465  -0.172  13.312  1.00  0.00    -0.268 OA
HETATM   36  N3  UNL     1      -3.851   1.033  12.220  1.00  0.00    -0.156 N 
HETATM   37  C8  UNL     1      -3.210   1.370  11.093  1.00  0.00     0.686 A 
ATOM     38  H3  UNL     1      -3.563   1.468  13.097  1.00  0.00     0.187 HD
HETATM   39  N5  UNL     1      -3.609   0.781   9.941  1.00  0.00    -0.186 N 
ATOM     40  H5  UNL     1      -3.129   1.029   9.075  1.00  0.00     0.184 HD
BRANCH  37  41
HETATM   41  N4  UNL     1      -2.249   2.236  11.139  1.00  0.00    -0.190 N 
ATOM     42  H4  UNL     1      -2.475   3.219  11.287  1.00  0.00     0.184 HD
BRANCH  41  43
HETATM   43  C9  UNL     1      -0.885   1.854  10.991  1.00  0.00     0.070 A 
HETATM   44  C10 UNL     1      -0.222   1.219  12.017  1.00  0.00     0.032 A 
HETATM   45  C11 UNL     1       1.106   0.847  11.867  1.00  0.00     0.002 A 
HETATM   46  C12 UNL     1       1.724   1.133  10.671  1.00  0.00     0.002 A 
HETATM   47  C13 UNL     1       1.059   1.777   9.628  1.00  0.00     0.026 A 
HETATM   48  C14 UNL     1      -0.260   2.140   9.791  1.00  0.00     0.061 A 
HETATM   49 CL1  UNL     1      -1.106   2.951   8.485  1.00  0.00    -0.082 Cl
ENDBRANCH  41  43
ENDBRANCH  37  41
ENDBRANCH  29  32
ENDBRANCH   2  28
TORSDOF 14
ENDMDL
