MODEL 1
REMARK VINA RESULT: -8.764009850      0.000      0.000
REMARK  13 active torsions:
REMARK  status: ('A' for Active; 'I' for Inactive)
REMARK    1  A    between atoms: C2_2  and  N1_3 
REMARK       I    between atoms: N1_3  and  C3_5 
REMARK    2  A    between atoms: C3_5  and  C4_7 
REMARK    3  A    between atoms: C4_7  and  C5_8 
REMARK    4  A    between atoms: C4_7  and  C12_26 
REMARK    5  A    between atoms: C5_8  and  N2_9 
REMARK    6  A    between atoms: C7_13  and  C8_14 
REMARK    7  A    between atoms: C12_26  and  O8_28 
REMARK    8  A    between atoms: O8_28  and  C13_29 
REMARK    9  A    between atoms: C15_31  and  O9_32 
REMARK   10  A    between atoms: C16_34  and  C17_35 
REMARK   11  A    between atoms: C18_36  and  C19_37 
REMARK   12  A    between atoms: C19_37  and  O10_38 
REMARK   13  A    between atoms: C20_40  and  O11_41 
ROOT
HETATM    1  C4  UNL     1      -6.957  -1.087   4.726  1.00  0.00     0.196 C 
ENDROOT
BRANCH   1   2
HETATM    2  C3  UNL     1      -6.845  -1.921   3.533  1.00  0.00     0.233 C 
HETATM    3  N1  UNL     1      -7.398  -3.261   3.542  1.00  0.00    -0.361 N 
ATOM      4  H1  UNL     1      -7.861  -3.609   4.381  1.00  0.00     0.162 HD
HETATM    5  O1  UNL     1      -6.303  -1.608   2.452  1.00  0.00    -0.273 OA
BRANCH   3   6
HETATM    6  C2  UNL     1      -7.303  -4.093   2.405  1.00  0.00     0.118 C 
HETATM    7  C1  UNL     1      -8.643  -4.716   2.018  1.00  0.00     0.026 C 
ENDBRANCH   3   6
ENDBRANCH   1   2
BRANCH   1   8
HETATM    8  C5  UNL     1      -7.306   0.339   4.553  1.00  0.00     0.163 C 
BRANCH   8   9
HETATM    9  N2  UNL     1      -8.689   0.684   4.372  1.00  0.00    -0.247 N 
HETATM   10  C6  UNL     1      -9.366   1.092   3.284  1.00  0.00     0.353 A 
HETATM   11  O2  UNL     1      -8.846   1.311   2.158  1.00  0.00    -0.244 OA
HETATM   12  N3  UNL     1     -10.673   1.224   3.632  1.00  0.00    -0.180 N 
HETATM   13  C7  UNL     1     -11.766   1.602   2.914  1.00  0.00     0.177 A 
HETATM   14  N5  UNL     1     -10.796   0.904   4.912  1.00  0.00    -0.141 N 
HETATM   15  C9  UNL     1     -13.014   1.637   3.583  1.00  0.00     0.143 A 
HETATM   16 CL1  UNL     1     -14.450   2.114   2.717  1.00  0.00    -0.061 Cl
HETATM   17  N4  UNL     1     -13.064   1.304   4.865  1.00  0.00    -0.295 N 
HETATM   18  C10 UNL     1     -11.999   0.935   5.570  1.00  0.00     0.351 A 
ATOM     19  H4  UNL     1     -13.967   1.333   5.336  1.00  0.00     0.171 HD
HETATM   20  O5  UNL     1     -12.039   0.617   6.790  1.00  0.00    -0.244 OA
HETATM   21  C11 UNL     1      -9.594   0.569   5.391  1.00  0.00     0.356 A 
HETATM   22  O6  UNL     1      -9.321   0.206   6.587  1.00  0.00    -0.244 OA
BRANCH  13  23
HETATM   23  C8  UNL     1     -11.724   1.962   1.525  1.00  0.00     0.232 C 
HETATM   24  O3  UNL     1     -12.067   1.042   0.682  1.00  0.00    -0.643 OA
HETATM   25  O4  UNL     1     -11.376   3.131   0.942  1.00  0.00    -0.643 OA
ENDBRANCH  13  23
ENDBRANCH   8   9
ENDBRANCH   1   8
BRANCH   1  26
HETATM   26  C12 UNL     1      -5.697  -1.206   5.569  1.00  0.00     0.279 C 
HETATM   27  O7  UNL     1      -5.052  -2.281   5.561  1.00  0.00    -0.264 OA
BRANCH  26  28
HETATM   28  O8  UNL     1      -5.235  -0.163   6.350  1.00  0.00    -0.278 OA
BRANCH  28  29
HETATM   29  C13 UNL     1      -5.444  -0.207   7.735  1.00  0.00     0.090 A 
HETATM   30  C14 UNL     1      -6.677  -0.004   8.272  1.00  0.00     0.075 A 
HETATM   31  C15 UNL     1      -6.938  -0.036   9.656  1.00  0.00     0.081 A 
HETATM   32  C16 UNL     1      -5.894  -0.289  10.526  1.00  0.00     0.031 A 
HETATM   33  C20 UNL     1      -4.631  -0.496   9.955  1.00  0.00     0.089 A 
HETATM   34  C22 UNL     1      -4.406  -0.458   8.599  1.00  0.00     0.006 A 
HETATM   35  C23 UNL     1      -3.040  -0.687   8.056  1.00  0.00     0.054 C 
BRANCH  31  36
HETATM   36  O9  UNL     1      -8.179   0.178  10.043  1.00  0.00    -0.360 OA
ATOM     37  H9  UNL     1      -8.558  -0.442  10.655  1.00  0.00     0.217 HD
ENDBRANCH  31  36
BRANCH  32  38
HETATM   38  C17 UNL     1      -6.057  -0.343  11.962  1.00  0.00     0.015 C 
HETATM   39  C18 UNL     1      -7.066  -0.686  12.685  1.00  0.00    -0.000 C 
BRANCH  39  40
HETATM   40  C19 UNL     1      -6.930  -0.640  14.186  1.00  0.00     0.191 C 
BRANCH  40  41
HETATM   41  O10 UNL     1      -5.653  -1.048  14.573  1.00  0.00    -0.397 OA
ATOM     42  H10 UNL     1      -5.574  -1.040  15.520  1.00  0.00     0.209 HD
ENDBRANCH  40  41
ENDBRANCH  39  40
ENDBRANCH  32  38
BRANCH  33  43
HETATM   43  O11 UNL     1      -3.587  -0.749  10.836  1.00  0.00    -0.354 OA
HETATM   44  C21 UNL     1      -2.868   0.403  11.293  1.00  0.00     0.210 C 
ENDBRANCH  33  43
ENDBRANCH  28  29
ENDBRANCH  26  28
ENDBRANCH   1  26
TORSDOF 13
ENDMDL
MODEL 2
REMARK VINA RESULT: -8.574023616      1.853      3.067
REMARK  13 active torsions:
REMARK  status: ('A' for Active; 'I' for Inactive)
REMARK    1  A    between atoms: C2_2  and  N1_3 
REMARK       I    between atoms: N1_3  and  C3_5 
REMARK    2  A    between atoms: C3_5  and  C4_7 
REMARK    3  A    between atoms: C4_7  and  C5_8 
REMARK    4  A    between atoms: C4_7  and  C12_26 
REMARK    5  A    between atoms: C5_8  and  N2_9 
REMARK    6  A    between atoms: C7_13  and  C8_14 
REMARK    7  A    between atoms: C12_26  and  O8_28 
REMARK    8  A    between atoms: O8_28  and  C13_29 
REMARK    9  A    between atoms: C15_31  and  O9_32 
REMARK   10  A    between atoms: C16_34  and  C17_35 
REMARK   11  A    between atoms: C18_36  and  C19_37 
REMARK   12  A    between atoms: C19_37  and  O10_38 
REMARK   13  A    between atoms: C20_40  and  O11_41 
ROOT
HETATM    1  C4  UNL     1      -6.236  -1.443   5.183  1.00  0.00     0.196 C 
ENDROOT
BRANCH   1   2
HETATM    2  C3  UNL     1      -5.402  -2.618   5.421  1.00  0.00     0.233 C 
HETATM    3  N1  UNL     1      -4.216  -2.499   6.246  1.00  0.00    -0.361 N 
ATOM      4  H1  UNL     1      -3.976  -1.596   6.655  1.00  0.00     0.162 HD
HETATM    5  O1  UNL     1      -5.592  -3.770   4.977  1.00  0.00    -0.273 OA
BRANCH   3   6
HETATM    6  C2  UNL     1      -3.388  -3.615   6.493  1.00  0.00     0.118 C 
HETATM    7  C1  UNL     1      -3.385  -4.035   7.961  1.00  0.00     0.026 C 
ENDBRANCH   3   6
ENDBRANCH   1   2
BRANCH   1   8
HETATM    8  C5  UNL     1      -6.981  -1.360   3.910  1.00  0.00     0.163 C 
BRANCH   8   9
HETATM    9  N2  UNL     1      -8.057  -0.414   3.811  1.00  0.00    -0.247 N 
HETATM   10  C6  UNL     1      -9.272  -0.390   4.387  1.00  0.00     0.353 A 
HETATM   11  O2  UNL     1      -9.730  -1.297   5.131  1.00  0.00    -0.244 OA
HETATM   12  N3  UNL     1      -9.887   0.764   4.014  1.00  0.00    -0.180 N 
HETATM   13  C7  UNL     1     -11.113   1.273   4.316  1.00  0.00     0.177 A 
HETATM   14  N5  UNL     1      -9.065   1.435   3.221  1.00  0.00    -0.141 N 
HETATM   15  C9  UNL     1     -11.462   2.526   3.754  1.00  0.00     0.143 A 
HETATM   16 CL1  UNL     1     -13.018   3.230   4.104  1.00  0.00    -0.061 Cl
HETATM   17  N4  UNL     1     -10.589   3.142   2.969  1.00  0.00    -0.295 N 
HETATM   18  C10 UNL     1      -9.392   2.648   2.672  1.00  0.00     0.351 A 
ATOM     19  H4  UNL     1     -10.852   4.044   2.571  1.00  0.00     0.171 HD
HETATM   20  O5  UNL     1      -8.558   3.229   1.926  1.00  0.00    -0.244 OA
HETATM   21  C11 UNL     1      -7.935   0.735   3.079  1.00  0.00     0.356 A 
HETATM   22  O6  UNL     1      -6.912   1.066   2.385  1.00  0.00    -0.244 OA
BRANCH  13  23
HETATM   23  C8  UNL     1     -12.064   0.616   5.167  1.00  0.00     0.232 C 
HETATM   24  O3  UNL     1     -12.970  -0.094   4.575  1.00  0.00    -0.643 OA
HETATM   25  O4  UNL     1     -12.170   0.619   6.514  1.00  0.00    -0.643 OA
ENDBRANCH  13  23
ENDBRANCH   8   9
ENDBRANCH   1   8
BRANCH   1  26
HETATM   26  C12 UNL     1      -5.421  -0.174   5.383  1.00  0.00     0.279 C 
HETATM   27  O7  UNL     1      -4.423   0.037   4.655  1.00  0.00    -0.264 OA
BRANCH  26  28
HETATM   28  O8  UNL     1      -5.745   0.761   6.348  1.00  0.00    -0.278 OA
BRANCH  28  29
HETATM   29  C13 UNL     1      -5.616   0.415   7.700  1.00  0.00     0.090 A 
HETATM   30  C14 UNL     1      -6.685   0.004   8.431  1.00  0.00     0.075 A 
HETATM   31  C15 UNL     1      -6.607  -0.354   9.792  1.00  0.00     0.081 A 
HETATM   32  C16 UNL     1      -5.383  -0.289  10.430  1.00  0.00     0.031 A 
HETATM   33  C20 UNL     1      -4.291   0.136   9.660  1.00  0.00     0.089 A 
HETATM   34  C22 UNL     1      -4.397   0.479   8.333  1.00  0.00     0.006 A 
HETATM   35  C23 UNL     1      -3.199   0.923   7.572  1.00  0.00     0.054 C 
BRANCH  31  36
HETATM   36  O9  UNL     1      -7.722  -0.735  10.383  1.00  0.00    -0.360 OA
ATOM     37  H9  UNL     1      -7.825  -1.661  10.565  1.00  0.00     0.217 HD
ENDBRANCH  31  36
BRANCH  32  38
HETATM   38  C17 UNL     1      -5.196  -0.634  11.822  1.00  0.00     0.015 C 
HETATM   39  C18 UNL     1      -5.788  -0.210  12.883  1.00  0.00    -0.000 C 
BRANCH  39  40
HETATM   40  C19 UNL     1      -5.368  -0.768  14.220  1.00  0.00     0.191 C 
BRANCH  40  41
HETATM   41  O10 UNL     1      -6.487  -1.108  14.981  1.00  0.00    -0.397 OA
ATOM     42  H10 UNL     1      -6.223  -1.422  15.838  1.00  0.00     0.209 HD
ENDBRANCH  40  41
ENDBRANCH  39  40
ENDBRANCH  32  38
BRANCH  33  43
HETATM   43  O11 UNL     1      -3.064   0.199  10.308  1.00  0.00    -0.354 OA
HETATM   44  C21 UNL     1      -2.722   1.473  10.867  1.00  0.00     0.210 C 
ENDBRANCH  33  43
ENDBRANCH  28  29
ENDBRANCH  26  28
ENDBRANCH   1  26
TORSDOF 13
ENDMDL
MODEL 3
REMARK VINA RESULT: -8.532014830      1.298      2.414
REMARK  13 active torsions:
REMARK  status: ('A' for Active; 'I' for Inactive)
REMARK    1  A    between atoms: C2_2  and  N1_3 
REMARK       I    between atoms: N1_3  and  C3_5 
REMARK    2  A    between atoms: C3_5  and  C4_7 
REMARK    3  A    between atoms: C4_7  and  C5_8 
REMARK    4  A    between atoms: C4_7  and  C12_26 
REMARK    5  A    between atoms: C5_8  and  N2_9 
REMARK    6  A    between atoms: C7_13  and  C8_14 
REMARK    7  A    between atoms: C12_26  and  O8_28 
REMARK    8  A    between atoms: O8_28  and  C13_29 
REMARK    9  A    between atoms: C15_31  and  O9_32 
REMARK   10  A    between atoms: C16_34  and  C17_35 
REMARK   11  A    between atoms: C18_36  and  C19_37 
REMARK   12  A    between atoms: C19_37  and  O10_38 
REMARK   13  A    between atoms: C20_40  and  O11_41 
ROOT
HETATM    1  C4  UNL     1      -6.830  -1.109   4.903  1.00  0.00     0.196 C 
ENDROOT
BRANCH   1   2
HETATM    2  C3  UNL     1      -6.690  -1.913   3.692  1.00  0.00     0.233 C 
HETATM    3  N1  UNL     1      -7.382  -3.183   3.592  1.00  0.00    -0.361 N 
ATOM      4  H1  UNL     1      -7.962  -3.502   4.368  1.00  0.00     0.162 HD
HETATM    5  O1  UNL     1      -6.011  -1.630   2.682  1.00  0.00    -0.273 OA
BRANCH   3   6
HETATM    6  C2  UNL     1      -7.265  -3.985   2.436  1.00  0.00     0.118 C 
HETATM    7  C1  UNL     1      -8.587  -4.634   2.033  1.00  0.00     0.026 C 
ENDBRANCH   3   6
ENDBRANCH   1   2
BRANCH   1   8
HETATM    8  C5  UNL     1      -6.919   0.359   4.762  1.00  0.00     0.163 C 
BRANCH   8   9
HETATM    9  N2  UNL     1      -8.024   0.907   4.027  1.00  0.00    -0.247 N 
HETATM   10  C6  UNL     1      -9.341   0.935   4.295  1.00  0.00     0.353 A 
HETATM   11  O2  UNL     1      -9.879   0.391   5.297  1.00  0.00    -0.244 OA
HETATM   12  N3  UNL     1      -9.954   1.635   3.304  1.00  0.00    -0.180 N 
HETATM   13  C7  UNL     1     -11.261   1.956   3.099  1.00  0.00     0.177 A 
HETATM   14  N5  UNL     1      -9.029   2.028   2.441  1.00  0.00    -0.141 N 
HETATM   15  C9  UNL     1     -11.580   2.712   1.945  1.00  0.00     0.143 A 
HETATM   16 CL1  UNL     1     -13.236   3.154   1.628  1.00  0.00    -0.061 Cl
HETATM   17  N4  UNL     1     -10.604   3.072   1.124  1.00  0.00    -0.295 N 
HETATM   18  C10 UNL     1      -9.327   2.760   1.321  1.00  0.00     0.351 A 
ATOM     19  H4  UNL     1     -10.846   3.616   0.296  1.00  0.00     0.171 HD
HETATM   20  O5  UNL     1      -8.393   3.099   0.543  1.00  0.00    -0.244 OA
HETATM   21  C11 UNL     1      -7.836   1.594   2.859  1.00  0.00     0.356 A 
HETATM   22  O6  UNL     1      -6.710   1.780   2.282  1.00  0.00    -0.244 OA
BRANCH  13  23
HETATM   23  C8  UNL     1     -12.326   1.574   3.983  1.00  0.00     0.232 C 
HETATM   24  O3  UNL     1     -12.633   2.420   4.913  1.00  0.00    -0.643 OA
HETATM   25  O4  UNL     1     -13.076   0.450   4.002  1.00  0.00    -0.643 OA
ENDBRANCH  13  23
ENDBRANCH   8   9
ENDBRANCH   1   8
BRANCH   1  26
HETATM   26  C12 UNL     1      -5.732  -1.462   5.896  1.00  0.00     0.279 C 
HETATM   27  O7  UNL     1      -5.395  -2.660   6.038  1.00  0.00    -0.264 OA
BRANCH  26  28
HETATM   28  O8  UNL     1      -5.092  -0.499   6.653  1.00  0.00    -0.278 OA
BRANCH  28  29
HETATM   29  C13 UNL     1      -5.386  -0.402   8.020  1.00  0.00     0.090 A 
HETATM   30  C14 UNL     1      -6.650  -0.161   8.456  1.00  0.00     0.075 A 
HETATM   31  C15 UNL     1      -6.997  -0.054   9.818  1.00  0.00     0.081 A 
HETATM   32  C16 UNL     1      -6.007  -0.201  10.772  1.00  0.00     0.031 A 
HETATM   33  C20 UNL     1      -4.710  -0.449  10.303  1.00  0.00     0.089 A 
HETATM   34  C22 UNL     1      -4.401  -0.549   8.967  1.00  0.00     0.006 A 
HETATM   35  C23 UNL     1      -3.002  -0.814   8.535  1.00  0.00     0.054 C 
BRANCH  31  36
HETATM   36  O9  UNL     1      -8.261   0.182  10.104  1.00  0.00    -0.360 OA
ATOM     37  H9  UNL     1      -8.888  -0.507   9.916  1.00  0.00     0.217 HD
ENDBRANCH  31  36
BRANCH  32  38
HETATM   38  C17 UNL     1      -6.258  -0.109  12.193  1.00  0.00     0.015 C 
HETATM   39  C18 UNL     1      -7.025  -0.802  12.961  1.00  0.00    -0.000 C 
BRANCH  39  40
HETATM   40  C19 UNL     1      -7.076  -0.463  14.430  1.00  0.00     0.191 C 
BRANCH  40  41
HETATM   41  O10 UNL     1      -6.254  -1.324  15.159  1.00  0.00    -0.397 OA
ATOM     42  H10 UNL     1      -6.009  -0.928  15.987  1.00  0.00     0.209 HD
ENDBRANCH  40  41
ENDBRANCH  39  40
ENDBRANCH  32  38
BRANCH  33  43
HETATM   43  O11 UNL     1      -3.721  -0.595  11.268  1.00  0.00    -0.354 OA
HETATM   44  C21 UNL     1      -3.030   0.605  11.635  1.00  0.00     0.210 C 
ENDBRANCH  33  43
ENDBRANCH  28  29
ENDBRANCH  26  28
ENDBRANCH   1  26
TORSDOF 13
ENDMDL
MODEL 4
REMARK VINA RESULT: -8.233936906      1.206      1.570
REMARK  13 active torsions:
REMARK  status: ('A' for Active; 'I' for Inactive)
REMARK    1  A    between atoms: C2_2  and  N1_3 
REMARK       I    between atoms: N1_3  and  C3_5 
REMARK    2  A    between atoms: C3_5  and  C4_7 
REMARK    3  A    between atoms: C4_7  and  C5_8 
REMARK    4  A    between atoms: C4_7  and  C12_26 
REMARK    5  A    between atoms: C5_8  and  N2_9 
REMARK    6  A    between atoms: C7_13  and  C8_14 
REMARK    7  A    between atoms: C12_26  and  O8_28 
REMARK    8  A    between atoms: O8_28  and  C13_29 
REMARK    9  A    between atoms: C15_31  and  O9_32 
REMARK   10  A    between atoms: C16_34  and  C17_35 
REMARK   11  A    between atoms: C18_36  and  C19_37 
REMARK   12  A    between atoms: C19_37  and  O10_38 
REMARK   13  A    between atoms: C20_40  and  O11_41 
ROOT
HETATM    1  C4  UNL     1      -6.894  -0.601   4.355  1.00  0.00     0.196 C 
ENDROOT
BRANCH   1   2
HETATM    2  C3  UNL     1      -6.351  -0.770   3.010  1.00  0.00     0.233 C 
HETATM    3  N1  UNL     1      -6.144   0.394   2.169  1.00  0.00    -0.361 N 
ATOM      4  H1  UNL     1      -6.378   1.320   2.526  1.00  0.00     0.162 HD
HETATM    5  O1  UNL     1      -6.029  -1.846   2.464  1.00  0.00    -0.273 OA
BRANCH   3   6
HETATM    6  C2  UNL     1      -5.624   0.264   0.864  1.00  0.00     0.118 C 
HETATM    7  C1  UNL     1      -4.142   0.625   0.781  1.00  0.00     0.026 C 
ENDBRANCH   3   6
ENDBRANCH   1   2
BRANCH   1   8
HETATM    8  C5  UNL     1      -7.414   0.728   4.737  1.00  0.00     0.163 C 
BRANCH   8   9
HETATM    9  N2  UNL     1      -8.801   1.013   4.496  1.00  0.00    -0.247 N 
HETATM   10  C6  UNL     1      -9.422   1.567   3.440  1.00  0.00     0.353 A 
HETATM   11  O2  UNL     1      -8.836   2.019   2.421  1.00  0.00    -0.244 OA
HETATM   12  N3  UNL     1     -10.759   1.550   3.687  1.00  0.00    -0.180 N 
HETATM   13  C7  UNL     1     -11.820   1.981   2.951  1.00  0.00     0.177 A 
HETATM   14  N5  UNL     1     -10.954   0.996   4.875  1.00  0.00    -0.141 N 
HETATM   15  C9  UNL     1     -13.114   1.816   3.502  1.00  0.00     0.143 A 
HETATM   16 CL1  UNL     1     -14.512   2.349   2.607  1.00  0.00    -0.061 Cl
HETATM   17  N4  UNL     1     -13.236   1.253   4.696  1.00  0.00    -0.295 N 
HETATM   18  C10 UNL     1     -12.202   0.831   5.417  1.00  0.00     0.351 A 
ATOM     19  H4  UNL     1     -14.173   1.139   5.082  1.00  0.00     0.171 HD
HETATM   20  O5  UNL     1     -12.312   0.295   6.554  1.00  0.00    -0.244 OA
HETATM   21  C11 UNL     1      -9.770   0.657   5.393  1.00  0.00     0.356 A 
HETATM   22  O6  UNL     1      -9.562   0.101   6.526  1.00  0.00    -0.244 OA
BRANCH  13  23
HETATM   23  C8  UNL     1     -11.700   2.590   1.656  1.00  0.00     0.232 C 
HETATM   24  O3  UNL     1     -11.773   1.794   0.638  1.00  0.00    -0.643 OA
HETATM   25  O4  UNL     1     -11.517   3.886   1.321  1.00  0.00    -0.643 OA
ENDBRANCH  13  23
ENDBRANCH   8   9
ENDBRANCH   1   8
BRANCH   1  26
HETATM   26  C12 UNL     1      -5.885  -1.073   5.390  1.00  0.00     0.279 C 
HETATM   27  O7  UNL     1      -5.661  -2.299   5.516  1.00  0.00    -0.264 OA
BRANCH  26  28
HETATM   28  O8  UNL     1      -5.201  -0.189   6.204  1.00  0.00    -0.278 OA
BRANCH  28  29
HETATM   29  C13 UNL     1      -5.426  -0.224   7.587  1.00  0.00     0.090 A 
HETATM   30  C14 UNL     1      -6.642   0.077   8.114  1.00  0.00     0.075 A 
HETATM   31  C15 UNL     1      -6.918   0.056   9.496  1.00  0.00     0.081 A 
HETATM   32  C16 UNL     1      -5.907  -0.289  10.373  1.00  0.00     0.031 A 
HETATM   33  C20 UNL     1      -4.660  -0.596   9.811  1.00  0.00     0.089 A 
HETATM   34  C22 UNL     1      -4.420  -0.568   8.457  1.00  0.00     0.006 A 
HETATM   35  C23 UNL     1      -3.073  -0.906   7.925  1.00  0.00     0.054 C 
BRANCH  31  36
HETATM   36  O9  UNL     1      -8.141   0.370   9.874  1.00  0.00    -0.360 OA
ATOM     37  H9  UNL     1      -8.594  -0.243  10.440  1.00  0.00     0.217 HD
ENDBRANCH  31  36
BRANCH  32  38
HETATM   38  C17 UNL     1      -6.087  -0.340  11.807  1.00  0.00     0.015 C 
HETATM   39  C18 UNL     1      -7.124  -0.618  12.518  1.00  0.00    -0.000 C 
BRANCH  39  40
HETATM   40  C19 UNL     1      -7.000  -0.589  14.021  1.00  0.00     0.191 C 
BRANCH  40  41
HETATM   41  O10 UNL     1      -5.724  -0.995  14.414  1.00  0.00    -0.397 OA
ATOM     42  H10 UNL     1      -5.604  -0.858  15.346  1.00  0.00     0.209 HD
ENDBRANCH  40  41
ENDBRANCH  39  40
ENDBRANCH  32  38
BRANCH  33  43
HETATM   43  O11 UNL     1      -3.650  -0.942  10.700  1.00  0.00    -0.354 OA
HETATM   44  C21 UNL     1      -2.842   0.143  11.173  1.00  0.00     0.210 C 
ENDBRANCH  33  43
ENDBRANCH  28  29
ENDBRANCH  26  28
ENDBRANCH   1  26
TORSDOF 13
ENDMDL
MODEL 5
REMARK VINA RESULT: -8.221043644      1.864      3.533
REMARK  13 active torsions:
REMARK  status: ('A' for Active; 'I' for Inactive)
REMARK    1  A    between atoms: C2_2  and  N1_3 
REMARK       I    between atoms: N1_3  and  C3_5 
REMARK    2  A    between atoms: C3_5  and  C4_7 
REMARK    3  A    between atoms: C4_7  and  C5_8 
REMARK    4  A    between atoms: C4_7  and  C12_26 
REMARK    5  A    between atoms: C5_8  and  N2_9 
REMARK    6  A    between atoms: C7_13  and  C8_14 
REMARK    7  A    between atoms: C12_26  and  O8_28 
REMARK    8  A    between atoms: O8_28  and  C13_29 
REMARK    9  A    between atoms: C15_31  and  O9_32 
REMARK   10  A    between atoms: C16_34  and  C17_35 
REMARK   11  A    between atoms: C18_36  and  C19_37 
REMARK   12  A    between atoms: C19_37  and  O10_38 
REMARK   13  A    between atoms: C20_40  and  O11_41 
ROOT
HETATM    1  C4  UNL     1      -6.235  -1.596   5.183  1.00  0.00     0.196 C 
ENDROOT
BRANCH   1   2
HETATM    2  C3  UNL     1      -5.406  -2.778   5.401  1.00  0.00     0.233 C 
HETATM    3  N1  UNL     1      -4.242  -2.687   6.262  1.00  0.00    -0.361 N 
ATOM      4  H1  UNL     1      -4.014  -1.799   6.708  1.00  0.00     0.162 HD
HETATM    5  O1  UNL     1      -5.581  -3.914   4.913  1.00  0.00    -0.273 OA
BRANCH   3   6
HETATM    6  C2  UNL     1      -3.418  -3.810   6.490  1.00  0.00     0.118 C 
HETATM    7  C1  UNL     1      -3.467  -4.291   7.940  1.00  0.00     0.026 C 
ENDBRANCH   3   6
ENDBRANCH   1   2
BRANCH   1   8
HETATM    8  C5  UNL     1      -6.951  -1.472   3.897  1.00  0.00     0.163 C 
BRANCH   8   9
HETATM    9  N2  UNL     1      -8.007  -0.503   3.796  1.00  0.00    -0.247 N 
HETATM   10  C6  UNL     1      -9.223  -0.454   4.367  1.00  0.00     0.353 A 
HETATM   11  O2  UNL     1      -9.703  -1.353   5.108  1.00  0.00    -0.244 OA
HETATM   12  N3  UNL     1      -9.812   0.713   3.993  1.00  0.00    -0.180 N 
HETATM   13  C7  UNL     1     -11.028   1.248   4.292  1.00  0.00     0.177 A 
HETATM   14  N5  UNL     1      -8.973   1.367   3.204  1.00  0.00    -0.141 N 
HETATM   15  C9  UNL     1     -11.348   2.508   3.731  1.00  0.00     0.143 A 
HETATM   16 CL1  UNL     1     -12.890   3.245   4.076  1.00  0.00    -0.061 Cl
HETATM   17  N4  UNL     1     -10.460   3.107   2.950  1.00  0.00    -0.295 N 
HETATM   18  C10 UNL     1      -9.272   2.588   2.657  1.00  0.00     0.351 A 
ATOM     19  H4  UNL     1     -10.701   4.015   2.553  1.00  0.00     0.171 HD
HETATM   20  O5  UNL     1      -8.423   3.152   1.914  1.00  0.00    -0.244 OA
HETATM   21  C11 UNL     1      -7.857   0.644   3.066  1.00  0.00     0.356 A 
HETATM   22  O6  UNL     1      -6.826   0.954   2.376  1.00  0.00    -0.244 OA
BRANCH  13  23
HETATM   23  C8  UNL     1     -11.996   0.610   5.138  1.00  0.00     0.232 C 
HETATM   24  O3  UNL     1     -12.901  -0.099   4.544  1.00  0.00    -0.643 OA
HETATM   25  O4  UNL     1     -12.119   0.630   6.484  1.00  0.00    -0.643 OA
ENDBRANCH  13  23
ENDBRANCH   8   9
ENDBRANCH   1   8
BRANCH   1  26
HETATM   26  C12 UNL     1      -5.427  -0.334   5.443  1.00  0.00     0.279 C 
HETATM   27  O7  UNL     1      -4.359  -0.148   4.814  1.00  0.00    -0.264 OA
BRANCH  26  28
HETATM   28  O8  UNL     1      -5.831   0.621   6.357  1.00  0.00    -0.278 OA
BRANCH  28  29
HETATM   29  C13 UNL     1      -5.860   0.290   7.719  1.00  0.00     0.090 A 
HETATM   30  C14 UNL     1      -4.728  -0.056   8.387  1.00  0.00     0.075 A 
HETATM   31  C15 UNL     1      -4.704  -0.397   9.753  1.00  0.00     0.081 A 
HETATM   32  C16 UNL     1      -5.889  -0.382  10.466  1.00  0.00     0.031 A 
HETATM   33  C20 UNL     1      -7.046  -0.023   9.760  1.00  0.00     0.089 A 
HETATM   34  C22 UNL     1      -7.038   0.306   8.425  1.00  0.00     0.006 A 
HETATM   35  C23 UNL     1      -8.302   0.678   7.735  1.00  0.00     0.054 C 
BRANCH  31  36
HETATM   36  O9  UNL     1      -3.538  -0.713  10.279  1.00  0.00    -0.360 OA
ATOM     37  H9  UNL     1      -3.487  -1.523  10.773  1.00  0.00     0.217 HD
ENDBRANCH  31  36
BRANCH  32  38
HETATM   38  C17 UNL     1      -5.972  -0.715  11.871  1.00  0.00     0.015 C 
HETATM   39  C18 UNL     1      -5.424  -0.171  12.901  1.00  0.00    -0.000 C 
BRANCH  39  40
HETATM   40  C19 UNL     1      -5.706  -0.754  14.263  1.00  0.00     0.191 C 
BRANCH  40  41
HETATM   41  O10 UNL     1      -7.082  -0.879  14.465  1.00  0.00    -0.397 OA
ATOM     42  H10 UNL     1      -7.259  -1.472  15.186  1.00  0.00     0.209 HD
ENDBRANCH  40  41
ENDBRANCH  39  40
ENDBRANCH  32  38
BRANCH  33  43
HETATM   43  O11 UNL     1      -8.232  -0.010  10.483  1.00  0.00    -0.354 OA
HETATM   44  C21 UNL     1      -8.461  -1.151  11.320  1.00  0.00     0.210 C 
ENDBRANCH  33  43
ENDBRANCH  28  29
ENDBRANCH  26  28
ENDBRANCH   1  26
TORSDOF 13
ENDMDL
