MODEL 1
REMARK VINA RESULT: -7.734997955      0.000      0.000
REMARK  16 active torsions:
REMARK  status: ('A' for Active; 'I' for Inactive)
REMARK    1  A    between atoms: O1_2  and  C2_3 
REMARK    2  A    between atoms: C4_6  and  C5_7 
REMARK    3  A    between atoms: C7_11  and  O5_12 
REMARK    4  A    between atoms: O5_12  and  C8_13 
REMARK    5  A    between atoms: C9_15  and  S1_16 
REMARK    6  A    between atoms: S1_16  and  C10_17 
REMARK    7  A    between atoms: C10_17  and  C11_18 
REMARK    8  A    between atoms: C12_19  and  C14_21 
REMARK    9  A    between atoms: C14_21  and  C16_23 
REMARK   10  A    between atoms: C16_23  and  C17_24 
REMARK   11  A    between atoms: C17_24  and  C19_26 
REMARK   12  A    between atoms: C20_29  and  O9_30 
REMARK   13  A    between atoms: C21_32  and  O10_33 
REMARK   14  A    between atoms: C22_35  and  O11_36 
REMARK   15  A    between atoms: C24_40  and  O13_41 
REMARK   16  A    between atoms: C25_43  and  O14_44 
ROOT
HETATM    1  C8  UNL     1      -2.289   1.872   6.762  1.00  0.00     0.295 C 
HETATM    2  O6  UNL     1      -2.631   2.022   8.088  1.00  0.00    -0.340 OA
HETATM    3  C9  UNL     1      -1.601   2.309   8.925  1.00  0.00     0.217 C 
HETATM    4  C20 UNL     1      -0.286   1.646   8.740  1.00  0.00     0.188 C 
HETATM    5  C21 UNL     1       0.020   1.305   7.324  1.00  0.00     0.183 C 
HETATM    6  C22 UNL     1      -1.207   0.826   6.618  1.00  0.00     0.204 C 
ENDROOT
BRANCH   1   7
HETATM    7  O5  UNL     1      -3.395   1.451   5.991  1.00  0.00    -0.326 OA
BRANCH   7   8
HETATM    8  C7  UNL     1      -3.931   2.558   5.370  1.00  0.00     0.300 C 
HETATM    9  O4  UNL     1      -5.126   2.910   6.021  1.00  0.00    -0.326 OA
HETATM   10  C6  UNL     1      -5.903   2.527   4.937  1.00  0.00     0.300 C 
HETATM   11  O3  UNL     1      -6.476   1.258   4.987  1.00  0.00    -0.325 OA
HETATM   12  C23 UNL     1      -4.664   2.299   4.076  1.00  0.00     0.235 C 
HETATM   13  C5  UNL     1      -6.123   0.745   3.740  1.00  0.00     0.299 C 
HETATM   14  O12 UNL     1      -4.771   0.996   3.658  1.00  0.00    -0.342 OA
BRANCH  13  15
HETATM   15  C4  UNL     1      -6.462  -0.713   3.603  1.00  0.00     0.027 C 
HETATM   16  C3  UNL     1      -5.552  -1.628   3.303  1.00  0.00     0.148 C 
HETATM   17  O2  UNL     1      -5.882  -2.963   3.185  1.00  0.00    -0.329 OA
HETATM   18  C2  UNL     1      -7.137  -3.278   2.561  1.00  0.00     0.295 C 
HETATM   19  C25 UNL     1      -8.228  -2.345   2.897  1.00  0.00     0.206 C 
HETATM   20  C24 UNL     1      -7.863  -1.190   3.798  1.00  0.00     0.187 C 
BRANCH  18  21
HETATM   21  O1  UNL     1      -7.395  -4.623   2.829  1.00  0.00    -0.363 OA
HETATM   22  C1  UNL     1      -8.418  -5.133   2.059  1.00  0.00     0.204 C 
ENDBRANCH  18  21
BRANCH  19  23
HETATM   23  O14 UNL     1      -8.753  -1.762   1.715  1.00  0.00    -0.388 OA
ATOM     24  H14 UNL     1      -9.324  -1.036   1.934  1.00  0.00     0.210 HD
ENDBRANCH  19  23
BRANCH  20  25
HETATM   25  O13 UNL     1      -8.011  -1.545   5.125  1.00  0.00    -0.388 OA
ATOM     26  H13 UNL     1      -8.324  -2.441   5.155  1.00  0.00     0.210 HD
ENDBRANCH  20  25
ENDBRANCH  13  15
ENDBRANCH   7   8
ENDBRANCH   1   7
BRANCH   6  27
HETATM   27  O11 UNL     1      -1.647  -0.338   7.280  1.00  0.00    -0.388 OA
ATOM     28  H11 UNL     1      -1.733  -1.024   6.629  1.00  0.00     0.210 HD
ENDBRANCH   6  27
BRANCH   3  29
HETATM   29  S1  UNL     1      -2.078   2.167  10.652  1.00  0.00    -0.131 SA
BRANCH  29  30
HETATM   30  C10 UNL     1      -3.331   0.977  11.024  1.00  0.00     0.104 C 
BRANCH  30  31
HETATM   31  C11 UNL     1      -3.450  -0.218  10.180  1.00  0.00    -0.014 C 
HETATM   32  C12 UNL     1      -4.540  -0.657   9.601  1.00  0.00    -0.083 C 
HETATM   33  C13 UNL     1      -4.402  -1.932   8.773  1.00  0.00     0.043 C 
BRANCH  32  34
HETATM   34  C14 UNL     1      -5.887  -0.047   9.678  1.00  0.00     0.010 C 
HETATM   35  C15 UNL     1      -6.448  -0.042   8.255  1.00  0.00     0.015 C 
BRANCH  34  36
HETATM   36  C16 UNL     1      -6.750  -0.884  10.580  1.00  0.00     0.023 C 
BRANCH  36  37
HETATM   37  C17 UNL     1      -7.214  -0.222  11.836  1.00  0.00     0.083 C 
HETATM   38  C18 UNL     1      -8.670  -0.730  12.023  1.00  0.00     0.021 C 
BRANCH  37  39
HETATM   39  C19 UNL     1      -6.515  -0.574  13.086  1.00  0.00     0.176 C 
HETATM   40  O7  UNL     1      -7.241  -0.723  14.136  1.00  0.00    -0.648 OA
HETATM   41  O8  UNL     1      -5.162  -0.754  13.214  1.00  0.00    -0.648 OA
ENDBRANCH  37  39
ENDBRANCH  36  37
ENDBRANCH  34  36
ENDBRANCH  32  34
ENDBRANCH  30  31
ENDBRANCH  29  30
ENDBRANCH   3  29
BRANCH   5  42
HETATM   42  O10 UNL     1       1.045   0.350   7.262  1.00  0.00    -0.390 OA
ATOM     43  H10 UNL     1       1.274   0.169   6.358  1.00  0.00     0.210 HD
ENDBRANCH   5  42
BRANCH   4  44
HETATM   44  O9  UNL     1      -0.098   0.576   9.625  1.00  0.00    -0.389 OA
ATOM     45  H9  UNL     1       0.346  -0.159   9.217  1.00  0.00     0.210 HD
ENDBRANCH   4  44
TORSDOF 16
ENDMDL
MODEL 2
REMARK VINA RESULT: -7.505369680      1.469      2.341
REMARK  16 active torsions:
REMARK  status: ('A' for Active; 'I' for Inactive)
REMARK    1  A    between atoms: O1_2  and  C2_3 
REMARK    2  A    between atoms: C4_6  and  C5_7 
REMARK    3  A    between atoms: C7_11  and  O5_12 
REMARK    4  A    between atoms: O5_12  and  C8_13 
REMARK    5  A    between atoms: C9_15  and  S1_16 
REMARK    6  A    between atoms: S1_16  and  C10_17 
REMARK    7  A    between atoms: C10_17  and  C11_18 
REMARK    8  A    between atoms: C12_19  and  C14_21 
REMARK    9  A    between atoms: C14_21  and  C16_23 
REMARK   10  A    between atoms: C16_23  and  C17_24 
REMARK   11  A    between atoms: C17_24  and  C19_26 
REMARK   12  A    between atoms: C20_29  and  O9_30 
REMARK   13  A    between atoms: C21_32  and  O10_33 
REMARK   14  A    between atoms: C22_35  and  O11_36 
REMARK   15  A    between atoms: C24_40  and  O13_41 
REMARK   16  A    between atoms: C25_43  and  O14_44 
ROOT
HETATM    1  C8  UNL     1      -2.927   1.886   7.165  1.00  0.00     0.295 C 
HETATM    2  O6  UNL     1      -3.189   1.672   8.500  1.00  0.00    -0.340 OA
HETATM    3  C9  UNL     1      -2.145   1.892   9.340  1.00  0.00     0.217 C 
HETATM    4  C20 UNL     1      -0.775   1.479   8.948  1.00  0.00     0.188 C 
HETATM    5  C21 UNL     1      -0.532   1.526   7.481  1.00  0.00     0.183 C 
HETATM    6  C22 UNL     1      -1.736   1.063   6.728  1.00  0.00     0.204 C 
ENDROOT
BRANCH   1   7
HETATM    7  O5  UNL     1      -4.024   1.512   6.359  1.00  0.00    -0.326 OA
BRANCH   7   8
HETATM    8  C7  UNL     1      -4.337   2.573   5.538  1.00  0.00     0.300 C 
HETATM    9  O4  UNL     1      -5.637   3.013   5.838  1.00  0.00    -0.326 OA
HETATM   10  C6  UNL     1      -6.139   2.556   4.628  1.00  0.00     0.300 C 
HETATM   11  O3  UNL     1      -6.767   1.312   4.633  1.00  0.00    -0.325 OA
HETATM   12  C23 UNL     1      -4.738   2.220   4.126  1.00  0.00     0.235 C 
HETATM   13  C5  UNL     1      -6.140   0.682   3.559  1.00  0.00     0.299 C 
HETATM   14  O12 UNL     1      -4.800   0.888   3.799  1.00  0.00    -0.342 OA
BRANCH  13  15
HETATM   15  C4  UNL     1      -6.504  -0.773   3.457  1.00  0.00     0.027 C 
HETATM   16  C3  UNL     1      -5.611  -1.710   3.172  1.00  0.00     0.148 C 
HETATM   17  O2  UNL     1      -5.964  -3.042   3.087  1.00  0.00    -0.329 OA
HETATM   18  C2  UNL     1      -7.227  -3.349   2.477  1.00  0.00     0.295 C 
HETATM   19  C25 UNL     1      -8.301  -2.391   2.798  1.00  0.00     0.206 C 
HETATM   20  C24 UNL     1      -7.912  -1.223   3.670  1.00  0.00     0.187 C 
BRANCH  18  21
HETATM   21  O1  UNL     1      -7.506  -4.684   2.776  1.00  0.00    -0.363 OA
HETATM   22  C1  UNL     1      -8.539  -5.195   2.020  1.00  0.00     0.204 C 
ENDBRANCH  18  21
BRANCH  19  23
HETATM   23  O14 UNL     1      -8.824  -1.827   1.605  1.00  0.00    -0.388 OA
ATOM     24  H14 UNL     1      -9.347  -2.470   1.141  1.00  0.00     0.210 HD
ENDBRANCH  19  23
BRANCH  20  25
HETATM   25  O13 UNL     1      -8.057  -1.545   5.006  1.00  0.00    -0.388 OA
ATOM     26  H13 UNL     1      -8.779  -2.157   5.081  1.00  0.00     0.210 HD
ENDBRANCH  20  25
ENDBRANCH  13  15
ENDBRANCH   7   8
ENDBRANCH   1   7
BRANCH   6  27
HETATM   27  O11 UNL     1      -1.981  -0.273   7.105  1.00  0.00    -0.388 OA
ATOM     28  H11 UNL     1      -1.838  -0.339   8.042  1.00  0.00     0.210 HD
ENDBRANCH   6  27
BRANCH   3  29
HETATM   29  S1  UNL     1      -2.476   1.282  10.998  1.00  0.00    -0.131 SA
BRANCH  29  30
HETATM   30  C10 UNL     1      -3.646  -0.037  11.130  1.00  0.00     0.104 C 
BRANCH  30  31
HETATM   31  C11 UNL     1      -4.514  -0.102  12.312  1.00  0.00    -0.014 C 
HETATM   32  C12 UNL     1      -5.776  -0.451  12.333  1.00  0.00    -0.083 C 
HETATM   33  C13 UNL     1      -6.462  -0.435  13.696  1.00  0.00     0.043 C 
BRANCH  32  34
HETATM   34  C14 UNL     1      -6.601  -0.850  11.169  1.00  0.00     0.010 C 
HETATM   35  C15 UNL     1      -8.032  -0.406  11.474  1.00  0.00     0.015 C 
BRANCH  34  36
HETATM   36  C16 UNL     1      -6.084  -0.151   9.943  1.00  0.00     0.023 C 
BRANCH  36  37
HETATM   37  C17 UNL     1      -6.410  -0.799   8.637  1.00  0.00     0.083 C 
HETATM   38  C18 UNL     1      -6.961   0.360   7.761  1.00  0.00     0.021 C 
BRANCH  37  39
HETATM   39  C19 UNL     1      -5.291  -1.371   7.866  1.00  0.00     0.176 C 
HETATM   40  O7  UNL     1      -5.514  -1.642   6.630  1.00  0.00    -0.648 OA
HETATM   41  O8  UNL     1      -4.041  -1.636   8.362  1.00  0.00    -0.648 OA
ENDBRANCH  37  39
ENDBRANCH  36  37
ENDBRANCH  34  36
ENDBRANCH  32  34
ENDBRANCH  30  31
ENDBRANCH  29  30
ENDBRANCH   3  29
BRANCH   5  42
HETATM   42  O10 UNL     1       0.597   0.763   7.148  1.00  0.00    -0.390 OA
ATOM     43  H10 UNL     1       1.191   1.270   6.605  1.00  0.00     0.210 HD
ENDBRANCH   5  42
BRANCH   4  44
HETATM   44  O9  UNL     1      -0.393   0.267   9.538  1.00  0.00    -0.389 OA
ATOM     45  H9  UNL     1       0.179   0.392  10.287  1.00  0.00     0.210 HD
ENDBRANCH   4  44
TORSDOF 16
ENDMDL
MODEL 3
REMARK VINA RESULT: -7.465365375      6.027     11.574
REMARK  16 active torsions:
REMARK  status: ('A' for Active; 'I' for Inactive)
REMARK    1  A    between atoms: O1_2  and  C2_3 
REMARK    2  A    between atoms: C4_6  and  C5_7 
REMARK    3  A    between atoms: C7_11  and  O5_12 
REMARK    4  A    between atoms: O5_12  and  C8_13 
REMARK    5  A    between atoms: C9_15  and  S1_16 
REMARK    6  A    between atoms: S1_16  and  C10_17 
REMARK    7  A    between atoms: C10_17  and  C11_18 
REMARK    8  A    between atoms: C12_19  and  C14_21 
REMARK    9  A    between atoms: C14_21  and  C16_23 
REMARK   10  A    between atoms: C16_23  and  C17_24 
REMARK   11  A    between atoms: C17_24  and  C19_26 
REMARK   12  A    between atoms: C20_29  and  O9_30 
REMARK   13  A    between atoms: C21_32  and  O10_33 
REMARK   14  A    between atoms: C22_35  and  O11_36 
REMARK   15  A    between atoms: C24_40  and  O13_41 
REMARK   16  A    between atoms: C25_43  and  O14_44 
ROOT
HETATM    1  C8  UNL     1       0.562   2.786  12.517  1.00  0.00     0.295 C 
HETATM    2  O6  UNL     1      -0.322   2.320  11.568  1.00  0.00    -0.340 OA
HETATM    3  C9  UNL     1      -0.669   3.216  10.608  1.00  0.00     0.217 C 
HETATM    4  C20 UNL     1      -0.904   4.637  10.967  1.00  0.00     0.188 C 
HETATM    5  C21 UNL     1      -0.088   5.107  12.119  1.00  0.00     0.183 C 
HETATM    6  C22 UNL     1       0.021   4.042  13.161  1.00  0.00     0.204 C 
ENDROOT
BRANCH   1   7
HETATM    7  O5  UNL     1       0.765   1.834  13.540  1.00  0.00    -0.326 OA
BRANCH   7   8
HETATM    8  C7  UNL     1       1.890   1.102  13.228  1.00  0.00     0.300 C 
HETATM    9  O4  UNL     1       1.597  -0.265  13.372  1.00  0.00    -0.326 OA
HETATM   10  C6  UNL     1       2.417  -0.388  14.485  1.00  0.00     0.300 C 
HETATM   11  O3  UNL     1       1.802  -0.323  15.734  1.00  0.00    -0.325 OA
HETATM   12  C23 UNL     1       2.949   1.030  14.302  1.00  0.00     0.235 C 
HETATM   13  C5  UNL     1       2.605   0.609  16.389  1.00  0.00     0.299 C 
HETATM   14  O12 UNL     1       2.685   1.654  15.496  1.00  0.00    -0.342 OA
BRANCH  13  15
HETATM   15  C4  UNL     1       2.041   1.014  17.722  1.00  0.00     0.027 C 
HETATM   16  C3  UNL     1       1.691   2.263  17.995  1.00  0.00     0.148 C 
HETATM   17  O2  UNL     1       1.171   2.615  19.224  1.00  0.00    -0.329 OA
HETATM   18  C2  UNL     1       1.741   1.988  20.383  1.00  0.00     0.295 C 
HETATM   19  C25 UNL     1       2.098   0.571  20.189  1.00  0.00     0.206 C 
HETATM   20  C24 UNL     1       1.857   0.008  18.809  1.00  0.00     0.187 C 
BRANCH  18  21
HETATM   21  O1  UNL     1       0.877   2.247  21.449  1.00  0.00    -0.363 OA
HETATM   22  C1  UNL     1       0.102   3.369  21.245  1.00  0.00     0.204 C 
ENDBRANCH  18  21
BRANCH  19  23
HETATM   23  O14 UNL     1       3.479   0.376  20.450  1.00  0.00    -0.388 OA
ATOM     24  H14 UNL     1       3.621   0.256  21.382  1.00  0.00     0.210 HD
ENDBRANCH  19  23
BRANCH  20  25
HETATM   25  O13 UNL     1       0.575  -0.497  18.709  1.00  0.00    -0.388 OA
ATOM     26  H13 UNL     1       0.342  -0.522  17.789  1.00  0.00     0.210 HD
ENDBRANCH  20  25
ENDBRANCH  13  15
ENDBRANCH   7   8
ENDBRANCH   1   7
BRANCH   6  27
HETATM   27  O11 UNL     1      -1.284   3.761  13.614  1.00  0.00    -0.388 OA
ATOM     28  H11 UNL     1      -1.235   3.597  14.549  1.00  0.00     0.210 HD
ENDBRANCH   6  27
BRANCH   3  29
HETATM   29  S1  UNL     1      -2.052   2.638   9.618  1.00  0.00    -0.131 SA
BRANCH  29  30
HETATM   30  C10 UNL     1      -3.107   1.434  10.369  1.00  0.00     0.104 C 
BRANCH  30  31
HETATM   31  C11 UNL     1      -3.270   0.128   9.720  1.00  0.00    -0.014 C 
HETATM   32  C12 UNL     1      -4.404  -0.464   9.437  1.00  0.00    -0.083 C 
HETATM   33  C13 UNL     1      -4.307  -1.828   8.760  1.00  0.00     0.043 C 
BRANCH  32  34
HETATM   34  C14 UNL     1      -5.764   0.054   9.715  1.00  0.00     0.010 C 
HETATM   35  C15 UNL     1      -6.566  -0.108   8.423  1.00  0.00     0.015 C 
BRANCH  34  36
HETATM   36  C16 UNL     1      -6.377  -0.759  10.820  1.00  0.00     0.023 C 
BRANCH  36  37
HETATM   37  C17 UNL     1      -6.429  -0.102  12.160  1.00  0.00     0.083 C 
HETATM   38  C18 UNL     1      -7.846  -0.442  12.701  1.00  0.00     0.021 C 
BRANCH  37  39
HETATM   39  C19 UNL     1      -5.493  -0.588  13.191  1.00  0.00     0.176 C 
HETATM   40  O7  UNL     1      -6.005  -0.999  14.295  1.00  0.00    -0.648 OA
HETATM   41  O8  UNL     1      -4.129  -0.635  13.063  1.00  0.00    -0.648 OA
ENDBRANCH  37  39
ENDBRANCH  36  37
ENDBRANCH  34  36
ENDBRANCH  32  34
ENDBRANCH  30  31
ENDBRANCH  29  30
ENDBRANCH   3  29
BRANCH   5  42
HETATM   42  O10 UNL     1      -0.630   6.285  12.653  1.00  0.00    -0.390 OA
ATOM     43  H10 UNL     1       0.053   6.813  13.051  1.00  0.00     0.210 HD
ENDBRANCH   5  42
BRANCH   4  44
HETATM   44  O9  UNL     1      -2.266   4.939  11.088  1.00  0.00    -0.389 OA
ATOM     45  H9  UNL     1      -2.417   5.848  11.321  1.00  0.00     0.210 HD
ENDBRANCH   4  44
TORSDOF 16
ENDMDL
MODEL 4
REMARK VINA RESULT: -7.442962152      6.008     11.780
REMARK  16 active torsions:
REMARK  status: ('A' for Active; 'I' for Inactive)
REMARK    1  A    between atoms: O1_2  and  C2_3 
REMARK    2  A    between atoms: C4_6  and  C5_7 
REMARK    3  A    between atoms: C7_11  and  O5_12 
REMARK    4  A    between atoms: O5_12  and  C8_13 
REMARK    5  A    between atoms: C9_15  and  S1_16 
REMARK    6  A    between atoms: S1_16  and  C10_17 
REMARK    7  A    between atoms: C10_17  and  C11_18 
REMARK    8  A    between atoms: C12_19  and  C14_21 
REMARK    9  A    between atoms: C14_21  and  C16_23 
REMARK   10  A    between atoms: C16_23  and  C17_24 
REMARK   11  A    between atoms: C17_24  and  C19_26 
REMARK   12  A    between atoms: C20_29  and  O9_30 
REMARK   13  A    between atoms: C21_32  and  O10_33 
REMARK   14  A    between atoms: C22_35  and  O11_36 
REMARK   15  A    between atoms: C24_40  and  O13_41 
REMARK   16  A    between atoms: C25_43  and  O14_44 
ROOT
HETATM    1  C8  UNL     1       0.589   0.716  12.340  1.00  0.00     0.295 C 
HETATM    2  O6  UNL     1      -0.765   0.555  12.142  1.00  0.00    -0.340 OA
HETATM    3  C9  UNL     1      -1.271   1.179  11.048  1.00  0.00     0.217 C 
HETATM    4  C20 UNL     1      -0.792   2.534  10.676  1.00  0.00     0.188 C 
HETATM    5  C21 UNL     1       0.624   2.793  11.054  1.00  0.00     0.183 C 
HETATM    6  C22 UNL     1       0.937   2.187  12.383  1.00  0.00     0.204 C 
ENDROOT
BRANCH   1   7
HETATM    7  O5  UNL     1       1.002   0.143  13.563  1.00  0.00    -0.326 OA
BRANCH   7   8
HETATM    8  C7  UNL     1       2.312  -0.259  13.427  1.00  0.00     0.300 C 
HETATM    9  O4  UNL     1       2.443  -1.561  13.941  1.00  0.00    -0.326 OA
HETATM   10  C6  UNL     1       3.196  -1.126  15.023  1.00  0.00     0.300 C 
HETATM   11  O3  UNL     1       2.520  -0.928  16.225  1.00  0.00    -0.325 OA
HETATM   12  C23 UNL     1       3.279   0.286  14.451  1.00  0.00     0.235 C 
HETATM   13  C5  UNL     1       2.961   0.345  16.584  1.00  0.00     0.299 C 
HETATM   14  O12 UNL     1       2.769   1.089  15.440  1.00  0.00    -0.342 OA
BRANCH  13  15
HETATM   15  C4  UNL     1       2.223   0.892  17.774  1.00  0.00     0.027 C 
HETATM   16  C3  UNL     1       1.876   2.167  17.869  1.00  0.00     0.148 C 
HETATM   17  O2  UNL     1       1.196   2.650  18.969  1.00  0.00    -0.329 OA
HETATM   18  C2  UNL     1       1.575   2.135  20.255  1.00  0.00     0.295 C 
HETATM   19  C25 UNL     1       1.914   0.700  20.254  1.00  0.00     0.206 C 
HETATM   20  C24 UNL     1       1.856   0.003  18.916  1.00  0.00     0.187 C 
BRANCH  18  21
HETATM   21  O1  UNL     1       0.575   2.513  21.153  1.00  0.00    -0.363 OA
HETATM   22  C1  UNL     1      -0.151   3.600  20.714  1.00  0.00     0.204 C 
ENDBRANCH  18  21
BRANCH  19  23
HETATM   23  O14 UNL     1       3.236   0.510  20.732  1.00  0.00    -0.388 OA
ATOM     24  H14 UNL     1       3.651  -0.209  20.270  1.00  0.00     0.210 HD
ENDBRANCH  19  23
BRANCH  20  25
HETATM   25  O13 UNL     1       0.587  -0.489  18.680  1.00  0.00    -0.388 OA
ATOM     26  H13 UNL     1       0.512  -1.328  19.119  1.00  0.00     0.210 HD
ENDBRANCH  20  25
ENDBRANCH  13  15
ENDBRANCH   7   8
ENDBRANCH   1   7
BRANCH   6  27
HETATM   27  O11 UNL     1       0.095   2.797  13.334  1.00  0.00    -0.388 OA
ATOM     28  H11 UNL     1       0.444   3.663  13.514  1.00  0.00     0.210 HD
ENDBRANCH   6  27
BRANCH   3  29
HETATM   29  S1  UNL     1      -3.068   1.186  11.049  1.00  0.00    -0.131 SA
BRANCH  29  30
HETATM   30  C10 UNL     1      -3.858  -0.296  11.600  1.00  0.00     0.104 C 
BRANCH  30  31
HETATM   31  C11 UNL     1      -4.972  -0.197  12.551  1.00  0.00    -0.014 C 
HETATM   32  C12 UNL     1      -6.238  -0.407  12.291  1.00  0.00    -0.083 C 
HETATM   33  C13 UNL     1      -7.209  -0.236  13.457  1.00  0.00     0.043 C 
BRANCH  32  34
HETATM   34  C14 UNL     1      -6.820  -0.786  10.982  1.00  0.00     0.010 C 
HETATM   35  C15 UNL     1      -8.290  -0.364  11.017  1.00  0.00     0.015 C 
BRANCH  34  36
HETATM   36  C16 UNL     1      -6.088  -0.052   9.894  1.00  0.00     0.023 C 
BRANCH  36  37
HETATM   37  C17 UNL     1      -5.984  -0.762   8.584  1.00  0.00     0.083 C 
HETATM   38  C18 UNL     1      -6.012   0.376   7.527  1.00  0.00     0.021 C 
BRANCH  37  39
HETATM   39  C19 UNL     1      -4.742  -1.511   8.316  1.00  0.00     0.176 C 
HETATM   40  O7  UNL     1      -4.829  -2.793   8.299  1.00  0.00    -0.648 OA
HETATM   41  O8  UNL     1      -3.513  -0.951   8.087  1.00  0.00    -0.648 OA
ENDBRANCH  37  39
ENDBRANCH  36  37
ENDBRANCH  34  36
ENDBRANCH  32  34
ENDBRANCH  30  31
ENDBRANCH  29  30
ENDBRANCH   3  29
BRANCH   5  42
HETATM   42  O10 UNL     1       0.886   4.171  11.051  1.00  0.00    -0.390 OA
ATOM     43  H10 UNL     1       1.674   4.357  10.555  1.00  0.00     0.210 HD
ENDBRANCH   5  42
BRANCH   4  44
HETATM   44  O9  UNL     1      -1.673   3.543  11.086  1.00  0.00    -0.389 OA
ATOM     45  H9  UNL     1      -1.311   4.413  10.961  1.00  0.00     0.210 HD
ENDBRANCH   4  44
TORSDOF 16
ENDMDL
MODEL 5
REMARK VINA RESULT: -7.331843543      2.572      6.635
REMARK  16 active torsions:
REMARK  status: ('A' for Active; 'I' for Inactive)
REMARK    1  A    between atoms: O1_2  and  C2_3 
REMARK    2  A    between atoms: C4_6  and  C5_7 
REMARK    3  A    between atoms: C7_11  and  O5_12 
REMARK    4  A    between atoms: O5_12  and  C8_13 
REMARK    5  A    between atoms: C9_15  and  S1_16 
REMARK    6  A    between atoms: S1_16  and  C10_17 
REMARK    7  A    between atoms: C10_17  and  C11_18 
REMARK    8  A    between atoms: C12_19  and  C14_21 
REMARK    9  A    between atoms: C14_21  and  C16_23 
REMARK   10  A    between atoms: C16_23  and  C17_24 
REMARK   11  A    between atoms: C17_24  and  C19_26 
REMARK   12  A    between atoms: C20_29  and  O9_30 
REMARK   13  A    between atoms: C21_32  and  O10_33 
REMARK   14  A    between atoms: C22_35  and  O11_36 
REMARK   15  A    between atoms: C24_40  and  O13_41 
REMARK   16  A    between atoms: C25_43  and  O14_44 
ROOT
HETATM    1  C8  UNL     1      -7.069  -1.292   2.095  1.00  0.00     0.295 C 
HETATM    2  O6  UNL     1      -6.315  -1.182   3.243  1.00  0.00    -0.340 OA
HETATM    3  C9  UNL     1      -5.729  -2.332   3.666  1.00  0.00     0.217 C 
HETATM    4  C20 UNL     1      -6.465  -3.618   3.580  1.00  0.00     0.188 C 
HETATM    5  C21 UNL     1      -7.427  -3.683   2.447  1.00  0.00     0.183 C 
HETATM    6  C22 UNL     1      -8.116  -2.370   2.260  1.00  0.00     0.204 C 
ENDROOT
BRANCH   1   7
HETATM    7  O5  UNL     1      -7.740  -0.085   1.804  1.00  0.00    -0.326 OA
BRANCH   7   8
HETATM    8  C7  UNL     1      -7.358   0.327   0.546  1.00  0.00     0.300 C 
HETATM    9  O4  UNL     1      -5.984   0.078   0.384  1.00  0.00    -0.326 OA
HETATM   10  C6  UNL     1      -5.674   1.430   0.392  1.00  0.00     0.300 C 
HETATM   11  O3  UNL     1      -5.236   1.971   1.599  1.00  0.00    -0.325 OA
HETATM   12  C23 UNL     1      -7.151   1.812   0.372  1.00  0.00     0.235 C 
HETATM   13  C5  UNL     1      -6.049   3.099   1.707  1.00  0.00     0.299 C 
HETATM   14  O12 UNL     1      -7.316   2.609   1.477  1.00  0.00    -0.342 OA
BRANCH  13  15
HETATM   15  C4  UNL     1      -5.912   3.778   3.042  1.00  0.00     0.027 C 
HETATM   16  C3  UNL     1      -5.786   5.091   3.160  1.00  0.00     0.148 C 
HETATM   17  O2  UNL     1      -5.665   5.697   4.395  1.00  0.00    -0.329 OA
HETATM   18  C2  UNL     1      -4.867   5.024   5.381  1.00  0.00     0.295 C 
HETATM   19  C25 UNL     1      -5.000   3.556   5.366  1.00  0.00     0.206 C 
HETATM   20  C24 UNL     1      -5.906   2.981   4.304  1.00  0.00     0.187 C 
BRANCH  18  21
HETATM   21  O1  UNL     1      -5.139   5.637   6.606  1.00  0.00    -0.363 OA
HETATM   22  C1  UNL     1      -4.150   6.516   6.992  1.00  0.00     0.204 C 
ENDBRANCH  18  21
BRANCH  19  23
HETATM   23  O14 UNL     1      -3.732   2.954   5.160  1.00  0.00    -0.388 OA
ATOM     24  H14 UNL     1      -3.823   2.176   4.623  1.00  0.00     0.210 HD
ENDBRANCH  19  23
BRANCH  20  25
HETATM   25  O13 UNL     1      -7.206   2.905   4.765  1.00  0.00    -0.388 OA
ATOM     26  H13 UNL     1      -7.193   2.463   5.605  1.00  0.00     0.210 HD
ENDBRANCH  20  25
ENDBRANCH  13  15
ENDBRANCH   7   8
ENDBRANCH   1   7
BRANCH   6  27
HETATM   27  O11 UNL     1      -8.828  -2.095   3.444  1.00  0.00    -0.388 OA
ATOM     28  H11 UNL     1      -9.243  -2.903   3.724  1.00  0.00     0.210 HD
ENDBRANCH   6  27
BRANCH   3  29
HETATM   29  S1  UNL     1      -5.047  -2.170   5.321  1.00  0.00    -0.131 SA
BRANCH  29  30
HETATM   30  C10 UNL     1      -5.628  -0.801   6.278  1.00  0.00     0.104 C 
BRANCH  30  31
HETATM   31  C11 UNL     1      -4.649   0.083   6.921  1.00  0.00    -0.014 C 
HETATM   32  C12 UNL     1      -4.233   0.014   8.161  1.00  0.00    -0.083 C 
HETATM   33  C13 UNL     1      -3.206   1.057   8.593  1.00  0.00     0.043 C 
BRANCH  32  34
HETATM   34  C14 UNL     1      -4.665  -0.968   9.183  1.00  0.00     0.010 C 
HETATM   35  C15 UNL     1      -3.871  -2.249   8.924  1.00  0.00     0.015 C 
BRANCH  34  36
HETATM   36  C16 UNL     1      -4.351  -0.420  10.547  1.00  0.00     0.023 C 
BRANCH  36  37
HETATM   37  C17 UNL     1      -5.519   0.071  11.337  1.00  0.00     0.083 C 
HETATM   38  C18 UNL     1      -6.756  -0.494  10.585  1.00  0.00     0.021 C 
BRANCH  37  39
HETATM   39  C19 UNL     1      -5.652  -0.415  12.724  1.00  0.00     0.176 C 
HETATM   40  O7  UNL     1      -6.842  -0.494  13.201  1.00  0.00    -0.648 OA
HETATM   41  O8  UNL     1      -4.612  -0.784  13.536  1.00  0.00    -0.648 OA
ENDBRANCH  37  39
ENDBRANCH  36  37
ENDBRANCH  34  36
ENDBRANCH  32  34
ENDBRANCH  30  31
ENDBRANCH  29  30
ENDBRANCH   3  29
BRANCH   5  42
HETATM   42  O10 UNL     1      -8.354  -4.716   2.651  1.00  0.00    -0.390 OA
ATOM     43  H10 UNL     1      -8.983  -4.741   1.940  1.00  0.00     0.210 HD
ENDBRANCH   5  42
BRANCH   4  44
HETATM   44  O9  UNL     1      -7.023  -3.996   4.808  1.00  0.00    -0.389 OA
ATOM     45  H9  UNL     1      -7.382  -4.876   4.788  1.00  0.00     0.210 HD
ENDBRANCH   4  44
TORSDOF 16
ENDMDL
