MODEL 1
REMARK VINA RESULT: -7.108553845      0.000      0.000
REMARK  15 active torsions:
REMARK  status: ('A' for Active; 'I' for Inactive)
REMARK    1  A    between atoms: O1_2  and  C2_3 
REMARK    2  A    between atoms: C4_5  and  C5_6 
REMARK    3  A    between atoms: C5_6  and  O3_8 
REMARK    4  A    between atoms: O3_8  and  C6_9 
REMARK    5  A    between atoms: C6_9  and  C7_11 
REMARK    6  A    between atoms: C8_13  and  N1_14 
REMARK       I    between atoms: N1_14  and  C9_16 
REMARK       I    between atoms: C9_16  and  N4_35 
REMARK    7  A    between atoms: N2_17  and  O6_19 
REMARK    8  A    between atoms: O6_19  and  C10_20 
REMARK    9  A    between atoms: C10_20  and  C11_21 
REMARK   10  A    between atoms: C10_20  and  C13_25 
REMARK   11  A    between atoms: C11_21  and  O7_23 
REMARK   12  A    between atoms: C13_25  and  O8_26 
REMARK   13  A    between atoms: C13_25  and  C14_28 
REMARK   14  A    between atoms: C14_28  and  N3_29 
REMARK   15  A    between atoms: N3_29  and  C15_32 
ROOT
HETATM    1  N1  UNL     1      -2.841  -0.529   6.390  1.00  0.00    -0.197 N 
ATOM      2  H1  UNL     1      -2.004  -0.002   6.141  1.00  0.00     0.180 HD
HETATM    3  C9  UNL     1      -2.722  -1.552   7.349  1.00  0.00     0.709 C 
HETATM    4  N2  UNL     1      -2.555  -1.285   8.585  1.00  0.00    -0.095 N 
ATOM      5  H2  UNL     1      -2.478  -2.089   9.209  1.00  0.00     0.213 HD
HETATM    6  N4  UNL     1      -2.790  -2.900   6.935  1.00  0.00    -0.124 N 
ATOM      7  H4  UNL     1      -2.186  -3.221   6.178  1.00  0.00     0.197 HD
HETATM    8  C18 UNL     1      -3.668  -3.806   7.542  1.00  0.00     0.196 C 
HETATM    9  N5  UNL     1      -4.386  -4.570   8.035  1.00  0.00    -0.171 NA
ENDROOT
BRANCH   1  10
HETATM   10  C8  UNL     1      -4.096  -0.179   5.731  1.00  0.00     0.241 C 
HETATM   11  O5  UNL     1      -4.531  -1.168   4.898  1.00  0.00    -0.332 OA
HETATM   12  C7  UNL     1      -5.796  -0.979   4.420  1.00  0.00     0.326 C 
HETATM   13  N6  UNL     1      -6.625  -0.138   5.202  1.00  0.00    -0.364 N 
HETATM   14  C21 UNL     1      -6.324   1.234   5.283  1.00  0.00     0.061 C 
HETATM   15  C22 UNL     1      -7.280  -0.751   6.298  1.00  0.00     0.152 C 
HETATM   16  C20 UNL     1      -5.151   1.686   4.447  1.00  0.00     0.048 C 
HETATM   17  C19 UNL     1      -3.850   1.083   4.924  1.00  0.00     0.059 C 
BRANCH  12  18
HETATM   18  C6  UNL     1      -6.482  -2.320   4.363  1.00  0.00     0.316 C 
HETATM   19  O4  UNL     1      -5.864  -3.303   4.829  1.00  0.00    -0.260 OA
BRANCH  18  20
HETATM   20  O3  UNL     1      -7.744  -2.492   3.823  1.00  0.00    -0.238 OA
BRANCH  20  21
HETATM   21  C5  UNL     1      -8.053  -2.277   2.508  1.00  0.00     0.292 C 
HETATM   22  O2  UNL     1      -8.427  -3.253   1.814  1.00  0.00    -0.260 OA
BRANCH  21  23
HETATM   23  C4  UNL     1      -7.973  -0.967   1.862  1.00  0.00     0.114 C 
HETATM   24  C2  UNL     1      -8.668   0.065   2.247  1.00  0.00     0.047 C 
HETATM   25  C3  UNL     1      -8.539   1.359   1.550  1.00  0.00     0.076 C 
BRANCH  24  26
HETATM   26  O1  UNL     1      -9.538  -0.042   3.319  1.00  0.00    -0.360 OA
HETATM   27  C1  UNL     1      -9.917   1.074   4.103  1.00  0.00     0.209 C 
ENDBRANCH  24  26
ENDBRANCH  21  23
ENDBRANCH  20  21
ENDBRANCH  18  20
ENDBRANCH  12  18
ENDBRANCH   1  10
BRANCH   4  28
HETATM   28  O6  UNL     1      -2.466  -0.076   9.171  1.00  0.00    -0.256 OA
BRANCH  28  29
HETATM   29  C10 UNL     1      -1.276   0.270   9.914  1.00  0.00     0.211 C 
BRANCH  29  30
HETATM   30  C11 UNL     1      -0.354   0.993   8.979  1.00  0.00     0.148 C 
HETATM   31  C12 UNL     1      -1.000   2.063   8.148  1.00  0.00     0.042 C 
BRANCH  30  32
HETATM   32  O7  UNL     1       0.435   0.206   8.192  1.00  0.00    -0.393 OA
ATOM     33  H7  UNL     1       0.679   0.572   7.350  1.00  0.00     0.210 HD
ENDBRANCH  30  32
ENDBRANCH  29  30
BRANCH  29  34
HETATM   34  C13 UNL     1      -1.655   0.985  11.163  1.00  0.00     0.177 C 
BRANCH  34  35
HETATM   35  O8  UNL     1      -0.976   0.628  12.306  1.00  0.00    -0.391 OA
ATOM     36  H8  UNL     1      -1.449   0.715  13.125  1.00  0.00     0.210 HD
ENDBRANCH  34  35
BRANCH  34  37
HETATM   37  C14 UNL     1      -3.139   1.152  11.363  1.00  0.00     0.267 C 
BRANCH  37  38
HETATM   38  N3  UNL     1      -3.720  -0.026  11.995  1.00  0.00    -0.068 N 
ATOM     39  H32 UNL     1      -4.063  -0.685  11.297  1.00  0.00     0.277 HD
ATOM     40  H31 UNL     1      -2.998  -0.604  12.425  1.00  0.00     0.277 HD
BRANCH  38  41
HETATM   41  C15 UNL     1      -4.742   0.302  12.937  1.00  0.00     0.186 A 
HETATM   42  C16 UNL     1      -6.144  -0.129  12.801  1.00  0.00     0.035 A 
HETATM   43  C17 UNL     1      -5.265  -0.822  13.759  1.00  0.00     0.035 A 
ENDBRANCH  38  41
ENDBRANCH  37  38
ENDBRANCH  34  37
ENDBRANCH  29  34
ENDBRANCH  28  29
ENDBRANCH   4  28
TORSDOF 15
ENDMDL
MODEL 2
REMARK VINA RESULT: -7.096371759      1.113      1.543
REMARK  15 active torsions:
REMARK  status: ('A' for Active; 'I' for Inactive)
REMARK    1  A    between atoms: O1_2  and  C2_3 
REMARK    2  A    between atoms: C4_5  and  C5_6 
REMARK    3  A    between atoms: C5_6  and  O3_8 
REMARK    4  A    between atoms: O3_8  and  C6_9 
REMARK    5  A    between atoms: C6_9  and  C7_11 
REMARK    6  A    between atoms: C8_13  and  N1_14 
REMARK       I    between atoms: N1_14  and  C9_16 
REMARK       I    between atoms: C9_16  and  N4_35 
REMARK    7  A    between atoms: N2_17  and  O6_19 
REMARK    8  A    between atoms: O6_19  and  C10_20 
REMARK    9  A    between atoms: C10_20  and  C11_21 
REMARK   10  A    between atoms: C10_20  and  C13_25 
REMARK   11  A    between atoms: C11_21  and  O7_23 
REMARK   12  A    between atoms: C13_25  and  O8_26 
REMARK   13  A    between atoms: C13_25  and  C14_28 
REMARK   14  A    between atoms: C14_28  and  N3_29 
REMARK   15  A    between atoms: N3_29  and  C15_32 
ROOT
HETATM    1  N1  UNL     1      -2.556  -0.374   6.422  1.00  0.00    -0.197 N 
ATOM      2  H1  UNL     1      -1.701   0.047   6.058  1.00  0.00     0.180 HD
HETATM    3  C9  UNL     1      -2.440  -1.345   7.434  1.00  0.00     0.709 C 
HETATM    4  N2  UNL     1      -2.122  -1.022   8.627  1.00  0.00    -0.095 N 
ATOM      5  H2  UNL     1      -2.061  -1.791   9.295  1.00  0.00     0.213 HD
HETATM    6  N4  UNL     1      -2.680  -2.701   7.124  1.00  0.00    -0.124 N 
ATOM      7  H4  UNL     1      -2.191  -3.127   6.337  1.00  0.00     0.197 HD
HETATM    8  C18 UNL     1      -3.576  -3.472   7.874  1.00  0.00     0.196 C 
HETATM    9  N5  UNL     1      -4.311  -4.126   8.485  1.00  0.00    -0.171 NA
ENDROOT
BRANCH   1  10
HETATM   10  C8  UNL     1      -3.832   0.064   5.863  1.00  0.00     0.241 C 
HETATM   11  O5  UNL     1      -4.382  -0.877   5.042  1.00  0.00    -0.332 OA
HETATM   12  C7  UNL     1      -5.665  -0.604   4.660  1.00  0.00     0.326 C 
HETATM   13  N6  UNL     1      -6.385   0.264   5.518  1.00  0.00    -0.364 N 
HETATM   14  C21 UNL     1      -5.998   1.614   5.606  1.00  0.00     0.061 C 
HETATM   15  C22 UNL     1      -6.996  -0.338   6.645  1.00  0.00     0.152 C 
HETATM   16  C20 UNL     1      -4.863   2.019   4.698  1.00  0.00     0.048 C 
HETATM   17  C19 UNL     1      -3.569   1.331   5.067  1.00  0.00     0.059 C 
BRANCH  12  18
HETATM   18  C6  UNL     1      -6.430  -1.901   4.625  1.00  0.00     0.316 C 
HETATM   19  O4  UNL     1      -5.868  -2.915   5.094  1.00  0.00    -0.260 OA
BRANCH  18  20
HETATM   20  O3  UNL     1      -7.707  -2.002   4.100  1.00  0.00    -0.238 OA
BRANCH  20  21
HETATM   21  C5  UNL     1      -8.008  -1.839   2.775  1.00  0.00     0.292 C 
HETATM   22  O2  UNL     1      -8.420  -2.832   2.129  1.00  0.00    -0.260 OA
BRANCH  21  23
HETATM   23  C4  UNL     1      -7.878  -0.566   2.067  1.00  0.00     0.114 C 
HETATM   24  C2  UNL     1      -8.671   0.447   2.262  1.00  0.00     0.047 C 
HETATM   25  C3  UNL     1      -8.483   1.704   1.511  1.00  0.00     0.076 C 
BRANCH  24  26
HETATM   26  O1  UNL     1      -9.704   0.356   3.179  1.00  0.00    -0.360 OA
HETATM   27  C1  UNL     1      -9.721   1.104   4.381  1.00  0.00     0.209 C 
ENDBRANCH  24  26
ENDBRANCH  21  23
ENDBRANCH  20  21
ENDBRANCH  18  20
ENDBRANCH  12  18
ENDBRANCH   1  10
BRANCH   4  28
HETATM   28  O6  UNL     1      -1.857   0.204   9.115  1.00  0.00    -0.256 OA
BRANCH  28  29
HETATM   29  C10 UNL     1      -2.131   0.492  10.505  1.00  0.00     0.211 C 
BRANCH  29  30
HETATM   30  C11 UNL     1      -1.728   1.914  10.758  1.00  0.00     0.148 C 
HETATM   31  C12 UNL     1      -0.822   2.119  11.936  1.00  0.00     0.042 C 
BRANCH  30  32
HETATM   32  O7  UNL     1      -2.743   2.825  10.787  1.00  0.00    -0.393 OA
ATOM     33  H7  UNL     1      -3.182   2.984   9.960  1.00  0.00     0.210 HD
ENDBRANCH  30  32
ENDBRANCH  29  30
BRANCH  29  34
HETATM   34  C13 UNL     1      -3.538   0.130  10.826  1.00  0.00     0.177 C 
BRANCH  34  35
HETATM   35  O8  UNL     1      -4.492   0.496   9.904  1.00  0.00    -0.391 OA
ATOM     36  H8  UNL     1      -4.737  -0.161   9.263  1.00  0.00     0.210 HD
ENDBRANCH  34  35
BRANCH  34  37
HETATM   37  C14 UNL     1      -3.941   0.385  12.255  1.00  0.00     0.267 C 
BRANCH  37  38
HETATM   38  N3  UNL     1      -4.936  -0.583  12.700  1.00  0.00    -0.068 N 
ATOM     39  H32 UNL     1      -4.974  -1.385  12.071  1.00  0.00     0.277 HD
ATOM     40  H31 UNL     1      -4.632  -1.056  13.551  1.00  0.00     0.277 HD
BRANCH  38  41
HETATM   41  C15 UNL     1      -6.229  -0.003  12.870  1.00  0.00     0.186 A 
HETATM   42  C16 UNL     1      -7.479  -0.660  12.451  1.00  0.00     0.035 A 
HETATM   43  C17 UNL     1      -7.114  -0.650  13.877  1.00  0.00     0.035 A 
ENDBRANCH  38  41
ENDBRANCH  37  38
ENDBRANCH  34  37
ENDBRANCH  29  34
ENDBRANCH  28  29
ENDBRANCH   4  28
TORSDOF 15
ENDMDL
MODEL 3
REMARK VINA RESULT: -7.093047010      2.982      5.116
REMARK  15 active torsions:
REMARK  status: ('A' for Active; 'I' for Inactive)
REMARK    1  A    between atoms: O1_2  and  C2_3 
REMARK    2  A    between atoms: C4_5  and  C5_6 
REMARK    3  A    between atoms: C5_6  and  O3_8 
REMARK    4  A    between atoms: O3_8  and  C6_9 
REMARK    5  A    between atoms: C6_9  and  C7_11 
REMARK    6  A    between atoms: C8_13  and  N1_14 
REMARK       I    between atoms: N1_14  and  C9_16 
REMARK       I    between atoms: C9_16  and  N4_35 
REMARK    7  A    between atoms: N2_17  and  O6_19 
REMARK    8  A    between atoms: O6_19  and  C10_20 
REMARK    9  A    between atoms: C10_20  and  C11_21 
REMARK   10  A    between atoms: C10_20  and  C13_25 
REMARK   11  A    between atoms: C11_21  and  O7_23 
REMARK   12  A    between atoms: C13_25  and  O8_26 
REMARK   13  A    between atoms: C13_25  and  C14_28 
REMARK   14  A    between atoms: C14_28  and  N3_29 
REMARK   15  A    between atoms: N3_29  and  C15_32 
ROOT
HETATM    1  N1  UNL     1      -3.881   2.507   6.879  1.00  0.00    -0.197 N 
ATOM      2  H1  UNL     1      -4.225   3.362   7.314  1.00  0.00     0.180 HD
HETATM    3  C9  UNL     1      -2.581   2.512   6.337  1.00  0.00     0.709 C 
HETATM    4  N2  UNL     1      -1.551   2.513   7.090  1.00  0.00    -0.095 N 
ATOM      5  H2  UNL     1      -0.650   2.518   6.612  1.00  0.00     0.213 HD
HETATM    6  N4  UNL     1      -2.415   2.519   4.935  1.00  0.00    -0.124 N 
ATOM      7  H4  UNL     1      -2.901   3.221   4.378  1.00  0.00     0.197 HD
HETATM    8  C18 UNL     1      -1.596   1.581   4.295  1.00  0.00     0.196 C 
HETATM    9  N5  UNL     1      -0.921   0.815   3.748  1.00  0.00    -0.171 NA
ENDROOT
BRANCH   1  10
HETATM   10  C8  UNL     1      -4.763   1.344   6.850  1.00  0.00     0.241 C 
HETATM   11  O5  UNL     1      -4.167   0.262   6.271  1.00  0.00    -0.332 OA
HETATM   12  C7  UNL     1      -4.871  -0.901   6.405  1.00  0.00     0.326 C 
HETATM   13  N6  UNL     1      -5.779  -0.944   7.492  1.00  0.00    -0.364 N 
HETATM   14  C21 UNL     1      -6.918  -0.119   7.463  1.00  0.00     0.061 C 
HETATM   15  C22 UNL     1      -5.230  -1.294   8.750  1.00  0.00     0.152 C 
HETATM   16  C20 UNL     1      -7.090   0.699   6.206  1.00  0.00     0.048 C 
HETATM   17  C19 UNL     1      -5.994   1.727   6.046  1.00  0.00     0.059 C 
BRANCH  12  18
HETATM   18  C6  UNL     1      -3.888  -2.022   6.626  1.00  0.00     0.316 C 
HETATM   19  O4  UNL     1      -2.682  -1.715   6.752  1.00  0.00    -0.260 OA
BRANCH  18  20
HETATM   20  O3  UNL     1      -4.271  -3.350   6.691  1.00  0.00    -0.238 OA
BRANCH  20  21
HETATM   21  C5  UNL     1      -3.417  -4.384   6.963  1.00  0.00     0.292 C 
HETATM   22  O2  UNL     1      -2.713  -4.839   6.030  1.00  0.00    -0.260 OA
BRANCH  21  23
HETATM   23  C4  UNL     1      -3.277  -4.991   8.287  1.00  0.00     0.114 C 
HETATM   24  C2  UNL     1      -3.844  -6.112   8.624  1.00  0.00     0.047 C 
HETATM   25  C3  UNL     1      -3.662  -6.669   9.979  1.00  0.00     0.076 C 
BRANCH  24  26
HETATM   26  O1  UNL     1      -4.628  -6.798   7.712  1.00  0.00    -0.360 OA
HETATM   27  C1  UNL     1      -6.021  -6.981   7.893  1.00  0.00     0.209 C 
ENDBRANCH  24  26
ENDBRANCH  21  23
ENDBRANCH  20  21
ENDBRANCH  18  20
ENDBRANCH  12  18
ENDBRANCH   1  10
BRANCH   4  28
HETATM   28  O6  UNL     1      -1.502   2.507   8.435  1.00  0.00    -0.256 OA
BRANCH  28  29
HETATM   29  C10 UNL     1      -1.891   1.317   9.158  1.00  0.00     0.211 C 
BRANCH  29  30
HETATM   30  C11 UNL     1      -0.653   0.505   9.388  1.00  0.00     0.148 C 
HETATM   31  C12 UNL     1       0.621   1.293   9.473  1.00  0.00     0.042 C 
BRANCH  30  32
HETATM   32  O7  UNL     1      -0.481  -0.568   8.562  1.00  0.00    -0.393 OA
ATOM     33  H7  UNL     1       0.114  -1.241   8.874  1.00  0.00     0.210 HD
ENDBRANCH  30  32
ENDBRANCH  29  30
BRANCH  29  34
HETATM   34  C13 UNL     1      -2.675   1.696  10.364  1.00  0.00     0.177 C 
BRANCH  34  35
HETATM   35  O8  UNL     1      -2.585   3.010  10.768  1.00  0.00    -0.391 OA
ATOM     36  H8  UNL     1      -3.398   3.432  11.021  1.00  0.00     0.210 HD
ENDBRANCH  34  35
BRANCH  34  37
HETATM   37  C14 UNL     1      -2.602   0.704  11.496  1.00  0.00     0.267 C 
BRANCH  37  38
HETATM   38  N3  UNL     1      -3.744   0.845  12.392  1.00  0.00    -0.068 N 
ATOM     39  H32 UNL     1      -3.453   1.200  13.303  1.00  0.00     0.277 HD
ATOM     40  H31 UNL     1      -4.346   1.614  12.100  1.00  0.00     0.277 HD
BRANCH  38  41
HETATM   41  C15 UNL     1      -4.489  -0.366  12.527  1.00  0.00     0.186 A 
HETATM   42  C16 UNL     1      -5.310  -0.690  13.706  1.00  0.00     0.035 A 
HETATM   43  C17 UNL     1      -5.970  -0.236  12.470  1.00  0.00     0.035 A 
ENDBRANCH  38  41
ENDBRANCH  37  38
ENDBRANCH  34  37
ENDBRANCH  29  34
ENDBRANCH  28  29
ENDBRANCH   4  28
TORSDOF 15
ENDMDL
MODEL 4
REMARK VINA RESULT: -7.051715436      1.426      2.191
REMARK  15 active torsions:
REMARK  status: ('A' for Active; 'I' for Inactive)
REMARK    1  A    between atoms: O1_2  and  C2_3 
REMARK    2  A    between atoms: C4_5  and  C5_6 
REMARK    3  A    between atoms: C5_6  and  O3_8 
REMARK    4  A    between atoms: O3_8  and  C6_9 
REMARK    5  A    between atoms: C6_9  and  C7_11 
REMARK    6  A    between atoms: C8_13  and  N1_14 
REMARK       I    between atoms: N1_14  and  C9_16 
REMARK       I    between atoms: C9_16  and  N4_35 
REMARK    7  A    between atoms: N2_17  and  O6_19 
REMARK    8  A    between atoms: O6_19  and  C10_20 
REMARK    9  A    between atoms: C10_20  and  C11_21 
REMARK   10  A    between atoms: C10_20  and  C13_25 
REMARK   11  A    between atoms: C11_21  and  O7_23 
REMARK   12  A    between atoms: C13_25  and  O8_26 
REMARK   13  A    between atoms: C13_25  and  C14_28 
REMARK   14  A    between atoms: C14_28  and  N3_29 
REMARK   15  A    between atoms: N3_29  and  C15_32 
ROOT
HETATM    1  N1  UNL     1      -2.438  -0.077   6.559  1.00  0.00    -0.197 N 
ATOM      2  H1  UNL     1      -1.606   0.358   6.162  1.00  0.00     0.180 HD
HETATM    3  C9  UNL     1      -2.264  -1.141   7.464  1.00  0.00     0.709 C 
HETATM    4  N2  UNL     1      -1.835  -0.941   8.648  1.00  0.00    -0.095 N 
ATOM      5  H2  UNL     1      -1.739  -1.770   9.234  1.00  0.00     0.213 HD
HETATM    6  N4  UNL     1      -2.571  -2.457   7.052  1.00  0.00    -0.124 N 
ATOM      7  H4  UNL     1      -2.165  -2.817   6.189  1.00  0.00     0.197 HD
HETATM    8  C18 UNL     1      -3.421  -3.276   7.804  1.00  0.00     0.196 C 
HETATM    9  N5  UNL     1      -4.119  -3.969   8.415  1.00  0.00    -0.171 NA
ENDROOT
BRANCH   1  10
HETATM   10  C8  UNL     1      -3.744   0.439   6.159  1.00  0.00     0.241 C 
HETATM   11  O5  UNL     1      -4.453  -0.469   5.430  1.00  0.00    -0.332 OA
HETATM   12  C7  UNL     1      -5.754  -0.115   5.209  1.00  0.00     0.326 C 
HETATM   13  N6  UNL     1      -6.302   0.804   6.137  1.00  0.00    -0.364 N 
HETATM   14  C21 UNL     1      -5.821   2.126   6.154  1.00  0.00     0.061 C 
HETATM   15  C22 UNL     1      -6.802   0.252   7.341  1.00  0.00     0.152 C 
HETATM   16  C20 UNL     1      -4.787   2.449   5.103  1.00  0.00     0.048 C 
HETATM   17  C19 UNL     1      -3.504   1.680   5.317  1.00  0.00     0.059 C 
BRANCH  12  18
HETATM   18  C6  UNL     1      -6.600  -1.360   5.291  1.00  0.00     0.316 C 
HETATM   19  O4  UNL     1      -6.011  -2.462   5.230  1.00  0.00    -0.260 OA
BRANCH  18  20
HETATM   20  O3  UNL     1      -7.976  -1.321   5.430  1.00  0.00    -0.238 OA
BRANCH  20  21
HETATM   21  C5  UNL     1      -8.832  -0.866   4.465  1.00  0.00     0.292 C 
HETATM   22  O2  UNL     1     -10.058  -0.817   4.728  1.00  0.00    -0.260 OA
BRANCH  21  23
HETATM   23  C4  UNL     1      -8.398  -0.431   3.137  1.00  0.00     0.114 C 
HETATM   24  C2  UNL     1      -8.360  -1.219   2.103  1.00  0.00     0.047 C 
HETATM   25  C3  UNL     1      -7.911  -0.714   0.791  1.00  0.00     0.076 C 
BRANCH  24  26
HETATM   26  O1  UNL     1      -8.743  -2.544   2.222  1.00  0.00    -0.360 OA
HETATM   27  C1  UNL     1      -7.805  -3.603   2.288  1.00  0.00     0.209 C 
ENDBRANCH  24  26
ENDBRANCH  21  23
ENDBRANCH  20  21
ENDBRANCH  18  20
ENDBRANCH  12  18
ENDBRANCH   1  10
BRANCH   4  28
HETATM   28  O6  UNL     1      -1.492   0.227   9.222  1.00  0.00    -0.256 OA
BRANCH  28  29
HETATM   29  C10 UNL     1      -1.897   0.500  10.583  1.00  0.00     0.211 C 
BRANCH  29  30
HETATM   30  C11 UNL     1      -1.686   1.963  10.832  1.00  0.00     0.148 C 
HETATM   31  C12 UNL     1      -0.856   2.290  12.038  1.00  0.00     0.042 C 
BRANCH  30  32
HETATM   32  O7  UNL     1      -2.808   2.739  10.814  1.00  0.00    -0.393 OA
ATOM     33  H7  UNL     1      -3.117   3.043  11.660  1.00  0.00     0.210 HD
ENDBRANCH  30  32
ENDBRANCH  29  30
BRANCH  29  34
HETATM   34  C13 UNL     1      -3.271  -0.025  10.811  1.00  0.00     0.177 C 
BRANCH  34  35
HETATM   35  O8  UNL     1      -4.271   0.510  10.032  1.00  0.00    -0.391 OA
ATOM     36  H8  UNL     1      -5.139   0.141  10.144  1.00  0.00     0.210 HD
ENDBRANCH  34  35
BRANCH  34  37
HETATM   37  C14 UNL     1      -3.647  -0.184  12.262  1.00  0.00     0.267 C 
BRANCH  37  38
HETATM   38  N3  UNL     1      -4.967   0.375  12.526  1.00  0.00    -0.068 N 
ATOM     39  H32 UNL     1      -4.929   1.067  13.273  1.00  0.00     0.277 HD
ATOM     40  H31 UNL     1      -5.271   0.976  11.760  1.00  0.00     0.277 HD
BRANCH  38  41
HETATM   41  C15 UNL     1      -5.943  -0.629  12.806  1.00  0.00     0.186 A 
HETATM   42  C16 UNL     1      -7.138  -0.395  13.635  1.00  0.00     0.035 A 
HETATM   43  C17 UNL     1      -7.276  -0.447  12.170  1.00  0.00     0.035 A 
ENDBRANCH  38  41
ENDBRANCH  37  38
ENDBRANCH  34  37
ENDBRANCH  29  34
ENDBRANCH  28  29
ENDBRANCH   4  28
TORSDOF 15
ENDMDL
MODEL 5
REMARK VINA RESULT: -6.904132799      2.102      8.617
REMARK  15 active torsions:
REMARK  status: ('A' for Active; 'I' for Inactive)
REMARK    1  A    between atoms: O1_2  and  C2_3 
REMARK    2  A    between atoms: C4_5  and  C5_6 
REMARK    3  A    between atoms: C5_6  and  O3_8 
REMARK    4  A    between atoms: O3_8  and  C6_9 
REMARK    5  A    between atoms: C6_9  and  C7_11 
REMARK    6  A    between atoms: C8_13  and  N1_14 
REMARK       I    between atoms: N1_14  and  C9_16 
REMARK       I    between atoms: C9_16  and  N4_35 
REMARK    7  A    between atoms: N2_17  and  O6_19 
REMARK    8  A    between atoms: O6_19  and  C10_20 
REMARK    9  A    between atoms: C10_20  and  C11_21 
REMARK   10  A    between atoms: C10_20  and  C13_25 
REMARK   11  A    between atoms: C11_21  and  O7_23 
REMARK   12  A    between atoms: C13_25  and  O8_26 
REMARK   13  A    between atoms: C13_25  and  C14_28 
REMARK   14  A    between atoms: C14_28  and  N3_29 
REMARK   15  A    between atoms: N3_29  and  C15_32 
ROOT
HETATM    1  N1  UNL     1      -4.651   0.816   5.229  1.00  0.00    -0.197 N 
ATOM      2  H1  UNL     1      -4.309   1.175   4.338  1.00  0.00     0.180 HD
HETATM    3  C9  UNL     1      -6.024   0.529   5.347  1.00  0.00     0.709 C 
HETATM    4  N2  UNL     1      -6.540  -0.485   4.770  1.00  0.00    -0.095 N 
ATOM      5  H2  UNL     1      -7.542  -0.616   4.909  1.00  0.00     0.213 HD
HETATM    6  N4  UNL     1      -6.846   1.379   6.117  1.00  0.00    -0.124 N 
ATOM      7  H4  UNL     1      -6.834   2.383   5.937  1.00  0.00     0.197 HD
HETATM    8  C18 UNL     1      -7.677   0.873   7.123  1.00  0.00     0.196 C 
HETATM    9  N5  UNL     1      -8.374   0.472   7.958  1.00  0.00    -0.171 NA
ENDROOT
BRANCH   1  10
HETATM   10  C8  UNL     1      -3.691   0.629   6.312  1.00  0.00     0.241 C 
HETATM   11  O5  UNL     1      -4.294   0.607   7.536  1.00  0.00    -0.332 OA
HETATM   12  C7  UNL     1      -3.471   0.230   8.558  1.00  0.00     0.326 C 
HETATM   13  N6  UNL     1      -2.344  -0.541   8.182  1.00  0.00    -0.364 N 
HETATM   14  C21 UNL     1      -1.324   0.063   7.425  1.00  0.00     0.061 C 
HETATM   15  C22 UNL     1      -2.563  -1.932   8.031  1.00  0.00     0.152 C 
HETATM   16  C20 UNL     1      -1.515   1.534   7.144  1.00  0.00     0.048 C 
HETATM   17  C19 UNL     1      -2.712   1.789   6.258  1.00  0.00     0.059 C 
BRANCH  12  18
HETATM   18  C6  UNL     1      -4.268  -0.617   9.516  1.00  0.00     0.316 C 
HETATM   19  O4  UNL     1      -5.369  -1.056   9.117  1.00  0.00    -0.260 OA
BRANCH  18  20
HETATM   20  O3  UNL     1      -3.829  -0.917  10.793  1.00  0.00    -0.238 OA
BRANCH  20  21
HETATM   21  C5  UNL     1      -4.001  -0.099  11.876  1.00  0.00     0.292 C 
HETATM   22  O2  UNL     1      -3.448   1.027  11.869  1.00  0.00    -0.260 OA
BRANCH  21  23
HETATM   23  C4  UNL     1      -4.797  -0.464  13.048  1.00  0.00     0.114 C 
HETATM   24  C2  UNL     1      -6.098  -0.444  13.064  1.00  0.00     0.047 C 
HETATM   25  C3  UNL     1      -6.840  -0.825  14.282  1.00  0.00     0.076 C 
BRANCH  24  26
HETATM   26  O1  UNL     1      -6.803  -0.064  11.935  1.00  0.00    -0.360 OA
HETATM   27  C1  UNL     1      -7.938  -0.773  11.474  1.00  0.00     0.209 C 
ENDBRANCH  24  26
ENDBRANCH  21  23
ENDBRANCH  20  21
ENDBRANCH  18  20
ENDBRANCH  12  18
ENDBRANCH   1  10
BRANCH   4  28
HETATM   28  O6  UNL     1      -5.929  -1.405   4.000  1.00  0.00    -0.256 OA
BRANCH  28  29
HETATM   29  C10 UNL     1      -6.661  -2.035   2.924  1.00  0.00     0.211 C 
BRANCH  29  30
HETATM   30  C11 UNL     1      -6.710  -3.505   3.213  1.00  0.00     0.148 C 
HETATM   31  C12 UNL     1      -7.475  -4.325   2.216  1.00  0.00     0.042 C 
BRANCH  30  32
HETATM   32  O7  UNL     1      -7.076  -3.853   4.480  1.00  0.00    -0.393 OA
ATOM     33  H7  UNL     1      -6.809  -4.719   4.767  1.00  0.00     0.210 HD
ENDBRANCH  30  32
ENDBRANCH  29  30
BRANCH  29  34
HETATM   34  C13 UNL     1      -7.967  -1.348   2.736  1.00  0.00     0.177 C 
BRANCH  34  35
HETATM   35  O8  UNL     1      -9.032  -1.843   3.456  1.00  0.00    -0.391 OA
ATOM     36  H8  UNL     1      -9.762  -2.185   2.953  1.00  0.00     0.210 HD
ENDBRANCH  34  35
BRANCH  34  37
HETATM   37  C14 UNL     1      -8.301  -1.017   1.305  1.00  0.00     0.267 C 
BRANCH  37  38
HETATM   38  N3  UNL     1      -9.260   0.079   1.229  1.00  0.00    -0.068 N 
ATOM     39  H32 UNL     1      -9.515   0.275   0.262  1.00  0.00     0.277 HD
ATOM     40  H31 UNL     1     -10.171  -0.207   1.585  1.00  0.00     0.277 HD
BRANCH  38  41
HETATM   41  C15 UNL     1      -8.800   1.259   1.888  1.00  0.00     0.186 A 
HETATM   42  C16 UNL     1      -9.087   2.623   1.412  1.00  0.00     0.035 A 
HETATM   43  C17 UNL     1      -9.839   2.086   2.559  1.00  0.00     0.035 A 
ENDBRANCH  38  41
ENDBRANCH  37  38
ENDBRANCH  34  37
ENDBRANCH  29  34
ENDBRANCH  28  29
ENDBRANCH   4  28
TORSDOF 15
ENDMDL
