MODEL 1
REMARK VINA RESULT: -6.762795916      0.000      0.000
REMARK  16 active torsions:
REMARK  status: ('A' for Active; 'I' for Inactive)
REMARK    1  A    between atoms: C2_2  and  O2_4 
REMARK    2  A    between atoms: O2_4  and  C3_5 
REMARK    3  A    between atoms: C3_5  and  C4_6 
REMARK    4  A    between atoms: C3_5  and  C12_25 
REMARK    5  A    between atoms: C4_6  and  O3_8 
REMARK    6  A    between atoms: O3_8  and  C6_9 
REMARK    7  A    between atoms: C6_9  and  N1_10 
REMARK    8  A    between atoms: N1_10  and  C7_11 
REMARK    9  A    between atoms: N1_10  and  C9_15 
REMARK   10  A    between atoms: C7_11  and  C8_12 
REMARK   11  A    between atoms: C9_15  and  O6_16 
REMARK   12  A    between atoms: C10_18  and  N2_20 
REMARK   13  A    between atoms: C12_25  and  O7_27 
REMARK   14  A    between atoms: C12_25  and  C14_29 
REMARK   15  A    between atoms: C14_29  and  C16_31 
REMARK   16  A    between atoms: C21_39  and  O11_41 
ROOT
HETATM    1  C3  UNL     1      -3.103   0.886   4.758  1.00  0.00     0.194 C 
ENDROOT
BRANCH   1   2
HETATM    2  O2  UNL     1      -2.884   0.337   3.528  1.00  0.00    -0.311 OA
BRANCH   2   3
HETATM    3  C2  UNL     1      -1.937   0.602   2.589  1.00  0.00     0.255 C 
HETATM    4  C1  UNL     1      -0.668   1.275   2.885  1.00  0.00     0.126 C 
HETATM    5  O1  UNL     1      -2.234   0.230   1.468  1.00  0.00    -0.266 OA
ENDBRANCH   2   3
ENDBRANCH   1   2
BRANCH   1   6
HETATM    6  C4  UNL     1      -2.416   0.285   5.939  1.00  0.00     0.152 C 
HETATM    7  C5  UNL     1      -2.319   1.103   7.179  1.00  0.00     0.042 C 
BRANCH   6   8
HETATM    8  O3  UNL     1      -3.007  -0.965   6.163  1.00  0.00    -0.364 OA
BRANCH   8   9
HETATM    9  C6  UNL     1      -2.380  -1.700   7.150  1.00  0.00     0.301 C 
BRANCH   9  10
HETATM   10  N1  UNL     1      -3.393  -2.402   7.910  1.00  0.00    -0.308 N 
BRANCH  10  11
HETATM   11  C7  UNL     1      -3.254  -3.810   8.049  1.00  0.00     0.179 C 
BRANCH  11  12
HETATM   12  C8  UNL     1      -3.470  -4.648   6.891  1.00  0.00     0.215 C 
HETATM   13  O4  UNL     1      -2.649  -4.732   5.965  1.00  0.00    -0.643 OA
HETATM   14  O5  UNL     1      -4.634  -5.395   6.796  1.00  0.00    -0.643 OA
ENDBRANCH  11  12
ENDBRANCH  10  11
BRANCH  10  15
HETATM   15  C9  UNL     1      -4.449  -1.687   8.468  1.00  0.00     0.168 C 
HETATM   16  C10 UNL     1      -4.313  -1.106   9.641  1.00  0.00     0.072 C 
HETATM   17  C11 UNL     1      -5.394  -0.327  10.300  1.00  0.00     0.074 C 
BRANCH  15  18
HETATM   18  O6  UNL     1      -5.650  -1.575   7.805  1.00  0.00    -0.344 OA
ATOM     19  H6  UNL     1      -6.393  -1.150   8.216  1.00  0.00     0.219 HD
ENDBRANCH  15  18
BRANCH  16  20
HETATM   20  N2  UNL     1      -3.075  -1.202  10.359  1.00  0.00    -0.307 N 
HETATM   21  N3  UNL     1      -2.409  -0.153  10.553  1.00  0.00    -0.345 N 
ATOM     22  H32 UNL     1      -2.756   0.739  10.201  1.00  0.00     0.176 HD
ATOM     23  H31 UNL     1      -1.529  -0.221  11.063  1.00  0.00     0.176 HD
ATOM     24  H2  UNL     1      -2.742  -2.102  10.704  1.00  0.00     0.186 HD
ENDBRANCH  16  20
ENDBRANCH  10  15
ENDBRANCH   9  10
ENDBRANCH   8   9
ENDBRANCH   6   8
ENDBRANCH   1   6
BRANCH   1  25
HETATM   25  C12 UNL     1      -4.502   1.397   5.007  1.00  0.00     0.089 C 
HETATM   26  C13 UNL     1      -4.485   2.879   5.411  1.00  0.00     0.049 C 
BRANCH  25  27
HETATM   27  O7  UNL     1      -5.060   0.780   6.133  1.00  0.00    -0.387 OA
ATOM     28  H7  UNL     1      -5.112  -0.161   6.008  1.00  0.00     0.210 HD
ENDBRANCH  25  27
BRANCH  25  29
HETATM   29  C14 UNL     1      -5.333   1.241   3.776  1.00  0.00     0.051 C 
HETATM   30  C15 UNL     1      -5.695   2.516   3.069  1.00  0.00     0.016 C 
BRANCH  29  31
HETATM   31  C16 UNL     1      -6.602   0.431   3.952  1.00  0.00     0.176 C 
HETATM   32  O8  UNL     1      -7.252   0.757   5.097  1.00  0.00    -0.346 OA
HETATM   33  C17 UNL     1      -8.162  -0.137   5.562  1.00  0.00     0.166 C 
HETATM   34  C18 UNL     1      -9.490  -0.128   4.840  1.00  0.00     0.079 C 
HETATM   35  C19 UNL     1      -8.498   0.309   7.005  1.00  0.00     0.079 C 
HETATM   36  O9  UNL     1      -7.659  -1.456   5.664  1.00  0.00    -0.282 OA
HETATM   37  C20 UNL     1      -6.690  -1.854   4.764  1.00  0.00     0.298 C 
HETATM   38  O10 UNL     1      -6.053  -2.916   4.950  1.00  0.00    -0.262 OA
HETATM   39  C21 UNL     1      -6.432  -0.993   3.587  1.00  0.00     0.168 C 
HETATM   40  C22 UNL     1      -7.452  -1.433   2.518  1.00  0.00     0.060 C 
BRANCH  39  41
HETATM   41  O11 UNL     1      -5.190  -1.290   2.986  1.00  0.00    -0.377 OA
ATOM     42  H11 UNL     1      -5.218  -2.017   2.375  1.00  0.00     0.211 HD
ENDBRANCH  39  41
ENDBRANCH  29  31
ENDBRANCH  25  29
ENDBRANCH   1  25
TORSDOF 16
ENDMDL
MODEL 2
REMARK VINA RESULT: -6.641221432      1.742      3.252
REMARK  16 active torsions:
REMARK  status: ('A' for Active; 'I' for Inactive)
REMARK    1  A    between atoms: C2_2  and  O2_4 
REMARK    2  A    between atoms: O2_4  and  C3_5 
REMARK    3  A    between atoms: C3_5  and  C4_6 
REMARK    4  A    between atoms: C3_5  and  C12_25 
REMARK    5  A    between atoms: C4_6  and  O3_8 
REMARK    6  A    between atoms: O3_8  and  C6_9 
REMARK    7  A    between atoms: C6_9  and  N1_10 
REMARK    8  A    between atoms: N1_10  and  C7_11 
REMARK    9  A    between atoms: N1_10  and  C9_15 
REMARK   10  A    between atoms: C7_11  and  C8_12 
REMARK   11  A    between atoms: C9_15  and  O6_16 
REMARK   12  A    between atoms: C10_18  and  N2_20 
REMARK   13  A    between atoms: C12_25  and  O7_27 
REMARK   14  A    between atoms: C12_25  and  C14_29 
REMARK   15  A    between atoms: C14_29  and  C16_31 
REMARK   16  A    between atoms: C21_39  and  O11_41 
ROOT
HETATM    1  C3  UNL     1      -6.140   0.804   5.622  1.00  0.00     0.194 C 
ENDROOT
BRANCH   1   2
HETATM    2  O2  UNL     1      -6.261   1.880   4.792  1.00  0.00    -0.311 OA
BRANCH   2   3
HETATM    3  C2  UNL     1      -5.737   3.132   4.873  1.00  0.00     0.255 C 
HETATM    4  C1  UNL     1      -4.884   3.585   5.977  1.00  0.00     0.126 C 
HETATM    5  O1  UNL     1      -6.040   3.856   3.941  1.00  0.00    -0.266 OA
ENDBRANCH   2   3
ENDBRANCH   1   2
BRANCH   1   6
HETATM    6  C4  UNL     1      -4.980  -0.117   5.433  1.00  0.00     0.152 C 
HETATM    7  C5  UNL     1      -4.036   0.173   4.319  1.00  0.00     0.042 C 
BRANCH   6   8
HETATM    8  O3  UNL     1      -4.336  -0.222   6.672  1.00  0.00    -0.364 OA
BRANCH   8   9
HETATM    9  C6  UNL     1      -3.474  -1.297   6.754  1.00  0.00     0.301 C 
BRANCH   9  10
HETATM   10  N1  UNL     1      -3.831  -2.082   7.916  1.00  0.00    -0.308 N 
BRANCH  10  11
HETATM   11  C7  UNL     1      -3.368  -3.425   7.972  1.00  0.00     0.179 C 
BRANCH  11  12
HETATM   12  C8  UNL     1      -3.333  -4.200   6.751  1.00  0.00     0.215 C 
HETATM   13  O4  UNL     1      -2.273  -4.586   6.236  1.00  0.00    -0.643 OA
HETATM   14  O5  UNL     1      -4.522  -4.535   6.121  1.00  0.00    -0.643 OA
ENDBRANCH  11  12
ENDBRANCH  10  11
BRANCH  10  15
HETATM   15  C9  UNL     1      -4.602  -1.505   8.922  1.00  0.00     0.168 C 
HETATM   16  C10 UNL     1      -4.028  -0.847   9.906  1.00  0.00     0.072 C 
HETATM   17  C11 UNL     1      -4.783  -0.206  11.013  1.00  0.00     0.074 C 
BRANCH  15  18
HETATM   18  O6  UNL     1      -5.975  -1.613   8.904  1.00  0.00    -0.344 OA
ATOM     19  H6  UNL     1      -6.487  -1.416   9.680  1.00  0.00     0.219 HD
ENDBRANCH  15  18
BRANCH  16  20
HETATM   20  N2  UNL     1      -2.601  -0.716   9.955  1.00  0.00    -0.307 N 
HETATM   21  N3  UNL     1      -2.082  -0.153  10.952  1.00  0.00    -0.345 N 
ATOM     22  H32 UNL     1      -2.677   0.197  11.703  1.00  0.00     0.176 HD
ATOM     23  H31 UNL     1      -1.067  -0.059  10.987  1.00  0.00     0.176 HD
ATOM     24  H2  UNL     1      -2.019  -1.071   9.196  1.00  0.00     0.186 HD
ENDBRANCH  16  20
ENDBRANCH  10  15
ENDBRANCH   9  10
ENDBRANCH   8   9
ENDBRANCH   6   8
ENDBRANCH   1   6
BRANCH   1  25
HETATM   25  C12 UNL     1      -7.436   0.146   6.033  1.00  0.00     0.089 C 
HETATM   26  C13 UNL     1      -7.892   0.638   7.415  1.00  0.00     0.049 C 
BRANCH  25  27
HETATM   27  O7  UNL     1      -7.247  -1.225   6.244  1.00  0.00    -0.387 OA
ATOM     28  H7  UNL     1      -7.978  -1.593   6.728  1.00  0.00     0.210 HD
ENDBRANCH  25  27
BRANCH  25  29
HETATM   29  C14 UNL     1      -8.504   0.449   5.035  1.00  0.00     0.051 C 
HETATM   30  C15 UNL     1      -9.912   0.412   5.557  1.00  0.00     0.016 C 
BRANCH  29  31
HETATM   31  C16 UNL     1      -8.458  -0.382   3.768  1.00  0.00     0.176 C 
HETATM   32  O8  UNL     1      -7.845  -1.575   3.971  1.00  0.00    -0.346 OA
HETATM   33  C17 UNL     1      -7.396  -2.230   2.868  1.00  0.00     0.166 C 
HETATM   34  C18 UNL     1      -8.465  -2.947   2.074  1.00  0.00     0.079 C 
HETATM   35  C19 UNL     1      -6.474  -3.357   3.389  1.00  0.00     0.079 C 
HETATM   36  O9  UNL     1      -6.599  -1.427   2.018  1.00  0.00    -0.282 OA
HETATM   37  C20 UNL     1      -6.865  -0.073   1.963  1.00  0.00     0.298 C 
HETATM   38  O10 UNL     1      -6.056   0.709   1.413  1.00  0.00    -0.262 OA
HETATM   39  C21 UNL     1      -8.126   0.417   2.567  1.00  0.00     0.168 C 
HETATM   40  C22 UNL     1      -9.199   0.271   1.470  1.00  0.00     0.060 C 
BRANCH  39  41
HETATM   41  O11 UNL     1      -8.088   1.810   2.793  1.00  0.00    -0.377 OA
ATOM     42  H11 UNL     1      -8.437   2.329   2.079  1.00  0.00     0.211 HD
ENDBRANCH  39  41
ENDBRANCH  29  31
ENDBRANCH  25  29
ENDBRANCH   1  25
TORSDOF 16
ENDMDL
MODEL 3
REMARK VINA RESULT: -6.587205848      1.891      2.632
REMARK  16 active torsions:
REMARK  status: ('A' for Active; 'I' for Inactive)
REMARK    1  A    between atoms: C2_2  and  O2_4 
REMARK    2  A    between atoms: O2_4  and  C3_5 
REMARK    3  A    between atoms: C3_5  and  C4_6 
REMARK    4  A    between atoms: C3_5  and  C12_25 
REMARK    5  A    between atoms: C4_6  and  O3_8 
REMARK    6  A    between atoms: O3_8  and  C6_9 
REMARK    7  A    between atoms: C6_9  and  N1_10 
REMARK    8  A    between atoms: N1_10  and  C7_11 
REMARK    9  A    between atoms: N1_10  and  C9_15 
REMARK   10  A    between atoms: C7_11  and  C8_12 
REMARK   11  A    between atoms: C9_15  and  O6_16 
REMARK   12  A    between atoms: C10_18  and  N2_20 
REMARK   13  A    between atoms: C12_25  and  O7_27 
REMARK   14  A    between atoms: C12_25  and  C14_29 
REMARK   15  A    between atoms: C14_29  and  C16_31 
REMARK   16  A    between atoms: C21_39  and  O11_41 
ROOT
HETATM    1  C3  UNL     1      -5.378  -0.088   4.778  1.00  0.00     0.194 C 
ENDROOT
BRANCH   1   2
HETATM    2  O2  UNL     1      -4.843  -0.148   3.524  1.00  0.00    -0.311 OA
BRANCH   2   3
HETATM    3  C2  UNL     1      -3.599   0.160   3.069  1.00  0.00     0.255 C 
HETATM    4  C1  UNL     1      -3.324   0.599   1.697  1.00  0.00     0.126 C 
HETATM    5  O1  UNL     1      -2.722   0.039   3.905  1.00  0.00    -0.266 OA
ENDBRANCH   2   3
ENDBRANCH   1   2
BRANCH   1   6
HETATM    6  C4  UNL     1      -6.222  -1.225   5.248  1.00  0.00     0.152 C 
HETATM    7  C5  UNL     1      -6.447  -2.360   4.312  1.00  0.00     0.042 C 
BRANCH   6   8
HETATM    8  O3  UNL     1      -5.699  -1.639   6.481  1.00  0.00    -0.364 OA
BRANCH   8   9
HETATM    9  C6  UNL     1      -4.319  -1.635   6.521  1.00  0.00     0.301 C 
BRANCH   9  10
HETATM   10  N1  UNL     1      -3.897  -2.221   7.775  1.00  0.00    -0.308 N 
BRANCH  10  11
HETATM   11  C7  UNL     1      -3.854  -3.639   7.859  1.00  0.00     0.179 C 
BRANCH  11  12
HETATM   12  C8  UNL     1      -3.558  -4.398   6.663  1.00  0.00     0.215 C 
HETATM   13  O4  UNL     1      -2.400  -4.581   6.258  1.00  0.00    -0.643 OA
HETATM   14  O5  UNL     1      -4.597  -4.949   5.930  1.00  0.00    -0.643 OA
ENDBRANCH  11  12
ENDBRANCH  10  11
BRANCH  10  15
HETATM   15  C9  UNL     1      -3.555  -1.390   8.839  1.00  0.00     0.168 C 
HETATM   16  C10 UNL     1      -4.490  -0.863   9.600  1.00  0.00     0.072 C 
HETATM   17  C11 UNL     1      -4.202   0.031  10.751  1.00  0.00     0.074 C 
BRANCH  15  18
HETATM   18  O6  UNL     1      -2.235  -1.107   9.113  1.00  0.00    -0.344 OA
ATOM     19  H6  UNL     1      -2.000  -0.347   9.632  1.00  0.00     0.219 HD
ENDBRANCH  15  18
BRANCH  16  20
HETATM   20  N2  UNL     1      -5.874  -1.138   9.344  1.00  0.00    -0.307 N 
HETATM   21  N3  UNL     1      -6.613  -0.198   8.955  1.00  0.00    -0.345 N 
ATOM     22  H32 UNL     1      -6.221   0.735   8.830  1.00  0.00     0.176 HD
ATOM     23  H31 UNL     1      -7.597  -0.394   8.773  1.00  0.00     0.176 HD
ATOM     24  H2  UNL     1      -6.251  -2.077   9.474  1.00  0.00     0.186 HD
ENDBRANCH  16  20
ENDBRANCH  10  15
ENDBRANCH   9  10
ENDBRANCH   8   9
ENDBRANCH   6   8
ENDBRANCH   1   6
BRANCH   1  25
HETATM   25  C12 UNL     1      -5.814   1.283   5.238  1.00  0.00     0.089 C 
HETATM   26  C13 UNL     1      -4.652   2.039   5.900  1.00  0.00     0.049 C 
BRANCH  25  27
HETATM   27  O7  UNL     1      -6.745   1.181   6.278  1.00  0.00    -0.387 OA
ATOM     28  H7  UNL     1      -7.559   1.612   6.042  1.00  0.00     0.210 HD
ENDBRANCH  25  27
BRANCH  25  29
HETATM   29  C14 UNL     1      -6.309   2.081   4.077  1.00  0.00     0.051 C 
HETATM   30  C15 UNL     1      -6.105   3.565   4.172  1.00  0.00     0.016 C 
BRANCH  29  31
HETATM   31  C16 UNL     1      -7.756   1.835   3.695  1.00  0.00     0.176 C 
HETATM   32  O8  UNL     1      -8.461   1.296   4.721  1.00  0.00    -0.346 OA
HETATM   33  C17 UNL     1      -9.630   0.678   4.404  1.00  0.00     0.166 C 
HETATM   34  C18 UNL     1     -10.789   1.610   4.135  1.00  0.00     0.079 C 
HETATM   35  C19 UNL     1     -10.048  -0.112   5.666  1.00  0.00     0.079 C 
HETATM   36  O9  UNL     1      -9.504  -0.273   3.365  1.00  0.00    -0.282 OA
HETATM   37  C20 UNL     1      -8.548  -0.053   2.393  1.00  0.00     0.298 C 
HETATM   38  O10 UNL     1      -8.240  -0.965   1.591  1.00  0.00    -0.262 OA
HETATM   39  C21 UNL     1      -7.906   1.281   2.332  1.00  0.00     0.168 C 
HETATM   40  C22 UNL     1      -8.836   2.150   1.462  1.00  0.00     0.060 C 
BRANCH  39  41
HETATM   41  O11 UNL     1      -6.708   1.249   1.586  1.00  0.00    -0.377 OA
ATOM     42  H11 UNL     1      -5.988   0.816   2.028  1.00  0.00     0.211 HD
ENDBRANCH  39  41
ENDBRANCH  29  31
ENDBRANCH  25  29
ENDBRANCH   1  25
TORSDOF 16
ENDMDL
MODEL 4
REMARK VINA RESULT: -6.506719256      1.528      4.355
REMARK  16 active torsions:
REMARK  status: ('A' for Active; 'I' for Inactive)
REMARK    1  A    between atoms: C2_2  and  O2_4 
REMARK    2  A    between atoms: O2_4  and  C3_5 
REMARK    3  A    between atoms: C3_5  and  C4_6 
REMARK    4  A    between atoms: C3_5  and  C12_25 
REMARK    5  A    between atoms: C4_6  and  O3_8 
REMARK    6  A    between atoms: O3_8  and  C6_9 
REMARK    7  A    between atoms: C6_9  and  N1_10 
REMARK    8  A    between atoms: N1_10  and  C7_11 
REMARK    9  A    between atoms: N1_10  and  C9_15 
REMARK   10  A    between atoms: C7_11  and  C8_12 
REMARK   11  A    between atoms: C9_15  and  O6_16 
REMARK   12  A    between atoms: C10_18  and  N2_20 
REMARK   13  A    between atoms: C12_25  and  O7_27 
REMARK   14  A    between atoms: C12_25  and  C14_29 
REMARK   15  A    between atoms: C14_29  and  C16_31 
REMARK   16  A    between atoms: C21_39  and  O11_41 
ROOT
HETATM    1  C3  UNL     1      -6.378  -0.563   4.931  1.00  0.00     0.194 C 
ENDROOT
BRANCH   1   2
HETATM    2  O2  UNL     1      -7.232   0.371   5.441  1.00  0.00    -0.311 OA
BRANCH   2   3
HETATM    3  C2  UNL     1      -8.253   0.255   6.332  1.00  0.00     0.255 C 
HETATM    4  C1  UNL     1      -9.631  -0.064   5.948  1.00  0.00     0.126 C 
HETATM    5  O1  UNL     1      -7.923   0.442   7.490  1.00  0.00    -0.266 OA
ENDBRANCH   2   3
ENDBRANCH   1   2
BRANCH   1   6
HETATM    6  C4  UNL     1      -4.917  -0.416   5.201  1.00  0.00     0.152 C 
HETATM    7  C5  UNL     1      -4.470   0.763   5.992  1.00  0.00     0.042 C 
BRANCH   6   8
HETATM    8  O3  UNL     1      -4.479  -1.629   5.747  1.00  0.00    -0.364 OA
BRANCH   8   9
HETATM    9  C6  UNL     1      -3.441  -1.484   6.646  1.00  0.00     0.301 C 
BRANCH   9  10
HETATM   10  N1  UNL     1      -3.794  -2.174   7.868  1.00  0.00    -0.308 N 
BRANCH  10  11
HETATM   11  C7  UNL     1      -3.251  -3.472   8.072  1.00  0.00     0.179 C 
BRANCH  11  12
HETATM   12  C8  UNL     1      -3.294  -4.423   6.983  1.00  0.00     0.215 C 
HETATM   13  O4  UNL     1      -2.330  -4.613   6.225  1.00  0.00    -0.643 OA
HETATM   14  O5  UNL     1      -4.448  -5.160   6.764  1.00  0.00    -0.643 OA
ENDBRANCH  11  12
ENDBRANCH  10  11
BRANCH  10  15
HETATM   15  C9  UNL     1      -4.638  -1.554   8.786  1.00  0.00     0.168 C 
HETATM   16  C10 UNL     1      -4.141  -0.940   9.837  1.00  0.00     0.072 C 
HETATM   17  C11 UNL     1      -4.976  -0.257  10.859  1.00  0.00     0.074 C 
BRANCH  15  18
HETATM   18  O6  UNL     1      -6.003  -1.572   8.608  1.00  0.00    -0.344 OA
ATOM     19  H6  UNL     1      -6.586  -1.307   9.309  1.00  0.00     0.219 HD
ENDBRANCH  15  18
BRANCH  16  20
HETATM   20  N2  UNL     1      -2.723  -0.901  10.052  1.00  0.00    -0.307 N 
HETATM   21  N3  UNL     1      -2.278  -0.224  11.013  1.00  0.00    -0.345 N 
ATOM     22  H32 UNL     1      -2.925   0.282  11.619  1.00  0.00     0.176 HD
ATOM     23  H31 UNL     1      -1.270  -0.196  11.166  1.00  0.00     0.176 HD
ATOM     24  H2  UNL     1      -2.089  -1.412   9.437  1.00  0.00     0.186 HD
ENDBRANCH  16  20
ENDBRANCH  10  15
ENDBRANCH   9  10
ENDBRANCH   8   9
ENDBRANCH   6   8
ENDBRANCH   1   6
BRANCH   1  25
HETATM   25  C12 UNL     1      -6.739  -1.106   3.569  1.00  0.00     0.089 C 
HETATM   26  C13 UNL     1      -7.615  -2.362   3.690  1.00  0.00     0.049 C 
BRANCH  25  27
HETATM   27  O7  UNL     1      -5.601  -1.589   2.913  1.00  0.00    -0.387 OA
ATOM     28  H7  UNL     1      -5.739  -2.481   2.616  1.00  0.00     0.210 HD
ENDBRANCH  25  27
BRANCH  25  29
HETATM   29  C14 UNL     1      -7.480  -0.074   2.785  1.00  0.00     0.051 C 
HETATM   30  C15 UNL     1      -8.414  -0.601   1.734  1.00  0.00     0.016 C 
BRANCH  29  31
HETATM   31  C16 UNL     1      -6.616   0.993   2.144  1.00  0.00     0.176 C 
HETATM   32  O8  UNL     1      -5.333   0.578   1.993  1.00  0.00    -0.346 OA
HETATM   33  C17 UNL     1      -4.394   1.542   1.803  1.00  0.00     0.166 C 
HETATM   34  C18 UNL     1      -4.343   2.114   0.405  1.00  0.00     0.079 C 
HETATM   35  C19 UNL     1      -3.026   0.845   1.991  1.00  0.00     0.079 C 
HETATM   36  O9  UNL     1      -4.445   2.579   2.764  1.00  0.00    -0.282 OA
HETATM   37  C20 UNL     1      -5.672   2.901   3.310  1.00  0.00     0.298 C 
HETATM   38  O10 UNL     1      -5.741   3.641   4.318  1.00  0.00    -0.262 OA
HETATM   39  C21 UNL     1      -6.889   2.349   2.671  1.00  0.00     0.168 C 
HETATM   40  C22 UNL     1      -7.252   3.337   1.544  1.00  0.00     0.060 C 
BRANCH  39  41
HETATM   41  O11 UNL     1      -8.007   2.420   3.530  1.00  0.00    -0.377 OA
ATOM     42  H11 UNL     1      -7.993   3.160   4.125  1.00  0.00     0.211 HD
ENDBRANCH  39  41
ENDBRANCH  29  31
ENDBRANCH  25  29
ENDBRANCH   1  25
TORSDOF 16
ENDMDL
MODEL 5
REMARK VINA RESULT: -6.484120890      1.172      2.053
REMARK  16 active torsions:
REMARK  status: ('A' for Active; 'I' for Inactive)
REMARK    1  A    between atoms: C2_2  and  O2_4 
REMARK    2  A    between atoms: O2_4  and  C3_5 
REMARK    3  A    between atoms: C3_5  and  C4_6 
REMARK    4  A    between atoms: C3_5  and  C12_25 
REMARK    5  A    between atoms: C4_6  and  O3_8 
REMARK    6  A    between atoms: O3_8  and  C6_9 
REMARK    7  A    between atoms: C6_9  and  N1_10 
REMARK    8  A    between atoms: N1_10  and  C7_11 
REMARK    9  A    between atoms: N1_10  and  C9_15 
REMARK   10  A    between atoms: C7_11  and  C8_12 
REMARK   11  A    between atoms: C9_15  and  O6_16 
REMARK   12  A    between atoms: C10_18  and  N2_20 
REMARK   13  A    between atoms: C12_25  and  O7_27 
REMARK   14  A    between atoms: C12_25  and  C14_29 
REMARK   15  A    between atoms: C14_29  and  C16_31 
REMARK   16  A    between atoms: C21_39  and  O11_41 
ROOT
HETATM    1  C3  UNL     1      -3.465   1.534   6.166  1.00  0.00     0.194 C 
ENDROOT
BRANCH   1   2
HETATM    2  O2  UNL     1      -2.693   2.518   6.712  1.00  0.00    -0.311 OA
BRANCH   2   3
HETATM    3  C2  UNL     1      -1.954   2.542   7.853  1.00  0.00     0.255 C 
HETATM    4  C1  UNL     1      -0.769   3.386   8.034  1.00  0.00     0.126 C 
HETATM    5  O1  UNL     1      -2.362   1.793   8.723  1.00  0.00    -0.266 OA
ENDBRANCH   2   3
ENDBRANCH   1   2
BRANCH   1   6
HETATM    6  C4  UNL     1      -2.829   0.571   5.219  1.00  0.00     0.152 C 
HETATM    7  C5  UNL     1      -1.398   0.784   4.866  1.00  0.00     0.042 C 
BRANCH   6   8
HETATM    8  O3  UNL     1      -3.075  -0.715   5.718  1.00  0.00    -0.364 OA
BRANCH   8   9
HETATM    9  C6  UNL     1      -2.336  -1.018   6.844  1.00  0.00     0.301 C 
BRANCH   9  10
HETATM   10  N1  UNL     1      -3.118  -1.905   7.679  1.00  0.00    -0.308 N 
BRANCH  10  11
HETATM   11  C7  UNL     1      -2.657  -3.241   7.833  1.00  0.00     0.179 C 
BRANCH  11  12
HETATM   12  C8  UNL     1      -3.192  -4.267   6.965  1.00  0.00     0.215 C 
HETATM   13  O4  UNL     1      -2.571  -4.701   5.983  1.00  0.00    -0.643 OA
HETATM   14  O5  UNL     1      -4.447  -4.796   7.227  1.00  0.00    -0.643 OA
ENDBRANCH  11  12
ENDBRANCH  10  11
BRANCH  10  15
HETATM   15  C9  UNL     1      -4.274  -1.429   8.291  1.00  0.00     0.168 C 
HETATM   16  C10 UNL     1      -4.230  -0.954   9.517  1.00  0.00     0.072 C 
HETATM   17  C11 UNL     1      -5.420  -0.428  10.235  1.00  0.00     0.074 C 
BRANCH  15  18
HETATM   18  O6  UNL     1      -5.479  -1.446   7.625  1.00  0.00    -0.344 OA
ATOM     19  H6  UNL     1      -6.227  -0.969   7.966  1.00  0.00     0.219 HD
ENDBRANCH  15  18
BRANCH  16  20
HETATM   20  N2  UNL     1      -2.991  -0.921  10.238  1.00  0.00    -0.307 N 
HETATM   21  N3  UNL     1      -2.836  -0.048  11.130  1.00  0.00    -0.345 N 
ATOM     22  H32 UNL     1      -3.587   0.616  11.325  1.00  0.00     0.176 HD
ATOM     23  H31 UNL     1      -1.955  -0.024  11.643  1.00  0.00     0.176 HD
ATOM     24  H2  UNL     1      -2.250  -1.591  10.032  1.00  0.00     0.186 HD
ENDBRANCH  16  20
ENDBRANCH  10  15
ENDBRANCH   9  10
ENDBRANCH   8   9
ENDBRANCH   6   8
ENDBRANCH   1   6
BRANCH   1  25
HETATM   25  C12 UNL     1      -4.888   1.922   5.843  1.00  0.00     0.089 C 
HETATM   26  C13 UNL     1      -5.096   3.437   5.995  1.00  0.00     0.049 C 
BRANCH  25  27
HETATM   27  O7  UNL     1      -5.771   1.396   6.794  1.00  0.00    -0.387 OA
ATOM     28  H7  UNL     1      -6.078   0.537   6.527  1.00  0.00     0.210 HD
ENDBRANCH  25  27
BRANCH  25  29
HETATM   29  C14 UNL     1      -5.224   1.527   4.443  1.00  0.00     0.051 C 
HETATM   30  C15 UNL     1      -5.303   2.650   3.450  1.00  0.00     0.016 C 
BRANCH  29  31
HETATM   31  C16 UNL     1      -6.476   0.686   4.292  1.00  0.00     0.176 C 
HETATM   32  O8  UNL     1      -7.332   0.869   5.328  1.00  0.00    -0.346 OA
HETATM   33  C17 UNL     1      -8.281  -0.085   5.517  1.00  0.00     0.166 C 
HETATM   34  C18 UNL     1      -9.457  -0.010   4.569  1.00  0.00     0.079 C 
HETATM   35  C19 UNL     1      -8.887   0.188   6.914  1.00  0.00     0.079 C 
HETATM   36  O9  UNL     1      -7.760  -1.400   5.561  1.00  0.00    -0.282 OA
HETATM   37  C20 UNL     1      -6.632  -1.679   4.817  1.00  0.00     0.298 C 
HETATM   38  O10 UNL     1      -6.003  -2.747   4.997  1.00  0.00    -0.262 OA
HETATM   39  C21 UNL     1      -6.195  -0.685   3.809  1.00  0.00     0.168 C 
HETATM   40  C22 UNL     1      -6.989  -1.012   2.529  1.00  0.00     0.060 C 
BRANCH  39  41
HETATM   41  O11 UNL     1      -4.855  -0.895   3.416  1.00  0.00    -0.377 OA
ATOM     42  H11 UNL     1      -4.313  -1.294   4.085  1.00  0.00     0.211 HD
ENDBRANCH  39  41
ENDBRANCH  29  31
ENDBRANCH  25  29
ENDBRANCH   1  25
TORSDOF 16
ENDMDL
