MODEL 1
REMARK VINA RESULT: -6.349958349      0.000      0.000
REMARK  8 active torsions:
REMARK  status: ('A' for Active; 'I' for Inactive)
REMARK    1  A    between atoms: C2_2  and  O1_3 
REMARK    2  A    between atoms: O1_3  and  C3_4 
REMARK    3  A    between atoms: C3_4  and  C4_6 
REMARK    4  A    between atoms: C6_10  and  C7_11 
REMARK    5  A    between atoms: N4_19  and  C12_20 
REMARK    6  A    between atoms: C13_21  and  C14_22 
REMARK    7  A    between atoms: C14_22  and  O4_24 
REMARK    8  A    between atoms: O4_24  and  C15_25 
ROOT
HETATM    1  C4  UNL     1      69.316  38.100   1.515  1.00  0.00     0.254 C 
HETATM    2  C5  UNL     1      70.058  36.791   1.429  1.00  0.00     0.133 A 
HETATM    3  N1  UNL     1      70.008  35.778   2.283  1.00  0.00    -0.331 N 
ATOM      4  H1  UNL     1      69.456  35.730   3.141  1.00  0.00     0.168 HD
HETATM    5  C6  UNL     1      70.824  34.831   1.802  1.00  0.00     0.097 A 
HETATM    6  N2  UNL     1      71.354  35.274   0.673  1.00  0.00    -0.285 N 
ATOM      7  H2  UNL     1      72.014  34.762   0.087  1.00  0.00     0.188 HD
HETATM    8  N3  UNL     1      70.893  36.479   0.429  1.00  0.00    -0.276 N 
HETATM    9  C9  UNL     1      71.277  37.252  -0.733  1.00  0.00     0.152 C 
HETATM   10  C10 UNL     1      70.153  37.576  -1.658  1.00  0.00     0.042 C 
HETATM   11  C11 UNL     1      68.816  37.742  -1.019  1.00  0.00     0.125 C 
HETATM   12  N4  UNL     1      68.820  38.476   0.216  1.00  0.00    -0.370 N 
ENDROOT
BRANCH  12  13
HETATM   13  C12 UNL     1      68.247  39.767   0.143  1.00  0.00     0.093 C 
HETATM   14  C13 UNL     1      67.837  40.340  -0.947  1.00  0.00     0.099 C 
BRANCH  14  15
HETATM   15  C14 UNL     1      67.265  41.668  -0.906  1.00  0.00     0.284 C 
HETATM   16  O3  UNL     1      66.695  42.071   0.117  1.00  0.00    -0.260 OA
BRANCH  15  17
HETATM   17  O4  UNL     1      67.339  42.517  -2.004  1.00  0.00    -0.308 OA
BRANCH  17  18
HETATM   18  C15 UNL     1      68.499  43.259  -2.234  1.00  0.00     0.060 C 
HETATM   19  C16 UNL     1      68.997  42.975  -3.656  1.00  0.00     0.046 C 
HETATM   20  C17 UNL     1      68.248  44.768  -2.170  1.00  0.00     0.046 C 
HETATM   21  C18 UNL     1      69.591  42.925  -1.270  1.00  0.00     0.046 C 
ENDBRANCH  17  18
ENDBRANCH  15  17
ENDBRANCH  14  15
ENDBRANCH  12  13
BRANCH   1  22
HETATM   22  C3  UNL     1      70.269  39.086   2.081  1.00  0.00     0.289 C 
HETATM   23  O2  UNL     1      70.547  38.954   3.305  1.00  0.00    -0.262 OA
BRANCH  22  24
HETATM   24  O1  UNL     1      70.857  40.105   1.389  1.00  0.00    -0.320 OA
BRANCH  24  25
HETATM   25  C2  UNL     1      72.256  40.244   1.398  1.00  0.00     0.174 C 
HETATM   26  C1  UNL     1      72.700  41.639   1.042  1.00  0.00     0.034 C 
ENDBRANCH  24  25
ENDBRANCH  22  24
ENDBRANCH   1  22
BRANCH   5  27
HETATM   27  C7  UNL     1      71.069  33.515   2.454  1.00  0.00     0.073 C 
HETATM   28  C8  UNL     1      72.467  33.045   2.161  1.00  0.00     0.013 C 
ENDBRANCH   5  27
TORSDOF 8
ENDMDL
MODEL 2
REMARK VINA RESULT: -6.197743765      2.548      3.643
REMARK  8 active torsions:
REMARK  status: ('A' for Active; 'I' for Inactive)
REMARK    1  A    between atoms: C2_2  and  O1_3 
REMARK    2  A    between atoms: O1_3  and  C3_4 
REMARK    3  A    between atoms: C3_4  and  C4_6 
REMARK    4  A    between atoms: C6_10  and  C7_11 
REMARK    5  A    between atoms: N4_19  and  C12_20 
REMARK    6  A    between atoms: C13_21  and  C14_22 
REMARK    7  A    between atoms: C14_22  and  O4_24 
REMARK    8  A    between atoms: O4_24  and  C15_25 
ROOT
HETATM    1  C4  UNL     1      69.908  36.716   0.957  1.00  0.00     0.254 C 
HETATM    2  C5  UNL     1      71.243  36.031   0.825  1.00  0.00     0.133 A 
HETATM    3  N1  UNL     1      71.585  34.835   1.287  1.00  0.00    -0.331 N 
ATOM      4  H1  UNL     1      70.991  34.191   1.810  1.00  0.00     0.168 HD
HETATM    5  C6  UNL     1      72.863  34.639   0.934  1.00  0.00     0.097 A 
HETATM    6  N2  UNL     1      73.277  35.706   0.269  1.00  0.00    -0.285 N 
ATOM      7  H2  UNL     1      74.211  35.835  -0.122  1.00  0.00     0.188 HD
HETATM    8  N3  UNL     1      72.294  36.571   0.194  1.00  0.00    -0.276 N 
HETATM    9  C9  UNL     1      72.416  37.853  -0.470  1.00  0.00     0.152 C 
HETATM   10  C10 UNL     1      71.510  38.030  -1.641  1.00  0.00     0.042 C 
HETATM   11  C11 UNL     1      70.204  37.316  -1.563  1.00  0.00     0.125 C 
HETATM   12  N4  UNL     1      69.559  37.366  -0.280  1.00  0.00    -0.370 N 
ENDROOT
BRANCH  12  13
HETATM   13  C12 UNL     1      68.402  38.178  -0.227  1.00  0.00     0.093 C 
HETATM   14  C13 UNL     1      67.516  38.275  -1.169  1.00  0.00     0.099 C 
BRANCH  14  15
HETATM   15  C14 UNL     1      66.367  39.140  -1.009  1.00  0.00     0.284 C 
HETATM   16  O3  UNL     1      66.210  40.115  -1.755  1.00  0.00    -0.260 OA
BRANCH  15  17
HETATM   17  O4  UNL     1      65.420  38.900  -0.021  1.00  0.00    -0.308 OA
BRANCH  17  18
HETATM   18  C15 UNL     1      64.366  38.018  -0.264  1.00  0.00     0.060 C 
HETATM   19  C16 UNL     1      63.070  38.822  -0.422  1.00  0.00     0.046 C 
HETATM   20  C17 UNL     1      64.544  37.245  -1.573  1.00  0.00     0.046 C 
HETATM   21  C18 UNL     1      64.183  37.029   0.841  1.00  0.00     0.046 C 
ENDBRANCH  17  18
ENDBRANCH  15  17
ENDBRANCH  14  15
ENDBRANCH  12  13
BRANCH   1  22
HETATM   22  C3  UNL     1      70.031  37.661   2.094  1.00  0.00     0.289 C 
HETATM   23  O2  UNL     1      70.164  37.144   3.237  1.00  0.00    -0.262 OA
BRANCH  22  24
HETATM   24  O1  UNL     1      70.013  39.023   1.997  1.00  0.00    -0.320 OA
BRANCH  24  25
HETATM   25  C2  UNL     1      70.851  39.796   2.819  1.00  0.00     0.174 C 
HETATM   26  C1  UNL     1      71.980  40.436   2.053  1.00  0.00     0.034 C 
ENDBRANCH  24  25
ENDBRANCH  22  24
ENDBRANCH   1  22
BRANCH   5  27
HETATM   27  C7  UNL     1      73.649  33.416   1.253  1.00  0.00     0.073 C 
HETATM   28  C8  UNL     1      72.795  32.435   2.008  1.00  0.00     0.013 C 
ENDBRANCH   5  27
TORSDOF 8
ENDMDL
MODEL 3
REMARK VINA RESULT: -6.169412428      0.878      1.340
REMARK  8 active torsions:
REMARK  status: ('A' for Active; 'I' for Inactive)
REMARK    1  A    between atoms: C2_2  and  O1_3 
REMARK    2  A    between atoms: O1_3  and  C3_4 
REMARK    3  A    between atoms: C3_4  and  C4_6 
REMARK    4  A    between atoms: C6_10  and  C7_11 
REMARK    5  A    between atoms: N4_19  and  C12_20 
REMARK    6  A    between atoms: C13_21  and  C14_22 
REMARK    7  A    between atoms: C14_22  and  O4_24 
REMARK    8  A    between atoms: O4_24  and  C15_25 
ROOT
HETATM    1  C4  UNL     1      69.265  38.084   1.468  1.00  0.00     0.254 C 
HETATM    2  C5  UNL     1      69.976  36.759   1.369  1.00  0.00     0.133 A 
HETATM    3  N1  UNL     1      69.903  35.739   2.214  1.00  0.00    -0.331 N 
ATOM      4  H1  UNL     1      69.350  35.696   3.071  1.00  0.00     0.168 HD
HETATM    5  C6  UNL     1      70.696  34.777   1.723  1.00  0.00     0.097 A 
HETATM    6  N2  UNL     1      71.236  35.219   0.599  1.00  0.00    -0.285 N 
ATOM      7  H2  UNL     1      71.884  34.697   0.008  1.00  0.00     0.188 HD
HETATM    8  N3  UNL     1      70.804  36.436   0.366  1.00  0.00    -0.276 N 
HETATM    9  C9  UNL     1      71.206  37.212  -0.789  1.00  0.00     0.152 C 
HETATM   10  C10 UNL     1      70.089  37.570  -1.710  1.00  0.00     0.042 C 
HETATM   11  C11 UNL     1      68.757  37.762  -1.069  1.00  0.00     0.125 C 
HETATM   12  N4  UNL     1      68.779  38.484   0.173  1.00  0.00    -0.370 N 
ENDROOT
BRANCH  12  13
HETATM   13  C12 UNL     1      68.236  39.789   0.113  1.00  0.00     0.093 C 
HETATM   14  C13 UNL     1      67.788  40.361  -0.963  1.00  0.00     0.099 C 
BRANCH  14  15
HETATM   15  C14 UNL     1      67.253  41.704  -0.910  1.00  0.00     0.284 C 
HETATM   16  O3  UNL     1      66.723  42.125   0.127  1.00  0.00    -0.260 OA
BRANCH  15  17
HETATM   17  O4  UNL     1      67.320  42.548  -2.012  1.00  0.00    -0.308 OA
BRANCH  17  18
HETATM   18  C15 UNL     1      68.479  43.286  -2.256  1.00  0.00     0.060 C 
HETATM   19  C16 UNL     1      68.946  43.020  -3.692  1.00  0.00     0.046 C 
HETATM   20  C17 UNL     1      68.240  44.795  -2.164  1.00  0.00     0.046 C 
HETATM   21  C18 UNL     1      69.589  42.931  -1.320  1.00  0.00     0.046 C 
ENDBRANCH  17  18
ENDBRANCH  15  17
ENDBRANCH  14  15
ENDBRANCH  12  13
BRANCH   1  22
HETATM   22  C3  UNL     1      70.242  39.041   2.043  1.00  0.00     0.289 C 
HETATM   23  O2  UNL     1      70.754  39.867   1.238  1.00  0.00    -0.262 OA
BRANCH  22  24
HETATM   24  O1  UNL     1      70.619  39.095   3.354  1.00  0.00    -0.320 OA
BRANCH  24  25
HETATM   25  C2  UNL     1      71.952  38.822   3.712  1.00  0.00     0.174 C 
HETATM   26  C1  UNL     1      72.096  37.511   4.440  1.00  0.00     0.034 C 
ENDBRANCH  24  25
ENDBRANCH  22  24
ENDBRANCH   1  22
BRANCH   5  27
HETATM   27  C7  UNL     1      70.909  33.450   2.363  1.00  0.00     0.073 C 
HETATM   28  C8  UNL     1      72.357  33.055   2.262  1.00  0.00     0.013 C 
ENDBRANCH   5  27
TORSDOF 8
ENDMDL
MODEL 4
REMARK VINA RESULT: -6.167612727      2.786      3.956
REMARK  8 active torsions:
REMARK  status: ('A' for Active; 'I' for Inactive)
REMARK    1  A    between atoms: C2_2  and  O1_3 
REMARK    2  A    between atoms: O1_3  and  C3_4 
REMARK    3  A    between atoms: C3_4  and  C4_6 
REMARK    4  A    between atoms: C6_10  and  C7_11 
REMARK    5  A    between atoms: N4_19  and  C12_20 
REMARK    6  A    between atoms: C13_21  and  C14_22 
REMARK    7  A    between atoms: C14_22  and  O4_24 
REMARK    8  A    between atoms: O4_24  and  C15_25 
ROOT
HETATM    1  C4  UNL     1      70.225  36.498   0.614  1.00  0.00     0.254 C 
HETATM    2  C5  UNL     1      71.660  36.077   0.428  1.00  0.00     0.133 A 
HETATM    3  N1  UNL     1      72.175  34.868   0.609  1.00  0.00    -0.331 N 
ATOM      4  H1  UNL     1      71.675  34.030   0.907  1.00  0.00     0.168 HD
HETATM    5  C6  UNL     1      73.481  34.962   0.325  1.00  0.00     0.097 A 
HETATM    6  N2  UNL     1      73.742  36.212  -0.021  1.00  0.00    -0.285 N 
ATOM      7  H2  UNL     1      74.657  36.574  -0.290  1.00  0.00     0.188 HD
HETATM    8  N3  UNL     1      72.632  36.911   0.037  1.00  0.00    -0.276 N 
HETATM    9  C9  UNL     1      72.569  38.323  -0.280  1.00  0.00     0.152 C 
HETATM   10  C10 UNL     1      71.696  38.655  -1.442  1.00  0.00     0.042 C 
HETATM   11  C11 UNL     1      70.524  37.758  -1.650  1.00  0.00     0.125 C 
HETATM   12  N4  UNL     1      69.827  37.382  -0.451  1.00  0.00    -0.370 N 
ENDROOT
BRANCH  12  13
HETATM   13  C12 UNL     1      68.550  37.971  -0.296  1.00  0.00     0.093 C 
HETATM   14  C13 UNL     1      67.797  38.386  -1.268  1.00  0.00     0.099 C 
BRANCH  14  15
HETATM   15  C14 UNL     1      66.505  38.976  -0.994  1.00  0.00     0.284 C 
HETATM   16  O3  UNL     1      66.110  39.948  -1.652  1.00  0.00    -0.260 OA
BRANCH  15  17
HETATM   17  O4  UNL     1      65.682  38.472   0.006  1.00  0.00    -0.308 OA
BRANCH  17  18
HETATM   18  C15 UNL     1      64.639  37.604  -0.321  1.00  0.00     0.060 C 
HETATM   19  C16 UNL     1      64.524  36.531   0.769  1.00  0.00     0.046 C 
HETATM   20  C17 UNL     1      63.282  38.312  -0.359  1.00  0.00     0.046 C 
HETATM   21  C18 UNL     1      64.850  36.928  -1.636  1.00  0.00     0.046 C 
ENDBRANCH  17  18
ENDBRANCH  15  17
ENDBRANCH  14  15
ENDBRANCH  12  13
BRANCH   1  22
HETATM   22  C3  UNL     1      70.143  37.129   1.954  1.00  0.00     0.289 C 
HETATM   23  O2  UNL     1      69.924  36.352   2.923  1.00  0.00    -0.262 OA
BRANCH  22  24
HETATM   24  O1  UNL     1      70.285  38.462   2.211  1.00  0.00    -0.320 OA
BRANCH  24  25
HETATM   25  C2  UNL     1      71.246  38.899   3.140  1.00  0.00     0.174 C 
HETATM   26  C1  UNL     1      71.716  40.304   2.866  1.00  0.00     0.034 C 
ENDBRANCH  24  25
ENDBRANCH  22  24
ENDBRANCH   1  22
BRANCH   5  27
HETATM   27  C7  UNL     1      74.446  33.829   0.399  1.00  0.00     0.073 C 
HETATM   28  C8  UNL     1      73.964  32.685  -0.450  1.00  0.00     0.013 C 
ENDBRANCH   5  27
TORSDOF 8
ENDMDL
MODEL 5
REMARK VINA RESULT: -6.063625153      1.844      2.792
REMARK  8 active torsions:
REMARK  status: ('A' for Active; 'I' for Inactive)
REMARK    1  A    between atoms: C2_2  and  O1_3 
REMARK    2  A    between atoms: O1_3  and  C3_4 
REMARK    3  A    between atoms: C3_4  and  C4_6 
REMARK    4  A    between atoms: C6_10  and  C7_11 
REMARK    5  A    between atoms: N4_19  and  C12_20 
REMARK    6  A    between atoms: C13_21  and  C14_22 
REMARK    7  A    between atoms: C14_22  and  O4_24 
REMARK    8  A    between atoms: O4_24  and  C15_25 
ROOT
HETATM    1  C4  UNL     1      70.554  35.849   1.118  1.00  0.00     0.254 C 
HETATM    2  C5  UNL     1      71.924  35.222   1.123  1.00  0.00     0.133 A 
HETATM    3  N1  UNL     1      72.228  33.952   1.354  1.00  0.00    -0.331 N 
ATOM      4  H1  UNL     1      71.575  33.197   1.568  1.00  0.00     0.168 HD
HETATM    5  C6  UNL     1      73.561  33.853   1.251  1.00  0.00     0.097 A 
HETATM    6  N2  UNL     1      74.045  35.050   0.963  1.00  0.00    -0.285 N 
ATOM      7  H2  UNL     1      75.031  35.273   0.826  1.00  0.00     0.188 HD
HETATM    8  N3  UNL     1      73.052  35.904   0.880  1.00  0.00    -0.276 N 
HETATM    9  C9  UNL     1      73.238  37.308   0.579  1.00  0.00     0.152 C 
HETATM   10  C10 UNL     1      72.589  37.759  -0.686  1.00  0.00     0.042 C 
HETATM   11  C11 UNL     1      71.339  37.041  -1.065  1.00  0.00     0.125 C 
HETATM   12  N4  UNL     1      70.437  36.777   0.022  1.00  0.00    -0.370 N 
ENDROOT
BRANCH  12  13
HETATM   13  C12 UNL     1      69.251  37.547   0.011  1.00  0.00     0.093 C 
HETATM   14  C13 UNL     1      68.605  37.906  -1.055  1.00  0.00     0.099 C 
BRANCH  14  15
HETATM   15  C14 UNL     1      67.399  38.697  -0.950  1.00  0.00     0.284 C 
HETATM   16  O3  UNL     1      66.446  38.294  -0.270  1.00  0.00    -0.260 OA
BRANCH  15  17
HETATM   17  O4  UNL     1      67.279  39.917  -1.604  1.00  0.00    -0.308 OA
BRANCH  17  18
HETATM   18  C15 UNL     1      67.568  41.103  -0.927  1.00  0.00     0.060 C 
HETATM   19  C16 UNL     1      67.628  42.253  -1.939  1.00  0.00     0.046 C 
HETATM   20  C17 UNL     1      66.476  41.483   0.077  1.00  0.00     0.046 C 
HETATM   21  C18 UNL     1      68.871  41.040  -0.198  1.00  0.00     0.046 C 
ENDBRANCH  17  18
ENDBRANCH  15  17
ENDBRANCH  14  15
ENDBRANCH  12  13
BRANCH   1  22
HETATM   22  C3  UNL     1      70.382  36.492   2.443  1.00  0.00     0.289 C 
HETATM   23  O2  UNL     1      70.525  35.743   3.449  1.00  0.00    -0.262 OA
BRANCH  22  24
HETATM   24  O1  UNL     1      70.087  37.808   2.652  1.00  0.00    -0.320 OA
BRANCH  24  25
HETATM   25  C2  UNL     1      71.030  38.650   3.268  1.00  0.00     0.174 C 
HETATM   26  C1  UNL     1      71.269  39.917   2.489  1.00  0.00     0.034 C 
ENDBRANCH  24  25
ENDBRANCH  22  24
ENDBRANCH   1  22
BRANCH   5  27
HETATM   27  C7  UNL     1      74.331  32.592   1.438  1.00  0.00     0.073 C 
HETATM   28  C8  UNL     1      73.563  31.643   2.316  1.00  0.00     0.013 C 
ENDBRANCH   5  27
TORSDOF 8
ENDMDL
