MODEL 1
REMARK VINA RESULT: -5.515123944      0.000      0.000
REMARK  4 active torsions:
REMARK  status: ('A' for Active; 'I' for Inactive)
REMARK    1  A    between atoms: C8_8  and  O1_9 
REMARK    2  A    between atoms: O1_9  and  C9_10 
REMARK    3  A    between atoms: C9_10  and  N2_14 
REMARK    4  A    between atoms: N2_14  and  C11_16 
ROOT
HETATM    1  C1  UNL     1      -6.265   0.064 -21.935  1.00  0.00     0.022 C 
HETATM    2  C2  UNL     1      -5.935   0.744 -23.020  1.00  0.00    -0.022 C 
HETATM    3  C3  UNL     1      -5.178   2.003 -22.880  1.00  0.00     0.041 C 
HETATM    4  C4  UNL     1      -6.020   3.234 -22.961  1.00  0.00     0.005 C 
HETATM    5  C5  UNL     1      -7.463   2.985 -23.250  1.00  0.00     0.000 C 
HETATM    6  C6  UNL     1      -7.804   3.224 -24.713  1.00  0.00     0.002 C 
HETATM    7  C7  UNL     1      -8.402   1.942 -25.289  1.00  0.00     0.033 C 
HETATM    8  C8  UNL     1      -7.425   1.283 -26.242  1.00  0.00     0.139 C 
HETATM    9  C14 UNL     1      -6.118   0.963 -25.550  1.00  0.00     0.116 C 
HETATM   10  C15 UNL     1      -6.345   0.199 -24.306  1.00  0.00     0.157 C 
HETATM   11  O2  UNL     1      -6.908  -0.944 -24.394  1.00  0.00    -0.293 OA
ENDROOT
BRANCH   8  12
HETATM   12  O1  UNL     1      -7.176   2.203 -27.277  1.00  0.00    -0.317 OA
BRANCH  12  13
HETATM   13  C9  UNL     1      -7.292   1.861 -28.615  1.00  0.00     0.215 C 
HETATM   14  N1  UNL     1      -8.093   0.907 -28.934  1.00  0.00    -0.361 N 
HETATM   15  C10 UNL     1      -8.323   0.437 -30.266  1.00  0.00     0.150 C 
ATOM     16  H1  UNL     1      -8.604   0.449 -28.180  1.00  0.00     0.162 HD
BRANCH  13  17
HETATM   17  N2  UNL     1      -6.515   2.589 -29.553  1.00  0.00    -0.353 N 
ATOM     18  H2  UNL     1      -6.810   3.518 -29.854  1.00  0.00     0.163 HD
BRANCH  17  19
HETATM   19  C11 UNL     1      -5.291   1.997 -30.082  1.00  0.00     0.076 C 
HETATM   20  C12 UNL     1      -4.325   1.670 -28.972  1.00  0.00     0.032 C 
HETATM   21  C13 UNL     1      -4.642   2.923 -31.100  1.00  0.00     0.032 C 
ENDBRANCH  17  19
ENDBRANCH  13  17
ENDBRANCH  12  13
ENDBRANCH   8  12
TORSDOF 4
ENDMDL
MODEL 2
REMARK VINA RESULT: -5.509887488      1.037      1.348
REMARK  4 active torsions:
REMARK  status: ('A' for Active; 'I' for Inactive)
REMARK    1  A    between atoms: C8_8  and  O1_9 
REMARK    2  A    between atoms: O1_9  and  C9_10 
REMARK    3  A    between atoms: C9_10  and  N2_14 
REMARK    4  A    between atoms: N2_14  and  C11_16 
ROOT
HETATM    1  C1  UNL     1      -5.519   1.096 -21.935  1.00  0.00     0.022 C 
HETATM    2  C2  UNL     1      -5.591   1.781 -23.064  1.00  0.00    -0.022 C 
HETATM    3  C3  UNL     1      -5.921   3.218 -23.016  1.00  0.00     0.041 C 
HETATM    4  C4  UNL     1      -7.353   3.525 -23.312  1.00  0.00     0.005 C 
HETATM    5  C5  UNL     1      -8.182   2.341 -23.683  1.00  0.00     0.000 C 
HETATM    6  C6  UNL     1      -8.384   2.231 -25.187  1.00  0.00     0.002 C 
HETATM    7  C7  UNL     1      -7.862   0.873 -25.651  1.00  0.00     0.033 C 
HETATM    8  C8  UNL     1      -6.577   1.039 -26.436  1.00  0.00     0.139 C 
HETATM    9  C14 UNL     1      -5.516   1.731 -25.609  1.00  0.00     0.116 C 
HETATM   10  C15 UNL     1      -5.335   1.062 -24.304  1.00  0.00     0.157 C 
HETATM   11  O2  UNL     1      -4.951  -0.156 -24.298  1.00  0.00    -0.293 OA
ENDROOT
BRANCH   8  12
HETATM   12  O1  UNL     1      -6.877   1.843 -27.551  1.00  0.00    -0.317 OA
BRANCH  12  13
HETATM   13  C9  UNL     1      -7.033   1.316 -28.823  1.00  0.00     0.215 C 
HETATM   14  N1  UNL     1      -8.175   0.817 -29.143  1.00  0.00    -0.361 N 
HETATM   15  C10 UNL     1      -8.493   0.237 -30.411  1.00  0.00     0.150 C 
ATOM     16  H1  UNL     1      -8.911   0.837 -28.437  1.00  0.00     0.162 HD
BRANCH  13  17
HETATM   17  N2  UNL     1      -5.916   1.358 -29.698  1.00  0.00    -0.353 N 
ATOM     18  H2  UNL     1      -5.460   0.495 -29.991  1.00  0.00     0.163 HD
BRANCH  17  19
HETATM   19  C11 UNL     1      -5.427   2.649 -30.172  1.00  0.00     0.076 C 
HETATM   20  C12 UNL     1      -6.349   3.225 -31.216  1.00  0.00     0.032 C 
HETATM   21  C13 UNL     1      -4.014   2.519 -30.720  1.00  0.00     0.032 C 
ENDBRANCH  17  19
ENDBRANCH  13  17
ENDBRANCH  12  13
ENDBRANCH   8  12
TORSDOF 4
ENDMDL
MODEL 3
REMARK VINA RESULT: -5.180393088      2.240      6.283
REMARK  4 active torsions:
REMARK  status: ('A' for Active; 'I' for Inactive)
REMARK    1  A    between atoms: C8_8  and  O1_9 
REMARK    2  A    between atoms: O1_9  and  C9_10 
REMARK    3  A    between atoms: C9_10  and  N2_14 
REMARK    4  A    between atoms: N2_14  and  C11_16 
ROOT
HETATM    1  C1  UNL     1      -7.220   0.800 -31.377  1.00  0.00     0.022 C 
HETATM    2  C2  UNL     1      -6.926   1.596 -30.362  1.00  0.00    -0.022 C 
HETATM    3  C3  UNL     1      -6.086   2.786 -30.598  1.00  0.00     0.041 C 
HETATM    4  C4  UNL     1      -4.650   2.602 -30.231  1.00  0.00     0.005 C 
HETATM    5  C5  UNL     1      -4.327   1.282 -29.616  1.00  0.00     0.000 C 
HETATM    6  C6  UNL     1      -4.215   1.366 -28.101  1.00  0.00     0.002 C 
HETATM    7  C7  UNL     1      -5.214   0.389 -27.484  1.00  0.00     0.033 C 
HETATM    8  C8  UNL     1      -6.364   1.139 -26.845  1.00  0.00     0.139 C 
HETATM    9  C14 UNL     1      -7.074   2.014 -27.854  1.00  0.00     0.116 C 
HETATM   10  C15 UNL     1      -7.459   1.242 -29.054  1.00  0.00     0.157 C 
HETATM   11  O2  UNL     1      -8.266   0.263 -28.909  1.00  0.00    -0.293 OA
ENDROOT
BRANCH   8  12
HETATM   12  O1  UNL     1      -5.814   1.960 -25.842  1.00  0.00    -0.317 OA
BRANCH  12  13
HETATM   13  C9  UNL     1      -6.474   2.214 -24.650  1.00  0.00     0.215 C 
HETATM   14  N1  UNL     1      -6.590   3.434 -24.264  1.00  0.00    -0.361 N 
HETATM   15  C10 UNL     1      -7.240   3.859 -23.062  1.00  0.00     0.150 C 
ATOM     16  H1  UNL     1      -6.187   4.157 -24.860  1.00  0.00     0.162 HD
BRANCH  13  17
HETATM   17  N2  UNL     1      -6.982   1.103 -23.927  1.00  0.00    -0.353 N 
ATOM     18  H2  UNL     1      -7.985   1.005 -23.773  1.00  0.00     0.163 HD
BRANCH  17  19
HETATM   19  C11 UNL     1      -6.055   0.104 -23.406  1.00  0.00     0.076 C 
HETATM   20  C12 UNL     1      -6.391  -1.270 -23.929  1.00  0.00     0.032 C 
HETATM   21  C13 UNL     1      -6.057   0.111 -21.884  1.00  0.00     0.032 C 
ENDBRANCH  17  19
ENDBRANCH  13  17
ENDBRANCH  12  13
ENDBRANCH   8  12
TORSDOF 4
ENDMDL
MODEL 4
REMARK VINA RESULT: -5.180284475      2.207      6.261
REMARK  4 active torsions:
REMARK  status: ('A' for Active; 'I' for Inactive)
REMARK    1  A    between atoms: C8_8  and  O1_9 
REMARK    2  A    between atoms: O1_9  and  C9_10 
REMARK    3  A    between atoms: C9_10  and  N2_14 
REMARK    4  A    between atoms: N2_14  and  C11_16 
ROOT
HETATM    1  C1  UNL     1      -7.423   1.110 -31.789  1.00  0.00     0.022 C 
HETATM    2  C2  UNL     1      -7.043   1.801 -30.728  1.00  0.00    -0.022 C 
HETATM    3  C3  UNL     1      -6.249   3.031 -30.915  1.00  0.00     0.041 C 
HETATM    4  C4  UNL     1      -4.781   2.846 -30.710  1.00  0.00     0.005 C 
HETATM    5  C5  UNL     1      -4.378   1.477 -30.274  1.00  0.00     0.000 C 
HETATM    6  C6  UNL     1      -4.119   1.404 -28.777  1.00  0.00     0.002 C 
HETATM    7  C7  UNL     1      -5.037   0.342 -28.174  1.00  0.00     0.033 C 
HETATM    8  C8  UNL     1      -6.130   0.992 -27.351  1.00  0.00     0.139 C 
HETATM    9  C14 UNL     1      -6.949   1.950 -28.188  1.00  0.00     0.116 C 
HETATM   10  C15 UNL     1      -7.439   1.299 -29.420  1.00  0.00     0.157 C 
HETATM   11  O2  UNL     1      -8.213   0.290 -29.304  1.00  0.00    -0.293 OA
ENDROOT
BRANCH   8  12
HETATM   12  O1  UNL     1      -5.496   1.716 -26.324  1.00  0.00    -0.317 OA
BRANCH  12  13
HETATM   13  C9  UNL     1      -5.781   1.503 -24.984  1.00  0.00     0.215 C 
HETATM   14  N1  UNL     1      -6.006   0.299 -24.592  1.00  0.00    -0.361 N 
HETATM   15  C10 UNL     1      -6.312  -0.084 -23.247  1.00  0.00     0.150 C 
ATOM     16  H1  UNL     1      -5.964  -0.440 -25.293  1.00  0.00     0.162 HD
BRANCH  13  17
HETATM   17  N2  UNL     1      -5.805   2.633 -24.126  1.00  0.00    -0.353 N 
ATOM     18  H2  UNL     1      -5.066   2.771 -23.437  1.00  0.00     0.163 HD
BRANCH  17  19
HETATM   19  C11 UNL     1      -6.897   3.594 -24.239  1.00  0.00     0.076 C 
HETATM   20  C12 UNL     1      -7.116   4.318 -22.935  1.00  0.00     0.032 C 
HETATM   21  C13 UNL     1      -8.176   2.903 -24.687  1.00  0.00     0.032 C 
ENDBRANCH  17  19
ENDBRANCH  13  17
ENDBRANCH  12  13
ENDBRANCH   8  12
TORSDOF 4
ENDMDL
MODEL 5
REMARK VINA RESULT: -5.105469396      1.062      2.277
REMARK  4 active torsions:
REMARK  status: ('A' for Active; 'I' for Inactive)
REMARK    1  A    between atoms: C8_8  and  O1_9 
REMARK    2  A    between atoms: O1_9  and  C9_10 
REMARK    3  A    between atoms: C9_10  and  N2_14 
REMARK    4  A    between atoms: N2_14  and  C11_16 
ROOT
HETATM    1  C1  UNL     1      -5.568   0.682 -21.909  1.00  0.00     0.022 C 
HETATM    2  C2  UNL     1      -5.581   1.482 -22.963  1.00  0.00    -0.022 C 
HETATM    3  C3  UNL     1      -5.823   2.925 -22.771  1.00  0.00     0.041 C 
HETATM    4  C4  UNL     1      -7.228   3.350 -23.046  1.00  0.00     0.005 C 
HETATM    5  C5  UNL     1      -8.122   2.265 -23.545  1.00  0.00     0.000 C 
HETATM    6  C6  UNL     1      -8.308   2.321 -25.053  1.00  0.00     0.002 C 
HETATM    7  C7  UNL     1      -7.863   0.987 -25.649  1.00  0.00     0.033 C 
HETATM    8  C8  UNL     1      -6.559   1.151 -26.402  1.00  0.00     0.139 C 
HETATM    9  C14 UNL     1      -5.470   1.687 -25.499  1.00  0.00     0.116 C 
HETATM   10  C15 UNL     1      -5.351   0.879 -24.268  1.00  0.00     0.157 C 
HETATM   11  O2  UNL     1      -5.042  -0.355 -24.384  1.00  0.00    -0.293 OA
ENDROOT
BRANCH   8  12
HETATM   12  O1  UNL     1      -6.792   2.082 -27.432  1.00  0.00    -0.317 OA
BRANCH  12  13
HETATM   13  C9  UNL     1      -6.339   1.882 -28.726  1.00  0.00     0.215 C 
HETATM   14  N1  UNL     1      -5.075   1.953 -28.950  1.00  0.00    -0.361 N 
HETATM   15  C10 UNL     1      -4.454   1.771 -30.225  1.00  0.00     0.150 C 
ATOM     16  H1  UNL     1      -4.468   2.154 -28.155  1.00  0.00     0.162 HD
BRANCH  13  17
HETATM   17  N2  UNL     1      -7.306   1.611 -29.729  1.00  0.00    -0.353 N 
ATOM     18  H2  UNL     1      -7.389   2.221 -30.542  1.00  0.00     0.163 HD
BRANCH  17  19
HETATM   19  C11 UNL     1      -8.180   0.452 -29.586  1.00  0.00     0.076 C 
HETATM   20  C12 UNL     1      -7.379  -0.824 -29.517  1.00  0.00     0.032 C 
HETATM   21  C13 UNL     1      -9.184   0.391 -30.728  1.00  0.00     0.032 C 
ENDBRANCH  17  19
ENDBRANCH  13  17
ENDBRANCH  12  13
ENDBRANCH   8  12
TORSDOF 4
ENDMDL
