MODEL 1
REMARK VINA RESULT: -5.322068540      0.000      0.000
REMARK  4 active torsions:
REMARK  status: ('A' for Active; 'I' for Inactive)
REMARK    1  A    between atoms: C1_2  and  N1_3 
REMARK    2  A    between atoms: C1_2  and  O1_11 
REMARK    3  A    between atoms: N1_3  and  C2_5 
REMARK    4  A    between atoms: O1_11  and  C8_12 
ROOT
HETATM    1  S1  UNL     1      -5.103   6.140 -20.045  1.00  0.00    -0.033 SA
HETATM    2  C1  UNL     1      -4.646   4.613 -19.776  1.00  0.00     0.210 C 
ENDROOT
BRANCH   2   3
HETATM    3  N1  UNL     1      -3.542   4.307 -18.964  1.00  0.00    -0.357 N 
ATOM      4  H1  UNL     1      -2.842   3.665 -19.339  1.00  0.00     0.162 HD
BRANCH   3   5
HETATM    5  C2  UNL     1      -3.328   4.831 -17.650  1.00  0.00     0.084 C 
HETATM    6  C3  UNL     1      -2.505   3.886 -16.789  1.00  0.00     0.025 C 
HETATM    7  C4  UNL     1      -1.055   3.880 -17.163  1.00  0.00     0.002 C 
HETATM    8  C5  UNL     1      -0.449   5.228 -17.368  1.00  0.00     0.000 C 
HETATM    9  C6  UNL     1      -1.303   5.972 -18.400  1.00  0.00     0.002 C 
HETATM   10  C7  UNL     1      -2.650   6.180 -17.728  1.00  0.00     0.025 C 
ENDBRANCH   3   5
ENDBRANCH   2   3
BRANCH   2  11
HETATM   11  O1  UNL     1      -5.387   3.602 -20.375  1.00  0.00    -0.321 OA
BRANCH  11  12
HETATM   12  C8  UNL     1      -5.508   3.435 -21.758  1.00  0.00     0.140 C 
HETATM   13  C9  UNL     1      -5.015   2.071 -22.148  1.00  0.00     0.034 C 
HETATM   14  C10 UNL     1      -6.045   0.994 -22.017  1.00  0.00     0.013 C 
HETATM   15  C11 UNL     1      -6.933   0.942 -23.268  1.00  0.00     0.074 C 
HETATM   16  S2  UNL     1      -7.055   2.688 -23.823  1.00  0.00    -0.167 SA
HETATM   17  C12 UNL     1      -6.894   3.675 -22.284  1.00  0.00     0.106 C 
ENDBRANCH  11  12
ENDBRANCH   2  11
TORSDOF 4
ENDMDL
MODEL 2
REMARK VINA RESULT: -4.894967394      5.366      9.344
REMARK  4 active torsions:
REMARK  status: ('A' for Active; 'I' for Inactive)
REMARK    1  A    between atoms: C1_2  and  N1_3 
REMARK    2  A    between atoms: C1_2  and  O1_11 
REMARK    3  A    between atoms: N1_3  and  C2_5 
REMARK    4  A    between atoms: O1_11  and  C8_12 
ROOT
HETATM    1  S1  UNL     1      -8.119  -0.948 -26.395  1.00  0.00    -0.033 SA
HETATM    2  C1  UNL     1      -7.737   0.622 -26.397  1.00  0.00     0.210 C 
ENDROOT
BRANCH   2   3
HETATM    3  N1  UNL     1      -7.356   1.287 -27.574  1.00  0.00    -0.357 N 
ATOM      4  H1  UNL     1      -7.385   2.307 -27.572  1.00  0.00     0.162 HD
BRANCH   3   5
HETATM    5  C2  UNL     1      -6.930   0.636 -28.774  1.00  0.00     0.084 C 
HETATM    6  C3  UNL     1      -7.242   1.463 -30.011  1.00  0.00     0.025 C 
HETATM    7  C4  UNL     1      -6.325   2.636 -30.167  1.00  0.00     0.002 C 
HETATM    8  C5  UNL     1      -4.878   2.338 -29.963  1.00  0.00     0.000 C 
HETATM    9  C6  UNL     1      -4.726   1.672 -28.592  1.00  0.00     0.002 C 
HETATM   10  C7  UNL     1      -5.448   0.340 -28.712  1.00  0.00     0.025 C 
ENDBRANCH   3   5
ENDBRANCH   2   3
BRANCH   2  11
HETATM   11  O1  UNL     1      -7.801   1.303 -25.187  1.00  0.00    -0.321 OA
BRANCH  11  12
HETATM   12  C8  UNL     1      -6.682   1.790 -24.504  1.00  0.00     0.140 C 
HETATM   13  C9  UNL     1      -6.666   3.291 -24.567  1.00  0.00     0.034 C 
HETATM   14  C10 UNL     1      -7.490   3.951 -23.509  1.00  0.00     0.013 C 
HETATM   15  C11 UNL     1      -6.691   4.078 -22.203  1.00  0.00     0.074 C 
HETATM   16  S2  UNL     1      -5.624   2.585 -22.166  1.00  0.00    -0.167 SA
HETATM   17  C12 UNL     1      -6.577   1.312 -23.085  1.00  0.00     0.106 C 
ENDBRANCH  11  12
ENDBRANCH   2  11
TORSDOF 4
ENDMDL
MODEL 3
REMARK VINA RESULT: -4.889607225      6.126      8.656
REMARK  4 active torsions:
REMARK  status: ('A' for Active; 'I' for Inactive)
REMARK    1  A    between atoms: C1_2  and  N1_3 
REMARK    2  A    between atoms: C1_2  and  O1_11 
REMARK    3  A    between atoms: N1_3  and  C2_5 
REMARK    4  A    between atoms: O1_11  and  C8_12 
ROOT
HETATM    1  S1  UNL     1      -7.483  -0.070 -27.419  1.00  0.00    -0.033 SA
HETATM    2  C1  UNL     1      -7.175   1.513 -27.336  1.00  0.00     0.210 C 
ENDROOT
BRANCH   2   3
HETATM    3  N1  UNL     1      -7.074   2.181 -26.105  1.00  0.00    -0.357 N 
ATOM      4  H1  UNL     1      -6.865   3.180 -26.123  1.00  0.00     0.162 HD
BRANCH   3   5
HETATM    5  C2  UNL     1      -7.245   1.561 -24.827  1.00  0.00     0.084 C 
HETATM    6  C3  UNL     1      -5.920   1.382 -24.102  1.00  0.00     0.025 C 
HETATM    7  C4  UNL     1      -5.386   2.668 -23.550  1.00  0.00     0.002 C 
HETATM    8  C5  UNL     1      -6.385   3.511 -22.831  1.00  0.00     0.000 C 
HETATM    9  C6  UNL     1      -7.570   3.741 -23.776  1.00  0.00     0.002 C 
HETATM   10  C7  UNL     1      -8.195   2.370 -23.974  1.00  0.00     0.025 C 
ENDBRANCH   3   5
ENDBRANCH   2   3
BRANCH   2  11
HETATM   11  O1  UNL     1      -7.007   2.202 -28.532  1.00  0.00    -0.321 OA
BRANCH  11  12
HETATM   12  C8  UNL     1      -6.249   1.729 -29.607  1.00  0.00     0.140 C 
HETATM   13  C9  UNL     1      -6.923   2.093 -30.899  1.00  0.00     0.034 C 
HETATM   14  C10 UNL     1      -6.595   3.468 -31.387  1.00  0.00     0.013 C 
HETATM   15  C11 UNL     1      -5.275   3.461 -32.171  1.00  0.00     0.074 C 
HETATM   16  S2  UNL     1      -4.251   2.182 -31.344  1.00  0.00    -0.167 SA
HETATM   17  C12 UNL     1      -4.820   2.190 -29.599  1.00  0.00     0.106 C 
ENDBRANCH  11  12
ENDBRANCH   2  11
TORSDOF 4
ENDMDL
MODEL 4
REMARK VINA RESULT: -4.868327578      5.232      6.839
REMARK  4 active torsions:
REMARK  status: ('A' for Active; 'I' for Inactive)
REMARK    1  A    between atoms: C1_2  and  N1_3 
REMARK    2  A    between atoms: C1_2  and  O1_11 
REMARK    3  A    between atoms: N1_3  and  C2_5 
REMARK    4  A    between atoms: O1_11  and  C8_12 
ROOT
HETATM    1  S1  UNL     1      -6.501  -0.949 -25.608  1.00  0.00    -0.033 SA
HETATM    2  C1  UNL     1      -6.662  -0.330 -24.124  1.00  0.00     0.210 C 
ENDROOT
BRANCH   2   3
HETATM    3  N1  UNL     1      -7.010   1.015 -23.920  1.00  0.00    -0.357 N 
ATOM      4  H1  UNL     1      -7.892   1.210 -23.446  1.00  0.00     0.162 HD
BRANCH   3   5
HETATM    5  C2  UNL     1      -6.215   2.132 -24.331  1.00  0.00     0.084 C 
HETATM    6  C3  UNL     1      -7.032   3.412 -24.408  1.00  0.00     0.025 C 
HETATM    7  C4  UNL     1      -7.354   3.973 -23.058  1.00  0.00     0.002 C 
HETATM    8  C5  UNL     1      -6.210   4.017 -22.102  1.00  0.00     0.000 C 
HETATM    9  C6  UNL     1      -5.623   2.605 -22.010  1.00  0.00     0.002 C 
HETATM   10  C7  UNL     1      -5.049   2.320 -23.387  1.00  0.00     0.025 C 
ENDBRANCH   3   5
ENDBRANCH   2   3
BRANCH   2  11
HETATM   11  O1  UNL     1      -6.447  -1.177 -23.044  1.00  0.00    -0.321 OA
BRANCH  11  12
HETATM   12  C8  UNL     1      -5.272  -1.196 -22.286  1.00  0.00     0.140 C 
HETATM   13  C9  UNL     1      -5.598  -0.943 -20.841  1.00  0.00     0.034 C 
HETATM   14  C10 UNL     1      -5.999  -2.170 -20.087  1.00  0.00     0.013 C 
HETATM   15  C11 UNL     1      -4.759  -2.928 -19.591  1.00  0.00     0.074 C 
HETATM   16  S2  UNL     1      -3.496  -2.654 -20.894  1.00  0.00    -0.167 SA
HETATM   17  C12 UNL     1      -4.464  -2.451 -22.442  1.00  0.00     0.106 C 
ENDBRANCH  11  12
ENDBRANCH   2  11
TORSDOF 4
ENDMDL
MODEL 5
REMARK VINA RESULT: -4.805787085      6.371     10.317
REMARK  4 active torsions:
REMARK  status: ('A' for Active; 'I' for Inactive)
REMARK    1  A    between atoms: C1_2  and  N1_3 
REMARK    2  A    between atoms: C1_2  and  O1_11 
REMARK    3  A    between atoms: N1_3  and  C2_5 
REMARK    4  A    between atoms: O1_11  and  C8_12 
ROOT
HETATM    1  S1  UNL     1      -7.768  -0.475 -28.133  1.00  0.00    -0.033 SA
HETATM    2  C1  UNL     1      -7.560   1.123 -28.023  1.00  0.00     0.210 C 
ENDROOT
BRANCH   2   3
HETATM    3  N1  UNL     1      -7.044   1.874 -29.092  1.00  0.00    -0.357 N 
ATOM      4  H1  UNL     1      -6.880   2.869 -28.936  1.00  0.00     0.162 HD
BRANCH   3   5
HETATM    5  C2  UNL     1      -6.733   1.343 -30.384  1.00  0.00     0.084 C 
HETATM    6  C3  UNL     1      -7.253   2.231 -31.503  1.00  0.00     0.025 C 
HETATM    7  C4  UNL     1      -6.439   3.477 -31.676  1.00  0.00     0.002 C 
HETATM    8  C5  UNL     1      -4.962   3.272 -31.675  1.00  0.00     0.000 C 
HETATM    9  C6  UNL     1      -4.595   2.522 -30.389  1.00  0.00     0.002 C 
HETATM   10  C7  UNL     1      -5.240   1.154 -30.527  1.00  0.00     0.025 C 
ENDBRANCH   3   5
ENDBRANCH   2   3
BRANCH   2  11
HETATM   11  O1  UNL     1      -7.913   1.741 -26.829  1.00  0.00    -0.321 OA
BRANCH  11  12
HETATM   12  C8  UNL     1      -7.028   2.482 -26.041  1.00  0.00     0.140 C 
HETATM   13  C9  UNL     1      -7.785   3.160 -24.933  1.00  0.00     0.034 C 
HETATM   14  C10 UNL     1      -7.997   2.299 -23.730  1.00  0.00     0.013 C 
HETATM   15  C11 UNL     1      -6.768   2.345 -22.810  1.00  0.00     0.074 C 
HETATM   16  S2  UNL     1      -5.341   2.519 -23.951  1.00  0.00    -0.167 SA
HETATM   17  C12 UNL     1      -5.879   1.685 -25.496  1.00  0.00     0.106 C 
ENDBRANCH  11  12
ENDBRANCH   2  11
TORSDOF 4
ENDMDL
