MODEL 1
REMARK VINA RESULT: -6.527296971      0.000      0.000
REMARK  2 active torsions:
REMARK  status: ('A' for Active; 'I' for Inactive)
REMARK    1  A    between atoms: C2_2  and  C3_3 
REMARK    2  A    between atoms: N1_7  and  N2_9 
ROOT
HETATM    1  N2  UNL     1      -5.781   4.055 -21.203  1.00  0.00    -0.289 N 
ATOM      2  H2  UNL     1      -6.117   5.017 -21.252  1.00  0.00     0.188 HD
HETATM    3  C7  UNL     1      -6.059   3.219 -22.138  1.00  0.00     0.097 C 
HETATM    4  N3  UNL     1      -6.836   3.563 -23.280  1.00  0.00    -0.365 N 
ATOM      5  H3  UNL     1      -7.559   4.280 -23.218  1.00  0.00     0.162 HD
HETATM    6  C8  UNL     1      -6.585   2.877 -24.534  1.00  0.00     0.145 C 
HETATM    7  C9  UNL     1      -7.473   1.653 -24.559  1.00  0.00     0.036 C 
HETATM    8  C10 UNL     1      -6.815   0.531 -23.781  1.00  0.00     0.004 C 
HETATM    9  C11 UNL     1      -6.659   0.847 -22.322  1.00  0.00     0.013 C 
HETATM   10  C12 UNL     1      -5.560   1.827 -22.044  1.00  0.00     0.064 C 
HETATM   11  C13 UNL     1      -4.385   1.617 -22.991  1.00  0.00     0.088 C 
HETATM   12  S1  UNL     1      -4.825   2.386 -24.563  1.00  0.00    -0.143 SA
ENDROOT
BRANCH   1  13
HETATM   13  N1  UNL     1      -5.014   3.629 -20.123  1.00  0.00    -0.308 N 
HETATM   14  C6  UNL     1      -4.299   4.443 -19.423  1.00  0.00     0.004 C 
HETATM   15  C5  UNL     1      -4.195   5.913 -19.664  1.00  0.00     0.054 C 
HETATM   16  C14 UNL     1      -3.469   4.044 -18.268  1.00  0.00     0.062 C 
HETATM   17  C4  UNL     1      -2.912   6.242 -18.893  1.00  0.00     0.014 C 
HETATM   18  C3  UNL     1      -3.079   5.374 -17.673  1.00  0.00     0.013 C 
ATOM     19  H1  UNL     1      -5.017   2.640 -19.877  1.00  0.00     0.186 HD
BRANCH  18  20
HETATM   20  C2  UNL     1      -1.863   5.300 -16.847  1.00  0.00    -0.032 C 
HETATM   21  C1  UNL     1      -1.224   4.179 -16.644  1.00  0.00     0.007 C 
ENDBRANCH  18  20
ENDBRANCH   1  13
TORSDOF 2
ENDMDL
MODEL 2
REMARK VINA RESULT: -5.770950168      4.887      8.777
REMARK  2 active torsions:
REMARK  status: ('A' for Active; 'I' for Inactive)
REMARK    1  A    between atoms: C2_2  and  C3_3 
REMARK    2  A    between atoms: N1_7  and  N2_9 
ROOT
HETATM    1  N2  UNL     1      -6.081   0.533 -26.662  1.00  0.00    -0.289 N 
ATOM      2  H2  UNL     1      -6.392  -0.416 -26.866  1.00  0.00     0.188 HD
HETATM    3  C7  UNL     1      -6.393   1.095 -25.549  1.00  0.00     0.097 C 
HETATM    4  N3  UNL     1      -7.175   0.454 -24.548  1.00  0.00    -0.365 N 
ATOM      5  H3  UNL     1      -7.877  -0.239 -24.804  1.00  0.00     0.162 HD
HETATM    6  C8  UNL     1      -6.957   0.802 -23.156  1.00  0.00     0.145 C 
HETATM    7  C9  UNL     1      -7.877   1.959 -22.836  1.00  0.00     0.036 C 
HETATM    8  C10 UNL     1      -7.240   3.256 -23.290  1.00  0.00     0.004 C 
HETATM    9  C11 UNL     1      -7.057   3.328 -24.777  1.00  0.00     0.013 C 
HETATM   10  C12 UNL     1      -5.929   2.477 -25.276  1.00  0.00     0.064 C 
HETATM   11  C13 UNL     1      -4.773   2.464 -24.285  1.00  0.00     0.088 C 
HETATM   12  S1  UNL     1      -5.211   1.308 -22.970  1.00  0.00    -0.143 SA
ENDROOT
BRANCH   1  13
HETATM   13  N1  UNL     1      -5.312   1.238 -27.582  1.00  0.00    -0.308 N 
HETATM   14  C6  UNL     1      -5.802   1.687 -28.687  1.00  0.00     0.004 C 
HETATM   15  C5  UNL     1      -7.221   1.520 -29.124  1.00  0.00     0.054 C 
HETATM   16  C14 UNL     1      -5.032   2.441 -29.698  1.00  0.00     0.062 C 
HETATM   17  C4  UNL     1      -7.096   1.802 -30.625  1.00  0.00     0.014 C 
HETATM   18  C3  UNL     1      -6.112   2.943 -30.624  1.00  0.00     0.013 C 
ATOM     19  H1  UNL     1      -4.328   1.405 -27.377  1.00  0.00     0.186 HD
BRANCH  18  20
HETATM   20  C2  UNL     1      -5.610   3.273 -31.967  1.00  0.00    -0.032 C 
HETATM   21  C1  UNL     1      -4.337   3.257 -32.260  1.00  0.00     0.007 C 
ENDBRANCH  18  20
ENDBRANCH   1  13
TORSDOF 2
ENDMDL
MODEL 3
REMARK VINA RESULT: -5.623776294      4.480      6.530
REMARK  2 active torsions:
REMARK  status: ('A' for Active; 'I' for Inactive)
REMARK    1  A    between atoms: C2_2  and  C3_3 
REMARK    2  A    between atoms: N1_7  and  N2_9 
ROOT
HETATM    1  N2  UNL     1      -5.525  -0.128 -22.034  1.00  0.00    -0.289 N 
ATOM      2  H2  UNL     1      -4.666  -0.048 -21.491  1.00  0.00     0.188 HD
HETATM    3  C7  UNL     1      -5.919   0.843 -22.778  1.00  0.00     0.097 C 
HETATM    4  N3  UNL     1      -5.205   2.068 -22.897  1.00  0.00    -0.365 N 
ATOM      5  H3  UNL     1      -4.648   2.421 -22.119  1.00  0.00     0.162 HD
HETATM    6  C8  UNL     1      -5.282   2.808 -24.142  1.00  0.00     0.145 C 
HETATM    7  C9  UNL     1      -6.461   3.749 -24.031  1.00  0.00     0.036 C 
HETATM    8  C10 UNL     1      -7.738   3.005 -24.361  1.00  0.00     0.004 C 
HETATM    9  C11 UNL     1      -8.045   1.908 -23.383  1.00  0.00     0.013 C 
HETATM   10  C12 UNL     1      -7.173   0.702 -23.556  1.00  0.00     0.064 C 
HETATM   11  C13 UNL     1      -6.862   0.457 -25.027  1.00  0.00     0.088 C 
HETATM   12  S1  UNL     1      -5.553   1.608 -25.494  1.00  0.00    -0.143 SA
ENDROOT
BRANCH   1  13
HETATM   13  N1  UNL     1      -6.289  -1.290 -21.979  1.00  0.00    -0.308 N 
HETATM   14  C6  UNL     1      -6.284  -2.069 -20.952  1.00  0.00     0.004 C 
HETATM   15  C5  UNL     1      -5.482  -1.844 -19.712  1.00  0.00     0.054 C 
HETATM   16  C14 UNL     1      -7.075  -3.312 -20.842  1.00  0.00     0.062 C 
HETATM   17  C4  UNL     1      -5.498  -3.248 -19.098  1.00  0.00     0.014 C 
HETATM   18  C3  UNL     1      -6.914  -3.673 -19.386  1.00  0.00     0.013 C 
ATOM     19  H1  UNL     1      -6.872  -1.533 -22.779  1.00  0.00     0.186 HD
BRANCH  18  20
HETATM   20  C2  UNL     1      -7.155  -5.100 -19.117  1.00  0.00    -0.032 C 
HETATM   21  C1  UNL     1      -8.283  -5.537 -18.625  1.00  0.00     0.007 C 
ENDBRANCH  18  20
ENDBRANCH   1  13
TORSDOF 2
ENDMDL
MODEL 4
REMARK VINA RESULT: -5.608238167      3.859      8.216
REMARK  2 active torsions:
REMARK  status: ('A' for Active; 'I' for Inactive)
REMARK    1  A    between atoms: C2_2  and  C3_3 
REMARK    2  A    between atoms: N1_7  and  N2_9 
ROOT
HETATM    1  N2  UNL     1      -7.447   0.657 -25.421  1.00  0.00    -0.289 N 
ATOM      2  H2  UNL     1      -7.813  -0.293 -25.483  1.00  0.00     0.188 HD
HETATM    3  C7  UNL     1      -6.791   1.036 -24.383  1.00  0.00     0.097 C 
HETATM    4  N3  UNL     1      -6.534   0.183 -23.273  1.00  0.00    -0.365 N 
ATOM      5  H3  UNL     1      -7.189  -0.559 -23.027  1.00  0.00     0.162 HD
HETATM    6  C8  UNL     1      -5.325   0.385 -22.497  1.00  0.00     0.145 C 
HETATM    7  C9  UNL     1      -5.660   1.367 -21.396  1.00  0.00     0.036 C 
HETATM    8  C10 UNL     1      -5.584   2.781 -21.935  1.00  0.00     0.004 C 
HETATM    9  C11 UNL     1      -6.605   3.055 -23.001  1.00  0.00     0.013 C 
HETATM   10  C12 UNL     1      -6.270   2.422 -24.317  1.00  0.00     0.064 C 
HETATM   11  C13 UNL     1      -4.767   2.438 -24.565  1.00  0.00     0.088 C 
HETATM   12  S1  UNL     1      -4.054   1.085 -23.607  1.00  0.00    -0.143 SA
ENDROOT
BRANCH   1  13
HETATM   13  N1  UNL     1      -7.650   1.561 -26.459  1.00  0.00    -0.308 N 
HETATM   14  C6  UNL     1      -6.909   1.575 -27.514  1.00  0.00     0.004 C 
HETATM   15  C5  UNL     1      -5.762   0.652 -27.765  1.00  0.00     0.054 C 
HETATM   16  C14 UNL     1      -7.082   2.511 -28.644  1.00  0.00     0.062 C 
HETATM   17  C4  UNL     1      -5.013   1.415 -28.863  1.00  0.00     0.014 C 
HETATM   18  C3  UNL     1      -6.161   1.933 -29.690  1.00  0.00     0.013 C 
ATOM     19  H1  UNL     1      -8.411   2.235 -26.382  1.00  0.00     0.186 HD
BRANCH  18  20
HETATM   20  C2  UNL     1      -5.746   2.921 -30.699  1.00  0.00    -0.032 C 
HETATM   21  C1  UNL     1      -6.584   3.435 -31.558  1.00  0.00     0.007 C 
ENDBRANCH  18  20
ENDBRANCH   1  13
TORSDOF 2
ENDMDL
MODEL 5
REMARK VINA RESULT: -5.487649696      4.535      9.396
REMARK  2 active torsions:
REMARK  status: ('A' for Active; 'I' for Inactive)
REMARK    1  A    between atoms: C2_2  and  C3_3 
REMARK    2  A    between atoms: N1_7  and  N2_9 
ROOT
HETATM    1  N2  UNL     1      -5.741   1.686 -26.948  1.00  0.00    -0.289 N 
ATOM      2  H2  UNL     1      -4.902   2.122 -27.331  1.00  0.00     0.188 HD
HETATM    3  C7  UNL     1      -5.927   1.635 -25.678  1.00  0.00     0.097 C 
HETATM    4  N3  UNL     1      -5.002   2.168 -24.736  1.00  0.00    -0.365 N 
ATOM      5  H3  UNL     1      -4.005   2.196 -24.948  1.00  0.00     0.162 HD
HETATM    6  C8  UNL     1      -5.500   2.672 -23.470  1.00  0.00     0.145 C 
HETATM    7  C9  UNL     1      -5.501   1.514 -22.497  1.00  0.00     0.036 C 
HETATM    8  C10 UNL     1      -6.754   0.685 -22.693  1.00  0.00     0.004 C 
HETATM    9  C11 UNL     1      -6.819   0.036 -24.044  1.00  0.00     0.013 C 
HETATM   10  C12 UNL     1      -7.154   0.995 -25.146  1.00  0.00     0.064 C 
HETATM   11  C13 UNL     1      -8.143   2.051 -24.670  1.00  0.00     0.088 C 
HETATM   12  S1  UNL     1      -7.204   3.278 -23.737  1.00  0.00    -0.143 SA
ENDROOT
BRANCH   1  13
HETATM   13  N1  UNL     1      -6.700   1.137 -27.793  1.00  0.00    -0.308 N 
HETATM   14  C6  UNL     1      -6.790   1.466 -29.037  1.00  0.00     0.004 C 
HETATM   15  C5  UNL     1      -5.906   2.453 -29.726  1.00  0.00     0.054 C 
HETATM   16  C14 UNL     1      -7.788   0.914 -29.976  1.00  0.00     0.062 C 
HETATM   17  C4  UNL     1      -6.747   2.776 -30.966  1.00  0.00     0.014 C 
HETATM   18  C3  UNL     1      -7.290   1.414 -31.310  1.00  0.00     0.013 C 
ATOM     19  H1  UNL     1      -7.354   0.451 -27.416  1.00  0.00     0.186 HD
BRANCH  18  20
HETATM   20  C2  UNL     1      -8.343   1.456 -32.338  1.00  0.00    -0.032 C 
HETATM   21  C1  UNL     1      -8.408   2.406 -33.232  1.00  0.00     0.007 C 
ENDBRANCH  18  20
ENDBRANCH   1  13
TORSDOF 2
ENDMDL
