MODEL 1
REMARK VINA RESULT: -8.405346035      0.000      0.000
REMARK  14 active torsions:
REMARK  status: ('A' for Active; 'I' for Inactive)
REMARK    1  A    between atoms: N1_1  and  C1_4 
REMARK    2  A    between atoms: N6_18  and  C7_19 
REMARK    3  A    between atoms: C8_20  and  O2_21 
REMARK    4  A    between atoms: O2_21  and  C9_22 
REMARK    5  A    between atoms: C9_22  and  C10_24 
REMARK    6  A    between atoms: C10_24  and  O4_25 
REMARK    7  A    between atoms: C10_24  and  C11_27 
REMARK    8  A    between atoms: C11_27  and  O5_28 
REMARK    9  A    between atoms: C12_33  and  C13_34 
REMARK   10  A    between atoms: C13_34  and  O6_35 
REMARK   11  A    between atoms: C13_34  and  C14_37 
REMARK   12  A    between atoms: C14_37  and  O7_38 
REMARK   13  A    between atoms: C14_37  and  N8_40 
REMARK   14  A    between atoms: N8_40  and  N9_42 
ROOT
HETATM    1  C7  UNL     1      29.004 -10.559  26.406  1.00  0.00     0.185 C 
HETATM    2  C8  UNL     1      29.304  -9.089  26.286  1.00  0.00     0.356 C 
HETATM    3  N7  UNL     1      30.328  -9.575  25.329  1.00  0.00    -0.037 N 
ATOM      4  H71 UNL     1      31.261  -9.870  25.617  1.00  0.00     0.281 HD
ATOM      5  H72 UNL     1      30.796  -8.965  24.658  1.00  0.00     0.281 HD
HETATM    6  C12 UNL     1      29.266 -10.530  24.945  1.00  0.00     0.249 C 
ENDROOT
BRANCH   1   7
HETATM    7  N6  UNL     1      27.823 -11.012  26.969  1.00  0.00    -0.284 N 
HETATM    8  C3  UNL     1      26.599 -10.974  26.419  1.00  0.00     0.143 A 
HETATM    9  N3  UNL     1      26.469 -10.453  25.203  1.00  0.00    -0.336 N 
HETATM   10  C4  UNL     1      25.481 -11.452  27.062  1.00  0.00     0.122 A 
HETATM   11  C2  UNL     1      25.302 -10.364  24.560  1.00  0.00     0.183 A 
ATOM     12  H3  UNL     1      27.306 -10.103  24.736  1.00  0.00     0.168 HD
HETATM   13  N2  UNL     1      24.200 -10.827  25.175  1.00  0.00    -0.337 N 
HETATM   14  C1  UNL     1      24.264 -11.362  26.396  1.00  0.00     0.131 A 
ATOM     15  H2  UNL     1      23.300 -10.768  24.699  1.00  0.00     0.168 HD
HETATM   16  N4  UNL     1      25.553 -11.992  28.298  1.00  0.00    -0.334 N 
HETATM   17  C5  UNL     1      26.762 -12.045  28.877  1.00  0.00     0.185 A 
ATOM     18  H4  UNL     1      24.721 -12.345  28.771  1.00  0.00     0.167 HD
HETATM   19  N5  UNL     1      26.915 -12.610  30.200  1.00  0.00    -0.077 NA
HETATM   20  C6  UNL     1      27.845 -11.568  28.223  1.00  0.00     0.291 A 
HETATM   21  O1  UNL     1      28.971 -11.643  28.818  1.00  0.00    -0.264 OA
BRANCH  14  22
HETATM   22  N1  UNL     1      23.215 -11.805  26.988  1.00  0.00    -0.383 N 
ATOM     23  H12 UNL     1      22.894 -11.320  27.826  1.00  0.00     0.157 HD
ATOM     24  H11 UNL     1      22.711 -12.620  26.638  1.00  0.00     0.157 HD
ENDBRANCH  14  22
ENDBRANCH   1   7
BRANCH   2  25
HETATM   25  O2  UNL     1      29.846  -8.479  27.426  1.00  0.00    -0.283 OA
BRANCH  25  26
HETATM   26  C9  UNL     1      30.531  -7.278  27.277  1.00  0.00     0.292 C 
HETATM   27  O3  UNL     1      29.876  -6.216  27.105  1.00  0.00    -0.262 OA
BRANCH  26  28
HETATM   28  C10 UNL     1      31.997  -7.162  27.305  1.00  0.00     0.241 C 
BRANCH  28  29
HETATM   29  O4  UNL     1      32.573  -7.883  26.278  1.00  0.00    -0.383 OA
ATOM     30  H4  UNL     1      33.301  -8.406  26.593  1.00  0.00     0.210 HD
ENDBRANCH  28  29
BRANCH  28  31
HETATM   31  C11 UNL     1      32.598  -7.527  28.635  1.00  0.00     0.206 C 
BRANCH  31  32
HETATM   32  O5  UNL     1      31.681  -7.157  29.621  1.00  0.00    -0.398 OA
ATOM     33  H5  UNL     1      31.377  -7.954  30.038  1.00  0.00     0.209 HD
ENDBRANCH  31  32
ENDBRANCH  28  31
ENDBRANCH  26  28
ENDBRANCH  25  26
ENDBRANCH   2  25
BRANCH   6  34
HETATM   34  C13 UNL     1      29.741 -11.836  24.423  1.00  0.00     0.200 C 
BRANCH  34  35
HETATM   35  O6  UNL     1      30.926 -11.666  23.709  1.00  0.00    -0.389 OA
ATOM     36  H6  UNL     1      31.655 -11.550  24.307  1.00  0.00     0.210 HD
ENDBRANCH  34  35
BRANCH  34  37
HETATM   37  C14 UNL     1      28.775 -12.566  23.550  1.00  0.00     0.263 C 
BRANCH  37  38
HETATM   38  O7  UNL     1      27.957 -11.613  22.932  1.00  0.00    -0.373 OA
ATOM     39  H7  UNL     1      27.155 -12.049  22.669  1.00  0.00     0.212 HD
ENDBRANCH  37  38
BRANCH  37  40
HETATM   40  N8  UNL     1      27.966 -13.526  24.177  1.00  0.00    -0.312 N 
ATOM     41  H8  UNL     1      27.040 -13.746  23.812  1.00  0.00     0.182 HD
BRANCH  40  42
HETATM   42  N9  UNL     1      28.446 -14.157  25.280  1.00  0.00    -0.347 N 
ATOM     43  H92 UNL     1      29.076 -13.663  25.912  1.00  0.00     0.176 HD
ATOM     44  H91 UNL     1      28.160 -15.121  25.451  1.00  0.00     0.176 HD
ENDBRANCH  40  42
ENDBRANCH  37  40
ENDBRANCH  34  37
ENDBRANCH   6  34
TORSDOF 14
ENDMDL
MODEL 2
REMARK VINA RESULT: -8.241145490      0.672      1.203
REMARK  14 active torsions:
REMARK  status: ('A' for Active; 'I' for Inactive)
REMARK    1  A    between atoms: N1_1  and  C1_4 
REMARK    2  A    between atoms: N6_18  and  C7_19 
REMARK    3  A    between atoms: C8_20  and  O2_21 
REMARK    4  A    between atoms: O2_21  and  C9_22 
REMARK    5  A    between atoms: C9_22  and  C10_24 
REMARK    6  A    between atoms: C10_24  and  O4_25 
REMARK    7  A    between atoms: C10_24  and  C11_27 
REMARK    8  A    between atoms: C11_27  and  O5_28 
REMARK    9  A    between atoms: C12_33  and  C13_34 
REMARK   10  A    between atoms: C13_34  and  O6_35 
REMARK   11  A    between atoms: C13_34  and  C14_37 
REMARK   12  A    between atoms: C14_37  and  O7_38 
REMARK   13  A    between atoms: C14_37  and  N8_40 
REMARK   14  A    between atoms: N8_40  and  N9_42 
ROOT
HETATM    1  C7  UNL     1      28.980 -10.765  26.594  1.00  0.00     0.185 C 
HETATM    2  C8  UNL     1      29.346  -9.305  26.631  1.00  0.00     0.356 C 
HETATM    3  N7  UNL     1      30.403  -9.748  25.688  1.00  0.00    -0.037 N 
ATOM      4  H71 UNL     1      31.305 -10.110  25.996  1.00  0.00     0.281 HD
ATOM      5  H72 UNL     1      30.933  -9.100  25.104  1.00  0.00     0.281 HD
HETATM    6  C12 UNL     1      29.327 -10.613  25.159  1.00  0.00     0.249 C 
ENDROOT
BRANCH   1   7
HETATM    7  N6  UNL     1      27.751 -11.213  27.048  1.00  0.00    -0.284 N 
HETATM    8  C3  UNL     1      26.566 -11.082  26.432  1.00  0.00     0.143 A 
HETATM    9  N3  UNL     1      26.530 -10.461  25.257  1.00  0.00    -0.336 N 
HETATM   10  C4  UNL     1      25.393 -11.564  26.967  1.00  0.00     0.122 A 
HETATM   11  C2  UNL     1      25.408 -10.274  24.556  1.00  0.00     0.183 A 
ATOM     12  H3  UNL     1      27.406 -10.108  24.871  1.00  0.00     0.168 HD
HETATM   13  N2  UNL     1      24.255 -10.738  25.065  1.00  0.00    -0.337 N 
HETATM   14  C1  UNL     1      24.224 -11.372  26.240  1.00  0.00     0.131 A 
ATOM     15  H2  UNL     1      23.389 -10.606  24.544  1.00  0.00     0.168 HD
HETATM   16  N4  UNL     1      25.370 -12.204  28.156  1.00  0.00    -0.334 N 
HETATM   17  C5  UNL     1      26.538 -12.351  28.799  1.00  0.00     0.185 A 
ATOM     18  H4  UNL     1      24.499 -12.560  28.549  1.00  0.00     0.167 HD
HETATM   19  N5  UNL     1      26.589 -13.027  30.078  1.00  0.00    -0.077 NA
HETATM   20  C6  UNL     1      27.676 -11.868  28.251  1.00  0.00     0.291 A 
HETATM   21  O1  UNL     1      28.759 -12.036  28.903  1.00  0.00    -0.264 OA
BRANCH  14  22
HETATM   22  N1  UNL     1      23.126 -11.818  26.731  1.00  0.00    -0.383 N 
ATOM     23  H12 UNL     1      22.257 -11.608  26.237  1.00  0.00     0.157 HD
ATOM     24  H11 UNL     1      23.111 -12.367  27.590  1.00  0.00     0.157 HD
ENDBRANCH  14  22
ENDBRANCH   1   7
BRANCH   2  25
HETATM   25  O2  UNL     1      29.846  -8.829  27.852  1.00  0.00    -0.283 OA
BRANCH  25  26
HETATM   26  C9  UNL     1      30.743  -7.767  27.834  1.00  0.00     0.292 C 
HETATM   27  O3  UNL     1      31.341  -7.453  28.897  1.00  0.00    -0.262 OA
BRANCH  26  28
HETATM   28  C10 UNL     1      31.044  -6.967  26.637  1.00  0.00     0.241 C 
BRANCH  28  29
HETATM   29  O4  UNL     1      32.275  -7.306  26.109  1.00  0.00    -0.383 OA
ATOM     30  H4  UNL     1      32.243  -7.337  25.160  1.00  0.00     0.210 HD
ENDBRANCH  28  29
BRANCH  28  31
HETATM   31  C11 UNL     1      30.938  -5.484  26.870  1.00  0.00     0.206 C 
BRANCH  31  32
HETATM   32  O5  UNL     1      30.551  -4.900  25.662  1.00  0.00    -0.398 OA
ATOM     33  H5  UNL     1      30.081  -5.560  25.166  1.00  0.00     0.209 HD
ENDBRANCH  31  32
ENDBRANCH  28  31
ENDBRANCH  26  28
ENDBRANCH  25  26
ENDBRANCH   2  25
BRANCH   6  34
HETATM   34  C13 UNL     1      29.777 -11.886  24.542  1.00  0.00     0.200 C 
BRANCH  34  35
HETATM   35  O6  UNL     1      30.934 -11.673  23.791  1.00  0.00    -0.389 OA
ATOM     36  H6  UNL     1      30.967 -12.283  23.063  1.00  0.00     0.210 HD
ENDBRANCH  34  35
BRANCH  34  37
HETATM   37  C14 UNL     1      28.775 -12.562  23.666  1.00  0.00     0.263 C 
BRANCH  37  38
HETATM   38  O7  UNL     1      27.994 -11.567  23.067  1.00  0.00    -0.373 OA
ATOM     39  H7  UNL     1      27.960 -10.828  23.663  1.00  0.00     0.212 HD
ENDBRANCH  37  38
BRANCH  37  40
HETATM   40  N8  UNL     1      27.931 -13.496  24.286  1.00  0.00    -0.312 N 
ATOM     41  H8  UNL     1      26.946 -13.557  24.032  1.00  0.00     0.182 HD
BRANCH  40  42
HETATM   42  N9  UNL     1      28.456 -14.316  25.232  1.00  0.00    -0.347 N 
ATOM     43  H92 UNL     1      28.436 -15.326  25.095  1.00  0.00     0.176 HD
ATOM     44  H91 UNL     1      28.863 -13.896  26.068  1.00  0.00     0.176 HD
ENDBRANCH  40  42
ENDBRANCH  37  40
ENDBRANCH  34  37
ENDBRANCH   6  34
TORSDOF 14
ENDMDL
MODEL 3
REMARK VINA RESULT: -7.871764965      3.100      6.467
REMARK  14 active torsions:
REMARK  status: ('A' for Active; 'I' for Inactive)
REMARK    1  A    between atoms: N1_1  and  C1_4 
REMARK    2  A    between atoms: N6_18  and  C7_19 
REMARK    3  A    between atoms: C8_20  and  O2_21 
REMARK    4  A    between atoms: O2_21  and  C9_22 
REMARK    5  A    between atoms: C9_22  and  C10_24 
REMARK    6  A    between atoms: C10_24  and  O4_25 
REMARK    7  A    between atoms: C10_24  and  C11_27 
REMARK    8  A    between atoms: C11_27  and  O5_28 
REMARK    9  A    between atoms: C12_33  and  C13_34 
REMARK   10  A    between atoms: C13_34  and  O6_35 
REMARK   11  A    between atoms: C13_34  and  C14_37 
REMARK   12  A    between atoms: C14_37  and  O7_38 
REMARK   13  A    between atoms: C14_37  and  N8_40 
REMARK   14  A    between atoms: N8_40  and  N9_42 
ROOT
HETATM    1  C7  UNL     1      27.105 -11.906  26.343  1.00  0.00     0.185 C 
HETATM    2  C8  UNL     1      26.862 -13.263  26.948  1.00  0.00     0.356 C 
HETATM    3  N7  UNL     1      25.483 -12.736  27.090  1.00  0.00    -0.037 N 
ATOM      4  H71 UNL     1      25.179 -12.185  27.893  1.00  0.00     0.281 HD
ATOM      5  H72 UNL     1      24.676 -13.333  27.275  1.00  0.00     0.281 HD
HETATM    6  C12 UNL     1      25.758 -12.141  25.765  1.00  0.00     0.249 C 
ENDROOT
BRANCH   1   7
HETATM    7  N6  UNL     1      28.235 -11.645  25.586  1.00  0.00    -0.284 N 
HETATM    8  C3  UNL     1      29.246 -10.820  25.902  1.00  0.00     0.143 A 
HETATM    9  N3  UNL     1      29.190 -10.168  27.059  1.00  0.00    -0.336 N 
HETATM   10  C4  UNL     1      30.331 -10.626  25.079  1.00  0.00     0.122 A 
HETATM   11  C2  UNL     1      30.138  -9.324  27.476  1.00  0.00     0.183 A 
ATOM     12  H3  UNL     1      28.381 -10.321  27.661  1.00  0.00     0.168 HD
HETATM   13  N2  UNL     1      31.204  -9.123  26.683  1.00  0.00    -0.337 N 
HETATM   14  C1  UNL     1      31.320  -9.748  25.509  1.00  0.00     0.131 A 
ATOM     15  H2  UNL     1      31.939  -8.483  26.985  1.00  0.00     0.168 HD
HETATM   16  N4  UNL     1      30.441 -11.261  23.893  1.00  0.00    -0.334 N 
HETATM   17  C5  UNL     1      29.447 -12.093  23.546  1.00  0.00     0.185 A 
ATOM     18  H4  UNL     1      31.247 -11.115  23.285  1.00  0.00     0.167 HD
HETATM   19  N5  UNL     1      29.497 -12.808  22.288  1.00  0.00    -0.077 NA
HETATM   20  C6  UNL     1      28.391 -12.266  24.373  1.00  0.00     0.291 A 
HETATM   21  O1  UNL     1      27.475 -13.068  23.995  1.00  0.00    -0.264 OA
BRANCH  14  22
HETATM   22  N1  UNL     1      32.336  -9.560  24.748  1.00  0.00    -0.383 N 
ATOM     23  H12 UNL     1      33.115 -10.216  24.815  1.00  0.00     0.157 HD
ATOM     24  H11 UNL     1      32.372  -8.780  24.093  1.00  0.00     0.157 HD
ENDBRANCH  14  22
ENDBRANCH   1   7
BRANCH   2  25
HETATM   25  O2  UNL     1      27.498 -13.510  28.173  1.00  0.00    -0.283 OA
BRANCH  25  26
HETATM   26  C9  UNL     1      26.842 -13.155  29.347  1.00  0.00     0.292 C 
HETATM   27  O3  UNL     1      26.991 -11.991  29.804  1.00  0.00    -0.262 OA
BRANCH  26  28
HETATM   28  C10 UNL     1      25.970 -14.065  30.106  1.00  0.00     0.241 C 
BRANCH  28  29
HETATM   29  O4  UNL     1      24.697 -14.095  29.573  1.00  0.00    -0.383 OA
ATOM     30  H4  UNL     1      24.177 -14.787  29.965  1.00  0.00     0.210 HD
ENDBRANCH  28  29
BRANCH  28  31
HETATM   31  C11 UNL     1      25.939 -13.766  31.580  1.00  0.00     0.206 C 
BRANCH  31  32
HETATM   32  O5  UNL     1      25.469 -14.911  32.227  1.00  0.00    -0.398 OA
ATOM     33  H5  UNL     1      26.227 -15.412  32.505  1.00  0.00     0.209 HD
ENDBRANCH  31  32
ENDBRANCH  28  31
ENDBRANCH  26  28
ENDBRANCH  25  26
ENDBRANCH   2  25
BRANCH   6  34
HETATM   34  C13 UNL     1      25.035 -10.879  25.469  1.00  0.00     0.200 C 
BRANCH  34  35
HETATM   35  O6  UNL     1      23.716 -10.966  25.914  1.00  0.00    -0.389 OA
ATOM     36  H6  UNL     1      23.669 -11.507  26.693  1.00  0.00     0.210 HD
ENDBRANCH  34  35
BRANCH  34  37
HETATM   37  C14 UNL     1      25.013 -10.476  24.032  1.00  0.00     0.263 C 
BRANCH  37  38
HETATM   38  O7  UNL     1      24.983 -11.646  23.263  1.00  0.00    -0.373 OA
ATOM     39  H7  UNL     1      25.262 -11.419  22.383  1.00  0.00     0.212 HD
ENDBRANCH  37  38
BRANCH  37  40
HETATM   40  N8  UNL     1      26.071  -9.666  23.593  1.00  0.00    -0.312 N 
ATOM     41  H8  UNL     1      26.768  -9.317  24.250  1.00  0.00     0.182 HD
BRANCH  40  42
HETATM   42  N9  UNL     1      26.145  -9.356  22.273  1.00  0.00    -0.347 N 
ATOM     43  H92 UNL     1      25.335  -9.505  21.671  1.00  0.00     0.176 HD
ATOM     44  H91 UNL     1      27.020  -8.978  21.910  1.00  0.00     0.176 HD
ENDBRANCH  40  42
ENDBRANCH  37  40
ENDBRANCH  34  37
ENDBRANCH   6  34
TORSDOF 14
ENDMDL
MODEL 4
REMARK VINA RESULT: -7.839920009      1.309      1.615
REMARK  14 active torsions:
REMARK  status: ('A' for Active; 'I' for Inactive)
REMARK    1  A    between atoms: N1_1  and  C1_4 
REMARK    2  A    between atoms: N6_18  and  C7_19 
REMARK    3  A    between atoms: C8_20  and  O2_21 
REMARK    4  A    between atoms: O2_21  and  C9_22 
REMARK    5  A    between atoms: C9_22  and  C10_24 
REMARK    6  A    between atoms: C10_24  and  O4_25 
REMARK    7  A    between atoms: C10_24  and  C11_27 
REMARK    8  A    between atoms: C11_27  and  O5_28 
REMARK    9  A    between atoms: C12_33  and  C13_34 
REMARK   10  A    between atoms: C13_34  and  O6_35 
REMARK   11  A    between atoms: C13_34  and  C14_37 
REMARK   12  A    between atoms: C14_37  and  O7_38 
REMARK   13  A    between atoms: C14_37  and  N8_40 
REMARK   14  A    between atoms: N8_40  and  N9_42 
ROOT
HETATM    1  C7  UNL     1      29.034 -11.171  25.940  1.00  0.00     0.185 C 
HETATM    2  C8  UNL     1      29.552  -9.816  25.538  1.00  0.00     0.356 C 
HETATM    3  N7  UNL     1      30.258 -10.611  24.503  1.00  0.00    -0.037 N 
ATOM      4  H71 UNL     1      31.165 -11.050  24.662  1.00  0.00     0.281 HD
ATOM      5  H72 UNL     1      30.677 -10.194  23.671  1.00  0.00     0.281 HD
HETATM    6  C12 UNL     1      28.992 -11.373  24.470  1.00  0.00     0.249 C 
ENDROOT
BRANCH   1   7
HETATM    7  N6  UNL     1      27.934 -11.306  26.770  1.00  0.00    -0.284 N 
HETATM    8  C3  UNL     1      26.641 -11.202  26.422  1.00  0.00     0.143 A 
HETATM    9  N3  UNL     1      26.349 -10.942  25.151  1.00  0.00    -0.336 N 
HETATM   10  C4  UNL     1      25.614 -11.353  27.324  1.00  0.00     0.122 A 
HETATM   11  C2  UNL     1      25.101 -10.817  24.692  1.00  0.00     0.183 A 
ATOM     12  H3  UNL     1      27.119 -10.832  24.491  1.00  0.00     0.168 HD
HETATM   13  N2  UNL     1      24.087 -10.962  25.561  1.00  0.00    -0.337 N 
HETATM   14  C1  UNL     1      24.313 -11.224  26.851  1.00  0.00     0.131 A 
ATOM     15  H2  UNL     1      23.126 -10.871  25.230  1.00  0.00     0.168 HD
HETATM   16  N4  UNL     1      25.851 -11.618  28.627  1.00  0.00    -0.334 N 
HETATM   17  C5  UNL     1      27.132 -11.728  29.009  1.00  0.00     0.185 A 
ATOM     18  H4  UNL     1      25.087 -11.729  29.293  1.00  0.00     0.167 HD
HETATM   19  N5  UNL     1      27.463 -12.011  30.389  1.00  0.00    -0.077 NA
HETATM   20  C6  UNL     1      28.124 -11.575  28.102  1.00  0.00     0.291 A 
HETATM   21  O1  UNL     1      29.324 -11.690  28.518  1.00  0.00    -0.264 OA
BRANCH  14  22
HETATM   22  N1  UNL     1      23.349 -11.363  27.685  1.00  0.00    -0.383 N 
ATOM     23  H12 UNL     1      22.591 -12.002  27.442  1.00  0.00     0.157 HD
ATOM     24  H11 UNL     1      23.331 -10.854  28.568  1.00  0.00     0.157 HD
ENDBRANCH  14  22
ENDBRANCH   1   7
BRANCH   2  25
HETATM   25  O2  UNL     1      30.415  -9.194  26.452  1.00  0.00    -0.283 OA
BRANCH  25  26
HETATM   26  C9  UNL     1      30.332  -7.815  26.612  1.00  0.00     0.292 C 
HETATM   27  O3  UNL     1      29.202  -7.284  26.776  1.00  0.00    -0.262 OA
BRANCH  26  28
HETATM   28  C10 UNL     1      31.497  -6.917  26.599  1.00  0.00     0.241 C 
BRANCH  28  29
HETATM   29  O4  UNL     1      32.457  -7.334  27.499  1.00  0.00    -0.383 OA
ATOM     30  H4  UNL     1      33.187  -7.749  27.054  1.00  0.00     0.210 HD
ENDBRANCH  28  29
BRANCH  28  31
HETATM   31  C11 UNL     1      31.137  -5.472  26.814  1.00  0.00     0.206 C 
BRANCH  31  32
HETATM   32  O5  UNL     1      30.560  -5.006  25.630  1.00  0.00    -0.398 OA
ATOM     33  H5  UNL     1      29.664  -5.321  25.609  1.00  0.00     0.209 HD
ENDBRANCH  31  32
ENDBRANCH  28  31
ENDBRANCH  26  28
ENDBRANCH  25  26
ENDBRANCH   2  25
BRANCH   6  34
HETATM   34  C13 UNL     1      29.115 -12.801  24.086  1.00  0.00     0.200 C 
BRANCH  34  35
HETATM   35  O6  UNL     1      29.359 -12.911  22.717  1.00  0.00    -0.389 OA
ATOM     36  H6  UNL     1      29.847 -13.705  22.534  1.00  0.00     0.210 HD
ENDBRANCH  34  35
BRANCH  34  37
HETATM   37  C14 UNL     1      27.938 -13.658  24.416  1.00  0.00     0.263 C 
BRANCH  37  38
HETATM   38  O7  UNL     1      28.224 -14.333  25.609  1.00  0.00    -0.373 OA
ATOM     39  H7  UNL     1      28.097 -15.261  25.452  1.00  0.00     0.212 HD
ENDBRANCH  37  38
BRANCH  37  40
HETATM   40  N8  UNL     1      27.551 -14.592  23.442  1.00  0.00    -0.312 N 
ATOM     41  H8  UNL     1      26.787 -14.388  22.799  1.00  0.00     0.182 HD
BRANCH  40  42
HETATM   42  N9  UNL     1      28.217 -15.773  23.377  1.00  0.00    -0.347 N 
ATOM     43  H92 UNL     1      27.914 -16.558  23.953  1.00  0.00     0.176 HD
ATOM     44  H91 UNL     1      29.015 -15.847  22.746  1.00  0.00     0.176 HD
ENDBRANCH  40  42
ENDBRANCH  37  40
ENDBRANCH  34  37
ENDBRANCH   6  34
TORSDOF 14
ENDMDL
MODEL 5
REMARK VINA RESULT: -7.680280497      2.832      6.021
REMARK  14 active torsions:
REMARK  status: ('A' for Active; 'I' for Inactive)
REMARK    1  A    between atoms: N1_1  and  C1_4 
REMARK    2  A    between atoms: N6_18  and  C7_19 
REMARK    3  A    between atoms: C8_20  and  O2_21 
REMARK    4  A    between atoms: O2_21  and  C9_22 
REMARK    5  A    between atoms: C9_22  and  C10_24 
REMARK    6  A    between atoms: C10_24  and  O4_25 
REMARK    7  A    between atoms: C10_24  and  C11_27 
REMARK    8  A    between atoms: C11_27  and  O5_28 
REMARK    9  A    between atoms: C12_33  and  C13_34 
REMARK   10  A    between atoms: C13_34  and  O6_35 
REMARK   11  A    between atoms: C13_34  and  C14_37 
REMARK   12  A    between atoms: C14_37  and  O7_38 
REMARK   13  A    between atoms: C14_37  and  N8_40 
REMARK   14  A    between atoms: N8_40  and  N9_42 
ROOT
HETATM    1  C7  UNL     1      26.945 -12.095  26.176  1.00  0.00     0.185 C 
HETATM    2  C8  UNL     1      26.657 -13.476  26.702  1.00  0.00     0.356 C 
HETATM    3  N7  UNL     1      25.290 -12.920  26.853  1.00  0.00    -0.037 N 
ATOM      4  H71 UNL     1      24.988 -12.406  27.681  1.00  0.00     0.281 HD
ATOM      5  H72 UNL     1      24.465 -13.505  26.993  1.00  0.00     0.281 HD
HETATM    6  C12 UNL     1      25.602 -12.262  25.567  1.00  0.00     0.249 C 
ENDROOT
BRANCH   1   7
HETATM    7  N6  UNL     1      28.093 -11.823  25.452  1.00  0.00    -0.284 N 
HETATM    8  C3  UNL     1      29.089 -10.992  25.798  1.00  0.00     0.143 A 
HETATM    9  N3  UNL     1      28.997 -10.345  26.956  1.00  0.00    -0.336 N 
HETATM   10  C4  UNL     1      30.195 -10.787  25.006  1.00  0.00     0.122 A 
HETATM   11  C2  UNL     1      29.927  -9.496  27.401  1.00  0.00     0.183 A 
ATOM     12  H3  UNL     1      28.173 -10.506  27.535  1.00  0.00     0.168 HD
HETATM   13  N2  UNL     1      31.013  -9.285  26.639  1.00  0.00    -0.337 N 
HETATM   14  C1  UNL     1      31.165  -9.904  25.466  1.00  0.00     0.131 A 
ATOM     15  H2  UNL     1      31.735  -8.640  26.963  1.00  0.00     0.168 HD
HETATM   16  N4  UNL     1      30.342 -11.418  23.821  1.00  0.00    -0.334 N 
HETATM   17  C5  UNL     1      29.364 -12.255  23.444  1.00  0.00     0.185 A 
ATOM     18  H4  UNL     1      31.163 -11.263  23.236  1.00  0.00     0.167 HD
HETATM   19  N5  UNL     1      29.453 -12.965  22.186  1.00  0.00    -0.077 NA
HETATM   20  C6  UNL     1      28.287 -12.439  24.241  1.00  0.00     0.291 A 
HETATM   21  O1  UNL     1      27.387 -13.246  23.836  1.00  0.00    -0.264 OA
BRANCH  14  22
HETATM   22  N1  UNL     1      32.200  -9.707  24.734  1.00  0.00    -0.383 N 
ATOM     23  H12 UNL     1      32.796  -8.907  24.948  1.00  0.00     0.157 HD
ATOM     24  H11 UNL     1      32.428 -10.327  23.957  1.00  0.00     0.157 HD
ENDBRANCH  14  22
ENDBRANCH   1   7
BRANCH   2  25
HETATM   25  O2  UNL     1      27.267 -13.806  27.921  1.00  0.00    -0.283 OA
BRANCH  25  26
HETATM   26  C9  UNL     1      26.639 -13.427  29.103  1.00  0.00     0.292 C 
HETATM   27  O3  UNL     1      25.859 -14.237  29.670  1.00  0.00    -0.262 OA
BRANCH  26  28
HETATM   28  C10 UNL     1      26.826 -12.118  29.748  1.00  0.00     0.241 C 
BRANCH  28  29
HETATM   29  O4  UNL     1      26.400 -11.093  28.927  1.00  0.00    -0.383 OA
ATOM     30  H4  UNL     1      25.482 -11.193  28.703  1.00  0.00     0.210 HD
ENDBRANCH  28  29
BRANCH  28  31
HETATM   31  C11 UNL     1      28.234 -11.887  30.227  1.00  0.00     0.206 C 
BRANCH  31  32
HETATM   32  O5  UNL     1      29.093 -12.265  29.193  1.00  0.00    -0.398 OA
ATOM     33  H5  UNL     1      28.562 -12.384  28.414  1.00  0.00     0.209 HD
ENDBRANCH  31  32
ENDBRANCH  28  31
ENDBRANCH  26  28
ENDBRANCH  25  26
ENDBRANCH   2  25
BRANCH   6  34
HETATM   34  C13 UNL     1      24.916 -10.966  25.330  1.00  0.00     0.200 C 
BRANCH  34  35
HETATM   35  O6  UNL     1      23.588 -11.042  25.748  1.00  0.00    -0.389 OA
ATOM     36  H6  UNL     1      23.043 -11.377  25.045  1.00  0.00     0.210 HD
ENDBRANCH  34  35
BRANCH  34  37
HETATM   37  C14 UNL     1      24.930 -10.484  23.918  1.00  0.00     0.263 C 
BRANCH  37  38
HETATM   38  O7  UNL     1      24.879 -11.607  23.084  1.00  0.00    -0.373 OA
ATOM     39  H7  UNL     1      24.365 -11.375  22.319  1.00  0.00     0.212 HD
ENDBRANCH  37  38
BRANCH  37  40
HETATM   40  N8  UNL     1      26.019  -9.682  23.541  1.00  0.00    -0.312 N 
ATOM     41  H8  UNL     1      26.702  -9.373  24.231  1.00  0.00     0.182 HD
BRANCH  40  42
HETATM   42  N9  UNL     1      26.142  -9.329  22.236  1.00  0.00    -0.347 N 
ATOM     43  H92 UNL     1      25.773  -9.941  21.508  1.00  0.00     0.176 HD
ATOM     44  H91 UNL     1      26.607  -8.449  22.012  1.00  0.00     0.176 HD
ENDBRANCH  40  42
ENDBRANCH  37  40
ENDBRANCH  34  37
ENDBRANCH   6  34
TORSDOF 14
ENDMDL
