MODEL 1
REMARK VINA RESULT: -8.778382709      0.000      0.000
REMARK  12 active torsions:
REMARK  status: ('A' for Active; 'I' for Inactive)
REMARK    1  A    between atoms: C2_6  and  C3_7 
REMARK    2  A    between atoms: C3_7  and  O2_8 
REMARK    3  A    between atoms: C3_7  and  N2_10 
REMARK    4  A    between atoms: N2_10  and  C4_12 
REMARK    5  A    between atoms: C4_12  and  C5_13 
REMARK    6  A    between atoms: C4_12  and  C6_18 
REMARK    7  A    between atoms: C5_13  and  O3_14 
REMARK    8  A    between atoms: O3_14  and  N3_15 
REMARK    9  A    between atoms: N5_26  and  N6_27 
REMARK   10  A    between atoms: N6_27  and  C9_29 
REMARK   11  A    between atoms: C11_33  and  N8_34 
REMARK   12  A    between atoms: C12_38  and  O8_39 
ROOT
HETATM    1  N1  UNL     1      27.387  -9.511  25.635  1.00  0.00    -0.380 N 
ATOM      2  H11 UNL     1      26.831 -10.297  25.298  1.00  0.00     0.158 HD
ATOM      3  H12 UNL     1      26.865  -8.635  25.614  1.00  0.00     0.158 HD
HETATM    4  C1  UNL     1      28.565  -9.595  26.030  1.00  0.00     0.158 C 
HETATM    5  O1  UNL     1      29.340  -8.501  26.499  1.00  0.00    -0.317 OA
HETATM    6  C2  UNL     1      30.748  -8.542  26.399  1.00  0.00     0.270 C 
HETATM    7  C7  UNL     1      31.184  -9.498  25.379  1.00  0.00     0.264 C 
HETATM    8  O6  UNL     1      32.312  -9.478  24.773  1.00  0.00    -0.270 OA
HETATM    9  N4  UNL     1      30.352 -10.574  24.987  1.00  0.00    -0.234 N 
HETATM   10  C8  UNL     1      29.736 -11.628  24.287  1.00  0.00     0.351 C 
HETATM   11  O7  UNL     1      29.869 -12.048  23.074  1.00  0.00    -0.245 OA
HETATM   12  N5  UNL     1      28.949 -12.024  25.389  1.00  0.00    -0.195 N 
HETATM   13  C13 UNL     1      29.325 -10.869  26.060  1.00  0.00     0.300 C 
ENDROOT
BRANCH  12  14
HETATM   14  N6  UNL     1      28.162 -13.158  25.645  1.00  0.00    -0.124 N 
ATOM     15  H6  UNL     1      28.394 -14.064  25.238  1.00  0.00     0.206 HD
BRANCH  14  16
HETATM   16  C9  UNL     1      27.012 -12.997  26.504  1.00  0.00     0.691 C 
HETATM   17  N7  UNL     1      27.155 -12.960  27.787  1.00  0.00    -0.223 N 
HETATM   18  C10 UNL     1      25.975 -12.811  28.609  1.00  0.00     0.175 C 
ATOM     19  H7  UNL     1      28.080 -13.035  28.212  1.00  0.00     0.177 HD
HETATM   20  C11 UNL     1      24.952 -11.882  28.051  1.00  0.00     0.250 C 
HETATM   21  C12 UNL     1      24.706 -12.034  26.576  1.00  0.00     0.267 C 
HETATM   22  N9  UNL     1      25.719 -12.892  25.958  1.00  0.00    -0.197 N 
ATOM     23  H9  UNL     1      25.484 -13.422  25.118  1.00  0.00     0.180 HD
BRANCH  20  24
HETATM   24  N8  UNL     1      25.166 -10.498  28.438  1.00  0.00    -0.069 N 
ATOM     25  H83 UNL     1      24.552 -10.238  29.211  1.00  0.00     0.275 HD
ATOM     26  H82 UNL     1      26.070 -10.385  28.897  1.00  0.00     0.275 HD
ATOM     27  H81 UNL     1      25.068  -9.844  27.661  1.00  0.00     0.275 HD
ENDBRANCH  20  24
BRANCH  21  28
HETATM   28  O8  UNL     1      24.887 -10.768  25.997  1.00  0.00    -0.374 OA
ATOM     29  H8  UNL     1      25.314 -10.904  25.159  1.00  0.00     0.212 HD
ENDBRANCH  21  28
ENDBRANCH  14  16
ENDBRANCH  12  14
BRANCH   6  30
HETATM   30  C3  UNL     1      31.313  -7.156  26.269  1.00  0.00     0.253 C 
BRANCH  30  31
HETATM   31  O2  UNL     1      32.735  -7.340  26.401  1.00  0.00    -0.374 OA
ATOM     32  H2  UNL     1      33.110  -6.671  25.840  1.00  0.00     0.212 HD
ENDBRANCH  30  31
BRANCH  30  33
HETATM   33  N2  UNL     1      30.929  -6.311  27.274  1.00  0.00    -0.379 N 
ATOM     34  H2  UNL     1      29.926  -6.373  27.447  1.00  0.00     0.156 HD
BRANCH  33  35
HETATM   35  C4  UNL     1      31.516  -5.415  28.103  1.00  0.00     0.207 C 
BRANCH  35  36
HETATM   36  C5  UNL     1      31.749  -6.019  29.531  1.00  0.00     0.236 C 
BRANCH  36  37
HETATM   37  O3  UNL     1      32.108  -7.288  29.395  1.00  0.00    -0.285 OA
BRANCH  37  38
HETATM   38  N3  UNL     1      33.248  -7.777  29.166  1.00  0.00    -0.311 N 
ATOM     39  H32 UNL     1      33.474  -7.863  28.175  1.00  0.00     0.184 HD
ATOM     40  H31 UNL     1      33.962  -8.090  29.824  1.00  0.00     0.184 HD
ENDBRANCH  37  38
ENDBRANCH  36  37
ENDBRANCH  35  36
BRANCH  35  41
HETATM   41  C6  UNL     1      30.736  -4.185  28.284  1.00  0.00     0.198 C 
HETATM   42  O4  UNL     1      29.910  -3.991  29.171  1.00  0.00    -0.646 OA
HETATM   43  O5  UNL     1      30.967  -3.124  27.356  1.00  0.00    -0.646 OA
ENDBRANCH  35  41
ENDBRANCH  33  35
ENDBRANCH  30  33
ENDBRANCH   6  30
TORSDOF 12
ENDMDL
MODEL 2
REMARK VINA RESULT: -8.758703770      1.108      1.729
REMARK  12 active torsions:
REMARK  status: ('A' for Active; 'I' for Inactive)
REMARK    1  A    between atoms: C2_6  and  C3_7 
REMARK    2  A    between atoms: C3_7  and  O2_8 
REMARK    3  A    between atoms: C3_7  and  N2_10 
REMARK    4  A    between atoms: N2_10  and  C4_12 
REMARK    5  A    between atoms: C4_12  and  C5_13 
REMARK    6  A    between atoms: C4_12  and  C6_18 
REMARK    7  A    between atoms: C5_13  and  O3_14 
REMARK    8  A    between atoms: O3_14  and  N3_15 
REMARK    9  A    between atoms: N5_26  and  N6_27 
REMARK   10  A    between atoms: N6_27  and  C9_29 
REMARK   11  A    between atoms: C11_33  and  N8_34 
REMARK   12  A    between atoms: C12_38  and  O8_39 
ROOT
HETATM    1  N1  UNL     1      27.477  -9.491  25.781  1.00  0.00    -0.380 N 
ATOM      2  H11 UNL     1      26.907 -10.252  25.410  1.00  0.00     0.158 HD
ATOM      3  H12 UNL     1      26.972  -8.606  25.794  1.00  0.00     0.158 HD
HETATM    4  C1  UNL     1      28.650  -9.614  26.177  1.00  0.00     0.158 C 
HETATM    5  O1  UNL     1      29.444  -8.555  26.693  1.00  0.00    -0.317 OA
HETATM    6  C2  UNL     1      30.851  -8.619  26.598  1.00  0.00     0.270 C 
HETATM    7  C7  UNL     1      31.274  -9.541  25.542  1.00  0.00     0.264 C 
HETATM    8  O6  UNL     1      32.406  -9.517  24.941  1.00  0.00    -0.270 OA
HETATM    9  N4  UNL     1      30.424 -10.583  25.102  1.00  0.00    -0.234 N 
HETATM   10  C8  UNL     1      29.792 -11.596  24.356  1.00  0.00     0.351 C 
HETATM   11  O7  UNL     1      29.923 -11.968  23.128  1.00  0.00    -0.245 OA
HETATM   12  N5  UNL     1      28.992 -12.022  25.438  1.00  0.00    -0.195 N 
HETATM   13  C13 UNL     1      29.387 -10.903  26.157  1.00  0.00     0.300 C 
ENDROOT
BRANCH  12  14
HETATM   14  N6  UNL     1      28.183 -13.151  25.644  1.00  0.00    -0.124 N 
ATOM     15  H6  UNL     1      28.411 -14.049  25.218  1.00  0.00     0.206 HD
BRANCH  14  16
HETATM   16  C9  UNL     1      27.016 -12.996  26.480  1.00  0.00     0.691 C 
HETATM   17  N7  UNL     1      27.127 -13.006  27.767  1.00  0.00    -0.223 N 
HETATM   18  C10 UNL     1      25.930 -12.861  28.564  1.00  0.00     0.175 C 
ATOM     19  H7  UNL     1      28.040 -13.114  28.211  1.00  0.00     0.177 HD
HETATM   20  C11 UNL     1      24.940 -11.893  28.015  1.00  0.00     0.250 C 
HETATM   21  C12 UNL     1      24.728 -11.989  26.530  1.00  0.00     0.267 C 
HETATM   22  N9  UNL     1      25.739 -12.845  25.907  1.00  0.00    -0.197 N 
ATOM     23  H9  UNL     1      25.514 -13.341  25.044  1.00  0.00     0.180 HD
BRANCH  20  24
HETATM   24  N8  UNL     1      25.171 -10.527  28.455  1.00  0.00    -0.069 N 
ATOM     25  H83 UNL     1      25.732 -10.015  27.773  1.00  0.00     0.275 HD
ATOM     26  H82 UNL     1      24.311  -9.981  28.408  1.00  0.00     0.275 HD
ATOM     27  H81 UNL     1      25.588 -10.470  29.384  1.00  0.00     0.275 HD
ENDBRANCH  20  24
BRANCH  21  28
HETATM   28  O8  UNL     1      24.947 -10.708  26.000  1.00  0.00    -0.374 OA
ATOM     29  H8  UNL     1      24.393 -10.625  25.233  1.00  0.00     0.212 HD
ENDBRANCH  21  28
ENDBRANCH  14  16
ENDBRANCH  12  14
BRANCH   6  30
HETATM   30  C3  UNL     1      31.443  -7.240  26.527  1.00  0.00     0.253 C 
BRANCH  30  31
HETATM   31  O2  UNL     1      32.469  -7.243  27.537  1.00  0.00    -0.374 OA
ATOM     32  H2  UNL     1      32.071  -6.797  28.276  1.00  0.00     0.212 HD
ENDBRANCH  30  31
BRANCH  30  33
HETATM   33  N2  UNL     1      30.562  -6.248  26.862  1.00  0.00    -0.379 N 
ATOM     34  H2  UNL     1      29.611  -6.608  26.936  1.00  0.00     0.156 HD
BRANCH  33  35
HETATM   35  C4  UNL     1      30.607  -4.920  27.123  1.00  0.00     0.207 C 
BRANCH  35  36
HETATM   36  C5  UNL     1      31.685  -4.197  26.244  1.00  0.00     0.236 C 
BRANCH  36  37
HETATM   37  O3  UNL     1      31.599  -4.666  25.007  1.00  0.00    -0.285 OA
BRANCH  37  38
HETATM   38  N3  UNL     1      32.518  -4.880  24.169  1.00  0.00    -0.311 N 
ATOM     39  H32 UNL     1      32.329  -5.654  23.532  1.00  0.00     0.184 HD
ATOM     40  H31 UNL     1      33.405  -4.393  24.044  1.00  0.00     0.184 HD
ENDBRANCH  37  38
ENDBRANCH  36  37
ENDBRANCH  35  36
BRANCH  35  41
HETATM   41  C6  UNL     1      30.920  -4.607  28.523  1.00  0.00     0.198 C 
HETATM   42  O4  UNL     1      32.000  -4.802  29.070  1.00  0.00    -0.646 OA
HETATM   43  O5  UNL     1      29.882  -4.017  29.307  1.00  0.00    -0.646 OA
ENDBRANCH  35  41
ENDBRANCH  33  35
ENDBRANCH  30  33
ENDBRANCH   6  30
TORSDOF 12
ENDMDL
MODEL 3
REMARK VINA RESULT: -8.627454339      2.372      8.275
REMARK  12 active torsions:
REMARK  status: ('A' for Active; 'I' for Inactive)
REMARK    1  A    between atoms: C2_6  and  C3_7 
REMARK    2  A    between atoms: C3_7  and  O2_8 
REMARK    3  A    between atoms: C3_7  and  N2_10 
REMARK    4  A    between atoms: N2_10  and  C4_12 
REMARK    5  A    between atoms: C4_12  and  C5_13 
REMARK    6  A    between atoms: C4_12  and  C6_18 
REMARK    7  A    between atoms: C5_13  and  O3_14 
REMARK    8  A    between atoms: O3_14  and  N3_15 
REMARK    9  A    between atoms: N5_26  and  N6_27 
REMARK   10  A    between atoms: N6_27  and  C9_29 
REMARK   11  A    between atoms: C11_33  and  N8_34 
REMARK   12  A    between atoms: C12_38  and  O8_39 
ROOT
HETATM    1  N1  UNL     1      32.825  -8.319  24.931  1.00  0.00    -0.380 N 
ATOM      2  H11 UNL     1      33.138  -7.397  25.235  1.00  0.00     0.158 HD
ATOM      3  H12 UNL     1      33.167  -8.551  23.999  1.00  0.00     0.158 HD
HETATM    4  C1  UNL     1      32.114  -9.084  25.608  1.00  0.00     0.158 C 
HETATM    5  O1  UNL     1      31.679 -10.369  25.185  1.00  0.00    -0.317 OA
HETATM    6  C2  UNL     1      30.488 -10.917  25.710  1.00  0.00     0.270 C 
HETATM    7  C7  UNL     1      29.613  -9.875  26.250  1.00  0.00     0.264 C 
HETATM    8  O6  UNL     1      28.346  -9.975  26.410  1.00  0.00    -0.270 OA
HETATM    9  N4  UNL     1      30.137  -8.628  26.667  1.00  0.00    -0.234 N 
HETATM   10  C8  UNL     1      30.304  -7.276  27.022  1.00  0.00     0.351 C 
HETATM   11  O7  UNL     1      29.518  -6.258  26.923  1.00  0.00    -0.245 OA
HETATM   12  N5  UNL     1      31.616  -7.469  27.506  1.00  0.00    -0.195 N 
HETATM   13  C13 UNL     1      31.616  -8.747  26.965  1.00  0.00     0.300 C 
ENDROOT
BRANCH  12  14
HETATM   14  N6  UNL     1      32.488  -6.663  28.255  1.00  0.00    -0.124 N 
ATOM     15  H6  UNL     1      33.500  -6.761  28.172  1.00  0.00     0.206 HD
BRANCH  14  16
HETATM   16  C9  UNL     1      31.902  -5.691  29.148  1.00  0.00     0.691 C 
HETATM   17  N7  UNL     1      31.881  -5.903  30.423  1.00  0.00    -0.223 N 
HETATM   18  C10 UNL     1      31.273  -4.907  31.277  1.00  0.00     0.175 C 
ATOM     19  H7  UNL     1      32.285  -6.752  30.817  1.00  0.00     0.177 HD
HETATM   20  C11 UNL     1      31.538  -3.500  30.865  1.00  0.00     0.250 C 
HETATM   21  C12 UNL     1      31.426  -3.248  29.388  1.00  0.00     0.267 C 
HETATM   22  N9  UNL     1      31.334  -4.506  28.644  1.00  0.00    -0.197 N 
ATOM     23  H9  UNL     1      30.851  -4.524  27.746  1.00  0.00     0.180 HD
BRANCH  20  24
HETATM   24  N8  UNL     1      32.764  -2.961  31.429  1.00  0.00    -0.069 N 
ATOM     25  H83 UNL     1      32.622  -2.006  31.761  1.00  0.00     0.275 HD
ATOM     26  H82 UNL     1      32.986  -3.415  32.315  1.00  0.00     0.275 HD
ATOM     27  H81 UNL     1      33.556  -3.008  30.788  1.00  0.00     0.275 HD
ENDBRANCH  20  24
BRANCH  21  28
HETATM   28  O8  UNL     1      32.634  -2.661  28.979  1.00  0.00    -0.374 OA
ATOM     29  H8  UNL     1      32.683  -1.808  29.394  1.00  0.00     0.212 HD
ENDBRANCH  21  28
ENDBRANCH  14  16
ENDBRANCH  12  14
BRANCH   6  30
HETATM   30  C3  UNL     1      29.850 -11.848  24.720  1.00  0.00     0.253 C 
BRANCH  30  31
HETATM   31  O2  UNL     1      29.068 -10.983  23.874  1.00  0.00    -0.374 OA
ATOM     32  H2  UNL     1      29.415 -10.115  24.044  1.00  0.00     0.212 HD
ENDBRANCH  30  31
BRANCH  30  33
HETATM   33  N2  UNL     1      28.978 -12.738  25.287  1.00  0.00    -0.379 N 
ATOM     34  H2  UNL     1      29.262 -12.979  26.236  1.00  0.00     0.156 HD
BRANCH  33  35
HETATM   35  C4  UNL     1      27.843 -13.385  24.934  1.00  0.00     0.207 C 
BRANCH  35  36
HETATM   36  C5  UNL     1      26.776 -13.344  26.082  1.00  0.00     0.236 C 
BRANCH  36  37
HETATM   37  O3  UNL     1      27.138 -14.207  27.021  1.00  0.00    -0.285 OA
BRANCH  37  38
HETATM   38  N3  UNL     1      27.280 -14.026  28.262  1.00  0.00    -0.311 N 
ATOM     39  H32 UNL     1      27.583 -14.855  28.773  1.00  0.00     0.184 HD
ATOM     40  H31 UNL     1      27.136 -13.179  28.812  1.00  0.00     0.184 HD
ENDBRANCH  37  38
ENDBRANCH  36  37
ENDBRANCH  35  36
BRANCH  35  41
HETATM   41  C6  UNL     1      28.053 -14.799  24.600  1.00  0.00     0.198 C 
HETATM   42  O4  UNL     1      27.257 -15.514  24.000  1.00  0.00    -0.646 OA
HETATM   43  O5  UNL     1      29.293 -15.386  24.999  1.00  0.00    -0.646 OA
ENDBRANCH  35  41
ENDBRANCH  33  35
ENDBRANCH  30  33
ENDBRANCH   6  30
TORSDOF 12
ENDMDL
MODEL 4
REMARK VINA RESULT: -8.534790793      2.025      7.458
REMARK  12 active torsions:
REMARK  status: ('A' for Active; 'I' for Inactive)
REMARK    1  A    between atoms: C2_6  and  C3_7 
REMARK    2  A    between atoms: C3_7  and  O2_8 
REMARK    3  A    between atoms: C3_7  and  N2_10 
REMARK    4  A    between atoms: N2_10  and  C4_12 
REMARK    5  A    between atoms: C4_12  and  C5_13 
REMARK    6  A    between atoms: C4_12  and  C6_18 
REMARK    7  A    between atoms: C5_13  and  O3_14 
REMARK    8  A    between atoms: O3_14  and  N3_15 
REMARK    9  A    between atoms: N5_26  and  N6_27 
REMARK   10  A    between atoms: N6_27  and  C9_29 
REMARK   11  A    between atoms: C11_33  and  N8_34 
REMARK   12  A    between atoms: C12_38  and  O8_39 
ROOT
HETATM    1  N1  UNL     1      30.908 -10.632  27.799  1.00  0.00    -0.380 N 
ATOM      2  H11 UNL     1      31.763 -10.099  27.958  1.00  0.00     0.158 HD
ATOM      3  H12 UNL     1      30.681 -11.235  28.589  1.00  0.00     0.158 HD
HETATM    4  C1  UNL     1      30.212 -10.564  26.770  1.00  0.00     0.158 C 
HETATM    5  O1  UNL     1      29.021 -11.307  26.548  1.00  0.00    -0.317 OA
HETATM    6  C2  UNL     1      28.612 -11.605  25.230  1.00  0.00     0.270 C 
HETATM    7  C7  UNL     1      29.734 -11.525  24.292  1.00  0.00     0.264 C 
HETATM    8  O6  UNL     1      29.797 -12.112  23.154  1.00  0.00    -0.270 OA
HETATM    9  N4  UNL     1      30.875 -10.741  24.586  1.00  0.00    -0.234 N 
HETATM   10  C8  UNL     1      32.171 -10.196  24.633  1.00  0.00     0.351 C 
HETATM   11  O7  UNL     1      33.290 -10.594  24.129  1.00  0.00    -0.245 OA
HETATM   12  N5  UNL     1      31.779  -9.090  25.416  1.00  0.00    -0.195 N 
HETATM   13  C13 UNL     1      30.542  -9.686  25.619  1.00  0.00     0.300 C 
ENDROOT
BRANCH  12  14
HETATM   14  N6  UNL     1      32.419  -7.892  25.771  1.00  0.00    -0.124 N 
ATOM     15  H6  UNL     1      33.282  -7.599  25.313  1.00  0.00     0.206 HD
BRANCH  14  16
HETATM   16  C9  UNL     1      31.813  -7.089  26.807  1.00  0.00     0.691 C 
HETATM   17  N7  UNL     1      32.347  -7.026  27.982  1.00  0.00    -0.223 N 
HETATM   18  C10 UNL     1      31.698  -6.220  28.992  1.00  0.00     0.175 C 
ATOM     19  H7  UNL     1      33.206  -7.534  28.193  1.00  0.00     0.177 HD
HETATM   20  C11 UNL     1      31.121  -4.944  28.481  1.00  0.00     0.250 C 
HETATM   21  C12 UNL     1      30.389  -5.067  27.174  1.00  0.00     0.267 C 
HETATM   22  N9  UNL     1      30.628  -6.373  26.557  1.00  0.00    -0.197 N 
ATOM     23  H9  UNL     1      29.923  -6.770  25.935  1.00  0.00     0.180 HD
BRANCH  20  24
HETATM   24  N8  UNL     1      32.072  -3.845  28.484  1.00  0.00    -0.069 N 
ATOM     25  H83 UNL     1      32.011  -3.310  27.617  1.00  0.00     0.275 HD
ATOM     26  H82 UNL     1      31.790  -3.123  29.146  1.00  0.00     0.275 HD
ATOM     27  H81 UNL     1      33.031  -4.144  28.659  1.00  0.00     0.275 HD
ENDBRANCH  20  24
BRANCH  21  28
HETATM   28  O8  UNL     1      30.957  -4.131  26.296  1.00  0.00    -0.374 OA
ATOM     29  H8  UNL     1      31.890  -4.110  26.476  1.00  0.00     0.212 HD
ENDBRANCH  21  28
ENDBRANCH  14  16
ENDBRANCH  12  14
BRANCH   6  30
HETATM   30  C3  UNL     1      27.828 -12.885  25.193  1.00  0.00     0.253 C 
BRANCH  30  31
HETATM   31  O2  UNL     1      26.760 -12.619  24.264  1.00  0.00    -0.374 OA
ATOM     32  H2  UNL     1      26.864 -13.282  23.592  1.00  0.00     0.212 HD
ENDBRANCH  30  31
BRANCH  30  33
HETATM   33  N2  UNL     1      27.242 -13.204  26.387  1.00  0.00    -0.379 N 
ATOM     34  H2  UNL     1      27.928 -13.563  27.051  1.00  0.00     0.156 HD
BRANCH  33  35
HETATM   35  C4  UNL     1      26.002 -13.174  26.930  1.00  0.00     0.207 C 
BRANCH  35  36
HETATM   36  C5  UNL     1      25.498 -11.704  27.134  1.00  0.00     0.236 C 
BRANCH  36  37
HETATM   37  O3  UNL     1      24.714 -11.385  26.113  1.00  0.00    -0.285 OA
BRANCH  37  38
HETATM   38  N3  UNL     1      24.935 -10.598  25.152  1.00  0.00    -0.311 N 
ATOM     39  H32 UNL     1      24.110 -10.093  24.827  1.00  0.00     0.184 HD
ATOM     40  H31 UNL     1      25.810 -10.402  24.665  1.00  0.00     0.184 HD
ENDBRANCH  37  38
ENDBRANCH  36  37
ENDBRANCH  35  36
BRANCH  35  41
HETATM   41  C6  UNL     1      25.917 -13.838  28.237  1.00  0.00     0.198 C 
HETATM   42  O4  UNL     1      24.933 -13.841  28.970  1.00  0.00    -0.646 OA
HETATM   43  O5  UNL     1      27.073 -14.547  28.684  1.00  0.00    -0.646 OA
ENDBRANCH  35  41
ENDBRANCH  33  35
ENDBRANCH  30  33
ENDBRANCH   6  30
TORSDOF 12
ENDMDL
MODEL 5
REMARK VINA RESULT: -8.468618768      1.646      1.812
REMARK  12 active torsions:
REMARK  status: ('A' for Active; 'I' for Inactive)
REMARK    1  A    between atoms: C2_6  and  C3_7 
REMARK    2  A    between atoms: C3_7  and  O2_8 
REMARK    3  A    between atoms: C3_7  and  N2_10 
REMARK    4  A    between atoms: N2_10  and  C4_12 
REMARK    5  A    between atoms: C4_12  and  C5_13 
REMARK    6  A    between atoms: C4_12  and  C6_18 
REMARK    7  A    between atoms: C5_13  and  O3_14 
REMARK    8  A    between atoms: O3_14  and  N3_15 
REMARK    9  A    between atoms: N5_26  and  N6_27 
REMARK   10  A    between atoms: N6_27  and  C9_29 
REMARK   11  A    between atoms: C11_33  and  N8_34 
REMARK   12  A    between atoms: C12_38  and  O8_39 
ROOT
HETATM    1  N1  UNL     1      27.306  -9.849  25.183  1.00  0.00    -0.380 N 
ATOM      2  H11 UNL     1      26.535 -10.475  24.953  1.00  0.00     0.158 HD
ATOM      3  H12 UNL     1      27.031  -8.868  25.131  1.00  0.00     0.158 HD
HETATM    4  C1  UNL     1      28.452 -10.221  25.494  1.00  0.00     0.158 C 
HETATM    5  O1  UNL     1      29.527  -9.349  25.814  1.00  0.00    -0.317 OA
HETATM    6  C2  UNL     1      30.859  -9.770  25.614  1.00  0.00     0.270 C 
HETATM    7  C7  UNL     1      30.933 -10.865  24.645  1.00  0.00     0.264 C 
HETATM    8  O6  UNL     1      31.966 -11.183  23.956  1.00  0.00    -0.270 OA
HETATM    9  N4  UNL     1      29.816 -11.700  24.404  1.00  0.00    -0.234 N 
HETATM   10  C8  UNL     1      28.884 -12.590  23.838  1.00  0.00     0.351 C 
HETATM   11  O7  UNL     1      28.789 -13.100  22.657  1.00  0.00    -0.245 OA
HETATM   12  N5  UNL     1      28.127 -12.697  25.024  1.00  0.00    -0.195 N 
HETATM   13  C13 UNL     1      28.853 -11.648  25.570  1.00  0.00     0.300 C 
ENDROOT
BRANCH  12  14
HETATM   14  N6  UNL     1      27.099 -13.564  25.429  1.00  0.00    -0.124 N 
ATOM     15  H6  UNL     1      26.730 -14.276  24.799  1.00  0.00     0.206 HD
BRANCH  14  16
HETATM   16  C9  UNL     1      26.581 -13.411  26.768  1.00  0.00     0.691 C 
HETATM   17  N7  UNL     1      27.102 -14.072  27.749  1.00  0.00    -0.223 N 
HETATM   18  C10 UNL     1      26.542 -13.898  29.071  1.00  0.00     0.175 C 
ATOM     19  H7  UNL     1      27.889 -14.702  27.595  1.00  0.00     0.177 HD
HETATM   20  C11 UNL     1      26.133 -12.500  29.385  1.00  0.00     0.250 C 
HETATM   21  C12 UNL     1      25.410 -11.794  28.273  1.00  0.00     0.267 C 
HETATM   22  N9  UNL     1      25.496 -12.553  27.023  1.00  0.00    -0.197 N 
ATOM     23  H9  UNL     1      24.757 -12.457  26.327  1.00  0.00     0.180 HD
BRANCH  20  24
HETATM   24  N8  UNL     1      27.211 -11.700  29.942  1.00  0.00    -0.069 N 
ATOM     25  H83 UNL     1      27.874 -12.287  30.450  1.00  0.00     0.275 HD
ATOM     26  H82 UNL     1      27.825 -11.355  29.204  1.00  0.00     0.275 HD
ATOM     27  H81 UNL     1      26.881 -10.934  30.529  1.00  0.00     0.275 HD
ENDBRANCH  20  24
BRANCH  21  28
HETATM   28  O8  UNL     1      26.101 -10.596  28.029  1.00  0.00    -0.374 OA
ATOM     29  H8  UNL     1      27.011 -10.749  28.256  1.00  0.00     0.212 HD
ENDBRANCH  21  28
ENDBRANCH  14  16
ENDBRANCH  12  14
BRANCH   6  30
HETATM   30  C3  UNL     1      31.752  -8.595  25.331  1.00  0.00     0.253 C 
BRANCH  30  31
HETATM   31  O2  UNL     1      32.909  -9.175  24.699  1.00  0.00    -0.374 OA
ATOM     32  H2  UNL     1      32.757  -9.046  23.770  1.00  0.00     0.212 HD
ENDBRANCH  30  31
BRANCH  30  33
HETATM   33  N2  UNL     1      32.194  -7.959  26.458  1.00  0.00    -0.379 N 
ATOM     34  H2  UNL     1      32.880  -8.525  26.957  1.00  0.00     0.156 HD
BRANCH  33  35
HETATM   35  C4  UNL     1      31.973  -6.784  27.093  1.00  0.00     0.207 C 
BRANCH  35  36
HETATM   36  C5  UNL     1      32.037  -6.950  28.650  1.00  0.00     0.236 C 
BRANCH  36  37
HETATM   37  O3  UNL     1      32.109  -5.744  29.197  1.00  0.00    -0.285 OA
BRANCH  37  38
HETATM   38  N3  UNL     1      32.107  -5.418  30.416  1.00  0.00    -0.311 N 
ATOM     39  H32 UNL     1      32.688  -6.012  31.008  1.00  0.00     0.184 HD
ATOM     40  H31 UNL     1      31.613  -4.656  30.881  1.00  0.00     0.184 HD
ENDBRANCH  37  38
ENDBRANCH  36  37
ENDBRANCH  35  36
BRANCH  35  41
HETATM   41  C6  UNL     1      30.668  -6.186  26.783  1.00  0.00     0.198 C 
HETATM   42  O4  UNL     1      29.582  -6.613  27.162  1.00  0.00    -0.646 OA
HETATM   43  O5  UNL     1      30.667  -5.003  25.982  1.00  0.00    -0.646 OA
ENDBRANCH  35  41
ENDBRANCH  33  35
ENDBRANCH  30  33
ENDBRANCH   6  30
TORSDOF 12
ENDMDL
