MODEL 1
REMARK VINA RESULT: -6.450160644      0.000      0.000
REMARK  4 active torsions:
REMARK  status: ('A' for Active; 'I' for Inactive)
REMARK    1  A    between atoms: N1_7  and  C6_8 
REMARK    2  A    between atoms: C6_8  and  N2_10 
REMARK    3  A    between atoms: N2_10  and  C7_12 
REMARK    4  A    between atoms: C9_17  and  C10_18 
ROOT
HETATM    1  C1  UNL     1      15.456  24.730 -20.760  1.00  0.00     0.052 C 
HETATM    2  C2  UNL     1      15.639  23.890 -19.495  1.00  0.00     0.102 C 
HETATM    3  F1  UNL     1      14.346  23.568 -19.079  1.00  0.00    -0.243 F 
HETATM    4  C3  UNL     1      16.332  22.633 -19.881  1.00  0.00     0.045 C 
HETATM    5  C4  UNL     1      15.876  21.487 -18.967  1.00  0.00     0.023 C 
HETATM    6  C5  UNL     1      16.214  21.909 -17.554  1.00  0.00     0.127 C 
HETATM    7  N1  UNL     1      17.442  22.669 -17.620  1.00  0.00    -0.341 N 
HETATM    8  C11 UNL     1      17.573  24.067 -17.899  1.00  0.00     0.197 C 
HETATM    9  C12 UNL     1      17.879  24.833 -16.665  1.00  0.00     0.085 C 
HETATM   10  N4  UNL     1      18.135  25.420 -15.699  1.00  0.00    -0.195 NA
HETATM   11  C13 UNL     1      16.293  24.682 -18.423  1.00  0.00     0.083 C 
ENDROOT
BRANCH   7  12
HETATM   12  C6  UNL     1      18.596  21.924 -17.382  1.00  0.00     0.177 C 
HETATM   13  S1  UNL     1      19.998  22.333 -18.084  1.00  0.00    -0.041 SA
BRANCH  12  14
HETATM   14  N2  UNL     1      18.572  20.791 -16.521  1.00  0.00    -0.311 N 
ATOM     15  H2  UNL     1      18.271  19.889 -16.889  1.00  0.00     0.170 HD
BRANCH  14  16
HETATM   16  C7  UNL     1      18.960  20.892 -15.157  1.00  0.00     0.185 A 
HETATM   17  O1  UNL     1      19.650  21.924 -14.665  1.00  0.00    -0.286 OA
HETATM   18  C8  UNL     1      19.856  21.737 -13.398  1.00  0.00     0.236 A 
HETATM   19  N3  UNL     1      19.299  20.570 -13.036  1.00  0.00    -0.338 N 
HETATM   20  C9  UNL     1      18.721  20.014 -14.150  1.00  0.00     0.163 A 
ATOM     21  H3  UNL     1      19.304  20.167 -12.099  1.00  0.00     0.167 HD
BRANCH  20  22
HETATM   22  C10 UNL     1      18.024  18.758 -14.166  1.00  0.00     0.231 C 
HETATM   23  O2  UNL     1      17.669  18.238 -15.280  1.00  0.00    -0.643 OA
HETATM   24  O3  UNL     1      17.704  18.060 -13.034  1.00  0.00    -0.643 OA
ENDBRANCH  20  22
ENDBRANCH  14  16
ENDBRANCH  12  14
ENDBRANCH   7  12
TORSDOF 4
ENDMDL
MODEL 2
REMARK VINA RESULT: -5.696155946      1.164      1.941
REMARK  4 active torsions:
REMARK  status: ('A' for Active; 'I' for Inactive)
REMARK    1  A    between atoms: N1_7  and  C6_8 
REMARK    2  A    between atoms: C6_8  and  N2_10 
REMARK    3  A    between atoms: N2_10  and  C7_12 
REMARK    4  A    between atoms: C9_17  and  C10_18 
ROOT
HETATM    1  C1  UNL     1      15.320  24.154 -20.699  1.00  0.00     0.052 C 
HETATM    2  C2  UNL     1      15.675  23.490 -19.369  1.00  0.00     0.102 C 
HETATM    3  F1  UNL     1      14.467  23.003 -18.868  1.00  0.00    -0.243 F 
HETATM    4  C3  UNL     1      16.560  22.332 -19.660  1.00  0.00     0.045 C 
HETATM    5  C4  UNL     1      16.329  21.226 -18.622  1.00  0.00     0.023 C 
HETATM    6  C5  UNL     1      16.627  21.841 -17.272  1.00  0.00     0.127 C 
HETATM    7  N1  UNL     1      17.708  22.783 -17.464  1.00  0.00    -0.341 N 
HETATM    8  C11 UNL     1      17.593  24.147 -17.882  1.00  0.00     0.197 C 
HETATM    9  C12 UNL     1      17.797  25.075 -16.741  1.00  0.00     0.085 C 
HETATM   10  N4  UNL     1      17.975  25.793 -15.848  1.00  0.00    -0.195 NA
HETATM   11  C13 UNL     1      16.214  24.485 -18.407  1.00  0.00     0.083 C 
ENDROOT
BRANCH   7  12
HETATM   12  C6  UNL     1      18.977  22.268 -17.204  1.00  0.00     0.177 C 
HETATM   13  S1  UNL     1      20.028  22.024 -18.413  1.00  0.00    -0.041 SA
BRANCH  12  14
HETATM   14  N2  UNL     1      19.380  21.944 -15.878  1.00  0.00    -0.311 N 
ATOM     15  H2  UNL     1      20.011  22.572 -15.379  1.00  0.00     0.170 HD
BRANCH  14  16
HETATM   16  C7  UNL     1      18.919  20.764 -15.234  1.00  0.00     0.185 A 
HETATM   17  O1  UNL     1      18.537  19.669 -15.894  1.00  0.00    -0.286 OA
HETATM   18  C8  UNL     1      18.170  18.761 -15.043  1.00  0.00     0.236 A 
HETATM   19  N3  UNL     1      18.307  19.251 -13.801  1.00  0.00    -0.338 N 
HETATM   20  C9  UNL     1      18.786  20.534 -13.902  1.00  0.00     0.163 A 
ATOM     21  H3  UNL     1      18.094  18.758 -12.934  1.00  0.00     0.167 HD
BRANCH  20  22
HETATM   22  C10 UNL     1      19.064  21.391 -12.784  1.00  0.00     0.231 C 
HETATM   23  O2  UNL     1      20.241  21.864 -12.618  1.00  0.00    -0.643 OA
HETATM   24  O3  UNL     1      18.124  21.746 -11.856  1.00  0.00    -0.643 OA
ENDBRANCH  20  22
ENDBRANCH  14  16
ENDBRANCH  12  14
ENDBRANCH   7  12
TORSDOF 4
ENDMDL
MODEL 3
REMARK VINA RESULT: -5.457739514      5.920      7.985
REMARK  4 active torsions:
REMARK  status: ('A' for Active; 'I' for Inactive)
REMARK    1  A    between atoms: N1_7  and  C6_8 
REMARK    2  A    between atoms: C6_8  and  N2_10 
REMARK    3  A    between atoms: N2_10  and  C7_12 
REMARK    4  A    between atoms: C9_17  and  C10_18 
ROOT
HETATM    1  C1  UNL     1      12.891  19.309 -25.894  1.00  0.00     0.052 C 
HETATM    2  C2  UNL     1      12.431  20.714 -25.504  1.00  0.00     0.102 C 
HETATM    3  F1  UNL     1      11.293  20.955 -26.275  1.00  0.00    -0.243 F 
HETATM    4  C3  UNL     1      12.027  20.679 -24.074  1.00  0.00     0.045 C 
HETATM    5  C4  UNL     1      10.899  21.690 -23.828  1.00  0.00     0.023 C 
HETATM    6  C5  UNL     1      11.444  23.043 -24.230  1.00  0.00     0.127 C 
HETATM    7  N1  UNL     1      12.849  23.053 -23.887  1.00  0.00    -0.341 N 
HETATM    8  C11 UNL     1      13.930  22.559 -24.684  1.00  0.00     0.197 C 
HETATM    9  C12 UNL     1      14.695  23.673 -25.298  1.00  0.00     0.085 C 
HETATM   10  N4  UNL     1      15.298  24.549 -25.760  1.00  0.00    -0.195 NA
HETATM   11  C13 UNL     1      13.460  21.725 -25.857  1.00  0.00     0.083 C 
ENDROOT
BRANCH   7  12
HETATM   12  C6  UNL     1      13.136  23.611 -22.642  1.00  0.00     0.177 C 
HETATM   13  S1  UNL     1      12.262  24.852 -22.077  1.00  0.00    -0.041 SA
BRANCH  12  14
HETATM   14  N2  UNL     1      14.199  23.107 -21.841  1.00  0.00    -0.311 N 
ATOM     15  H2  UNL     1      14.369  22.101 -21.809  1.00  0.00     0.170 HD
BRANCH  14  16
HETATM   16  C7  UNL     1      15.030  23.977 -21.084  1.00  0.00     0.185 A 
HETATM   17  O1  UNL     1      15.154  25.282 -21.341  1.00  0.00    -0.286 OA
HETATM   18  C8  UNL     1      15.975  25.811 -20.489  1.00  0.00     0.236 A 
HETATM   19  N3  UNL     1      16.406  24.854 -19.651  1.00  0.00    -0.338 N 
HETATM   20  C9  UNL     1      15.811  23.672 -20.017  1.00  0.00     0.163 A 
ATOM     21  H3  UNL     1      17.061  24.982 -18.879  1.00  0.00     0.167 HD
BRANCH  20  22
HETATM   22  C10 UNL     1      16.024  22.414 -19.357  1.00  0.00     0.231 C 
HETATM   23  O2  UNL     1      15.023  21.695 -19.014  1.00  0.00    -0.643 OA
HETATM   24  O3  UNL     1      17.264  21.918 -19.063  1.00  0.00    -0.643 OA
ENDBRANCH  20  22
ENDBRANCH  14  16
ENDBRANCH  12  14
ENDBRANCH   7  12
TORSDOF 4
ENDMDL
MODEL 4
REMARK VINA RESULT: -5.388772705      5.596      7.672
REMARK  4 active torsions:
REMARK  status: ('A' for Active; 'I' for Inactive)
REMARK    1  A    between atoms: N1_7  and  C6_8 
REMARK    2  A    between atoms: C6_8  and  N2_10 
REMARK    3  A    between atoms: N2_10  and  C7_12 
REMARK    4  A    between atoms: C9_17  and  C10_18 
ROOT
HETATM    1  C1  UNL     1      16.476  23.157 -26.983  1.00  0.00     0.052 C 
HETATM    2  C2  UNL     1      15.098  23.266 -26.329  1.00  0.00     0.102 C 
HETATM    3  F1  UNL     1      14.196  22.827 -27.298  1.00  0.00    -0.243 F 
HETATM    4  C3  UNL     1      15.060  22.313 -25.189  1.00  0.00     0.045 C 
HETATM    5  C4  UNL     1      13.631  21.785 -25.001  1.00  0.00     0.023 C 
HETATM    6  C5  UNL     1      12.759  22.997 -24.754  1.00  0.00     0.127 C 
HETATM    7  N1  UNL     1      13.553  23.945 -24.003  1.00  0.00    -0.341 N 
HETATM    8  C11 UNL     1      14.468  24.909 -24.533  1.00  0.00     0.197 C 
HETATM    9  C12 UNL     1      13.893  26.277 -24.485  1.00  0.00     0.085 C 
HETATM   10  N4  UNL     1      13.442  27.344 -24.427  1.00  0.00    -0.195 NA
HETATM   11  C13 UNL     1      14.780  24.677 -25.997  1.00  0.00     0.083 C 
ENDROOT
BRANCH   7  12
HETATM   12  C6  UNL     1      13.377  23.878 -22.622  1.00  0.00     0.177 C 
HETATM   13  S1  UNL     1      12.034  24.469 -21.934  1.00  0.00    -0.041 SA
BRANCH  12  14
HETATM   14  N2  UNL     1      14.369  23.293 -21.785  1.00  0.00    -0.311 N 
ATOM     15  H2  UNL     1      14.480  22.279 -21.775  1.00  0.00     0.170 HD
BRANCH  14  16
HETATM   16  C7  UNL     1      15.207  24.093 -20.963  1.00  0.00     0.185 A 
HETATM   17  O1  UNL     1      15.376  25.406 -21.143  1.00  0.00    -0.286 OA
HETATM   18  C8  UNL     1      16.193  25.861 -20.244  1.00  0.00     0.236 A 
HETATM   19  N3  UNL     1      16.576  24.845 -19.453  1.00  0.00    -0.338 N 
HETATM   20  C9  UNL     1      15.955  23.704 -19.898  1.00  0.00     0.163 A 
ATOM     21  H3  UNL     1      17.216  24.910 -18.661  1.00  0.00     0.167 HD
BRANCH  20  22
HETATM   22  C10 UNL     1      16.115  22.406 -19.307  1.00  0.00     0.231 C 
HETATM   23  O2  UNL     1      15.086  21.698 -19.030  1.00  0.00    -0.643 OA
HETATM   24  O3  UNL     1      17.333  21.858 -19.010  1.00  0.00    -0.643 OA
ENDBRANCH  20  22
ENDBRANCH  14  16
ENDBRANCH  12  14
ENDBRANCH   7  12
TORSDOF 4
ENDMDL
MODEL 5
REMARK VINA RESULT: -5.302639446      4.657      6.791
REMARK  4 active torsions:
REMARK  status: ('A' for Active; 'I' for Inactive)
REMARK    1  A    between atoms: N1_7  and  C6_8 
REMARK    2  A    between atoms: C6_8  and  N2_10 
REMARK    3  A    between atoms: N2_10  and  C7_12 
REMARK    4  A    between atoms: C9_17  and  C10_18 
ROOT
HETATM    1  C1  UNL     1      14.843  21.519 -18.624  1.00  0.00     0.052 C 
HETATM    2  C2  UNL     1      15.802  22.620 -19.078  1.00  0.00     0.102 C 
HETATM    3  F1  UNL     1      15.649  22.691 -20.464  1.00  0.00    -0.243 F 
HETATM    4  C3  UNL     1      15.334  23.902 -18.490  1.00  0.00     0.045 C 
HETATM    5  C4  UNL     1      15.676  25.062 -19.434  1.00  0.00     0.023 C 
HETATM    6  C5  UNL     1      17.179  25.037 -19.612  1.00  0.00     0.127 C 
HETATM    7  N1  UNL     1      17.748  24.606 -18.354  1.00  0.00    -0.341 N 
HETATM    8  C11 UNL     1      17.937  23.258 -17.914  1.00  0.00     0.197 C 
HETATM    9  C12 UNL     1      19.366  22.862 -18.000  1.00  0.00     0.085 C 
HETATM   10  N4  UNL     1      20.485  22.567 -18.054  1.00  0.00    -0.195 NA
HETATM   11  C13 UNL     1      17.209  22.252 -18.781  1.00  0.00     0.083 C 
ENDROOT
BRANCH   7  12
HETATM   12  C6  UNL     1      18.140  25.646 -17.512  1.00  0.00     0.177 C 
HETATM   13  S1  UNL     1      17.694  25.654 -15.954  1.00  0.00    -0.041 SA
BRANCH  12  14
HETATM   14  N2  UNL     1      18.939  26.720 -17.996  1.00  0.00    -0.311 N 
ATOM     15  H2  UNL     1      19.823  26.516 -18.462  1.00  0.00     0.170 HD
BRANCH  14  16
HETATM   16  C7  UNL     1      18.528  28.072 -17.844  1.00  0.00     0.185 A 
HETATM   17  O1  UNL     1      18.700  28.770 -16.719  1.00  0.00    -0.286 OA
HETATM   18  C8  UNL     1      18.227  29.967 -16.880  1.00  0.00     0.236 A 
HETATM   19  N3  UNL     1      17.733  30.074 -18.124  1.00  0.00    -0.338 N 
HETATM   20  C9  UNL     1      17.917  28.870 -18.757  1.00  0.00     0.163 A 
ATOM     21  H3  UNL     1      17.298  30.904 -18.528  1.00  0.00     0.167 HD
BRANCH  20  22
HETATM   22  C10 UNL     1      17.517  28.590 -20.108  1.00  0.00     0.231 C 
HETATM   23  O2  UNL     1      18.363  28.109 -20.939  1.00  0.00    -0.643 OA
HETATM   24  O3  UNL     1      16.252  28.810 -20.580  1.00  0.00    -0.643 OA
ENDBRANCH  20  22
ENDBRANCH  14  16
ENDBRANCH  12  14
ENDBRANCH   7  12
TORSDOF 4
ENDMDL
