MODEL 1
REMARK VINA RESULT: -3.897570066      0.000      0.000
REMARK  0 active torsions:
REMARK  status: ('A' for Active; 'I' for Inactive)
ROOT
HETATM    1  O1  UNL     1       4.023  -2.231  15.698  1.00  0.00    -0.258 OA
HETATM    2  S1  UNL     1       4.261  -0.873  16.208  1.00  0.00     0.016 S 
HETATM    3  C1  UNL     1       3.642   0.398  15.521  1.00  0.00     0.121 A 
HETATM    4  C2  UNL     1       2.763   0.010  16.658  1.00  0.00     0.121 A 
ENDROOT
TORSDOF 0
ENDMDL
MODEL 2
REMARK VINA RESULT: -3.874992226      2.307      2.325
REMARK  0 active torsions:
REMARK  status: ('A' for Active; 'I' for Inactive)
ROOT
HETATM    1  O1  UNL     1       2.397   0.760  17.585  1.00  0.00    -0.258 OA
HETATM    2  S1  UNL     1       2.606  -0.096  16.409  1.00  0.00     0.016 S 
HETATM    3  C1  UNL     1       3.729   0.199  15.350  1.00  0.00     0.121 A 
HETATM    4  C2  UNL     1       4.251  -0.810  16.310  1.00  0.00     0.121 A 
ENDROOT
TORSDOF 0
ENDMDL
MODEL 3
REMARK VINA RESULT: -3.815121753      2.047      2.181
REMARK  0 active torsions:
REMARK  status: ('A' for Active; 'I' for Inactive)
ROOT
HETATM    1  O1  UNL     1       1.486  -0.389  16.807  1.00  0.00    -0.258 OA
HETATM    2  S1  UNL     1       2.900  -0.021  16.974  1.00  0.00     0.016 S 
HETATM    3  C1  UNL     1       4.059  -0.818  16.273  1.00  0.00     0.121 A 
HETATM    4  C2  UNL     1       3.739   0.368  15.434  1.00  0.00     0.121 A 
ENDROOT
TORSDOF 0
ENDMDL
MODEL 4
REMARK VINA RESULT: -3.630790181      0.756      1.292
REMARK  0 active torsions:
REMARK  status: ('A' for Active; 'I' for Inactive)
ROOT
HETATM    1  O1  UNL     1       4.974  -1.671  16.381  1.00  0.00    -0.258 OA
HETATM    2  S1  UNL     1       3.704  -1.151  15.855  1.00  0.00     0.016 S 
HETATM    3  C1  UNL     1       2.926   0.020  16.558  1.00  0.00     0.121 A 
HETATM    4  C2  UNL     1       3.743   0.600  15.457  1.00  0.00     0.121 A 
ENDROOT
TORSDOF 0
ENDMDL
MODEL 5
REMARK VINA RESULT: -3.578810905      2.006      2.006
REMARK  0 active torsions:
REMARK  status: ('A' for Active; 'I' for Inactive)
ROOT
HETATM    1  O1  UNL     1       4.076   0.892  15.217  1.00  0.00    -0.258 OA
HETATM    2  S1  UNL     1       3.338  -0.292  15.679  1.00  0.00     0.016 S 
HETATM    3  C1  UNL     1       3.474  -0.840  17.146  1.00  0.00     0.121 A 
HETATM    4  C2  UNL     1       2.263   0.023  17.084  1.00  0.00     0.121 A 
ENDROOT
TORSDOF 0
ENDMDL
