MODEL 1
REMARK VINA RESULT: -5.400473727      0.000      0.000
REMARK  4 active torsions:
REMARK  status: ('A' for Active; 'I' for Inactive)
REMARK    1  A    between atoms: N1_2  and  C2_4 
REMARK    2  A    between atoms: C5_10  and  N4_11 
REMARK    3  A    between atoms: N4_11  and  C6_13 
REMARK    4  A    between atoms: C6_13  and  N5_15 
ROOT
HETATM    1  C2  UNL     1       4.505  10.721  19.761  1.00  0.00     0.119 A 
HETATM    2  C3  UNL     1       5.830  10.353  19.738  1.00  0.00     0.094 A 
HETATM    3  C4  UNL     1       6.786  11.344  19.806  1.00  0.00     0.135 A 
HETATM    4  N2  UNL     1       8.146  10.930  19.782  1.00  0.00    -0.082 NA
HETATM    5  N3  UNL     1       6.400  12.632  19.893  1.00  0.00    -0.179 N 
ATOM      6  H3  UNL     1       7.116  13.357  19.944  1.00  0.00     0.185 HD
HETATM    7  C5  UNL     1       5.102  13.000  19.914  1.00  0.00     0.682 A 
HETATM    8  N6  UNL     1       4.166  12.039  19.848  1.00  0.00    -0.177 N 
ATOM      9  H6  UNL     1       3.180  12.301  19.864  1.00  0.00     0.185 HD
ENDROOT
BRANCH   7  10
HETATM   10  N4  UNL     1       4.813  14.233  19.996  1.00  0.00    -0.197 N 
ATOM     11  H4  UNL     1       5.380  14.782  20.642  1.00  0.00     0.180 HD
BRANCH  10  12
HETATM   12  C6  UNL     1       3.803  14.942  19.306  1.00  0.00     0.293 C 
HETATM   13  C7  UNL     1       4.349  16.310  18.920  1.00  0.00     0.063 C 
BRANCH  12  14
HETATM   14  N5  UNL     1       2.578  15.126  19.998  1.00  0.00    -0.058 N 
ATOM     15  H53 UNL     1       1.796  15.012  19.353  1.00  0.00     0.276 HD
ATOM     16  H52 UNL     1       2.415  14.339  20.627  1.00  0.00     0.276 HD
ATOM     17  H51 UNL     1       2.474  16.002  20.511  1.00  0.00     0.276 HD
ENDBRANCH  12  14
ENDBRANCH  10  12
ENDBRANCH   7  10
BRANCH   1  18
HETATM   18  N1  UNL     1       3.622   9.801  19.697  1.00  0.00    -0.380 N 
HETATM   19  C1  UNL     1       4.042   8.405  19.608  1.00  0.00     0.147 C 
ATOM     20  H1  UNL     1       2.630  10.039  19.707  1.00  0.00     0.160 HD
ENDBRANCH   1  18
TORSDOF 4
ENDMDL
MODEL 2
REMARK VINA RESULT: -5.383514589      6.482      8.494
REMARK  4 active torsions:
REMARK  status: ('A' for Active; 'I' for Inactive)
REMARK    1  A    between atoms: N1_2  and  C2_4 
REMARK    2  A    between atoms: C5_10  and  N4_11 
REMARK    3  A    between atoms: N4_11  and  C6_13 
REMARK    4  A    between atoms: C6_13  and  N5_15 
ROOT
HETATM    1  C2  UNL     1       1.318  16.578  12.680  1.00  0.00     0.119 A 
HETATM    2  C3  UNL     1       1.691  15.550  11.845  1.00  0.00     0.094 A 
HETATM    3  C4  UNL     1       1.865  14.295  12.389  1.00  0.00     0.135 A 
HETATM    4  N2  UNL     1       2.249  13.255  11.499  1.00  0.00    -0.082 NA
HETATM    5  N3  UNL     1       1.668  14.112  13.709  1.00  0.00    -0.179 N 
ATOM      6  H3  UNL     1       1.798  13.179  14.100  1.00  0.00     0.185 HD
HETATM    7  C5  UNL     1       1.304  15.117  14.534  1.00  0.00     0.682 A 
HETATM    8  N6  UNL     1       1.132  16.341  14.009  1.00  0.00    -0.177 N 
ATOM      9  H6  UNL     1       0.856  17.111  14.620  1.00  0.00     0.185 HD
ENDROOT
BRANCH   7  10
HETATM   10  N4  UNL     1       1.136  14.870  15.767  1.00  0.00    -0.197 N 
ATOM     11  H4  UNL     1       1.172  13.886  16.034  1.00  0.00     0.180 HD
BRANCH  10  12
HETATM   12  C6  UNL     1       0.907  15.787  16.819  1.00  0.00     0.293 C 
HETATM   13  C7  UNL     1       2.228  16.453  17.179  1.00  0.00     0.063 C 
BRANCH  12  14
HETATM   14  N5  UNL     1       0.334  15.255  18.004  1.00  0.00    -0.058 N 
ATOM     15  H53 UNL     1      -0.680  15.216  17.909  1.00  0.00     0.276 HD
ATOM     16  H52 UNL     1       0.551  14.260  18.076  1.00  0.00     0.276 HD
ATOM     17  H51 UNL     1       0.581  15.724  18.876  1.00  0.00     0.276 HD
ENDBRANCH  12  14
ENDBRANCH  10  12
ENDBRANCH   7  10
BRANCH   1  18
HETATM   18  N1  UNL     1       1.159  17.739  12.173  1.00  0.00    -0.380 N 
HETATM   19  C1  UNL     1       0.798  17.867  10.764  1.00  0.00     0.147 C 
ATOM     20  H1  UNL     1       1.283  18.573  12.749  1.00  0.00     0.160 HD
ENDBRANCH   1  18
TORSDOF 4
ENDMDL
MODEL 3
REMARK VINA RESULT: -5.169581669      4.686      6.733
REMARK  4 active torsions:
REMARK  status: ('A' for Active; 'I' for Inactive)
REMARK    1  A    between atoms: N1_2  and  C2_4 
REMARK    2  A    between atoms: C5_10  and  N4_11 
REMARK    3  A    between atoms: N4_11  and  C6_13 
REMARK    4  A    between atoms: C6_13  and  N5_15 
ROOT
HETATM    1  C2  UNL     1       0.268  16.666  19.087  1.00  0.00     0.119 A 
HETATM    2  C3  UNL     1       1.351  16.381  19.885  1.00  0.00     0.094 A 
HETATM    3  C4  UNL     1       2.376  15.627  19.355  1.00  0.00     0.135 A 
HETATM    4  N2  UNL     1       3.481  15.351  20.206  1.00  0.00    -0.082 NA
HETATM    5  N3  UNL     1       2.290  15.194  18.081  1.00  0.00    -0.179 N 
ATOM      6  H3  UNL     1       3.054  14.639  17.698  1.00  0.00     0.185 HD
HETATM    7  C5  UNL     1       1.229  15.469  17.293  1.00  0.00     0.682 A 
HETATM    8  N6  UNL     1       0.229  16.204  17.805  1.00  0.00    -0.177 N 
ATOM      9  H6  UNL     1      -0.580  16.421  17.221  1.00  0.00     0.185 HD
ENDROOT
BRANCH   7  10
HETATM   10  N4  UNL     1       1.216  15.028  16.103  1.00  0.00    -0.197 N 
ATOM     11  H4  UNL     1       1.399  15.714  15.371  1.00  0.00     0.180 HD
BRANCH  10  12
HETATM   12  C6  UNL     1       0.979  13.705  15.664  1.00  0.00     0.293 C 
HETATM   13  C7  UNL     1       0.785  13.723  14.154  1.00  0.00     0.063 C 
BRANCH  12  14
HETATM   14  N5  UNL     1      -0.127  13.035  16.251  1.00  0.00    -0.058 N 
ATOM     15  H53 UNL     1       0.101  12.051  16.389  1.00  0.00     0.276 HD
ATOM     16  H52 UNL     1      -0.238  13.337  17.219  1.00  0.00     0.276 HD
ATOM     17  H51 UNL     1      -1.018  13.117  15.761  1.00  0.00     0.276 HD
ENDBRANCH  12  14
ENDBRANCH  10  12
ENDBRANCH   7  10
BRANCH   1  18
HETATM   18  N1  UNL     1      -0.679  17.364  19.582  1.00  0.00    -0.380 N 
HETATM   19  C1  UNL     1      -0.549  17.898  20.935  1.00  0.00     0.147 C 
ATOM     20  H1  UNL     1      -1.521  17.548  19.037  1.00  0.00     0.160 HD
ENDBRANCH   1  18
TORSDOF 4
ENDMDL
MODEL 4
REMARK VINA RESULT: -5.095047274      1.154      1.251
REMARK  4 active torsions:
REMARK  status: ('A' for Active; 'I' for Inactive)
REMARK    1  A    between atoms: N1_2  and  C2_4 
REMARK    2  A    between atoms: C5_10  and  N4_11 
REMARK    3  A    between atoms: N4_11  and  C6_13 
REMARK    4  A    between atoms: C6_13  and  N5_15 
ROOT
HETATM    1  C2  UNL     1       5.191   9.749  19.834  1.00  0.00     0.119 A 
HETATM    2  C3  UNL     1       6.563   9.814  19.908  1.00  0.00     0.094 A 
HETATM    3  C4  UNL     1       7.176  11.022  19.650  1.00  0.00     0.135 A 
HETATM    4  N2  UNL     1       8.595  11.056  19.737  1.00  0.00    -0.082 NA
HETATM    5  N3  UNL     1       6.422  12.094  19.335  1.00  0.00    -0.179 N 
ATOM      6  H3  UNL     1       6.886  12.982  19.147  1.00  0.00     0.185 HD
HETATM    7  C5  UNL     1       5.075  12.036  19.259  1.00  0.00     0.682 A 
HETATM    8  N6  UNL     1       4.474  10.862  19.510  1.00  0.00    -0.177 N 
ATOM      9  H6  UNL     1       3.456  10.802  19.457  1.00  0.00     0.185 HD
ENDROOT
BRANCH   7  10
HETATM   10  N4  UNL     1       4.431  13.086  18.956  1.00  0.00    -0.197 N 
ATOM     11  H4  UNL     1       4.272  13.240  17.960  1.00  0.00     0.180 HD
BRANCH  10  12
HETATM   12  C6  UNL     1       3.903  14.069  19.824  1.00  0.00     0.293 C 
HETATM   13  C7  UNL     1       3.696  15.353  19.033  1.00  0.00     0.063 C 
BRANCH  12  14
HETATM   14  N5  UNL     1       4.674  14.370  20.977  1.00  0.00    -0.058 N 
ATOM     15  H53 UNL     1       4.063  14.701  21.723  1.00  0.00     0.276 HD
ATOM     16  H52 UNL     1       5.023  13.506  21.393  1.00  0.00     0.276 HD
ATOM     17  H51 UNL     1       5.446  15.025  20.847  1.00  0.00     0.276 HD
ENDBRANCH  12  14
ENDBRANCH  10  12
ENDBRANCH   7  10
BRANCH   1  18
HETATM   18  N1  UNL     1       4.626   8.629  20.073  1.00  0.00    -0.380 N 
HETATM   19  C1  UNL     1       3.245   8.413  19.653  1.00  0.00     0.147 C 
ATOM     20  H1  UNL     1       5.138   7.888  20.554  1.00  0.00     0.160 HD
ENDBRANCH   1  18
TORSDOF 4
ENDMDL
MODEL 5
REMARK VINA RESULT: -5.003941716      3.988      6.731
REMARK  4 active torsions:
REMARK  status: ('A' for Active; 'I' for Inactive)
REMARK    1  A    between atoms: N1_2  and  C2_4 
REMARK    2  A    between atoms: C5_10  and  N4_11 
REMARK    3  A    between atoms: N4_11  and  C6_13 
REMARK    4  A    between atoms: C6_13  and  N5_15 
ROOT
HETATM    1  C2  UNL     1       2.621  15.854  18.683  1.00  0.00     0.119 A 
HETATM    2  C3  UNL     1       1.918  16.865  19.297  1.00  0.00     0.094 A 
HETATM    3  C4  UNL     1       0.609  17.075  18.918  1.00  0.00     0.135 A 
HETATM    4  N2  UNL     1      -0.091  18.126  19.572  1.00  0.00    -0.082 NA
HETATM    5  N3  UNL     1       0.060  16.292  17.968  1.00  0.00    -0.179 N 
ATOM      6  H3  UNL     1      -0.910  16.455  17.697  1.00  0.00     0.185 HD
HETATM    7  C5  UNL     1       0.745  15.300  17.361  1.00  0.00     0.682 A 
HETATM    8  N6  UNL     1       2.020  15.091  17.727  1.00  0.00    -0.177 N 
ATOM      9  H6  UNL     1       2.552  14.344  17.278  1.00  0.00     0.185 HD
ENDROOT
BRANCH   7  10
HETATM   10  N4  UNL     1       0.164  14.603  16.474  1.00  0.00    -0.197 N 
ATOM     11  H4  UNL     1      -0.697  14.995  16.093  1.00  0.00     0.180 HD
BRANCH  10  12
HETATM   12  C6  UNL     1       0.559  13.353  15.946  1.00  0.00     0.293 C 
HETATM   13  C7  UNL     1       0.766  13.503  14.445  1.00  0.00     0.063 C 
BRANCH  12  14
HETATM   14  N5  UNL     1      -0.326  12.266  16.171  1.00  0.00    -0.058 N 
ATOM     15  H53 UNL     1      -1.226  12.617  16.497  1.00  0.00     0.276 HD
ATOM     16  H52 UNL     1      -0.599  11.854  15.279  1.00  0.00     0.276 HD
ATOM     17  H51 UNL     1       0.006  11.535  16.801  1.00  0.00     0.276 HD
ENDBRANCH  12  14
ENDBRANCH  10  12
ENDBRANCH   7  10
BRANCH   1  18
HETATM   18  N1  UNL     1       3.834  15.663  19.036  1.00  0.00    -0.380 N 
HETATM   19  C1  UNL     1       4.182  14.468  19.799  1.00  0.00     0.147 C 
ATOM     20  H1  UNL     1       4.554  16.341  18.787  1.00  0.00     0.160 HD
ENDBRANCH   1  18
TORSDOF 4
ENDMDL
