MODEL 1
REMARK VINA RESULT: -7.560909117      0.000      0.000
REMARK  13 active torsions:
REMARK  status: ('A' for Active; 'I' for Inactive)
REMARK    1  A    between atoms: C2_2  and  C3_4 
REMARK       I    between atoms: C3_4  and  N1_6 
REMARK    2  A    between atoms: N1_6  and  C4_8 
REMARK    3  A    between atoms: C5_11  and  C6_12 
REMARK    4  A    between atoms: C11_26  and  N7_27 
REMARK    5  A    between atoms: N7_27  and  N8_29 
REMARK    6  A    between atoms: C12_31  and  C13_32 
REMARK    7  A    between atoms: C15_34  and  N9_35 
REMARK    8  A    between atoms: N9_35  and  O2_36 
REMARK       I    between atoms: N9_35  and  C16_38 
REMARK    9  A    between atoms: C19_42  and  O4_43 
REMARK   10  A    between atoms: C20_45  and  C21_46 
REMARK   11  A    between atoms: C21_46  and  O5_47 
REMARK   12  A    between atoms: O5_47  and  N10_48 
REMARK   13  A    between atoms: N12_53  and  N13_54 
ROOT
HETATM    1  C6  UNL     1      22.467  -8.092 -17.734  1.00  0.00     0.125 A 
HETATM    2  N3  UNL     1      22.103  -8.994 -18.653  1.00  0.00    -0.346 N 
ATOM      3  H3  UNL     1      22.094  -8.715 -19.634  1.00  0.00     0.166 HD
HETATM    4  C7  UNL     1      21.748 -10.251 -18.339  1.00  0.00     0.093 A 
HETATM    5  C8  UNL     1      21.373 -11.173 -19.291  1.00  0.00     0.123 A 
HETATM    6  N4  UNL     1      21.020 -12.428 -18.961  1.00  0.00    -0.340 N 
ATOM      7  H4  UNL     1      20.747 -13.087 -19.691  1.00  0.00     0.167 HD
HETATM    8  C9  UNL     1      21.026 -12.819 -17.673  1.00  0.00     0.180 A 
HETATM    9 CL1  UNL     1      20.557 -14.469 -17.304  1.00  0.00    -0.045 Cl
HETATM   10  N5  UNL     1      21.389 -11.935 -16.727  1.00  0.00    -0.317 N 
ATOM     11  H5  UNL     1      21.392 -12.234 -15.751  1.00  0.00     0.170 HD
HETATM   12  C10 UNL     1      21.749 -10.669 -17.018  1.00  0.00     0.137 A 
HETATM   13  N6  UNL     1      22.115  -9.770 -16.072  1.00  0.00    -0.324 N 
ATOM     14  H6  UNL     1      22.122 -10.052 -15.092  1.00  0.00     0.169 HD
HETATM   15  C11 UNL     1      22.467  -8.516 -16.397  1.00  0.00     0.152 A 
ENDROOT
BRANCH  15  16
HETATM   16  N7  UNL     1      22.820  -7.628 -15.553  1.00  0.00    -0.284 N 
ATOM     17  H7  UNL     1      22.594  -6.661 -15.787  1.00  0.00     0.188 HD
BRANCH  16  18
HETATM   18  N8  UNL     1      23.471  -7.837 -14.366  1.00  0.00    -0.309 N 
HETATM   19  C12 UNL     1      24.727  -7.691 -14.111  1.00  0.00     0.119 C 
ATOM     20  H8  UNL     1      22.890  -8.145 -13.585  1.00  0.00     0.186 HD
BRANCH  19  21
HETATM   21  C13 UNL     1      25.213  -7.969 -12.775  1.00  0.00    -0.002 A 
HETATM   22  C14 UNL     1      25.540  -9.221 -12.364  1.00  0.00     0.046 A 
HETATM   23  C15 UNL     1      26.012  -9.492 -11.086  1.00  0.00     0.069 A 
HETATM   24  C18 UNL     1      26.151  -8.456 -10.216  1.00  0.00     0.069 A 
HETATM   25  C19 UNL     1      25.824  -7.139 -10.600  1.00  0.00     0.081 A 
HETATM   26  C20 UNL     1      25.359  -6.905 -11.867  1.00  0.00     0.033 A 
BRANCH  23  27
HETATM   27  N9  UNL     1      26.347 -10.818 -10.695  1.00  0.00    -0.192 N 
HETATM   28  C16 UNL     1      27.696 -11.188 -10.572  1.00  0.00     0.244 C 
HETATM   29  C17 UNL     1      28.760 -10.205 -10.847  1.00  0.00     0.120 C 
HETATM   30  O3  UNL     1      28.010 -12.348 -10.229  1.00  0.00    -0.271 OA
BRANCH  27  31
HETATM   31  O2  UNL     1      25.323 -11.690 -10.453  1.00  0.00    -0.280 OA
ATOM     32  H2  UNL     1      25.409 -12.281  -9.714  1.00  0.00     0.245 HD
ENDBRANCH  27  31
ENDBRANCH  23  27
BRANCH  25  33
HETATM   33  O4  UNL     1      26.019  -6.171  -9.622  1.00  0.00    -0.360 OA
ATOM     34  H4  UNL     1      25.626  -5.326  -9.805  1.00  0.00     0.217 HD
ENDBRANCH  25  33
BRANCH  26  35
HETATM   35  C21 UNL     1      25.066  -5.580 -12.369  1.00  0.00     0.181 C 
BRANCH  35  36
HETATM   36  O5  UNL     1      24.160  -4.853 -11.667  1.00  0.00    -0.256 OA
BRANCH  36  37
HETATM   37  N10 UNL     1      22.896  -4.857 -12.193  1.00  0.00    -0.306 N 
ATOM     38 2H10 UNL     1      22.291  -5.677 -12.135  1.00  0.00     0.184 HD
ATOM     39 1H10 UNL     1      22.620  -3.983 -12.640  1.00  0.00     0.184 HD
ENDBRANCH  36  37
ENDBRANCH  35  36
ENDBRANCH  26  35
ENDBRANCH  19  21
ENDBRANCH  16  18
ENDBRANCH  15  16
BRANCH   1  40
HETATM   40  C5  UNL     1      22.858  -6.731 -18.068  1.00  0.00     0.168 A 
HETATM   41  N2  UNL     1      22.407  -5.616 -17.469  1.00  0.00    -0.170 N 
HETATM   42  C4  UNL     1      22.978  -4.535 -18.022  1.00  0.00     0.723 A 
ATOM     43  H2  UNL     1      21.729  -5.595 -16.707  1.00  0.00     0.186 HD
HETATM   44  N12 UNL     1      23.808  -4.955 -18.989  1.00  0.00    -0.025 N 
HETATM   45  N11 UNL     1      23.718  -6.297 -18.999  1.00  0.00    -0.247 N 
ATOM     46  H11 UNL     1      24.237  -6.905 -19.632  1.00  0.00     0.191 HD
BRANCH  42  47
HETATM   47  N1  UNL     1      22.770  -3.320 -17.694  1.00  0.00    -0.152 N 
HETATM   48  C3  UNL     1      21.533  -2.712 -17.463  1.00  0.00     0.276 C 
HETATM   49  O1  UNL     1      20.876  -2.873 -16.384  1.00  0.00    -0.266 OA
ATOM     50  H1  UNL     1      23.595  -2.730 -17.588  1.00  0.00     0.188 HD
BRANCH  48  51
HETATM   51  C2  UNL     1      20.937  -1.855 -18.473  1.00  0.00     0.070 C 
HETATM   52  C1  UNL     1      19.642  -1.661 -18.490  1.00  0.00     0.037 C 
HETATM   53 BR1  UNL     1      22.051  -1.007 -19.782  1.00  0.00    -0.046 Br
ENDBRANCH  48  51
ENDBRANCH  42  47
BRANCH  44  54
HETATM   54  N13 UNL     1      24.607  -4.173 -19.820  1.00  0.00    -0.309 N 
ATOM     55 2H13 UNL     1      24.327  -3.318 -20.301  1.00  0.00     0.179 HD
ATOM     56 1H13 UNL     1      25.581  -4.332 -20.074  1.00  0.00     0.179 HD
ENDBRANCH  44  54
ENDBRANCH   1  40
TORSDOF 13
ENDMDL
MODEL 2
REMARK VINA RESULT: -7.515602432      1.404      3.085
REMARK  13 active torsions:
REMARK  status: ('A' for Active; 'I' for Inactive)
REMARK    1  A    between atoms: C2_2  and  C3_4 
REMARK       I    between atoms: C3_4  and  N1_6 
REMARK    2  A    between atoms: N1_6  and  C4_8 
REMARK    3  A    between atoms: C5_11  and  C6_12 
REMARK    4  A    between atoms: C11_26  and  N7_27 
REMARK    5  A    between atoms: N7_27  and  N8_29 
REMARK    6  A    between atoms: C12_31  and  C13_32 
REMARK    7  A    between atoms: C15_34  and  N9_35 
REMARK    8  A    between atoms: N9_35  and  O2_36 
REMARK       I    between atoms: N9_35  and  C16_38 
REMARK    9  A    between atoms: C19_42  and  O4_43 
REMARK   10  A    between atoms: C20_45  and  C21_46 
REMARK   11  A    between atoms: C21_46  and  O5_47 
REMARK   12  A    between atoms: O5_47  and  N10_48 
REMARK   13  A    between atoms: N12_53  and  N13_54 
ROOT
HETATM    1  C6  UNL     1      22.653  -7.742 -17.110  1.00  0.00     0.125 A 
HETATM    2  N3  UNL     1      22.334  -8.562 -18.119  1.00  0.00    -0.346 N 
ATOM      3  H3  UNL     1      22.404  -8.211 -19.074  1.00  0.00     0.166 HD
HETATM    4  C7  UNL     1      21.924  -9.826 -17.928  1.00  0.00     0.093 A 
HETATM    5  C8  UNL     1      21.597 -10.663 -18.971  1.00  0.00     0.123 A 
HETATM    6  N4  UNL     1      21.187 -11.928 -18.764  1.00  0.00    -0.340 N 
ATOM      7  H4  UNL     1      20.952 -12.521 -19.559  1.00  0.00     0.167 HD
HETATM    8  C9  UNL     1      21.088 -12.413 -17.513  1.00  0.00     0.180 A 
HETATM    9 CL1  UNL     1      20.550 -14.070 -17.305  1.00  0.00    -0.045 Cl
HETATM   10  N5  UNL     1      21.403 -11.612 -16.478  1.00  0.00    -0.317 N 
ATOM     11  H5  UNL     1      21.326 -11.983 -15.530  1.00  0.00     0.170 HD
HETATM   12  C10 UNL     1      21.816 -10.341 -16.646  1.00  0.00     0.137 A 
HETATM   13  N6  UNL     1      22.135  -9.526 -15.610  1.00  0.00    -0.324 N 
ATOM     14  H6  UNL     1      22.062  -9.880 -14.657  1.00  0.00     0.169 HD
HETATM   15  C11 UNL     1      22.543  -8.263 -15.814  1.00  0.00     0.152 A 
ENDROOT
BRANCH  15  16
HETATM   16  N7  UNL     1      22.856  -7.452 -14.881  1.00  0.00    -0.284 N 
ATOM     17  H7  UNL     1      22.585  -6.478 -15.015  1.00  0.00     0.188 HD
BRANCH  16  18
HETATM   18  N8  UNL     1      23.517  -7.751 -13.719  1.00  0.00    -0.309 N 
HETATM   19  C12 UNL     1      24.778  -7.968 -13.556  1.00  0.00     0.119 C 
ATOM     20  H8  UNL     1      22.942  -7.810 -12.879  1.00  0.00     0.186 HD
BRANCH  19  21
HETATM   21  C13 UNL     1      25.276  -8.272 -12.230  1.00  0.00    -0.002 A 
HETATM   22  C14 UNL     1      25.378  -7.330 -11.256  1.00  0.00     0.046 A 
HETATM   23  C15 UNL     1      25.848  -7.617  -9.981  1.00  0.00     0.069 A 
HETATM   24  C18 UNL     1      26.219  -8.895  -9.702  1.00  0.00     0.069 A 
HETATM   25  C19 UNL     1      26.129  -9.905 -10.683  1.00  0.00     0.081 A 
HETATM   26  C20 UNL     1      25.663  -9.590 -11.931  1.00  0.00     0.033 A 
BRANCH  23  27
HETATM   27  N9  UNL     1      25.937  -6.603  -8.988  1.00  0.00    -0.192 N 
HETATM   28  C16 UNL     1      26.858  -5.554  -9.146  1.00  0.00     0.244 C 
HETATM   29  C17 UNL     1      27.727  -5.506 -10.336  1.00  0.00     0.120 C 
HETATM   30  O3  UNL     1      26.951  -4.652  -8.284  1.00  0.00    -0.271 OA
BRANCH  27  31
HETATM   31  O2  UNL     1      25.110  -6.695  -7.904  1.00  0.00    -0.280 OA
ATOM     32  H2  UNL     1      25.059  -5.948  -7.320  1.00  0.00     0.245 HD
ENDBRANCH  27  31
ENDBRANCH  23  27
BRANCH  25  33
HETATM   33  O4  UNL     1      26.531 -11.170 -10.268  1.00  0.00    -0.360 OA
ATOM     34  H4  UNL     1      27.435 -11.391 -10.462  1.00  0.00     0.217 HD
ENDBRANCH  25  33
BRANCH  26  35
HETATM   35  C21 UNL     1      25.472 -10.573 -12.975  1.00  0.00     0.181 C 
BRANCH  35  36
HETATM   36  O5  UNL     1      26.498 -11.435 -13.190  1.00  0.00    -0.256 OA
BRANCH  36  37
HETATM   37  N10 UNL     1      26.186 -12.753 -12.991  1.00  0.00    -0.306 N 
ATOM     38 2H10 UNL     1      25.359 -13.037 -12.466  1.00  0.00     0.184 HD
ATOM     39 1H10 UNL     1      26.843 -13.412 -13.409  1.00  0.00     0.184 HD
ENDBRANCH  36  37
ENDBRANCH  35  36
ENDBRANCH  26  35
ENDBRANCH  19  21
ENDBRANCH  16  18
ENDBRANCH  15  16
BRANCH   1  40
HETATM   40  C5  UNL     1      23.102  -6.373 -17.311  1.00  0.00     0.168 A 
HETATM   41  N2  UNL     1      22.396  -5.265 -17.027  1.00  0.00    -0.170 N 
HETATM   42  C4  UNL     1      23.113  -4.173 -17.332  1.00  0.00     0.723 A 
ATOM     43  H2  UNL     1      21.454  -5.257 -16.637  1.00  0.00     0.186 HD
HETATM   44  N12 UNL     1      24.297  -4.577 -17.819  1.00  0.00    -0.025 N 
HETATM   45  N11 UNL     1      24.267  -5.922 -17.797  1.00  0.00    -0.247 N 
ATOM     46  H11 UNL     1      25.031  -6.521 -18.109  1.00  0.00     0.191 HD
BRANCH  42  47
HETATM   47  N1  UNL     1      22.741  -2.962 -17.190  1.00  0.00    -0.152 N 
HETATM   48  C3  UNL     1      21.436  -2.469 -17.272  1.00  0.00     0.276 C 
HETATM   49  O1  UNL     1      20.590  -2.595 -16.328  1.00  0.00    -0.266 OA
ATOM     50  H1  UNL     1      23.474  -2.280 -16.995  1.00  0.00     0.188 HD
BRANCH  48  51
HETATM   51  C2  UNL     1      20.985  -1.779 -18.468  1.00  0.00     0.070 C 
HETATM   52  C1  UNL     1      19.706  -1.585 -18.672  1.00  0.00     0.037 C 
HETATM   53 BR1  UNL     1      22.267  -1.153 -19.747  1.00  0.00    -0.046 Br
ENDBRANCH  48  51
ENDBRANCH  42  47
BRANCH  44  54
HETATM   54  N13 UNL     1      25.351  -3.780 -18.259  1.00  0.00    -0.309 N 
ATOM     55 2H13 UNL     1      25.699  -2.933 -17.810  1.00  0.00     0.179 HD
ATOM     56 1H13 UNL     1      25.928  -3.916 -19.088  1.00  0.00     0.179 HD
ENDBRANCH  44  54
ENDBRANCH   1  40
TORSDOF 13
ENDMDL
MODEL 3
REMARK VINA RESULT: -7.477469967      1.468      3.187
REMARK  13 active torsions:
REMARK  status: ('A' for Active; 'I' for Inactive)
REMARK    1  A    between atoms: C2_2  and  C3_4 
REMARK       I    between atoms: C3_4  and  N1_6 
REMARK    2  A    between atoms: N1_6  and  C4_8 
REMARK    3  A    between atoms: C5_11  and  C6_12 
REMARK    4  A    between atoms: C11_26  and  N7_27 
REMARK    5  A    between atoms: N7_27  and  N8_29 
REMARK    6  A    between atoms: C12_31  and  C13_32 
REMARK    7  A    between atoms: C15_34  and  N9_35 
REMARK    8  A    between atoms: N9_35  and  O2_36 
REMARK       I    between atoms: N9_35  and  C16_38 
REMARK    9  A    between atoms: C19_42  and  O4_43 
REMARK   10  A    between atoms: C20_45  and  C21_46 
REMARK   11  A    between atoms: C21_46  and  O5_47 
REMARK   12  A    between atoms: O5_47  and  N10_48 
REMARK   13  A    between atoms: N12_53  and  N13_54 
ROOT
HETATM    1  C6  UNL     1      22.385  -7.823 -17.522  1.00  0.00     0.125 A 
HETATM    2  N3  UNL     1      22.282  -8.827 -18.400  1.00  0.00    -0.346 N 
ATOM      3  H3  UNL     1      22.478  -8.637 -19.383  1.00  0.00     0.166 HD
HETATM    4  C7  UNL     1      21.931 -10.073 -18.044  1.00  0.00     0.093 A 
HETATM    5  C8  UNL     1      21.827 -11.101 -18.954  1.00  0.00     0.123 A 
HETATM    6  N4  UNL     1      21.474 -12.345 -18.581  1.00  0.00    -0.340 N 
ATOM      7  H4  UNL     1      21.406 -13.084 -19.281  1.00  0.00     0.167 HD
HETATM    8  C9  UNL     1      21.213 -12.618 -17.290  1.00  0.00     0.180 A 
HETATM    9 CL1  UNL     1      20.759 -14.259 -16.864  1.00  0.00    -0.045 Cl
HETATM   10  N5  UNL     1      21.309 -11.629 -16.383  1.00  0.00    -0.317 N 
ATOM     11  H5  UNL     1      21.110 -11.839 -15.405  1.00  0.00     0.170 HD
HETATM   12  C10 UNL     1      21.659 -10.371 -16.718  1.00  0.00     0.137 A 
HETATM   13  N6  UNL     1      21.758  -9.368 -15.812  1.00  0.00    -0.324 N 
ATOM     14  H6  UNL     1      21.561  -9.560 -14.830  1.00  0.00     0.169 HD
HETATM   15  C11 UNL     1      22.109  -8.125 -16.181  1.00  0.00     0.152 A 
ENDROOT
BRANCH  15  16
HETATM   16  N7  UNL     1      22.218  -7.142 -15.376  1.00  0.00    -0.284 N 
ATOM     17  H7  UNL     1      21.604  -6.345 -15.543  1.00  0.00     0.188 HD
BRANCH  16  18
HETATM   18  N8  UNL     1      23.074  -7.044 -14.311  1.00  0.00    -0.309 N 
HETATM   19  C12 UNL     1      24.213  -7.629 -14.149  1.00  0.00     0.119 C 
ATOM     20  H8  UNL     1      22.774  -6.433 -13.551  1.00  0.00     0.186 HD
BRANCH  19  21
HETATM   21  C13 UNL     1      24.964  -7.385 -12.935  1.00  0.00    -0.002 A 
HETATM   22  C14 UNL     1      25.421  -6.152 -12.596  1.00  0.00     0.046 A 
HETATM   23  C15 UNL     1      26.137  -5.912 -11.430  1.00  0.00     0.069 A 
HETATM   24  C18 UNL     1      26.388  -6.958 -10.598  1.00  0.00     0.069 A 
HETATM   25  C19 UNL     1      25.932  -8.256 -10.911  1.00  0.00     0.081 A 
HETATM   26  C20 UNL     1      25.230  -8.461 -12.069  1.00  0.00     0.033 A 
BRANCH  23  27
HETATM   27  N9  UNL     1      26.596  -4.605 -11.109  1.00  0.00    -0.192 N 
HETATM   28  C16 UNL     1      27.937  -4.260 -11.346  1.00  0.00     0.244 C 
HETATM   29  C17 UNL     1      28.863  -5.249 -11.926  1.00  0.00     0.120 C 
HETATM   30  O3  UNL     1      28.359  -3.115 -11.071  1.00  0.00    -0.271 OA
BRANCH  27  31
HETATM   31  O2  UNL     1      25.697  -3.726 -10.573  1.00  0.00    -0.280 OA
ATOM     32  H2  UNL     1      25.605  -3.705  -9.628  1.00  0.00     0.245 HD
ENDBRANCH  27  31
ENDBRANCH  23  27
BRANCH  25  33
HETATM   33  O4  UNL     1      26.246  -9.235  -9.975  1.00  0.00    -0.360 OA
ATOM     34  H4  UNL     1      25.605  -9.931  -9.888  1.00  0.00     0.217 HD
ENDBRANCH  25  33
BRANCH  26  35
HETATM   35  C21 UNL     1      24.665  -9.742 -12.435  1.00  0.00     0.181 C 
BRANCH  35  36
HETATM   36  O5  UNL     1      25.547 -10.731 -12.727  1.00  0.00    -0.256 OA
BRANCH  36  37
HETATM   37  N10 UNL     1      25.744 -11.634 -11.717  1.00  0.00    -0.306 N 
ATOM     38 2H10 UNL     1      25.366 -12.580 -11.759  1.00  0.00     0.184 HD
ATOM     39 1H10 UNL     1      26.294 -11.280 -10.934  1.00  0.00     0.184 HD
ENDBRANCH  36  37
ENDBRANCH  35  36
ENDBRANCH  26  35
ENDBRANCH  19  21
ENDBRANCH  16  18
ENDBRANCH  15  16
BRANCH   1  40
HETATM   40  C5  UNL     1      22.770  -6.472 -17.901  1.00  0.00     0.168 A 
HETATM   41  N2  UNL     1      22.278  -5.338 -17.373  1.00  0.00    -0.170 N 
HETATM   42  C4  UNL     1      22.856  -4.274 -17.950  1.00  0.00     0.723 A 
ATOM     43  H2  UNL     1      21.570  -5.294 -16.640  1.00  0.00     0.186 HD
HETATM   44  N12 UNL     1      23.731  -4.723 -18.863  1.00  0.00    -0.025 N 
HETATM   45  N11 UNL     1      23.661  -6.066 -18.815  1.00  0.00    -0.247 N 
ATOM     46  H11 UNL     1      24.215  -6.693 -19.399  1.00  0.00     0.191 HD
BRANCH  42  47
HETATM   47  N1  UNL     1      22.618  -3.050 -17.686  1.00  0.00    -0.152 N 
HETATM   48  C3  UNL     1      21.365  -2.460 -17.494  1.00  0.00     0.276 C 
HETATM   49  O1  UNL     1      20.705  -2.580 -16.412  1.00  0.00    -0.266 OA
ATOM     50  H1  UNL     1      23.427  -2.434 -17.607  1.00  0.00     0.188 HD
BRANCH  48  51
HETATM   51  C2  UNL     1      20.755  -1.670 -18.550  1.00  0.00     0.070 C 
HETATM   52  C1  UNL     1      19.456  -1.511 -18.585  1.00  0.00     0.037 C 
HETATM   53 BR1  UNL     1      21.857  -0.862 -19.893  1.00  0.00    -0.046 Br
ENDBRANCH  48  51
ENDBRANCH  42  47
BRANCH  44  54
HETATM   54  N13 UNL     1      24.553  -3.967 -19.695  1.00  0.00    -0.309 N 
ATOM     55 2H13 UNL     1      24.712  -2.961 -19.639  1.00  0.00     0.179 HD
ATOM     56 1H13 UNL     1      25.113  -4.296 -20.481  1.00  0.00     0.179 HD
ENDBRANCH  44  54
ENDBRANCH   1  40
TORSDOF 13
ENDMDL
MODEL 4
REMARK VINA RESULT: -7.455510198      3.556      8.926
REMARK  13 active torsions:
REMARK  status: ('A' for Active; 'I' for Inactive)
REMARK    1  A    between atoms: C2_2  and  C3_4 
REMARK       I    between atoms: C3_4  and  N1_6 
REMARK    2  A    between atoms: N1_6  and  C4_8 
REMARK    3  A    between atoms: C5_11  and  C6_12 
REMARK    4  A    between atoms: C11_26  and  N7_27 
REMARK    5  A    between atoms: N7_27  and  N8_29 
REMARK    6  A    between atoms: C12_31  and  C13_32 
REMARK    7  A    between atoms: C15_34  and  N9_35 
REMARK    8  A    between atoms: N9_35  and  O2_36 
REMARK       I    between atoms: N9_35  and  C16_38 
REMARK    9  A    between atoms: C19_42  and  O4_43 
REMARK   10  A    between atoms: C20_45  and  C21_46 
REMARK   11  A    between atoms: C21_46  and  O5_47 
REMARK   12  A    between atoms: O5_47  and  N10_48 
REMARK   13  A    between atoms: N12_53  and  N13_54 
ROOT
HETATM    1  C6  UNL     1      22.922  -7.152 -15.814  1.00  0.00     0.125 A 
HETATM    2  N3  UNL     1      22.412  -8.386 -15.901  1.00  0.00    -0.346 N 
ATOM      3  H3  UNL     1      22.209  -8.892 -15.039  1.00  0.00     0.166 HD
HETATM    4  C7  UNL     1      22.155  -8.987 -17.074  1.00  0.00     0.093 A 
HETATM    5  C8  UNL     1      21.630 -10.257 -17.155  1.00  0.00     0.123 A 
HETATM    6  N4  UNL     1      21.379 -10.846 -18.338  1.00  0.00    -0.340 N 
ATOM      7  H4  UNL     1      20.990 -11.789 -18.363  1.00  0.00     0.167 HD
HETATM    8  C9  UNL     1      21.637 -10.197 -19.489  1.00  0.00     0.180 A 
HETATM    9 CL1  UNL     1      21.286 -11.015 -21.001  1.00  0.00    -0.045 Cl
HETATM   10  N5  UNL     1      22.149  -8.954 -19.433  1.00  0.00    -0.317 N 
ATOM     11  H5  UNL     1      22.344  -8.464 -20.307  1.00  0.00     0.170 HD
HETATM   12  C10 UNL     1      22.414  -8.332 -18.267  1.00  0.00     0.137 A 
HETATM   13  N6  UNL     1      22.932  -7.081 -18.201  1.00  0.00    -0.324 N 
ATOM     14  H6  UNL     1      23.134  -6.578 -19.065  1.00  0.00     0.169 HD
HETATM   15  C11 UNL     1      23.185  -6.490 -17.022  1.00  0.00     0.152 A 
ENDROOT
BRANCH  15  16
HETATM   16  N7  UNL     1      23.670  -5.318 -16.896  1.00  0.00    -0.284 N 
ATOM     17  H7  UNL     1      24.242  -5.147 -16.069  1.00  0.00     0.188 HD
BRANCH  16  18
HETATM   18  N8  UNL     1      23.504  -4.264 -17.755  1.00  0.00    -0.309 N 
HETATM   19  C12 UNL     1      22.533  -3.416 -17.794  1.00  0.00     0.119 C 
ATOM     20  H8  UNL     1      24.239  -4.133 -18.450  1.00  0.00     0.186 HD
BRANCH  19  21
HETATM   21  C13 UNL     1      22.552  -2.367 -18.794  1.00  0.00    -0.002 A 
HETATM   22  C14 UNL     1      23.652  -2.096 -19.544  1.00  0.00     0.046 A 
HETATM   23  C15 UNL     1      23.673  -1.096 -20.509  1.00  0.00     0.069 A 
HETATM   24  C18 UNL     1      22.545  -0.363 -20.705  1.00  0.00     0.069 A 
HETATM   25  C19 UNL     1      21.381  -0.610 -19.948  1.00  0.00     0.081 A 
HETATM   26  C20 UNL     1      21.392  -1.602 -19.004  1.00  0.00     0.033 A 
BRANCH  23  27
HETATM   27  N9  UNL     1      24.844  -0.845 -21.276  1.00  0.00    -0.192 N 
HETATM   28  C16 UNL     1      25.815   0.047 -20.793  1.00  0.00     0.244 C 
HETATM   29  C17 UNL     1      25.620   0.720 -19.496  1.00  0.00     0.120 C 
HETATM   30  O3  UNL     1      26.852   0.280 -21.453  1.00  0.00    -0.271 OA
BRANCH  27  31
HETATM   31  O2  UNL     1      24.976  -1.493 -22.472  1.00  0.00    -0.280 OA
ATOM     32  H2  UNL     1      24.408  -1.228 -23.186  1.00  0.00     0.245 HD
ENDBRANCH  27  31
ENDBRANCH  23  27
BRANCH  25  33
HETATM   33  O4  UNL     1      20.294   0.202 -20.251  1.00  0.00    -0.360 OA
ATOM     34  H4  UNL     1      19.704   0.374 -19.527  1.00  0.00     0.217 HD
ENDBRANCH  25  33
BRANCH  26  35
HETATM   35  C21 UNL     1      20.225  -1.971 -18.232  1.00  0.00     0.181 C 
BRANCH  35  36
HETATM   36  O5  UNL     1      19.782  -1.058 -17.330  1.00  0.00    -0.256 OA
BRANCH  36  37
HETATM   37  N10 UNL     1      18.723  -0.303 -17.758  1.00  0.00    -0.306 N 
ATOM     38 2H10 UNL     1      17.764  -0.516 -17.482  1.00  0.00     0.184 HD
ATOM     39 1H10 UNL     1      18.976   0.476 -18.365  1.00  0.00     0.184 HD
ENDBRANCH  36  37
ENDBRANCH  35  36
ENDBRANCH  26  35
ENDBRANCH  19  21
ENDBRANCH  16  18
ENDBRANCH  15  16
BRANCH   1  40
HETATM   40  C5  UNL     1      23.197  -6.494 -14.546  1.00  0.00     0.168 A 
HETATM   41  N2  UNL     1      24.156  -6.845 -13.672  1.00  0.00    -0.170 N 
HETATM   42  C4  UNL     1      24.134  -6.022 -12.611  1.00  0.00     0.723 A 
ATOM     43  H2  UNL     1      24.805  -7.621 -13.797  1.00  0.00     0.186 HD
HETATM   44  N12 UNL     1      23.149  -5.130 -12.801  1.00  0.00    -0.025 N 
HETATM   45  N11 UNL     1      22.593  -5.438 -13.987  1.00  0.00    -0.247 N 
ATOM     46  H11 UNL     1      21.812  -4.932 -14.405  1.00  0.00     0.191 HD
BRANCH  42  47
HETATM   47  N1  UNL     1      24.905  -6.076 -11.598  1.00  0.00    -0.152 N 
HETATM   48  C3  UNL     1      25.955  -5.204 -11.294  1.00  0.00     0.276 C 
HETATM   49  O1  UNL     1      25.767  -4.046 -10.798  1.00  0.00    -0.266 OA
ATOM     50  H1  UNL     1      24.739  -6.836 -10.939  1.00  0.00     0.188 HD
BRANCH  48  51
HETATM   51  C2  UNL     1      27.331  -5.597 -11.541  1.00  0.00     0.070 C 
HETATM   52  C1  UNL     1      28.279  -4.694 -11.560  1.00  0.00     0.037 C 
HETATM   53 BR1  UNL     1      27.756  -7.442 -11.838  1.00  0.00    -0.046 Br
ENDBRANCH  48  51
ENDBRANCH  42  47
BRANCH  44  54
HETATM   54  N13 UNL     1      22.771  -4.091 -11.954  1.00  0.00    -0.309 N 
ATOM     55 2H13 UNL     1      23.363  -3.327 -11.629  1.00  0.00     0.179 HD
ATOM     56 1H13 UNL     1      21.856  -3.936 -11.531  1.00  0.00     0.179 HD
ENDBRANCH  44  54
ENDBRANCH   1  40
TORSDOF 13
ENDMDL
MODEL 5
REMARK VINA RESULT: -7.434611245      1.567      1.761
REMARK  13 active torsions:
REMARK  status: ('A' for Active; 'I' for Inactive)
REMARK    1  A    between atoms: C2_2  and  C3_4 
REMARK       I    between atoms: C3_4  and  N1_6 
REMARK    2  A    between atoms: N1_6  and  C4_8 
REMARK    3  A    between atoms: C5_11  and  C6_12 
REMARK    4  A    between atoms: C11_26  and  N7_27 
REMARK    5  A    between atoms: N7_27  and  N8_29 
REMARK    6  A    between atoms: C12_31  and  C13_32 
REMARK    7  A    between atoms: C15_34  and  N9_35 
REMARK    8  A    between atoms: N9_35  and  O2_36 
REMARK       I    between atoms: N9_35  and  C16_38 
REMARK    9  A    between atoms: C19_42  and  O4_43 
REMARK   10  A    between atoms: C20_45  and  C21_46 
REMARK   11  A    between atoms: C21_46  and  O5_47 
REMARK   12  A    between atoms: O5_47  and  N10_48 
REMARK   13  A    between atoms: N12_53  and  N13_54 
ROOT
HETATM    1  C6  UNL     1      22.862  -8.218 -16.724  1.00  0.00     0.125 A 
HETATM    2  N3  UNL     1      22.597  -8.860 -17.868  1.00  0.00    -0.346 N 
ATOM      3  H3  UNL     1      22.784  -8.384 -18.750  1.00  0.00     0.166 HD
HETATM    4  C7  UNL     1      22.096 -10.105 -17.904  1.00  0.00     0.093 A 
HETATM    5  C8  UNL     1      21.825 -10.760 -19.085  1.00  0.00     0.123 A 
HETATM    6  N4  UNL     1      21.322 -12.007 -19.105  1.00  0.00    -0.340 N 
ATOM      7  H4  UNL     1      21.133 -12.463 -19.998  1.00  0.00     0.167 HD
HETATM    8  C9  UNL     1      21.069 -12.656 -17.954  1.00  0.00     0.180 A 
HETATM    9 CL1  UNL     1      20.415 -14.282 -18.044  1.00  0.00    -0.045 Cl
HETATM   10  N5  UNL     1      21.326 -12.036 -16.788  1.00  0.00    -0.317 N 
ATOM     11  H5  UNL     1      21.133 -12.530 -15.916  1.00  0.00     0.170 HD
HETATM   12  C10 UNL     1      21.830 -10.787 -16.728  1.00  0.00     0.137 A 
HETATM   13  N6  UNL     1      22.091 -10.154 -15.558  1.00  0.00    -0.324 N 
ATOM     14  H6  UNL     1      21.902 -10.633 -14.678  1.00  0.00     0.169 HD
HETATM   15  C11 UNL     1      22.592  -8.909 -15.534  1.00  0.00     0.152 A 
ENDROOT
BRANCH  15  16
HETATM   16  N7  UNL     1      22.858  -8.263 -14.467  1.00  0.00    -0.284 N 
ATOM     17  H7  UNL     1      22.493  -7.312 -14.407  1.00  0.00     0.188 HD
BRANCH  16  18
HETATM   18  N8  UNL     1      23.583  -8.712 -13.394  1.00  0.00    -0.309 N 
HETATM   19  C12 UNL     1      24.852  -8.606 -13.192  1.00  0.00     0.119 C 
ATOM     20  H8  UNL     1      23.052  -9.188 -12.665  1.00  0.00     0.186 HD
BRANCH  19  21
HETATM   21  C13 UNL     1      25.421  -9.157 -11.979  1.00  0.00    -0.002 A 
HETATM   22  C14 UNL     1      25.475 -10.493 -11.741  1.00  0.00     0.046 A 
HETATM   23  C15 UNL     1      26.025 -11.026 -10.582  1.00  0.00     0.069 A 
HETATM   24  C18 UNL     1      26.529 -10.171  -9.652  1.00  0.00     0.069 A 
HETATM   25  C19 UNL     1      26.494  -8.776  -9.859  1.00  0.00     0.081 A 
HETATM   26  C20 UNL     1      25.943  -8.281 -11.011  1.00  0.00     0.033 A 
BRANCH  23  27
HETATM   27  N9  UNL     1      26.066 -12.432 -10.371  1.00  0.00    -0.192 N 
HETATM   28  C16 UNL     1      27.175 -13.171 -10.814  1.00  0.00     0.244 C 
HETATM   29  C17 UNL     1      28.291 -12.490 -11.495  1.00  0.00     0.120 C 
HETATM   30  O3  UNL     1      27.229 -14.408 -10.638  1.00  0.00    -0.271 OA
BRANCH  27  31
HETATM   31  O2  UNL     1      25.005 -13.014  -9.736  1.00  0.00    -0.280 OA
ATOM     32  H2  UNL     1      24.295 -12.451  -9.450  1.00  0.00     0.245 HD
ENDBRANCH  27  31
ENDBRANCH  23  27
BRANCH  25  33
HETATM   33  O4  UNL     1      27.048  -8.012  -8.838  1.00  0.00    -0.360 OA
ATOM     34  H4  UNL     1      26.543  -7.248  -8.584  1.00  0.00     0.217 HD
ENDBRANCH  25  33
BRANCH  26  35
HETATM   35  C21 UNL     1      25.927  -6.871 -11.337  1.00  0.00     0.181 C 
BRANCH  35  36
HETATM   36  O5  UNL     1      25.375  -6.042 -10.416  1.00  0.00    -0.256 OA
BRANCH  36  37
HETATM   37  N10 UNL     1      26.254  -5.163  -9.842  1.00  0.00    -0.306 N 
ATOM     38 2H10 UNL     1      26.101  -4.155  -9.869  1.00  0.00     0.184 HD
ATOM     39 1H10 UNL     1      27.059  -5.600  -9.394  1.00  0.00     0.184 HD
ENDBRANCH  36  37
ENDBRANCH  35  36
ENDBRANCH  26  35
ENDBRANCH  19  21
ENDBRANCH  16  18
ENDBRANCH  15  16
BRANCH   1  40
HETATM   40  C5  UNL     1      23.411  -6.871 -16.678  1.00  0.00     0.168 A 
HETATM   41  N2  UNL     1      22.697  -5.733 -16.669  1.00  0.00    -0.170 N 
HETATM   42  C4  UNL     1      23.520  -4.675 -16.618  1.00  0.00     0.723 A 
ATOM     43  H2  UNL     1      21.678  -5.682 -16.697  1.00  0.00     0.186 HD
HETATM   44  N12 UNL     1      24.782  -5.133 -16.595  1.00  0.00    -0.025 N 
HETATM   45  N11 UNL     1      24.690  -6.474 -16.632  1.00  0.00    -0.247 N 
ATOM     46  H11 UNL     1      25.490  -7.107 -16.626  1.00  0.00     0.191 HD
BRANCH  42  47
HETATM   47  N1  UNL     1      23.173  -3.448 -16.600  1.00  0.00    -0.152 N 
HETATM   48  C3  UNL     1      21.907  -2.929 -16.886  1.00  0.00     0.276 C 
HETATM   49  O1  UNL     1      20.940  -2.975 -16.059  1.00  0.00    -0.266 OA
ATOM     50  H1  UNL     1      23.895  -2.774 -16.348  1.00  0.00     0.188 HD
BRANCH  48  51
HETATM   51  C2  UNL     1      21.643  -2.304 -18.171  1.00  0.00     0.070 C 
HETATM   52  C1  UNL     1      22.596  -2.213 -19.065  1.00  0.00     0.037 C 
HETATM   53 BR1  UNL     1      19.897  -1.615 -18.555  1.00  0.00    -0.046 Br
ENDBRANCH  48  51
ENDBRANCH  42  47
BRANCH  44  54
HETATM   54  N13 UNL     1      25.955  -4.385 -16.541  1.00  0.00    -0.309 N 
ATOM     55 2H13 UNL     1      26.837  -4.669 -16.113  1.00  0.00     0.179 HD
ATOM     56 1H13 UNL     1      26.113  -3.449 -16.913  1.00  0.00     0.179 HD
ENDBRANCH  44  54
ENDBRANCH   1  40
TORSDOF 13
ENDMDL
