MODEL 1
REMARK VINA RESULT: -6.849168961      0.000      0.000
REMARK  1 active torsions:
REMARK  status: ('A' for Active; 'I' for Inactive)
REMARK    1  A    between atoms: C1_2  and  C2_3 
ROOT
HETATM    1  C2  UNL     1     -15.849  -8.313  75.564  1.00  0.00     0.173 C 
HETATM    2  C3  UNL     1     -15.202  -7.773  74.367  1.00  0.00     0.231 C 
HETATM    3  O2  UNL     1     -14.479  -6.742  74.496  1.00  0.00    -0.273 OA
HETATM    4  N1  UNL     1     -15.408  -8.417  73.128  1.00  0.00    -0.355 N 
ATOM      5  H1  UNL     1     -14.703  -8.399  72.390  1.00  0.00     0.162 HD
HETATM    6  C4  UNL     1     -16.649  -9.091  72.960  1.00  0.00     0.097 C 
HETATM    7  C5  UNL     1     -16.669 -10.255  72.004  1.00  0.00     0.068 C 
HETATM    8  C6  UNL     1     -16.532 -11.138  73.257  1.00  0.00     0.123 C 
HETATM    9 CL1  UNL     1     -17.640 -12.547  73.205  1.00  0.00    -0.101 Cl
HETATM   10 CL2  UNL     1     -14.872 -11.641  73.433  1.00  0.00    -0.101 Cl
HETATM   11  C7  UNL     1     -17.023 -10.002  74.098  1.00  0.00     0.082 C 
HETATM   12  C8  UNL     1     -16.384  -9.712  75.393  1.00  0.00     0.199 C 
HETATM   13  F1  UNL     1     -15.364 -10.581  75.743  1.00  0.00    -0.248 F 
ENDROOT
BRANCH   1  14
HETATM   14  C1  UNL     1     -16.942  -7.369  75.997  1.00  0.00     0.248 C 
HETATM   15  O1  UNL     1     -18.088  -7.480  75.638  1.00  0.00    -0.306 OA
ENDBRANCH   1  14
TORSDOF 1
ENDMDL
MODEL 2
REMARK VINA RESULT: -6.735730417      2.721      3.246
REMARK  1 active torsions:
REMARK  status: ('A' for Active; 'I' for Inactive)
REMARK    1  A    between atoms: C1_2  and  C2_3 
ROOT
HETATM    1  C2  UNL     1     -16.076  -7.096  75.914  1.00  0.00     0.173 C 
HETATM    2  C3  UNL     1     -17.123  -7.936  75.331  1.00  0.00     0.231 C 
HETATM    3  O2  UNL     1     -18.324  -7.548  75.436  1.00  0.00    -0.273 OA
HETATM    4  N1  UNL     1     -16.758  -9.135  74.681  1.00  0.00    -0.355 N 
ATOM      5  H1  UNL     1     -17.310  -9.519  73.914  1.00  0.00     0.162 HD
HETATM    6  C4  UNL     1     -15.580  -9.779  75.151  1.00  0.00     0.097 C 
HETATM    7  C5  UNL     1     -14.828 -10.630  74.162  1.00  0.00     0.068 C 
HETATM    8  C6  UNL     1     -13.908  -9.409  73.986  1.00  0.00     0.123 C 
HETATM    9 CL1  UNL     1     -12.176  -9.875  73.974  1.00  0.00    -0.101 Cl
HETATM   10 CL2  UNL     1     -14.346  -8.557  72.530  1.00  0.00    -0.101 Cl
HETATM   11  C7  UNL     1     -14.389  -8.872  75.297  1.00  0.00     0.082 C 
HETATM   12  C8  UNL     1     -14.686  -7.436  75.442  1.00  0.00     0.199 C 
HETATM   13  F1  UNL     1     -14.445  -6.678  74.308  1.00  0.00    -0.248 F 
ENDROOT
BRANCH   1  14
HETATM   14  C1  UNL     1     -16.168  -7.172  77.416  1.00  0.00     0.248 C 
HETATM   15  O1  UNL     1     -16.544  -8.156  78.004  1.00  0.00    -0.306 OA
ENDBRANCH   1  14
TORSDOF 1
ENDMDL
MODEL 3
REMARK VINA RESULT: -6.700923161     13.408     14.212
REMARK  1 active torsions:
REMARK  status: ('A' for Active; 'I' for Inactive)
REMARK    1  A    between atoms: C1_2  and  C2_3 
ROOT
HETATM    1  C2  UNL     1     -18.074  -6.035  61.021  1.00  0.00     0.173 C 
HETATM    2  C3  UNL     1     -17.406  -7.018  61.876  1.00  0.00     0.231 C 
HETATM    3  O2  UNL     1     -18.126  -7.849  62.502  1.00  0.00    -0.273 OA
HETATM    4  N1  UNL     1     -15.998  -7.001  61.967  1.00  0.00    -0.355 N 
ATOM      5  H1  UNL     1     -15.461  -7.850  62.150  1.00  0.00     0.162 HD
HETATM    6  C4  UNL     1     -15.364  -5.739  61.792  1.00  0.00     0.097 C 
HETATM    7  C5  UNL     1     -13.954  -5.752  61.263  1.00  0.00     0.068 C 
HETATM    8  C6  UNL     1     -14.588  -5.454  59.893  1.00  0.00     0.123 C 
HETATM    9 CL1  UNL     1     -13.695  -4.175  59.008  1.00  0.00    -0.101 Cl
HETATM   10 CL2  UNL     1     -14.677  -6.926  58.962  1.00  0.00    -0.101 Cl
HETATM   11  C7  UNL     1     -15.826  -4.973  60.582  1.00  0.00     0.082 C 
HETATM   12  C8  UNL     1     -17.153  -5.336  60.056  1.00  0.00     0.199 C 
HETATM   13  F1  UNL     1     -17.128  -6.095  58.897  1.00  0.00    -0.248 F 
ENDROOT
BRANCH   1  14
HETATM   14  C1  UNL     1     -18.796  -5.040  61.893  1.00  0.00     0.248 C 
HETATM   15  O1  UNL     1     -18.474  -4.808  63.033  1.00  0.00    -0.306 OA
ENDBRANCH   1  14
TORSDOF 1
ENDMDL
MODEL 4
REMARK VINA RESULT: -6.671147600      1.365      1.472
REMARK  1 active torsions:
REMARK  status: ('A' for Active; 'I' for Inactive)
REMARK    1  A    between atoms: C1_2  and  C2_3 
ROOT
HETATM    1  C2  UNL     1     -16.305  -8.665  76.079  1.00  0.00     0.173 C 
HETATM    2  C3  UNL     1     -14.905  -8.355  75.789  1.00  0.00     0.231 C 
HETATM    3  O2  UNL     1     -14.184  -7.918  76.733  1.00  0.00    -0.273 OA
HETATM    4  N1  UNL     1     -14.416  -8.553  74.479  1.00  0.00    -0.355 N 
ATOM      5  H1  UNL     1     -13.439  -8.786  74.300  1.00  0.00     0.162 HD
HETATM    6  C4  UNL     1     -15.357  -8.411  73.422  1.00  0.00     0.097 C 
HETATM    7  C5  UNL     1     -15.088  -9.188  72.160  1.00  0.00     0.068 C 
HETATM    8  C6  UNL     1     -16.093 -10.213  72.714  1.00  0.00     0.123 C 
HETATM    9 CL1  UNL     1     -17.243 -10.768  71.454  1.00  0.00    -0.101 Cl
HETATM   10 CL2  UNL     1     -15.228 -11.552  73.419  1.00  0.00    -0.101 Cl
HETATM   11  C7  UNL     1     -16.644  -9.163  73.627  1.00  0.00     0.082 C 
HETATM   12  C8  UNL     1     -16.980  -9.499  75.021  1.00  0.00     0.199 C 
HETATM   13  F1  UNL     1     -16.778 -10.826  75.361  1.00  0.00    -0.248 F 
ENDROOT
BRANCH   1  14
HETATM   14  C1  UNL     1     -17.054  -7.377  76.308  1.00  0.00     0.248 C 
HETATM   15  O1  UNL     1     -18.175  -7.187  75.906  1.00  0.00    -0.306 OA
ENDBRANCH   1  14
TORSDOF 1
ENDMDL
MODEL 5
REMARK VINA RESULT: -6.603625350      2.841      3.621
REMARK  1 active torsions:
REMARK  status: ('A' for Active; 'I' for Inactive)
REMARK    1  A    between atoms: C1_2  and  C2_3 
ROOT
HETATM    1  C2  UNL     1     -16.120  -7.122  75.564  1.00  0.00     0.173 C 
HETATM    2  C3  UNL     1     -16.681  -8.473  75.588  1.00  0.00     0.231 C 
HETATM    3  O2  UNL     1     -17.832  -8.631  76.090  1.00  0.00    -0.273 OA
HETATM    4  N1  UNL     1     -15.923  -9.539  75.056  1.00  0.00    -0.355 N 
ATOM      5  H1  UNL     1     -16.367 -10.359  74.642  1.00  0.00     0.162 HD
HETATM    6  C4  UNL     1     -14.508  -9.409  75.124  1.00  0.00     0.097 C 
HETATM    7  C5  UNL     1     -13.705 -10.132  74.075  1.00  0.00     0.068 C 
HETATM    8  C6  UNL     1     -13.643  -8.776  73.352  1.00  0.00     0.123 C 
HETATM    9 CL1  UNL     1     -11.995  -8.422  72.738  1.00  0.00    -0.101 Cl
HETATM   10 CL2  UNL     1     -14.820  -8.749  72.066  1.00  0.00    -0.101 Cl
HETATM   11  C7  UNL     1     -13.979  -8.088  74.638  1.00  0.00     0.082 C 
HETATM   12  C8  UNL     1     -14.934  -6.966  74.648  1.00  0.00     0.199 C 
HETATM   13  F1  UNL     1     -15.427  -6.616  73.402  1.00  0.00    -0.248 F 
ENDROOT
BRANCH   1  14
HETATM   14  C1  UNL     1     -15.769  -6.713  76.972  1.00  0.00     0.248 C 
HETATM   15  O1  UNL     1     -15.348  -7.487  77.796  1.00  0.00    -0.306 OA
ENDBRANCH   1  14
TORSDOF 1
ENDMDL
