MODEL 1
REMARK VINA RESULT: -5.007764287      0.000      0.000
REMARK  4 active torsions:
REMARK  status: ('A' for Active; 'I' for Inactive)
REMARK    1  A    between atoms: N1_1  and  C1_5 
REMARK    2  A    between atoms: C1_5  and  C2_6 
REMARK    3  A    between atoms: C2_6  and  N2_7 
REMARK    4  A    between atoms: N2_7  and  C3_10 
ROOT
HETATM    1  N2  UNL     1       0.087   3.211   9.955  1.00  0.00    -0.068 N 
ATOM      2  H21 UNL     1       1.013   3.147  10.379  1.00  0.00     0.277 HD
ATOM      3  H22 UNL     1       0.300   2.858   9.022  1.00  0.00     0.277 HD
ENDROOT
BRANCH   1   4
HETATM    4  C2  UNL     1      -0.340   4.562   9.891  1.00  0.00     0.260 C 
BRANCH   4   5
HETATM    5  C1  UNL     1       0.838   5.518   9.940  1.00  0.00     0.257 C 
BRANCH   5   6
HETATM    6  N1  UNL     1       1.971   4.992   9.208  1.00  0.00    -0.078 N 
ATOM      7  H13 UNL     1       2.249   4.074   9.555  1.00  0.00     0.274 HD
ATOM      8  H12 UNL     1       1.713   4.729   8.257  1.00  0.00     0.274 HD
ATOM      9  H11 UNL     1       2.753   5.648   9.216  1.00  0.00     0.274 HD
ENDBRANCH   5   6
ENDBRANCH   4   5
ENDBRANCH   1   4
BRANCH   1  10
HETATM   10  C3  UNL     1      -0.846   2.329  10.631  1.00  0.00     0.200 C 
HETATM   11  C4  UNL     1      -2.081   3.120  10.911  1.00  0.00     0.049 C 
HETATM   12  C5  UNL     1      -3.249   2.239  11.108  1.00  0.00     0.142 C 
HETATM   13  S1  UNL     1      -2.850   0.712  10.296  1.00  0.00     0.146 S 
HETATM   14  O1  UNL     1      -2.900  -0.404  11.275  1.00  0.00    -0.228 OA
HETATM   15  O2  UNL     1      -3.685   0.469   9.079  1.00  0.00    -0.228 OA
HETATM   16  C6  UNL     1      -1.156   1.115   9.842  1.00  0.00     0.173 C 
ENDBRANCH   1  10
TORSDOF 4
ENDMDL
MODEL 2
REMARK VINA RESULT: -4.919180760      4.738      5.805
REMARK  4 active torsions:
REMARK  status: ('A' for Active; 'I' for Inactive)
REMARK    1  A    between atoms: N1_1  and  C1_5 
REMARK    2  A    between atoms: C1_5  and  C2_6 
REMARK    3  A    between atoms: C2_6  and  N2_7 
REMARK    4  A    between atoms: N2_7  and  C3_10 
ROOT
HETATM    1  N2  UNL     1       0.577   3.508   9.686  1.00  0.00    -0.068 N 
ATOM      2  H21 UNL     1       0.736   2.817   8.952  1.00  0.00     0.277 HD
ATOM      3  H22 UNL     1       1.283   3.211  10.359  1.00  0.00     0.277 HD
ENDROOT
BRANCH   1   4
HETATM    4  C2  UNL     1      -0.724   3.363  10.232  1.00  0.00     0.260 C 
BRANCH   4   5
HETATM    5  C1  UNL     1      -1.025   1.914  10.570  1.00  0.00     0.257 C 
BRANCH   5   6
HETATM    6  N1  UNL     1      -0.298   1.012   9.701  1.00  0.00    -0.078 N 
ATOM      7  H13 UNL     1       0.365   1.513   9.110  1.00  0.00     0.274 HD
ATOM      8  H12 UNL     1       0.363   0.438  10.225  1.00  0.00     0.274 HD
ATOM      9  H11 UNL     1      -0.936   0.439   9.148  1.00  0.00     0.274 HD
ENDBRANCH   5   6
ENDBRANCH   4   5
ENDBRANCH   1   4
BRANCH   1  10
HETATM   10  C3  UNL     1       0.866   4.844   9.200  1.00  0.00     0.200 C 
HETATM   11  C4  UNL     1      -0.439   5.492   8.877  1.00  0.00     0.049 C 
HETATM   12  C5  UNL     1      -0.324   6.964   8.878  1.00  0.00     0.142 C 
HETATM   13  S1  UNL     1       1.091   7.340   9.883  1.00  0.00     0.146 S 
HETATM   14  O1  UNL     1       2.084   8.101   9.084  1.00  0.00    -0.228 OA
HETATM   15  O2  UNL     1       0.724   8.013  11.167  1.00  0.00    -0.228 OA
HETATM   16  C6  UNL     1       1.635   5.650  10.176  1.00  0.00     0.173 C 
ENDBRANCH   1  10
TORSDOF 4
ENDMDL
MODEL 3
REMARK VINA RESULT: -4.770489929      3.268      4.051
REMARK  4 active torsions:
REMARK  status: ('A' for Active; 'I' for Inactive)
REMARK    1  A    between atoms: N1_1  and  C1_5 
REMARK    2  A    between atoms: C1_5  and  C2_6 
REMARK    3  A    between atoms: C2_6  and  N2_7 
REMARK    4  A    between atoms: N2_7  and  C3_10 
ROOT
HETATM    1  N2  UNL     1       1.988   5.291   9.542  1.00  0.00    -0.068 N 
ATOM      2  H21 UNL     1       2.607   4.517   9.784  1.00  0.00     0.277 HD
ATOM      3  H22 UNL     1       2.533   5.721   8.795  1.00  0.00     0.277 HD
ENDROOT
BRANCH   1   4
HETATM    4  C2  UNL     1       1.856   6.183  10.638  1.00  0.00     0.260 C 
BRANCH   4   5
HETATM    5  C1  UNL     1       2.169   7.611  10.231  1.00  0.00     0.257 C 
BRANCH   5   6
HETATM    6  N1  UNL     1       3.073   7.647   9.100  1.00  0.00    -0.078 N 
ATOM      7  H13 UNL     1       3.852   7.000   9.221  1.00  0.00     0.274 HD
ATOM      8  H12 UNL     1       2.651   7.231   8.270  1.00  0.00     0.274 HD
ATOM      9  H11 UNL     1       3.400   8.597   8.919  1.00  0.00     0.274 HD
ENDBRANCH   5   6
ENDBRANCH   4   5
ENDBRANCH   1   4
BRANCH   1  10
HETATM   10  C3  UNL     1       0.725   4.794   9.031  1.00  0.00     0.200 C 
HETATM   11  C4  UNL     1       0.070   4.028  10.132  1.00  0.00     0.049 C 
HETATM   12  C5  UNL     1      -1.388   3.926   9.923  1.00  0.00     0.142 C 
HETATM   13  S1  UNL     1      -1.821   5.276   8.854  1.00  0.00     0.146 S 
HETATM   14  O1  UNL     1      -2.454   4.752   7.617  1.00  0.00    -0.228 OA
HETATM   15  O2  UNL     1      -2.644   6.317   9.544  1.00  0.00    -0.228 OA
HETATM   16  C6  UNL     1      -0.155   5.879   8.538  1.00  0.00     0.173 C 
ENDBRANCH   1  10
TORSDOF 4
ENDMDL
MODEL 4
REMARK VINA RESULT: -4.740746440      4.414      5.513
REMARK  4 active torsions:
REMARK  status: ('A' for Active; 'I' for Inactive)
REMARK    1  A    between atoms: N1_1  and  C1_5 
REMARK    2  A    between atoms: C1_5  and  C2_6 
REMARK    3  A    between atoms: C2_6  and  N2_7 
REMARK    4  A    between atoms: N2_7  and  C3_10 
ROOT
HETATM    1  N2  UNL     1      -1.821   3.425   9.490  1.00  0.00    -0.068 N 
ATOM      2  H21 UNL     1      -2.795   3.728   9.455  1.00  0.00     0.277 HD
ATOM      3  H22 UNL     1      -1.654   3.266   8.496  1.00  0.00     0.277 HD
ENDROOT
BRANCH   1   4
HETATM    4  C2  UNL     1      -1.704   2.211  10.214  1.00  0.00     0.260 C 
BRANCH   4   5
HETATM    5  C1  UNL     1      -2.285   2.340  11.611  1.00  0.00     0.257 C 
BRANCH   5   6
HETATM    6  N1  UNL     1      -3.697   2.660  11.563  1.00  0.00    -0.078 N 
ATOM      7  H13 UNL     1      -3.894   3.385  10.872  1.00  0.00     0.274 HD
ATOM      8  H12 UNL     1      -4.239   1.900  11.151  1.00  0.00     0.274 HD
ATOM      9  H11 UNL     1      -4.049   2.915  12.486  1.00  0.00     0.274 HD
ENDBRANCH   5   6
ENDBRANCH   4   5
ENDBRANCH   1   4
BRANCH   1  10
HETATM   10  C3  UNL     1      -0.972   4.491   9.985  1.00  0.00     0.200 C 
HETATM   11  C4  UNL     1       0.429   4.167   9.584  1.00  0.00     0.049 C 
HETATM   12  C5  UNL     1       1.277   5.376   9.564  1.00  0.00     0.142 C 
HETATM   13  S1  UNL     1       0.164   6.747   9.375  1.00  0.00     0.146 S 
HETATM   14  O1  UNL     1       0.319   7.678  10.521  1.00  0.00    -0.228 OA
HETATM   15  O2  UNL     1       0.295   7.418   8.045  1.00  0.00    -0.228 OA
HETATM   16  C6  UNL     1      -1.377   5.823   9.479  1.00  0.00     0.173 C 
ENDBRANCH   1  10
TORSDOF 4
ENDMDL
MODEL 5
REMARK VINA RESULT: -4.739033360      1.983      2.564
REMARK  4 active torsions:
REMARK  status: ('A' for Active; 'I' for Inactive)
REMARK    1  A    between atoms: N1_1  and  C1_5 
REMARK    2  A    between atoms: C1_5  and  C2_6 
REMARK    3  A    between atoms: C2_6  and  N2_7 
REMARK    4  A    between atoms: N2_7  and  C3_10 
ROOT
HETATM    1  N2  UNL     1       1.148   4.681   9.431  1.00  0.00    -0.068 N 
ATOM      2  H21 UNL     1       1.589   3.761   9.379  1.00  0.00     0.277 HD
ATOM      3  H22 UNL     1       1.105   4.908   8.438  1.00  0.00     0.277 HD
ENDROOT
BRANCH   1   4
HETATM    4  C2  UNL     1       1.988   5.597  10.116  1.00  0.00     0.260 C 
BRANCH   4   5
HETATM    5  C1  UNL     1       1.771   7.018   9.629  1.00  0.00     0.257 C 
BRANCH   5   6
HETATM    6  N1  UNL     1       3.011   7.611   9.173  1.00  0.00    -0.078 N 
ATOM      7  H13 UNL     1       2.926   8.621   9.065  1.00  0.00     0.274 HD
ATOM      8  H12 UNL     1       3.726   7.590   9.900  1.00  0.00     0.274 HD
ATOM      9  H11 UNL     1       3.337   7.168   8.313  1.00  0.00     0.274 HD
ENDBRANCH   5   6
ENDBRANCH   4   5
ENDBRANCH   1   4
BRANCH   1  10
HETATM   10  C3  UNL     1      -0.187   4.575   9.988  1.00  0.00     0.200 C 
HETATM   11  C4  UNL     1      -1.141   5.072   8.953  1.00  0.00     0.049 C 
HETATM   12  C5  UNL     1      -2.502   4.547   9.180  1.00  0.00     0.142 C 
HETATM   13  S1  UNL     1      -2.299   3.072  10.148  1.00  0.00     0.146 S 
HETATM   14  O1  UNL     1      -3.045   3.206  11.426  1.00  0.00    -0.228 OA
HETATM   15  O2  UNL     1      -2.645   1.831   9.388  1.00  0.00    -0.228 OA
HETATM   16  C6  UNL     1      -0.522   3.194  10.405  1.00  0.00     0.173 C 
ENDBRANCH   1  10
TORSDOF 4
ENDMDL
