MODEL 1
REMARK VINA RESULT: -4.811255933      0.000      0.000
REMARK  4 active torsions:
REMARK  status: ('A' for Active; 'I' for Inactive)
REMARK    1  A    between atoms: N1_1  and  C1_4 
REMARK    2  A    between atoms: C1_4  and  C2_5 
REMARK    3  A    between atoms: C2_5  and  C3_6 
REMARK    4  A    between atoms: C5_8  and  C6_9 
ROOT
HETATM    1  C3  UNL     1      -1.200   2.680  11.234  1.00  0.00     0.009 A 
HETATM    2  C4  UNL     1      -2.438   2.254  11.880  1.00  0.00     0.018 A 
HETATM    3  C5  UNL     1      -1.757   1.391  10.829  1.00  0.00     0.055 A 
ENDROOT
BRANCH   1   4
HETATM    4  C2  UNL     1      -1.110   3.821  10.312  1.00  0.00     0.109 C 
BRANCH   4   5
HETATM    5  C1  UNL     1       0.043   4.170   9.797  1.00  0.00    -0.077 C 
BRANCH   5   6
HETATM    6  N1  UNL     1       1.092   4.413   9.115  1.00  0.00    -0.370 N 
ATOM      7  H12 UNL     1       0.556   4.206   8.272  1.00  0.00     0.165 HD
ATOM      8  H11 UNL     1       2.007   4.638   8.723  1.00  0.00     0.165 HD
ENDBRANCH   5   6
ENDBRANCH   4   5
ENDBRANCH   1   4
BRANCH   3   9
HETATM    9  C6  UNL     1      -2.551   1.082   9.641  1.00  0.00     0.091 C 
HETATM   10  N2  UNL     1      -2.117   0.733   8.513  1.00  0.00    -0.391 N 
ATOM     11  H22 UNL     1      -1.105   0.637   8.423  1.00  0.00     0.157 HD
ATOM     12  H21 UNL     1      -2.671   0.517   7.685  1.00  0.00     0.157 HD
HETATM   13  N3  UNL     1      -3.988   1.218   9.770  1.00  0.00    -0.088 NA
ENDBRANCH   3   9
TORSDOF 4
ENDMDL
MODEL 2
REMARK VINA RESULT: -4.796339386      1.236      1.622
REMARK  4 active torsions:
REMARK  status: ('A' for Active; 'I' for Inactive)
REMARK    1  A    between atoms: N1_1  and  C1_4 
REMARK    2  A    between atoms: C1_4  and  C2_5 
REMARK    3  A    between atoms: C2_5  and  C3_6 
REMARK    4  A    between atoms: C5_8  and  C6_9 
ROOT
HETATM    1  C3  UNL     1      -1.133   4.137  10.522  1.00  0.00     0.009 A 
HETATM    2  C4  UNL     1      -2.509   3.651  10.570  1.00  0.00     0.018 A 
HETATM    3  C5  UNL     1      -1.340   2.753  10.947  1.00  0.00     0.055 A 
ENDROOT
BRANCH   1   4
HETATM    4  C2  UNL     1      -0.430   4.478   9.277  1.00  0.00     0.109 C 
BRANCH   4   5
HETATM    5  C1  UNL     1       0.844   4.782   9.296  1.00  0.00    -0.077 C 
BRANCH   5   6
HETATM    6  N1  UNL     1       2.053   5.140   9.107  1.00  0.00    -0.370 N 
ATOM      7  H12 UNL     1       1.744   5.639   8.273  1.00  0.00     0.165 HD
ATOM      8  H11 UNL     1       3.054   5.335   9.101  1.00  0.00     0.165 HD
ENDBRANCH   5   6
ENDBRANCH   4   5
ENDBRANCH   1   4
BRANCH   3   9
HETATM    9  C6  UNL     1      -1.188   1.532  10.159  1.00  0.00     0.091 C 
HETATM   10  N2  UNL     1      -0.110   1.012   9.774  1.00  0.00    -0.391 N 
ATOM     11  H22 UNL     1       0.751   1.480  10.058  1.00  0.00     0.157 HD
ATOM     12  H21 UNL     1      -0.004   0.160   9.224  1.00  0.00     0.157 HD
HETATM   13  N3  UNL     1      -2.411   0.868   9.756  1.00  0.00    -0.088 NA
ENDBRANCH   3   9
TORSDOF 4
ENDMDL
MODEL 3
REMARK VINA RESULT: -4.700645084      0.447      1.143
REMARK  4 active torsions:
REMARK  status: ('A' for Active; 'I' for Inactive)
REMARK    1  A    between atoms: N1_1  and  C1_4 
REMARK    2  A    between atoms: C1_4  and  C2_5 
REMARK    3  A    between atoms: C2_5  and  C3_6 
REMARK    4  A    between atoms: C5_8  and  C6_9 
ROOT
HETATM    1  C3  UNL     1      -1.186   2.535  11.150  1.00  0.00     0.009 A 
HETATM    2  C4  UNL     1      -2.298   2.200  12.036  1.00  0.00     0.018 A 
HETATM    3  C5  UNL     1      -2.045   1.420  10.754  1.00  0.00     0.055 A 
ENDROOT
BRANCH   1   4
HETATM    4  C2  UNL     1      -1.108   3.780  10.373  1.00  0.00     0.109 C 
BRANCH   4   5
HETATM    5  C1  UNL     1       0.026   4.157   9.835  1.00  0.00    -0.077 C 
BRANCH   5   6
HETATM    6  N1  UNL     1       1.055   4.423   9.132  1.00  0.00    -0.370 N 
ATOM      7  H12 UNL     1       0.508   4.204   8.300  1.00  0.00     0.165 HD
ATOM      8  H11 UNL     1       1.956   4.670   8.723  1.00  0.00     0.165 HD
ENDBRANCH   5   6
ENDBRANCH   4   5
ENDBRANCH   1   4
BRANCH   3   9
HETATM    9  C6  UNL     1      -3.134   1.419   9.779  1.00  0.00     0.091 C 
HETATM   10  N2  UNL     1      -4.283   1.907   9.930  1.00  0.00    -0.391 N 
ATOM     11  H22 UNL     1      -4.470   2.371  10.820  1.00  0.00     0.157 HD
ATOM     12  H21 UNL     1      -5.042   1.906   9.249  1.00  0.00     0.157 HD
HETATM   13  N3  UNL     1      -2.869   0.760   8.516  1.00  0.00    -0.088 NA
ENDBRANCH   3   9
TORSDOF 4
ENDMDL
MODEL 4
REMARK VINA RESULT: -4.684431933      1.956      3.787
REMARK  4 active torsions:
REMARK  status: ('A' for Active; 'I' for Inactive)
REMARK    1  A    between atoms: N1_1  and  C1_4 
REMARK    2  A    between atoms: C1_4  and  C2_5 
REMARK    3  A    between atoms: C2_5  and  C3_6 
REMARK    4  A    between atoms: C5_8  and  C6_9 
ROOT
HETATM    1  C3  UNL     1      -1.450   2.598  11.409  1.00  0.00     0.009 A 
HETATM    2  C4  UNL     1      -0.539   2.479  10.273  1.00  0.00     0.018 A 
HETATM    3  C5  UNL     1      -1.210   3.801  10.614  1.00  0.00     0.055 A 
ENDROOT
BRANCH   1   4
HETATM    4  C2  UNL     1      -2.766   1.948  11.472  1.00  0.00     0.109 C 
BRANCH   4   5
HETATM    5  C1  UNL     1      -2.915   0.710  11.071  1.00  0.00    -0.077 C 
BRANCH   5   6
HETATM    6  N1  UNL     1      -2.848  -0.516  10.728  1.00  0.00    -0.370 N 
ATOM      7  H12 UNL     1      -3.784  -0.427  10.334  1.00  0.00     0.165 HD
ATOM      8  H11 UNL     1      -2.636  -1.494  10.527  1.00  0.00     0.165 HD
ENDBRANCH   5   6
ENDBRANCH   4   5
ENDBRANCH   1   4
BRANCH   3   9
HETATM    9  C6  UNL     1      -2.055   4.379   9.571  1.00  0.00     0.091 C 
HETATM   10  N2  UNL     1      -2.526   3.787   8.567  1.00  0.00    -0.391 N 
ATOM     11  H22 UNL     1      -2.313   2.793   8.481  1.00  0.00     0.157 HD
ATOM     12  H21 UNL     1      -3.116   4.191   7.839  1.00  0.00     0.157 HD
HETATM   13  N3  UNL     1      -2.358   5.791   9.694  1.00  0.00    -0.088 NA
ENDBRANCH   3   9
TORSDOF 4
ENDMDL
MODEL 5
REMARK VINA RESULT: -4.621541950      1.242      1.615
REMARK  4 active torsions:
REMARK  status: ('A' for Active; 'I' for Inactive)
REMARK    1  A    between atoms: N1_1  and  C1_4 
REMARK    2  A    between atoms: C1_4  and  C2_5 
REMARK    3  A    between atoms: C2_5  and  C3_6 
REMARK    4  A    between atoms: C5_8  and  C6_9 
ROOT
HETATM    1  C3  UNL     1      -1.694   4.041  10.372  1.00  0.00     0.009 A 
HETATM    2  C4  UNL     1      -2.510   3.795   9.187  1.00  0.00     0.018 A 
HETATM    3  C5  UNL     1      -2.577   2.876  10.398  1.00  0.00     0.055 A 
ENDROOT
BRANCH   1   4
HETATM    4  C2  UNL     1      -0.230   3.916  10.396  1.00  0.00     0.109 C 
BRANCH   4   5
HETATM    5  C1  UNL     1       0.499   4.467   9.457  1.00  0.00    -0.077 C 
BRANCH   5   6
HETATM    6  N1  UNL     1       1.262   4.798   8.491  1.00  0.00    -0.370 N 
ATOM      7  H12 UNL     1       1.534   5.622   9.027  1.00  0.00     0.165 HD
ATOM      8  H11 UNL     1       1.814   4.917   7.641  1.00  0.00     0.165 HD
ENDBRANCH   5   6
ENDBRANCH   4   5
ENDBRANCH   1   4
BRANCH   3   9
HETATM    9  C6  UNL     1      -2.234   1.475  10.160  1.00  0.00     0.091 C 
HETATM   10  N2  UNL     1      -1.829   0.970   9.081  1.00  0.00    -0.391 N 
ATOM     11  H22 UNL     1      -1.709   1.608   8.294  1.00  0.00     0.157 HD
ATOM     12  H21 UNL     1      -1.590  -0.007   8.916  1.00  0.00     0.157 HD
HETATM   13  N3  UNL     1      -2.405   0.569  11.278  1.00  0.00    -0.088 NA
ENDBRANCH   3   9
TORSDOF 4
ENDMDL
