MODEL 1
REMARK VINA RESULT: -5.763489090      0.000      0.000
REMARK  3 active torsions:
REMARK  status: ('A' for Active; 'I' for Inactive)
REMARK       I    between atoms: C1_2  and  N2_4 
REMARK    1  A    between atoms: N2_4  and  N3_6 
REMARK    2  A    between atoms: N3_6  and  C2_8 
REMARK    3  A    between atoms: C2_8  and  N4_9 
ROOT
HETATM    1  C2  UNL     1      -3.200   2.876  10.252  1.00  0.00     0.208 C 
HETATM    2  C3  UNL     1      -2.638   3.938   9.316  1.00  0.00     0.062 C 
HETATM    3  C4  UNL     1      -1.451   4.634   9.907  1.00  0.00     0.004 C 
HETATM    4  C5  UNL     1      -0.460   3.709  10.537  1.00  0.00     0.000 C 
HETATM    5  C6  UNL     1      -0.972   2.475  11.160  1.00  0.00     0.004 C 
HETATM    6  C7  UNL     1      -2.101   1.841  10.413  1.00  0.00     0.062 C 
ENDROOT
BRANCH   1   7
HETATM    7  N3  UNL     1      -4.366   2.354   9.653  1.00  0.00    -0.297 N 
ATOM      8  H3  UNL     1      -4.766   2.879   8.876  1.00  0.00     0.183 HD
BRANCH   7   9
HETATM    9  N2  UNL     1      -4.986   1.241  10.013  1.00  0.00    -0.256 N 
HETATM   10  C1  UNL     1      -5.852   1.045  11.097  1.00  0.00     0.346 C 
HETATM   11  N1  UNL     1      -6.430  -0.291  11.306  1.00  0.00    -0.038 NA
HETATM   12  O1  UNL     1      -6.142   1.963  11.879  1.00  0.00    -0.249 OA
ATOM     13  H2  UNL     1      -4.813   0.424   9.428  1.00  0.00     0.191 HD
ENDBRANCH   7   9
ENDBRANCH   1   7
BRANCH   1  14
HETATM   14  N4  UNL     1      -3.487   3.423  11.544  1.00  0.00    -0.051 N 
ATOM     15  H43 UNL     1      -3.646   4.429  11.499  1.00  0.00     0.277 HD
ATOM     16  H42 UNL     1      -4.406   3.134  11.878  1.00  0.00     0.277 HD
ATOM     17  H41 UNL     1      -2.753   3.188  12.212  1.00  0.00     0.277 HD
ENDBRANCH   1  14
TORSDOF 3
ENDMDL
MODEL 2
REMARK VINA RESULT: -5.749035508      3.540      5.354
REMARK  3 active torsions:
REMARK  status: ('A' for Active; 'I' for Inactive)
REMARK       I    between atoms: C1_2  and  N2_4 
REMARK    1  A    between atoms: N2_4  and  N3_6 
REMARK    2  A    between atoms: N3_6  and  C2_8 
REMARK    3  A    between atoms: C2_8  and  N4_9 
ROOT
HETATM    1  C2  UNL     1      -1.403   2.543  10.103  1.00  0.00     0.208 C 
HETATM    2  C3  UNL     1      -1.990   2.955  11.447  1.00  0.00     0.062 C 
HETATM    3  C4  UNL     1      -3.473   2.749  11.496  1.00  0.00     0.004 C 
HETATM    4  C5  UNL     1      -3.918   1.431  10.949  1.00  0.00     0.000 C 
HETATM    5  C6  UNL     1      -3.133   0.842   9.849  1.00  0.00     0.004 C 
HETATM    6  C7  UNL     1      -1.658   1.052   9.977  1.00  0.00     0.062 C 
ENDROOT
BRANCH   1   7
HETATM    7  N3  UNL     1      -0.030   2.868  10.121  1.00  0.00    -0.297 N 
ATOM      8  H3  UNL     1       0.624   2.144   9.823  1.00  0.00     0.183 HD
BRANCH   7   9
HETATM    9  N2  UNL     1       0.483   4.031  10.491  1.00  0.00    -0.256 N 
HETATM   10  C1  UNL     1       0.701   5.170   9.705  1.00  0.00     0.346 C 
HETATM   11  N1  UNL     1       1.290   6.360  10.336  1.00  0.00    -0.038 NA
HETATM   12  O1  UNL     1       0.412   5.200   8.499  1.00  0.00    -0.249 OA
ATOM     13  H2  UNL     1       0.754   4.108  11.471  1.00  0.00     0.191 HD
ENDBRANCH   7   9
ENDBRANCH   1   7
BRANCH   1  14
HETATM   14  N4  UNL     1      -2.072   3.200   9.021  1.00  0.00    -0.051 N 
ATOM     15  H43 UNL     1      -1.539   3.999   8.679  1.00  0.00     0.277 HD
ATOM     16  H42 UNL     1      -2.064   2.632   8.174  1.00  0.00     0.277 HD
ATOM     17  H41 UNL     1      -3.021   3.467   9.286  1.00  0.00     0.277 HD
ENDBRANCH   1  14
TORSDOF 3
ENDMDL
MODEL 3
REMARK VINA RESULT: -5.685383737      3.562      4.879
REMARK  3 active torsions:
REMARK  status: ('A' for Active; 'I' for Inactive)
REMARK       I    between atoms: C1_2  and  N2_4 
REMARK    1  A    between atoms: N2_4  and  N3_6 
REMARK    2  A    between atoms: N3_6  and  C2_8 
REMARK    3  A    between atoms: C2_8  and  N4_9 
ROOT
HETATM    1  C2  UNL     1       0.713   5.139   9.851  1.00  0.00     0.208 C 
HETATM    2  C3  UNL     1       1.699   5.982  10.650  1.00  0.00     0.062 C 
HETATM    3  C4  UNL     1       2.110   7.216   9.908  1.00  0.00     0.004 C 
HETATM    4  C5  UNL     1       0.971   7.946   9.272  1.00  0.00     0.000 C 
HETATM    5  C6  UNL     1      -0.174   7.150   8.793  1.00  0.00     0.004 C 
HETATM    6  C7  UNL     1      -0.526   6.000   9.681  1.00  0.00     0.062 C 
ENDROOT
BRANCH   1   7
HETATM    7  N3  UNL     1       0.468   3.960  10.586  1.00  0.00    -0.297 N 
ATOM      8  H3  UNL     1       0.813   3.928  11.545  1.00  0.00     0.183 HD
BRANCH   7   9
HETATM    9  N2  UNL     1      -0.171   2.890  10.138  1.00  0.00    -0.256 N 
HETATM   10  C1  UNL     1      -1.340   2.307  10.640  1.00  0.00     0.346 C 
HETATM   11  N1  UNL     1      -1.874   1.109   9.976  1.00  0.00    -0.038 NA
HETATM   12  O1  UNL     1      -1.935   2.772  11.625  1.00  0.00    -0.249 OA
ATOM     13  H2  UNL     1       0.241   2.433   9.324  1.00  0.00     0.191 HD
ENDBRANCH   7   9
ENDBRANCH   1   7
BRANCH   1  14
HETATM   14  N4  UNL     1       1.225   4.837   8.550  1.00  0.00    -0.051 N 
ATOM     15  H43 UNL     1       1.099   3.852   8.315  1.00  0.00     0.277 HD
ATOM     16  H42 UNL     1       0.648   5.246   7.815  1.00  0.00     0.277 HD
ATOM     17  H41 UNL     1       2.201   5.121   8.464  1.00  0.00     0.277 HD
ENDBRANCH   1  14
TORSDOF 3
ENDMDL
MODEL 4
REMARK VINA RESULT: -5.656817856      3.529      4.960
REMARK  3 active torsions:
REMARK  status: ('A' for Active; 'I' for Inactive)
REMARK       I    between atoms: C1_2  and  N2_4 
REMARK    1  A    between atoms: N2_4  and  N3_6 
REMARK    2  A    between atoms: N3_6  and  C2_8 
REMARK    3  A    between atoms: C2_8  and  N4_9 
ROOT
HETATM    1  C2  UNL     1      -2.065   3.183   9.552  1.00  0.00     0.208 C 
HETATM    2  C3  UNL     1      -2.761   1.902   9.110  1.00  0.00     0.062 C 
HETATM    3  C4  UNL     1      -2.466   0.758  10.031  1.00  0.00     0.004 C 
HETATM    4  C5  UNL     1      -2.570   1.108  11.480  1.00  0.00     0.000 C 
HETATM    5  C6  UNL     1      -2.220   2.482  11.883  1.00  0.00     0.004 C 
HETATM    6  C7  UNL     1      -2.654   3.529  10.908  1.00  0.00     0.062 C 
ENDROOT
BRANCH   1   7
HETATM    7  N3  UNL     1      -2.320   4.166   8.573  1.00  0.00    -0.297 N 
ATOM      8  H3  UNL     1      -3.231   4.142   8.115  1.00  0.00     0.183 HD
BRANCH   7   9
HETATM    9  N2  UNL     1      -1.479   5.117   8.196  1.00  0.00    -0.256 N 
HETATM   10  C1  UNL     1      -1.304   6.388   8.757  1.00  0.00     0.346 C 
HETATM   11  N1  UNL     1      -0.302   7.288   8.167  1.00  0.00    -0.038 NA
HETATM   12  O1  UNL     1      -1.968   6.772   9.732  1.00  0.00    -0.249 OA
ATOM     13  H2  UNL     1      -0.884   4.896   7.398  1.00  0.00     0.191 HD
ENDBRANCH   7   9
ENDBRANCH   1   7
BRANCH   1  14
HETATM   14  N4  UNL     1      -0.658   2.977   9.719  1.00  0.00    -0.051 N 
ATOM     15  H43 UNL     1      -0.449   2.506  10.599  1.00  0.00     0.277 HD
ATOM     16  H42 UNL     1      -0.303   2.269   9.076  1.00  0.00     0.277 HD
ATOM     17  H41 UNL     1      -0.146   3.855   9.631  1.00  0.00     0.277 HD
ENDBRANCH   1  14
TORSDOF 3
ENDMDL
MODEL 5
REMARK VINA RESULT: -5.584461483      3.078      4.821
REMARK  3 active torsions:
REMARK  status: ('A' for Active; 'I' for Inactive)
REMARK       I    between atoms: C1_2  and  N2_4 
REMARK    1  A    between atoms: N2_4  and  N3_6 
REMARK    2  A    between atoms: N3_6  and  C2_8 
REMARK    3  A    between atoms: C2_8  and  N4_9 
ROOT
HETATM    1  C2  UNL     1      -2.289   3.034  10.033  1.00  0.00     0.208 C 
HETATM    2  C3  UNL     1      -1.595   1.780  10.548  1.00  0.00     0.062 C 
HETATM    3  C4  UNL     1      -2.552   0.850  11.228  1.00  0.00     0.004 C 
HETATM    4  C5  UNL     1      -3.830   0.646  10.481  1.00  0.00     0.000 C 
HETATM    5  C6  UNL     1      -4.346   1.771   9.680  1.00  0.00     0.004 C 
HETATM    6  C7  UNL     1      -3.282   2.559   8.986  1.00  0.00     0.062 C 
ENDROOT
BRANCH   1   7
HETATM    7  N3  UNL     1      -1.295   3.884   9.504  1.00  0.00    -0.297 N 
ATOM      8  H3  UNL     1      -0.359   3.811   9.902  1.00  0.00     0.183 HD
BRANCH   7   9
HETATM    9  N2  UNL     1      -1.472   4.769   8.535  1.00  0.00    -0.256 N 
HETATM   10  C1  UNL     1      -1.897   6.099   8.645  1.00  0.00     0.346 C 
HETATM   11  N1  UNL     1      -2.024   6.903   7.421  1.00  0.00    -0.038 NA
HETATM   12  O1  UNL     1      -2.168   6.612   9.742  1.00  0.00    -0.249 OA
ATOM     13  H2  UNL     1      -1.273   4.442   7.590  1.00  0.00     0.191 HD
ENDBRANCH   7   9
ENDBRANCH   1   7
BRANCH   1  14
HETATM   14  N4  UNL     1      -3.021   3.687  11.075  1.00  0.00    -0.051 N 
ATOM     15  H43 UNL     1      -2.539   4.521  11.407  1.00  0.00     0.277 HD
ATOM     16  H42 UNL     1      -3.869   4.128  10.719  1.00  0.00     0.277 HD
ATOM     17  H41 UNL     1      -3.226   3.041  11.839  1.00  0.00     0.277 HD
ENDBRANCH   1  14
TORSDOF 3
ENDMDL
