MODEL 1
REMARK VINA RESULT: -6.594363145      0.000      0.000
REMARK  3 active torsions:
REMARK  status: ('A' for Active; 'I' for Inactive)
REMARK    1  A    between atoms: C2_2  and  C4_4 
REMARK    2  A    between atoms: C4_4  and  C5_5 
REMARK    3  A    between atoms: C9_15  and  N4_16 
ROOT
HETATM    1  C4  UNL     1      10.048 -12.595  -6.140  1.00  0.00     0.080 C 
HETATM    2  C8  UNL     1      11.049 -11.751  -6.866  1.00  0.00     0.089 C 
HETATM    3  N3  UNL     1      10.890 -10.387  -6.646  1.00  0.00    -0.348 N 
ATOM      4  H3  UNL     1      11.369  -9.726  -7.259  1.00  0.00     0.167 HD
HETATM    5  C9  UNL     1      10.165  -9.940  -5.703  1.00  0.00     0.143 C 
HETATM    6  S1  UNL     1       9.510 -11.390  -4.876  1.00  0.00    -0.073 SA
ENDROOT
BRANCH   1   7
HETATM    7  C2  UNL     1      10.679 -13.762  -5.420  1.00  0.00     0.006 C 
HETATM    8  C1  UNL     1      12.130 -13.946  -5.765  1.00  0.00     0.012 C 
HETATM    9  C3  UNL     1      10.615 -13.488  -3.938  1.00  0.00     0.012 C 
ENDBRANCH   1   7
BRANCH   1  10
HETATM   10  C5  UNL     1       8.972 -13.043  -7.014  1.00  0.00     0.000 A 
HETATM   11  C6  UNL     1       8.639 -12.584  -8.265  1.00  0.00     0.117 A 
HETATM   12  N1  UNL     1       7.545 -13.258  -8.735  1.00  0.00    -0.312 N 
HETATM   13  N2  UNL     1       7.212 -14.108  -7.804  1.00  0.00    -0.312 N 
ATOM     14  H1  UNL     1       7.083 -13.122  -9.633  1.00  0.00     0.186 HD
HETATM   15  C7  UNL     1       8.045 -14.020  -6.738  1.00  0.00     0.117 A 
ATOM     16  H2  UNL     1       6.427 -14.757  -7.870  1.00  0.00     0.186 HD
ENDBRANCH   1  10
BRANCH   5  17
HETATM   17  N4  UNL     1       9.915  -8.586  -5.373  1.00  0.00    -0.362 N 
HETATM   18  C10 UNL     1      10.303  -7.898  -4.129  1.00  0.00     0.125 C 
HETATM   19  C11 UNL     1      11.158  -6.789  -4.776  1.00  0.00     0.021 C 
HETATM   20  C12 UNL     1      10.229  -6.354  -5.898  1.00  0.00     0.021 C 
HETATM   21  C13 UNL     1       9.278  -7.546  -6.132  1.00  0.00     0.125 C 
ENDBRANCH   5  17
TORSDOF 3
ENDMDL
MODEL 2
REMARK VINA RESULT: -6.472125682      1.222      1.367
REMARK  3 active torsions:
REMARK  status: ('A' for Active; 'I' for Inactive)
REMARK    1  A    between atoms: C2_2  and  C4_4 
REMARK    2  A    between atoms: C4_4  and  C5_5 
REMARK    3  A    between atoms: C9_15  and  N4_16 
ROOT
HETATM    1  C4  UNL     1      10.672 -12.624  -6.383  1.00  0.00     0.080 C 
HETATM    2  C8  UNL     1      10.701 -11.694  -7.557  1.00  0.00     0.089 C 
HETATM    3  N3  UNL     1      10.351 -10.386  -7.239  1.00  0.00    -0.348 N 
ATOM      4  H3  UNL     1      10.126  -9.736  -7.992  1.00  0.00     0.167 HD
HETATM    5  C9  UNL     1      10.303  -9.979  -6.036  1.00  0.00     0.143 C 
HETATM    6  S1  UNL     1      10.754 -11.394  -5.033  1.00  0.00    -0.073 SA
ENDROOT
BRANCH   1   7
HETATM    7  C2  UNL     1      11.905 -13.489  -6.291  1.00  0.00     0.006 C 
HETATM    8  C1  UNL     1      12.854 -13.277  -7.436  1.00  0.00     0.012 C 
HETATM    9  C3  UNL     1      12.648 -13.111  -5.033  1.00  0.00     0.012 C 
ENDBRANCH   1   7
BRANCH   1  10
HETATM   10  C5  UNL     1       9.462 -13.437  -6.358  1.00  0.00     0.000 A 
HETATM   11  C6  UNL     1       8.153 -13.022  -6.350  1.00  0.00     0.117 A 
HETATM   12  N1  UNL     1       7.320 -14.106  -6.301  1.00  0.00    -0.312 N 
HETATM   13  N2  UNL     1       8.089 -15.159  -6.280  1.00  0.00    -0.312 N 
ATOM     14  H1  UNL     1       6.301 -14.093  -6.283  1.00  0.00     0.186 HD
HETATM   15  C7  UNL     1       9.399 -14.809  -6.314  1.00  0.00     0.117 A 
ATOM     16  H2  UNL     1       7.750 -16.120  -6.245  1.00  0.00     0.186 HD
ENDBRANCH   1  10
BRANCH   5  17
HETATM   17  N4  UNL     1       9.960  -8.684  -5.576  1.00  0.00    -0.362 N 
HETATM   18  C10 UNL     1      10.212  -8.132  -4.233  1.00  0.00     0.125 C 
HETATM   19  C11 UNL     1      11.059  -6.921  -4.674  1.00  0.00     0.021 C 
HETATM   20  C12 UNL     1      10.203  -6.394  -5.814  1.00  0.00     0.021 C 
HETATM   21  C13 UNL     1       9.336  -7.589  -6.264  1.00  0.00     0.125 C 
ENDBRANCH   5  17
TORSDOF 3
ENDMDL
MODEL 3
REMARK VINA RESULT: -6.218300100      2.080      2.989
REMARK  3 active torsions:
REMARK  status: ('A' for Active; 'I' for Inactive)
REMARK    1  A    between atoms: C2_2  and  C4_4 
REMARK    2  A    between atoms: C4_4  and  C5_5 
REMARK    3  A    between atoms: C9_15  and  N4_16 
ROOT
HETATM    1  C4  UNL     1      10.195 -12.718  -6.481  1.00  0.00     0.080 C 
HETATM    2  C8  UNL     1       8.800 -12.208  -6.677  1.00  0.00     0.089 C 
HETATM    3  N3  UNL     1       8.626 -10.892  -6.262  1.00  0.00    -0.348 N 
ATOM      4  H3  UNL     1       7.679 -10.530  -6.145  1.00  0.00     0.167 HD
HETATM    5  C9  UNL     1       9.613 -10.129  -6.023  1.00  0.00     0.143 C 
HETATM    6  S1  UNL     1      11.072 -11.122  -6.337  1.00  0.00    -0.073 SA
ENDROOT
BRANCH   1   7
HETATM    7  C2  UNL     1      10.734 -13.428  -7.699  1.00  0.00     0.006 C 
HETATM    8  C1  UNL     1       9.901 -13.195  -8.928  1.00  0.00     0.012 C 
HETATM    9  C3  UNL     1      12.107 -12.877  -7.992  1.00  0.00     0.012 C 
ENDBRANCH   1   7
BRANCH   1  10
HETATM   10  C5  UNL     1      10.310 -13.557  -5.295  1.00  0.00     0.000 A 
HETATM   11  C6  UNL     1      10.376 -14.927  -5.220  1.00  0.00     0.117 A 
HETATM   12  N1  UNL     1      10.455 -15.320  -3.912  1.00  0.00    -0.312 N 
HETATM   13  N2  UNL     1      10.440 -14.227  -3.200  1.00  0.00    -0.312 N 
ATOM     14  H1  UNL     1      10.514 -16.276  -3.564  1.00  0.00     0.186 HD
HETATM   15  C7  UNL     1      10.353 -13.129  -3.991  1.00  0.00     0.117 A 
ATOM     16  H2  UNL     1      10.488 -14.202  -2.182  1.00  0.00     0.186 HD
ENDBRANCH   1  10
BRANCH   5  17
HETATM   17  N4  UNL     1       9.577  -8.779  -5.594  1.00  0.00    -0.362 N 
HETATM   18  C10 UNL     1      10.047  -8.256  -4.299  1.00  0.00     0.125 C 
HETATM   19  C11 UNL     1      11.080  -7.254  -4.855  1.00  0.00     0.021 C 
HETATM   20  C12 UNL     1      10.254  -6.594  -5.946  1.00  0.00     0.021 C 
HETATM   21  C13 UNL     1       9.129  -7.599  -6.277  1.00  0.00     0.125 C 
ENDBRANCH   5  17
TORSDOF 3
ENDMDL
MODEL 4
REMARK VINA RESULT: -6.018865607      3.125      5.300
REMARK  3 active torsions:
REMARK  status: ('A' for Active; 'I' for Inactive)
REMARK    1  A    between atoms: C2_2  and  C4_4 
REMARK    2  A    between atoms: C4_4  and  C5_5 
REMARK    3  A    between atoms: C9_15  and  N4_16 
ROOT
HETATM    1  C4  UNL     1      10.548  -8.298  -5.133  1.00  0.00     0.080 C 
HETATM    2  C8  UNL     1       9.736  -8.051  -3.898  1.00  0.00     0.089 C 
HETATM    3  N3  UNL     1      10.496  -7.649  -2.804  1.00  0.00    -0.348 N 
ATOM      4  H3  UNL     1      10.077  -7.672  -1.875  1.00  0.00     0.167 HD
HETATM    5  C9  UNL     1      11.698  -7.256  -2.932  1.00  0.00     0.143 C 
HETATM    6  S1  UNL     1      12.054  -7.365  -4.685  1.00  0.00    -0.073 SA
ENDROOT
BRANCH   1   7
HETATM    7  C2  UNL     1       9.957  -7.651  -6.362  1.00  0.00     0.006 C 
HETATM    8  C1  UNL     1       8.519  -8.027  -6.585  1.00  0.00     0.012 C 
HETATM    9  C3  UNL     1       9.992  -6.156  -6.166  1.00  0.00     0.012 C 
ENDBRANCH   1   7
BRANCH   1  10
HETATM   10  C5  UNL     1      10.787  -9.719  -5.355  1.00  0.00     0.000 A 
HETATM   11  C6  UNL     1      11.512 -10.318  -6.357  1.00  0.00     0.117 A 
HETATM   12  N1  UNL     1      11.467 -11.677  -6.217  1.00  0.00    -0.312 N 
HETATM   13  N2  UNL     1      10.739 -11.913  -5.161  1.00  0.00    -0.312 N 
ATOM     14  H1  UNL     1      11.914 -12.368  -6.818  1.00  0.00     0.186 HD
HETATM   15  C7  UNL     1      10.301 -10.759  -4.600  1.00  0.00     0.117 A 
ATOM     16  H2  UNL     1      10.527 -12.844  -4.803  1.00  0.00     0.186 HD
ENDBRANCH   1  10
BRANCH   5  17
HETATM   17  N4  UNL     1      12.578  -6.827  -1.908  1.00  0.00    -0.362 N 
HETATM   18  C10 UNL     1      13.756  -5.956  -2.069  1.00  0.00     0.125 C 
HETATM   19  C11 UNL     1      13.309  -4.841  -1.101  1.00  0.00     0.021 C 
HETATM   20  C12 UNL     1      12.854  -5.679   0.082  1.00  0.00     0.021 C 
HETATM   21  C13 UNL     1      12.552  -7.078  -0.495  1.00  0.00     0.125 C 
ENDBRANCH   5  17
TORSDOF 3
ENDMDL
MODEL 5
REMARK VINA RESULT: -6.018380865      1.921      3.305
REMARK  3 active torsions:
REMARK  status: ('A' for Active; 'I' for Inactive)
REMARK    1  A    between atoms: C2_2  and  C4_4 
REMARK    2  A    between atoms: C4_4  and  C5_5 
REMARK    3  A    between atoms: C9_15  and  N4_16 
ROOT
HETATM    1  C4  UNL     1       9.924 -12.692  -6.374  1.00  0.00     0.080 C 
HETATM    2  C8  UNL     1       9.114 -12.397  -5.149  1.00  0.00     0.089 C 
HETATM    3  N3  UNL     1       9.096 -11.049  -4.806  1.00  0.00    -0.348 N 
ATOM      4  H3  UNL     1       8.765 -10.777  -3.880  1.00  0.00     0.167 HD
HETATM    5  C9  UNL     1       9.481 -10.146  -5.615  1.00  0.00     0.143 C 
HETATM    6  S1  UNL     1       9.978 -11.016  -7.101  1.00  0.00    -0.073 SA
ENDROOT
BRANCH   1   7
HETATM    7  C2  UNL     1       9.204 -13.591  -7.350  1.00  0.00     0.006 C 
HETATM    8  C1  UNL     1       7.966 -14.211  -6.767  1.00  0.00     0.012 C 
HETATM    9  C3  UNL     1       8.761 -12.751  -8.521  1.00  0.00     0.012 C 
ENDBRANCH   1   7
BRANCH   1  10
HETATM   10  C5  UNL     1      11.239 -13.228  -6.045  1.00  0.00     0.000 A 
HETATM   11  C6  UNL     1      12.122 -12.798  -5.083  1.00  0.00     0.117 A 
HETATM   12  N1  UNL     1      13.257 -13.560  -5.117  1.00  0.00    -0.312 N 
HETATM   13  N2  UNL     1      13.082 -14.435  -6.069  1.00  0.00    -0.312 N 
ATOM     14  H1  UNL     1      14.076 -13.463  -4.518  1.00  0.00     0.186 HD
HETATM   15  C7  UNL     1      11.874 -14.277  -6.664  1.00  0.00     0.117 A 
ATOM     16  H2  UNL     1      13.765 -15.145  -6.331  1.00  0.00     0.186 HD
ENDBRANCH   1  10
BRANCH   5  17
HETATM   17  N4  UNL     1       9.518  -8.748  -5.393  1.00  0.00    -0.362 N 
HETATM   18  C10 UNL     1      10.098  -8.058  -4.228  1.00  0.00     0.125 C 
HETATM   19  C11 UNL     1      11.117  -7.193  -4.999  1.00  0.00     0.021 C 
HETATM   20  C12 UNL     1      10.233  -6.670  -6.118  1.00  0.00     0.021 C 
HETATM   21  C13 UNL     1       9.056  -7.664  -6.214  1.00  0.00     0.125 C 
ENDBRANCH   5  17
TORSDOF 3
ENDMDL
