MODEL 1
REMARK VINA RESULT: -7.861367784      0.000      0.000
REMARK  6 active torsions:
REMARK  status: ('A' for Active; 'I' for Inactive)
REMARK    1  A    between atoms: C3_5  and  C4_6 
REMARK    2  A    between atoms: C8_11  and  O1_12 
REMARK    3  A    between atoms: O1_12  and  C9_13 
REMARK    4  A    between atoms: C9_13  and  C10_14 
REMARK    5  A    between atoms: C10_14  and  N2_15 
REMARK    6  A    between atoms: C20_30  and  C21_31 
ROOT
HETATM    1  C4  UNL     1       5.970   2.949  18.782  1.00  0.00     0.001 A 
HETATM    2  C5  UNL     1       5.369   2.055  19.640  1.00  0.00     0.017 A 
HETATM    3  C6  UNL     1       4.906   2.531  20.873  1.00  0.00     0.046 A 
HETATM    4  C7  UNL     1       5.035   3.862  21.245  1.00  0.00     0.151 A 
HETATM    5  F1  UNL     1       4.550   4.199  22.463  1.00  0.00    -0.203 F 
HETATM    6  C8  UNL     1       5.635   4.747  20.384  1.00  0.00     0.129 A 
HETATM    7  C13 UNL     1       6.098   4.276  19.155  1.00  0.00     0.092 A 
HETATM    8  C14 UNL     1       6.734   5.171  18.215  1.00  0.00     0.103 C 
HETATM    9  N3  UNL     1       7.251   5.885  17.452  1.00  0.00    -0.191 NA
ENDROOT
BRANCH   1  10
HETATM   10  C3  UNL     1       6.451   2.466  17.493  1.00  0.00     0.014 A 
HETATM   11  C2  UNL     1       5.619   2.665  16.297  1.00  0.00     0.044 A 
HETATM   12  N1  UNL     1       4.483   3.257  16.426  1.00  0.00    -0.395 N 
HETATM   13  C20 UNL     1       6.169   2.154  15.032  1.00  0.00     0.167 A 
HETATM   14  C1  UNL     1       3.549   3.530  15.372  1.00  0.00     0.146 C 
ATOM     15  H1  UNL     1       4.223   3.561  17.365  1.00  0.00     0.159 HD
HETATM   16  N5  UNL     1       7.445   1.520  15.205  1.00  0.00    -0.361 N 
HETATM   17  C19 UNL     1       8.107   1.376  16.271  1.00  0.00     0.113 A 
ATOM     18  H5  UNL     1       7.870   1.138  14.361  1.00  0.00     0.162 HD
HETATM   19  C15 UNL     1       7.620   1.854  17.461  1.00  0.00     0.021 A 
HETATM   20  N4  UNL     1       9.322   0.752  16.288  1.00  0.00    -0.352 N 
HETATM   21  C16 UNL     1       8.377   1.687  18.629  1.00  0.00     0.017 A 
HETATM   22  C17 UNL     1       9.602   1.056  18.628  1.00  0.00     0.018 A 
HETATM   23  C18 UNL     1      10.041   0.596  17.408  1.00  0.00     0.089 A 
ATOM     24  H4  UNL     1       9.699   0.391  15.412  1.00  0.00     0.166 HD
BRANCH  13  25
HETATM   25  C21 UNL     1       6.375   3.234  14.003  1.00  0.00    -0.030 A 
HETATM   26  C22 UNL     1       6.937   4.452  14.298  1.00  0.00     0.009 A 
HETATM   27  C23 UNL     1       7.125   5.432  13.336  1.00  0.00     0.001 A 
HETATM   28  C24 UNL     1       6.748   5.207  12.036  1.00  0.00     0.000 A 
HETATM   29  C25 UNL     1       6.180   3.987  11.714  1.00  0.00     0.001 A 
HETATM   30  C26 UNL     1       6.002   3.025  12.692  1.00  0.00     0.009 A 
ENDBRANCH  13  25
ENDBRANCH   1  10
BRANCH   6  31
HETATM   31  O1  UNL     1       5.768   6.060  20.734  1.00  0.00    -0.345 OA
BRANCH  31  32
HETATM   32  C9  UNL     1       6.611   6.608  21.697  1.00  0.00     0.206 C 
BRANCH  32  33
HETATM   33  C10 UNL     1       8.045   6.720  21.265  1.00  0.00     0.297 C 
BRANCH  33  34
HETATM   34  N2  UNL     1       8.386   8.115  21.043  1.00  0.00     0.082 N 
HETATM   35  C11 UNL     1       9.141   8.292  19.813  1.00  0.00     0.309 C 
HETATM   36  C12 UNL     1       9.266   8.553  22.128  1.00  0.00     0.309 C 
ENDBRANCH  33  34
ENDBRANCH  32  33
ENDBRANCH  31  32
ENDBRANCH   6  31
TORSDOF 6
ENDMDL
MODEL 2
REMARK VINA RESULT: -7.730104012      1.289      1.550
REMARK  6 active torsions:
REMARK  status: ('A' for Active; 'I' for Inactive)
REMARK    1  A    between atoms: C3_5  and  C4_6 
REMARK    2  A    between atoms: C8_11  and  O1_12 
REMARK    3  A    between atoms: O1_12  and  C9_13 
REMARK    4  A    between atoms: C9_13  and  C10_14 
REMARK    5  A    between atoms: C10_14  and  N2_15 
REMARK    6  A    between atoms: C20_30  and  C21_31 
ROOT
HETATM    1  C4  UNL     1       5.999   2.806  18.856  1.00  0.00     0.001 A 
HETATM    2  C5  UNL     1       5.292   1.904  19.619  1.00  0.00     0.017 A 
HETATM    3  C6  UNL     1       4.821   2.322  20.869  1.00  0.00     0.046 A 
HETATM    4  C7  UNL     1       5.046   3.604  21.351  1.00  0.00     0.151 A 
HETATM    5  F1  UNL     1       4.543   3.888  22.574  1.00  0.00    -0.203 F 
HETATM    6  C8  UNL     1       5.752   4.497  20.584  1.00  0.00     0.129 A 
HETATM    7  C13 UNL     1       6.223   4.084  19.338  1.00  0.00     0.092 A 
HETATM    8  C14 UNL     1       6.969   4.990  18.494  1.00  0.00     0.103 C 
HETATM    9  N3  UNL     1       7.575   5.712  17.809  1.00  0.00    -0.191 NA
ENDROOT
BRANCH   1  10
HETATM   10  C3  UNL     1       6.490   2.383  17.549  1.00  0.00     0.014 A 
HETATM   11  C2  UNL     1       5.661   2.627  16.359  1.00  0.00     0.044 A 
HETATM   12  N1  UNL     1       4.520   3.204  16.508  1.00  0.00    -0.395 N 
HETATM   13  C20 UNL     1       6.220   2.177  15.075  1.00  0.00     0.167 A 
HETATM   14  C1  UNL     1       3.588   3.516  15.463  1.00  0.00     0.146 C 
ATOM     15  H1  UNL     1       4.254   3.465  17.458  1.00  0.00     0.159 HD
HETATM   16  N5  UNL     1       7.501   1.545  15.227  1.00  0.00    -0.361 N 
HETATM   17  C19 UNL     1       8.160   1.360  16.289  1.00  0.00     0.113 A 
ATOM     18  H5  UNL     1       7.933   1.204  14.369  1.00  0.00     0.162 HD
HETATM   19  C15 UNL     1       7.663   1.782  17.496  1.00  0.00     0.021 A 
HETATM   20  N4  UNL     1       9.380   0.746  16.283  1.00  0.00    -0.352 N 
HETATM   21  C16 UNL     1       8.417   1.570  18.659  1.00  0.00     0.017 A 
HETATM   22  C17 UNL     1       9.647   0.950  18.636  1.00  0.00     0.018 A 
HETATM   23  C18 UNL     1      10.095   0.546  17.399  1.00  0.00     0.089 A 
ATOM     24  H4  UNL     1       9.763   0.426  15.394  1.00  0.00     0.166 HD
BRANCH  13  25
HETATM   25  C21 UNL     1       6.422   3.302  14.095  1.00  0.00    -0.030 A 
HETATM   26  C22 UNL     1       6.988   4.505  14.443  1.00  0.00     0.009 A 
HETATM   27  C23 UNL     1       7.171   5.527  13.525  1.00  0.00     0.001 A 
HETATM   28  C24 UNL     1       6.787   5.362  12.218  1.00  0.00     0.000 A 
HETATM   29  C25 UNL     1       6.215   4.158  11.844  1.00  0.00     0.001 A 
HETATM   30  C26 UNL     1       6.042   3.153  12.778  1.00  0.00     0.009 A 
ENDBRANCH  13  25
ENDBRANCH   1  10
BRANCH   6  31
HETATM   31  O1  UNL     1       5.980   5.763  21.042  1.00  0.00    -0.345 OA
BRANCH  31  32
HETATM   32  C9  UNL     1       5.093   6.836  21.071  1.00  0.00     0.206 C 
BRANCH  32  33
HETATM   33  C10 UNL     1       5.435   7.886  22.090  1.00  0.00     0.297 C 
BRANCH  33  34
HETATM   34  N2  UNL     1       5.549   7.278  23.405  1.00  0.00     0.082 N 
HETATM   35  C11 UNL     1       4.529   7.775  24.314  1.00  0.00     0.309 C 
HETATM   36  C12 UNL     1       6.836   7.669  23.983  1.00  0.00     0.309 C 
ENDBRANCH  33  34
ENDBRANCH  32  33
ENDBRANCH  31  32
ENDBRANCH   6  31
TORSDOF 6
ENDMDL
MODEL 3
REMARK VINA RESULT: -7.556283990      3.321      5.827
REMARK  6 active torsions:
REMARK  status: ('A' for Active; 'I' for Inactive)
REMARK    1  A    between atoms: C3_5  and  C4_6 
REMARK    2  A    between atoms: C8_11  and  O1_12 
REMARK    3  A    between atoms: O1_12  and  C9_13 
REMARK    4  A    between atoms: C9_13  and  C10_14 
REMARK    5  A    between atoms: C10_14  and  N2_15 
REMARK    6  A    between atoms: C20_30  and  C21_31 
ROOT
HETATM    1  C4  UNL     1       7.541   5.657  19.503  1.00  0.00     0.001 A 
HETATM    2  C5  UNL     1       8.412   6.407  20.261  1.00  0.00     0.017 A 
HETATM    3  C6  UNL     1       8.598   7.752  19.917  1.00  0.00     0.046 A 
HETATM    4  C7  UNL     1       7.934   8.338  18.848  1.00  0.00     0.151 A 
HETATM    5  F1  UNL     1       8.200   9.644  18.615  1.00  0.00    -0.203 F 
HETATM    6  C8  UNL     1       7.068   7.583  18.098  1.00  0.00     0.129 A 
HETATM    7  C13 UNL     1       6.881   6.243  18.437  1.00  0.00     0.092 A 
HETATM    8  C14 UNL     1       5.977   5.410  17.677  1.00  0.00     0.103 C 
HETATM    9  N3  UNL     1       5.252   4.729  17.068  1.00  0.00    -0.191 NA
ENDROOT
BRANCH   1  10
HETATM   10  C3  UNL     1       7.336   4.257  19.854  1.00  0.00     0.014 A 
HETATM   11  C2  UNL     1       6.264   3.904  20.797  1.00  0.00     0.044 A 
HETATM   12  N1  UNL     1       5.539   4.847  21.290  1.00  0.00    -0.395 N 
HETATM   13  C20 UNL     1       6.113   2.473  21.104  1.00  0.00     0.167 A 
HETATM   14  C1  UNL     1       4.459   4.685  22.220  1.00  0.00     0.146 C 
ATOM     15  H1  UNL     1       5.753   5.800  20.991  1.00  0.00     0.159 HD
HETATM   16  N5  UNL     1       7.081   1.662  20.421  1.00  0.00    -0.361 N 
HETATM   17  C19 UNL     1       7.988   2.033  19.623  1.00  0.00     0.113 A 
ATOM     18  H5  UNL     1       7.030   0.660  20.604  1.00  0.00     0.162 HD
HETATM   19  C15 UNL     1       8.140   3.361  19.314  1.00  0.00     0.021 A 
HETATM   20  N4  UNL     1       8.841   1.142  19.036  1.00  0.00    -0.352 N 
HETATM   21  C16 UNL     1       9.149   3.745  18.420  1.00  0.00     0.017 A 
HETATM   22  C17 UNL     1      10.001   2.834  17.836  1.00  0.00     0.018 A 
HETATM   23  C18 UNL     1       9.804   1.517  18.183  1.00  0.00     0.089 A 
ATOM     24  H4  UNL     1       8.742   0.151  19.256  1.00  0.00     0.166 HD
BRANCH  13  25
HETATM   25  C21 UNL     1       4.764   1.929  20.717  1.00  0.00    -0.030 A 
HETATM   26  C22 UNL     1       4.238   2.057  19.454  1.00  0.00     0.009 A 
HETATM   27  C23 UNL     1       2.997   1.543  19.115  1.00  0.00     0.001 A 
HETATM   28  C24 UNL     1       2.244   0.878  20.049  1.00  0.00     0.000 A 
HETATM   29  C25 UNL     1       2.752   0.735  21.329  1.00  0.00     0.001 A 
HETATM   30  C26 UNL     1       3.994   1.257  21.643  1.00  0.00     0.009 A 
ENDBRANCH  13  25
ENDBRANCH   1  10
BRANCH   6  31
HETATM   31  O1  UNL     1       6.406   8.145  17.044  1.00  0.00    -0.345 OA
BRANCH  31  32
HETATM   32  C9  UNL     1       5.528   9.226  17.062  1.00  0.00     0.206 C 
BRANCH  32  33
HETATM   33  C10 UNL     1       5.962  10.381  16.205  1.00  0.00     0.297 C 
BRANCH  33  34
HETATM   34  N2  UNL     1       6.582   9.887  14.987  1.00  0.00     0.082 N 
HETATM   35  C11 UNL     1       7.663  10.753  14.548  1.00  0.00     0.309 C 
HETATM   36  C12 UNL     1       5.581   9.908  13.918  1.00  0.00     0.309 C 
ENDBRANCH  33  34
ENDBRANCH  32  33
ENDBRANCH  31  32
ENDBRANCH   6  31
TORSDOF 6
ENDMDL
MODEL 4
REMARK VINA RESULT: -7.438709678      2.668      6.050
REMARK  6 active torsions:
REMARK  status: ('A' for Active; 'I' for Inactive)
REMARK    1  A    between atoms: C3_5  and  C4_6 
REMARK    2  A    between atoms: C8_11  and  O1_12 
REMARK    3  A    between atoms: O1_12  and  C9_13 
REMARK    4  A    between atoms: C9_13  and  C10_14 
REMARK    5  A    between atoms: C10_14  and  N2_15 
REMARK    6  A    between atoms: C20_30  and  C21_31 
ROOT
HETATM    1  C4  UNL     1       7.234   5.677  19.337  1.00  0.00     0.001 A 
HETATM    2  C5  UNL     1       8.160   6.509  19.925  1.00  0.00     0.017 A 
HETATM    3  C6  UNL     1       8.230   7.837  19.485  1.00  0.00     0.046 A 
HETATM    4  C7  UNL     1       7.401   8.327  18.486  1.00  0.00     0.151 A 
HETATM    5  F1  UNL     1       7.566   9.626  18.146  1.00  0.00    -0.203 F 
HETATM    6  C8  UNL     1       6.481   7.491  17.904  1.00  0.00     0.129 A 
HETATM    7  C13 UNL     1       6.409   6.167  18.340  1.00  0.00     0.092 A 
HETATM    8  C14 UNL     1       5.454   5.251  17.758  1.00  0.00     0.103 C 
HETATM    9  N3  UNL     1       4.690   4.504  17.292  1.00  0.00    -0.191 NA
ENDROOT
BRANCH   1  10
HETATM   10  C3  UNL     1       7.149   4.294  19.790  1.00  0.00     0.014 A 
HETATM   11  C2  UNL     1       6.156   3.936  20.814  1.00  0.00     0.044 A 
HETATM   12  N1  UNL     1       5.393   4.859  21.284  1.00  0.00    -0.395 N 
HETATM   13  C20 UNL     1       6.125   2.523  21.222  1.00  0.00     0.167 A 
HETATM   14  C1  UNL     1       4.377   4.689  22.283  1.00  0.00     0.146 C 
ATOM     15  H1  UNL     1       5.521   5.801  20.912  1.00  0.00     0.159 HD
HETATM   16  N5  UNL     1       7.111   1.734  20.540  1.00  0.00    -0.361 N 
HETATM   17  C19 UNL     1       7.946   2.109  19.668  1.00  0.00     0.113 A 
ATOM     18  H5  UNL     1       7.142   0.746  20.790  1.00  0.00     0.162 HD
HETATM   19  C15 UNL     1       7.985   3.419  19.264  1.00  0.00     0.021 A 
HETATM   20  N4  UNL     1       8.828   1.240  19.093  1.00  0.00    -0.352 N 
HETATM   21  C16 UNL     1       8.916   3.808  18.291  1.00  0.00     0.017 A 
HETATM   22  C17 UNL     1       9.799   2.919  17.720  1.00  0.00     0.018 A 
HETATM   23  C18 UNL     1       9.716   1.619  18.164  1.00  0.00     0.089 A 
ATOM     24  H4  UNL     1       8.812   0.262  19.383  1.00  0.00     0.166 HD
BRANCH  13  25
HETATM   25  C21 UNL     1       4.799   1.862  20.949  1.00  0.00    -0.030 A 
HETATM   26  C22 UNL     1       4.164   1.930  19.733  1.00  0.00     0.009 A 
HETATM   27  C23 UNL     1       2.947   1.310  19.499  1.00  0.00     0.001 A 
HETATM   28  C24 UNL     1       2.332   0.595  20.495  1.00  0.00     0.000 A 
HETATM   29  C25 UNL     1       2.952   0.511  21.730  1.00  0.00     0.001 A 
HETATM   30  C26 UNL     1       4.166   1.140  21.939  1.00  0.00     0.009 A 
ENDBRANCH  13  25
ENDBRANCH   1  10
BRANCH   6  31
HETATM   31  O1  UNL     1       5.656   7.957  16.920  1.00  0.00    -0.345 OA
BRANCH  31  32
HETATM   32  C9  UNL     1       5.976   8.228  15.592  1.00  0.00     0.206 C 
BRANCH  32  33
HETATM   33  C10 UNL     1       5.572   7.145  14.632  1.00  0.00     0.297 C 
BRANCH  33  34
HETATM   34  N2  UNL     1       6.750   6.425  14.177  1.00  0.00     0.082 N 
HETATM   35  C11 UNL     1       7.132   6.820  12.832  1.00  0.00     0.309 C 
HETATM   36  C12 UNL     1       6.420   5.000  14.106  1.00  0.00     0.309 C 
ENDBRANCH  33  34
ENDBRANCH  32  33
ENDBRANCH  31  32
ENDBRANCH   6  31
TORSDOF 6
ENDMDL
MODEL 5
REMARK VINA RESULT: -7.343919661      3.430      5.576
REMARK  6 active torsions:
REMARK  status: ('A' for Active; 'I' for Inactive)
REMARK    1  A    between atoms: C3_5  and  C4_6 
REMARK    2  A    between atoms: C8_11  and  O1_12 
REMARK    3  A    between atoms: O1_12  and  C9_13 
REMARK    4  A    between atoms: C9_13  and  C10_14 
REMARK    5  A    between atoms: C10_14  and  N2_15 
REMARK    6  A    between atoms: C20_30  and  C21_31 
ROOT
HETATM    1  C4  UNL     1       6.570   5.654  18.907  1.00  0.00     0.001 A 
HETATM    2  C5  UNL     1       5.910   5.766  17.703  1.00  0.00     0.017 A 
HETATM    3  C6  UNL     1       5.855   7.026  17.094  1.00  0.00     0.046 A 
HETATM    4  C7  UNL     1       6.441   8.147  17.665  1.00  0.00     0.151 A 
HETATM    5  F1  UNL     1       6.317   9.308  16.982  1.00  0.00    -0.203 F 
HETATM    6  C8  UNL     1       7.097   8.026  18.865  1.00  0.00     0.129 A 
HETATM    7  C13 UNL     1       7.154   6.773  19.474  1.00  0.00     0.092 A 
HETATM    8  C14 UNL     1       7.835   6.597  20.737  1.00  0.00     0.103 C 
HETATM    9  N3  UNL     1       8.380   6.447  21.757  1.00  0.00    -0.191 NA
ENDROOT
BRANCH   1  10
HETATM   10  C3  UNL     1       6.638   4.346  19.548  1.00  0.00     0.014 A 
HETATM   11  C2  UNL     1       5.682   4.021  20.616  1.00  0.00     0.044 A 
HETATM   12  N1  UNL     1       4.813   4.907  20.958  1.00  0.00    -0.395 N 
HETATM   13  C20 UNL     1       5.809   2.684  21.216  1.00  0.00     0.167 A 
HETATM   14  C1  UNL     1       3.813   4.760  21.976  1.00  0.00     0.146 C 
ATOM     15  H1  UNL     1       4.837   5.796  20.458  1.00  0.00     0.159 HD
HETATM   16  N5  UNL     1       6.886   1.927  20.645  1.00  0.00    -0.361 N 
HETATM   17  C19 UNL     1       7.682   2.271  19.726  1.00  0.00     0.113 A 
ATOM     18  H5  UNL     1       7.027   0.993  21.030  1.00  0.00     0.162 HD
HETATM   19  C15 UNL     1       7.576   3.509  19.144  1.00  0.00     0.021 A 
HETATM   20  N4  UNL     1       8.665   1.439  19.273  1.00  0.00    -0.352 N 
HETATM   21  C16 UNL     1       8.467   3.864  18.122  1.00  0.00     0.017 A 
HETATM   22  C17 UNL     1       9.452   3.012  17.675  1.00  0.00     0.018 A 
HETATM   23  C18 UNL     1       9.513   1.785  18.295  1.00  0.00     0.089 A 
ATOM     24  H4  UNL     1       8.758   0.515  19.695  1.00  0.00     0.166 HD
BRANCH  13  25
HETATM   25  C21 UNL     1       4.570   1.843  21.044  1.00  0.00    -0.030 A 
HETATM   26  C22 UNL     1       3.867   1.779  19.867  1.00  0.00     0.009 A 
HETATM   27  C23 UNL     1       2.733   0.995  19.726  1.00  0.00     0.001 A 
HETATM   28  C24 UNL     1       2.274   0.245  20.779  1.00  0.00     0.000 A 
HETATM   29  C25 UNL     1       2.967   0.292  21.976  1.00  0.00     0.001 A 
HETATM   30  C26 UNL     1       4.095   1.084  22.093  1.00  0.00     0.009 A 
ENDBRANCH  13  25
ENDBRANCH   1  10
BRANCH   6  31
HETATM   31  O1  UNL     1       7.681   9.119  19.439  1.00  0.00    -0.345 OA
BRANCH  31  32
HETATM   32  C9  UNL     1       7.098  10.051  20.294  1.00  0.00     0.206 C 
BRANCH  32  33
HETATM   33  C10 UNL     1       7.565   9.952  21.718  1.00  0.00     0.297 C 
BRANCH  33  34
HETATM   34  N2  UNL     1       6.423   9.790  22.602  1.00  0.00     0.082 N 
HETATM   35  C11 UNL     1       6.745   8.951  23.744  1.00  0.00     0.309 C 
HETATM   36  C12 UNL     1       5.366   9.092  21.867  1.00  0.00     0.309 C 
ENDBRANCH  33  34
ENDBRANCH  32  33
ENDBRANCH  31  32
ENDBRANCH   6  31
TORSDOF 6
ENDMDL
