MODEL 1
REMARK VINA RESULT: -7.660361933      0.000      0.000
REMARK  6 active torsions:
REMARK  status: ('A' for Active; 'I' for Inactive)
REMARK    1  A    between atoms: C2_2  and  C4_4 
REMARK    2  A    between atoms: C6_6  and  O1_7 
REMARK    3  A    between atoms: C9_11  and  C10_12 
REMARK       I    between atoms: N2_15  and  C11_16 
REMARK    4  A    between atoms: C11_16  and  O3_18 
REMARK    5  A    between atoms: O3_18  and  C12_19 
REMARK    6  A    between atoms: C16_23  and  O4_24 
ROOT
HETATM    1  C10 UNL     1      12.540   2.469 199.541  1.00  0.00     0.104 A 
HETATM    2  N1  UNL     1      11.600   1.784 200.214  1.00  0.00    -0.283 N 
ATOM      3  H1  UNL     1      11.280   0.817 200.177  1.00  0.00     0.188 HD
HETATM    4  N2  UNL     1      11.252   2.805 200.922  1.00  0.00    -0.174 N 
HETATM    5  C11 UNL     1      10.367   3.056 202.031  1.00  0.00     0.389 C 
HETATM    6  O2  UNL     1      10.212   4.252 202.406  1.00  0.00    -0.236 OA
HETATM    7  C16 UNL     1      12.163   3.560 200.302  1.00  0.00     0.195 A 
ENDROOT
BRANCH   1   8
HETATM    8  C9  UNL     1      13.653   2.232 198.593  1.00  0.00    -0.043 C 
HETATM    9  C4  UNL     1      13.401   1.231 197.524  1.00  0.00     0.023 C 
HETATM   10  C5  UNL     1      13.025   1.897 196.198  1.00  0.00     0.041 C 
HETATM   11  C6  UNL     1      13.398   3.293 195.955  1.00  0.00     0.119 C 
HETATM   12  C7  UNL     1      13.867   4.178 197.044  1.00  0.00     0.036 C 
HETATM   13  C8  UNL     1      14.353   3.475 198.253  1.00  0.00     0.039 C 
BRANCH   9  14
HETATM   14  C2  UNL     1      14.404   0.153 197.298  1.00  0.00    -0.014 C 
HETATM   15  C1  UNL     1      14.417  -0.930 198.309  1.00  0.00     0.010 C 
HETATM   16  C3  UNL     1      14.481  -0.325 195.861  1.00  0.00     0.010 C 
ENDBRANCH   9  14
BRANCH  11  17
HETATM   17  O1  UNL     1      14.293   3.473 194.847  1.00  0.00    -0.396 OA
ATOM     18  H1  UNL     1      15.153   3.792 195.094  1.00  0.00     0.210 HD
ENDBRANCH  11  17
ENDBRANCH   1   8
BRANCH   7  19
HETATM   19  O4  UNL     1      12.501   4.913 200.452  1.00  0.00    -0.343 OA
ATOM     20  H4  UNL     1      12.197   5.764 200.160  1.00  0.00     0.219 HD
ENDBRANCH   7  19
BRANCH   5  21
HETATM   21  O3  UNL     1       9.690   2.063 202.709  1.00  0.00    -0.292 OA
BRANCH  21  22
HETATM   22  C12 UNL     1       9.179   2.074 203.989  1.00  0.00     0.061 C 
HETATM   23  C13 UNL     1      10.094   2.624 205.079  1.00  0.00     0.046 C 
HETATM   24  C14 UNL     1       7.822   2.700 204.095  1.00  0.00     0.046 C 
HETATM   25  C15 UNL     1       9.032   0.566 204.370  1.00  0.00     0.046 C 
ENDBRANCH  21  22
ENDBRANCH   5  21
TORSDOF 6
ENDMDL
MODEL 2
REMARK VINA RESULT: -7.655026158      1.919      3.326
REMARK  6 active torsions:
REMARK  status: ('A' for Active; 'I' for Inactive)
REMARK    1  A    between atoms: C2_2  and  C4_4 
REMARK    2  A    between atoms: C6_6  and  O1_7 
REMARK    3  A    between atoms: C9_11  and  C10_12 
REMARK       I    between atoms: N2_15  and  C11_16 
REMARK    4  A    between atoms: C11_16  and  O3_18 
REMARK    5  A    between atoms: O3_18  and  C12_19 
REMARK    6  A    between atoms: C16_23  and  O4_24 
ROOT
HETATM    1  C10 UNL     1      12.483   1.458 198.445  1.00  0.00     0.104 A 
HETATM    2  N1  UNL     1      11.781   1.482 199.590  1.00  0.00    -0.283 N 
ATOM      3  H1  UNL     1      11.178   0.804 200.054  1.00  0.00     0.188 HD
HETATM    4  N2  UNL     1      12.153   2.682 199.885  1.00  0.00    -0.174 N 
HETATM    5  C11 UNL     1      12.006   3.577 201.004  1.00  0.00     0.389 C 
HETATM    6  O2  UNL     1      12.446   4.755 200.881  1.00  0.00    -0.236 OA
HETATM    7  C16 UNL     1      12.878   2.744 198.765  1.00  0.00     0.195 A 
ENDROOT
BRANCH   1   8
HETATM    8  C9  UNL     1      12.897   0.505 197.390  1.00  0.00    -0.043 C 
HETATM    9  C4  UNL     1      14.151   0.834 196.665  1.00  0.00     0.023 C 
HETATM   10  C5  UNL     1      15.344   0.041 197.203  1.00  0.00     0.041 C 
HETATM   11  C6  UNL     1      15.116  -1.205 197.941  1.00  0.00     0.119 C 
HETATM   12  C7  UNL     1      13.775  -1.583 198.440  1.00  0.00     0.036 C 
HETATM   13  C8  UNL     1      12.646  -0.886 197.783  1.00  0.00     0.039 C 
BRANCH   9  14
HETATM   14  C2  UNL     1      14.146   0.817 195.175  1.00  0.00    -0.014 C 
HETATM   15  C1  UNL     1      14.573   2.077 194.521  1.00  0.00     0.010 C 
HETATM   16  C3  UNL     1      14.741  -0.440 194.572  1.00  0.00     0.010 C 
ENDBRANCH   9  14
BRANCH  11  17
HETATM   17  O1  UNL     1      15.677  -2.366 197.311  1.00  0.00    -0.396 OA
ATOM     18  H1  UNL     1      15.037  -3.032 197.090  1.00  0.00     0.210 HD
ENDBRANCH  11  17
ENDBRANCH   1   8
BRANCH   7  19
HETATM   19  O4  UNL     1      13.677   3.768 198.235  1.00  0.00    -0.343 OA
ATOM     20  H4  UNL     1      14.068   4.588 198.512  1.00  0.00     0.219 HD
ENDBRANCH   7  19
BRANCH   5  21
HETATM   21  O3  UNL     1      11.421   3.217 202.200  1.00  0.00    -0.292 OA
BRANCH  21  22
HETATM   22  C12 UNL     1      10.103   2.918 202.472  1.00  0.00     0.061 C 
HETATM   23  C13 UNL     1       9.109   3.146 201.338  1.00  0.00     0.046 C 
HETATM   24  C14 UNL     1       9.900   1.557 203.065  1.00  0.00     0.046 C 
HETATM   25  C15 UNL     1       9.670   3.967 203.545  1.00  0.00     0.046 C 
ENDBRANCH  21  22
ENDBRANCH   5  21
TORSDOF 6
ENDMDL
MODEL 3
REMARK VINA RESULT: -7.323138223      1.893      3.108
REMARK  6 active torsions:
REMARK  status: ('A' for Active; 'I' for Inactive)
REMARK    1  A    between atoms: C2_2  and  C4_4 
REMARK    2  A    between atoms: C6_6  and  O1_7 
REMARK    3  A    between atoms: C9_11  and  C10_12 
REMARK       I    between atoms: N2_15  and  C11_16 
REMARK    4  A    between atoms: C11_16  and  O3_18 
REMARK    5  A    between atoms: O3_18  and  C12_19 
REMARK    6  A    between atoms: C16_23  and  O4_24 
ROOT
HETATM    1  C10 UNL     1      12.504   1.495 198.446  1.00  0.00     0.104 A 
HETATM    2  N1  UNL     1      11.732   1.370 199.538  1.00  0.00    -0.283 N 
ATOM      3  H1  UNL     1      11.121   0.630 199.881  1.00  0.00     0.188 HD
HETATM    4  N2  UNL     1      12.051   2.535 199.992  1.00  0.00    -0.174 N 
HETATM    5  C11 UNL     1      11.809   3.290 201.195  1.00  0.00     0.389 C 
HETATM    6  O2  UNL     1      12.222   4.483 201.238  1.00  0.00    -0.236 OA
HETATM    7  C16 UNL     1      12.842   2.743 198.937  1.00  0.00     0.195 A 
ENDROOT
BRANCH   1   8
HETATM    8  C9  UNL     1      13.009   0.680 197.317  1.00  0.00    -0.043 C 
HETATM    9  C4  UNL     1      14.378   1.002 196.838  1.00  0.00     0.023 C 
HETATM   10  C5  UNL     1      15.420   0.031 197.401  1.00  0.00     0.041 C 
HETATM   11  C6  UNL     1      15.000  -1.286 197.885  1.00  0.00     0.119 C 
HETATM   12  C7  UNL     1      13.576  -1.614 198.123  1.00  0.00     0.036 C 
HETATM   13  C8  UNL     1      12.610  -0.727 197.439  1.00  0.00     0.039 C 
BRANCH   9  14
HETATM   14  C2  UNL     1      14.599   1.212 195.379  1.00  0.00    -0.014 C 
HETATM   15  C1  UNL     1      14.254   0.062 194.510  1.00  0.00     0.010 C 
HETATM   16  C3  UNL     1      14.116   2.555 194.870  1.00  0.00     0.010 C 
ENDBRANCH   9  14
BRANCH  11  17
HETATM   17  O1  UNL     1      15.572  -2.384 197.159  1.00  0.00    -0.396 OA
ATOM     18  H1  UNL     1      14.969  -3.103 197.008  1.00  0.00     0.210 HD
ENDBRANCH  11  17
ENDBRANCH   1   8
BRANCH   7  19
HETATM   19  O4  UNL     1      13.642   3.838 198.581  1.00  0.00    -0.343 OA
ATOM     20  H4  UNL     1      14.311   4.392 198.965  1.00  0.00     0.219 HD
ENDBRANCH   7  19
BRANCH   5  21
HETATM   21  O3  UNL     1      11.162   2.781 202.302  1.00  0.00    -0.292 OA
BRANCH  21  22
HETATM   22  C12 UNL     1       9.849   2.934 202.692  1.00  0.00     0.061 C 
HETATM   23  C13 UNL     1       9.563   4.062 203.679  1.00  0.00     0.046 C 
HETATM   24  C14 UNL     1       8.880   2.995 201.551  1.00  0.00     0.046 C 
HETATM   25  C15 UNL     1       9.526   1.647 203.515  1.00  0.00     0.046 C 
ENDBRANCH  21  22
ENDBRANCH   5  21
TORSDOF 6
ENDMDL
MODEL 4
REMARK VINA RESULT: -7.188665573      4.058      5.837
REMARK  6 active torsions:
REMARK  status: ('A' for Active; 'I' for Inactive)
REMARK    1  A    between atoms: C2_2  and  C4_4 
REMARK    2  A    between atoms: C6_6  and  O1_7 
REMARK    3  A    between atoms: C9_11  and  C10_12 
REMARK       I    between atoms: N2_15  and  C11_16 
REMARK    4  A    between atoms: C11_16  and  O3_18 
REMARK    5  A    between atoms: O3_18  and  C12_19 
REMARK    6  A    between atoms: C16_23  and  O4_24 
ROOT
HETATM    1  C10 UNL     1      13.199   3.038 196.966  1.00  0.00     0.104 A 
HETATM    2  N1  UNL     1      13.057   4.246 196.395  1.00  0.00    -0.283 N 
ATOM      3  H1  UNL     1      12.927   4.552 195.431  1.00  0.00     0.188 HD
HETATM    4  N2  UNL     1      13.147   4.874 197.518  1.00  0.00    -0.174 N 
HETATM    5  C11 UNL     1      13.006   6.235 197.969  1.00  0.00     0.389 C 
HETATM    6  O2  UNL     1      13.274   6.489 199.177  1.00  0.00    -0.236 OA
HETATM    7  C16 UNL     1      13.296   3.717 198.167  1.00  0.00     0.195 A 
ENDROOT
BRANCH   1   8
HETATM    8  C9  UNL     1      13.092   1.602 196.620  1.00  0.00    -0.043 C 
HETATM    9  C4  UNL     1      14.338   0.950 196.141  1.00  0.00     0.023 C 
HETATM   10  C5  UNL     1      15.028   0.156 197.253  1.00  0.00     0.041 C 
HETATM   11  C6  UNL     1      14.256  -0.286 198.418  1.00  0.00     0.119 C 
HETATM   12  C7  UNL     1      12.906   0.246 198.708  1.00  0.00     0.036 C 
HETATM   13  C8  UNL     1      12.225   0.879 197.556  1.00  0.00     0.039 C 
BRANCH   9  14
HETATM   14  C2  UNL     1      14.295   0.150 194.884  1.00  0.00    -0.014 C 
HETATM   15  C1  UNL     1      14.759   0.853 193.665  1.00  0.00     0.010 C 
HETATM   16  C3  UNL     1      14.817  -1.264 195.035  1.00  0.00     0.010 C 
ENDBRANCH   9  14
BRANCH  11  17
HETATM   17  O1  UNL     1      14.190  -1.712 198.566  1.00  0.00    -0.396 OA
ATOM     18  H1  UNL     1      13.320  -2.073 198.446  1.00  0.00     0.210 HD
ENDBRANCH  11  17
ENDBRANCH   1   8
BRANCH   7  19
HETATM   19  O4  UNL     1      13.476   3.436 199.529  1.00  0.00    -0.343 OA
ATOM     20  H4  UNL     1      13.191   2.798 200.173  1.00  0.00     0.219 HD
ENDBRANCH   7  19
BRANCH   5  21
HETATM   21  O3  UNL     1      12.586   7.270 197.159  1.00  0.00    -0.292 OA
BRANCH  21  22
HETATM   22  C12 UNL     1      11.961   8.449 197.503  1.00  0.00     0.061 C 
HETATM   23  C13 UNL     1      10.470   8.541 197.191  1.00  0.00     0.046 C 
HETATM   24  C14 UNL     1      12.216   8.882 198.914  1.00  0.00     0.046 C 
HETATM   25  C15 UNL     1      12.591   9.523 196.560  1.00  0.00     0.046 C 
ENDBRANCH  21  22
ENDBRANCH   5  21
TORSDOF 6
ENDMDL
MODEL 5
REMARK VINA RESULT: -6.962430798      1.533      2.005
REMARK  6 active torsions:
REMARK  status: ('A' for Active; 'I' for Inactive)
REMARK    1  A    between atoms: C2_2  and  C4_4 
REMARK    2  A    between atoms: C6_6  and  O1_7 
REMARK    3  A    between atoms: C9_11  and  C10_12 
REMARK       I    between atoms: N2_15  and  C11_16 
REMARK    4  A    between atoms: C11_16  and  O3_18 
REMARK    5  A    between atoms: O3_18  and  C12_19 
REMARK    6  A    between atoms: C16_23  and  O4_24 
ROOT
HETATM    1  C10 UNL     1      13.012   2.495 199.225  1.00  0.00     0.104 A 
HETATM    2  N1  UNL     1      12.150   3.184 199.990  1.00  0.00    -0.283 N 
ATOM      3  H1  UNL     1      11.879   4.167 200.026  1.00  0.00     0.188 HD
HETATM    4  N2  UNL     1      11.790   2.143 200.661  1.00  0.00    -0.174 N 
HETATM    5  C11 UNL     1      10.805   1.835 201.665  1.00  0.00     0.389 C 
HETATM    6  O2  UNL     1      10.819   0.679 202.173  1.00  0.00    -0.236 OA
HETATM    7  C16 UNL     1      12.625   1.381 199.948  1.00  0.00     0.195 A 
ENDROOT
BRANCH   1   8
HETATM    8  C9  UNL     1      13.852   2.677 198.019  1.00  0.00    -0.043 C 
HETATM    9  C4  UNL     1      13.419   1.940 196.803  1.00  0.00     0.023 C 
HETATM   10  C5  UNL     1      12.647   2.841 195.836  1.00  0.00     0.041 C 
HETATM   11  C6  UNL     1      12.812   4.296 195.909  1.00  0.00     0.119 C 
HETATM   12  C7  UNL     1      13.469   4.951 197.062  1.00  0.00     0.036 C 
HETATM   13  C8  UNL     1      14.320   4.060 197.883  1.00  0.00     0.039 C 
BRANCH   9  14
HETATM   14  C2  UNL     1      14.422   1.123 196.062  1.00  0.00    -0.014 C 
HETATM   15  C1  UNL     1      14.504  -0.301 196.460  1.00  0.00     0.010 C 
HETATM   16  C3  UNL     1      14.425   1.362 194.565  1.00  0.00     0.010 C 
ENDBRANCH   9  14
BRANCH  11  17
HETATM   17  O1  UNL     1      13.362   4.880 194.719  1.00  0.00    -0.396 OA
ATOM     18  H1  UNL     1      14.272   4.657 194.565  1.00  0.00     0.210 HD
ENDBRANCH  11  17
ENDBRANCH   1   8
BRANCH   7  19
HETATM   19  O4  UNL     1      12.907   0.009 200.009  1.00  0.00    -0.343 OA
ATOM     20  H4  UNL     1      13.581  -0.569 200.345  1.00  0.00     0.219 HD
ENDBRANCH   7  19
BRANCH   5  21
HETATM   21  O3  UNL     1       9.844   2.727 202.094  1.00  0.00    -0.292 OA
BRANCH  21  22
HETATM   22  C12 UNL     1       9.325   2.911 203.357  1.00  0.00     0.061 C 
HETATM   23  C13 UNL     1       9.197   1.662 204.225  1.00  0.00     0.046 C 
HETATM   24  C14 UNL     1       9.990   4.007 204.133  1.00  0.00     0.046 C 
HETATM   25  C15 UNL     1       7.841   3.336 203.120  1.00  0.00     0.046 C 
ENDBRANCH  21  22
ENDBRANCH   5  21
TORSDOF 6
ENDMDL
