MODEL 1
REMARK VINA RESULT: -8.168503888      0.000      0.000
REMARK  13 active torsions:
REMARK  status: ('A' for Active; 'I' for Inactive)
REMARK    1  A    between atoms: O1_2  and  C2_3 
REMARK    2  A    between atoms: C5_7  and  C6_8 
REMARK    3  A    between atoms: C8_10  and  O2_11 
REMARK    4  A    between atoms: C11_15  and  C12_16 
REMARK    5  A    between atoms: C12_16  and  O3_17 
REMARK    6  A    between atoms: O3_17  and  C13_18 
REMARK    7  A    between atoms: C13_18  and  C14_20 
REMARK    8  A    between atoms: C14_20  and  C15_21 
REMARK    9  A    between atoms: C15_21  and  O5_22 
REMARK   10  A    between atoms: C15_21  and  C16_24 
REMARK   11  A    between atoms: C16_24  and  C17_25 
REMARK   12  A    between atoms: C23_31  and  O6_32 
REMARK   13  A    between atoms: C31_41  and  N1_42 
ROOT
HETATM    1  C6  UNL     1      40.812 -19.414  27.506  1.00  0.00     0.017 C 
HETATM    2  C7  UNL     1      40.616 -20.598  27.986  1.00  0.00    -0.042 C 
HETATM    3  C8  UNL     1      39.365 -21.220  28.459  1.00  0.00     0.148 C 
HETATM    4  C9  UNL     1      39.783 -22.686  28.807  1.00  0.00     0.042 C 
HETATM    5  C10 UNL     1      41.136 -22.346  29.358  1.00  0.00     0.007 C 
HETATM    6  C11 UNL     1      41.928 -23.339  30.055  1.00  0.00     0.024 C 
HETATM    7  C20 UNL     1      43.364 -22.946  30.099  1.00  0.00    -0.034 C 
HETATM    8  C21 UNL     1      44.368 -23.956  30.490  1.00  0.00     0.012 C 
HETATM    9  C22 UNL     1      45.200 -23.545  31.722  1.00  0.00     0.032 C 
HETATM   10  C23 UNL     1      45.882 -22.235  31.510  1.00  0.00     0.118 C 
HETATM   11  C24 UNL     1      44.815 -21.206  31.213  1.00  0.00     0.032 C 
HETATM   12  C25 UNL     1      43.457 -21.818  31.149  1.00  0.00     0.012 C 
HETATM   13  C26 UNL     1      43.868 -22.285  28.828  1.00  0.00     0.011 C 
HETATM   14  C27 UNL     1      43.041 -21.076  28.434  1.00  0.00     0.015 C 
HETATM   15  C28 UNL     1      41.683 -21.645  28.157  1.00  0.00    -0.014 C 
HETATM   16  C29 UNL     1      41.706 -22.423  26.893  1.00  0.00     0.020 C 
ENDROOT
BRANCH   1  17
HETATM   17  C5  UNL     1      39.824 -18.355  27.300  1.00  0.00    -0.032 A 
HETATM   18  C4  UNL     1      39.738 -17.834  25.995  1.00  0.00     0.038 A 
HETATM   19  C3  UNL     1      38.844 -16.824  25.720  1.00  0.00     0.070 A 
HETATM   20  C2  UNL     1      38.044 -16.344  26.740  1.00  0.00     0.123 A 
HETATM   21 CL1  UNL     1      38.732 -16.169  24.086  1.00  0.00    -0.081 Cl
HETATM   22  C31 UNL     1      38.099 -16.826  28.018  1.00  0.00     0.138 A 
HETATM   23  C30 UNL     1      39.014 -17.853  28.288  1.00  0.00     0.050 A 
BRANCH  20  24
HETATM   24  O1  UNL     1      37.147 -15.328  26.450  1.00  0.00    -0.352 OA
HETATM   25  C1  UNL     1      37.312 -13.986  26.845  1.00  0.00     0.210 C 
ENDBRANCH  20  24
BRANCH  22  26
HETATM   26  N1  UNL     1      37.291 -16.351  29.074  1.00  0.00    -0.113 N 
HETATM   27  O7  UNL     1      37.732 -15.617  29.975  1.00  0.00    -0.532 OA
HETATM   28  O8  UNL     1      35.970 -16.707  29.114  1.00  0.00    -0.532 OA
ENDBRANCH  22  26
ENDBRANCH   1  17
BRANCH   3  29
HETATM   29  O2  UNL     1      38.368 -21.249  27.484  1.00  0.00    -0.391 OA
ATOM     30  H2  UNL     1      37.497 -21.363  27.846  1.00  0.00     0.210 HD
ENDBRANCH   3  29
BRANCH   6  31
HETATM   31  C12 UNL     1      41.686 -24.785  29.695  1.00  0.00     0.184 C 
BRANCH  31  32
HETATM   32  O3  UNL     1      42.250 -25.094  28.425  1.00  0.00    -0.321 OA
BRANCH  32  33
HETATM   33  C13 UNL     1      42.157 -26.413  27.991  1.00  0.00     0.261 C 
HETATM   34  O4  UNL     1      42.555 -27.338  28.702  1.00  0.00    -0.265 OA
BRANCH  33  35
HETATM   35  C14 UNL     1      41.543 -26.580  26.625  1.00  0.00     0.142 C 
BRANCH  35  36
HETATM   36  C15 UNL     1      40.065 -26.587  26.677  1.00  0.00     0.127 C 
BRANCH  36  37
HETATM   37  O5  UNL     1      39.769 -26.882  28.080  1.00  0.00    -0.395 OA
ATOM     38  H5  UNL     1      39.314 -26.104  28.382  1.00  0.00     0.210 HD
ENDBRANCH  36  37
BRANCH  36  39
HETATM   39  C16 UNL     1      39.338 -25.333  26.389  1.00  0.00     0.036 C 
BRANCH  39  40
HETATM   40  C17 UNL     1      37.931 -25.368  25.943  1.00  0.00    -0.020 C 
HETATM   41  C18 UNL     1      37.823 -26.554  24.950  1.00  0.00     0.009 C 
HETATM   42  C19 UNL     1      37.341 -24.156  25.342  1.00  0.00     0.009 C 
ENDBRANCH  39  40
ENDBRANCH  36  39
ENDBRANCH  35  36
ENDBRANCH  33  35
ENDBRANCH  32  33
ENDBRANCH  31  32
ENDBRANCH   6  31
BRANCH  10  43
HETATM   43  O6  UNL     1      46.602 -21.949  32.666  1.00  0.00    -0.396 OA
ATOM     44  H6  UNL     1      47.473 -21.681  32.399  1.00  0.00     0.210 HD
ENDBRANCH  10  43
TORSDOF 13
ENDMDL
MODEL 2
REMARK VINA RESULT: -8.161320847      1.377      1.864
REMARK  13 active torsions:
REMARK  status: ('A' for Active; 'I' for Inactive)
REMARK    1  A    between atoms: O1_2  and  C2_3 
REMARK    2  A    between atoms: C5_7  and  C6_8 
REMARK    3  A    between atoms: C8_10  and  O2_11 
REMARK    4  A    between atoms: C11_15  and  C12_16 
REMARK    5  A    between atoms: C12_16  and  O3_17 
REMARK    6  A    between atoms: O3_17  and  C13_18 
REMARK    7  A    between atoms: C13_18  and  C14_20 
REMARK    8  A    between atoms: C14_20  and  C15_21 
REMARK    9  A    between atoms: C15_21  and  O5_22 
REMARK   10  A    between atoms: C15_21  and  C16_24 
REMARK   11  A    between atoms: C16_24  and  C17_25 
REMARK   12  A    between atoms: C23_31  and  O6_32 
REMARK   13  A    between atoms: C31_41  and  N1_42 
ROOT
HETATM    1  C6  UNL     1      40.857 -19.659  27.635  1.00  0.00     0.017 C 
HETATM    2  C7  UNL     1      40.708 -20.862  28.086  1.00  0.00    -0.042 C 
HETATM    3  C8  UNL     1      39.480 -21.553  28.520  1.00  0.00     0.148 C 
HETATM    4  C9  UNL     1      39.961 -23.005  28.844  1.00  0.00     0.042 C 
HETATM    5  C10 UNL     1      41.286 -22.614  29.429  1.00  0.00     0.007 C 
HETATM    6  C11 UNL     1      42.112 -23.583  30.120  1.00  0.00     0.024 C 
HETATM    7  C20 UNL     1      43.526 -23.124  30.200  1.00  0.00    -0.034 C 
HETATM    8  C21 UNL     1      44.569 -24.094  30.589  1.00  0.00     0.012 C 
HETATM    9  C22 UNL     1      45.358 -23.672  31.845  1.00  0.00     0.032 C 
HETATM   10  C23 UNL     1      45.980 -22.327  31.675  1.00  0.00     0.118 C 
HETATM   11  C24 UNL     1      44.871 -21.343  31.380  1.00  0.00     0.032 C 
HETATM   12  C25 UNL     1      43.546 -22.017  31.276  1.00  0.00     0.012 C 
HETATM   13  C26 UNL     1      44.021 -22.412  28.954  1.00  0.00     0.011 C 
HETATM   14  C27 UNL     1      43.144 -21.234  28.570  1.00  0.00     0.015 C 
HETATM   15  C28 UNL     1      41.821 -21.860  28.255  1.00  0.00    -0.014 C 
HETATM   16  C29 UNL     1      41.905 -22.608  26.974  1.00  0.00     0.020 C 
ENDROOT
BRANCH   1  17
HETATM   17  C5  UNL     1      39.823 -18.644  27.433  1.00  0.00    -0.032 A 
HETATM   18  C4  UNL     1      39.284 -18.067  28.598  1.00  0.00     0.038 A 
HETATM   19  C3  UNL     1      38.297 -17.114  28.496  1.00  0.00     0.070 A 
HETATM   20  C2  UNL     1      37.854 -16.743  27.240  1.00  0.00     0.123 A 
HETATM   21 CL1  UNL     1      37.620 -16.388  29.954  1.00  0.00    -0.081 Cl
HETATM   22  C31 UNL     1      38.354 -17.281  26.086  1.00  0.00     0.138 A 
HETATM   23  C30 UNL     1      39.359 -18.251  26.201  1.00  0.00     0.050 A 
BRANCH  20  24
HETATM   24  O1  UNL     1      36.860 -15.782  27.150  1.00  0.00    -0.352 OA
HETATM   25  C1  UNL     1      37.100 -14.396  27.056  1.00  0.00     0.210 C 
ENDBRANCH  20  24
BRANCH  22  26
HETATM   26  N1  UNL     1      37.917 -16.915  24.795  1.00  0.00    -0.113 N 
HETATM   27  O7  UNL     1      38.571 -16.158  24.057  1.00  0.00    -0.532 OA
HETATM   28  O8  UNL     1      36.728 -17.408  24.329  1.00  0.00    -0.532 OA
ENDBRANCH  22  26
ENDBRANCH   1  17
BRANCH   3  29
HETATM   29  O2  UNL     1      38.504 -21.607  27.526  1.00  0.00    -0.391 OA
ATOM     30  H2  UNL     1      37.855 -22.285  27.677  1.00  0.00     0.210 HD
ENDBRANCH   3  29
BRANCH   6  31
HETATM   31  C12 UNL     1      41.946 -25.032  29.724  1.00  0.00     0.184 C 
BRANCH  31  32
HETATM   32  O3  UNL     1      42.428 -25.255  28.403  1.00  0.00    -0.321 OA
BRANCH  32  33
HETATM   33  C13 UNL     1      42.111 -26.473  27.808  1.00  0.00     0.261 C 
HETATM   34  O4  UNL     1      42.301 -27.534  28.408  1.00  0.00    -0.265 OA
BRANCH  33  35
HETATM   35  C14 UNL     1      41.536 -26.360  26.420  1.00  0.00     0.142 C 
BRANCH  35  36
HETATM   36  C15 UNL     1      40.058 -26.397  26.426  1.00  0.00     0.127 C 
BRANCH  36  37
HETATM   37  O5  UNL     1      39.723 -26.631  27.832  1.00  0.00    -0.395 OA
ATOM     38  H5  UNL     1      39.054 -25.982  28.015  1.00  0.00     0.210 HD
ENDBRANCH  36  37
BRANCH  36  39
HETATM   39  C16 UNL     1      39.315 -25.175  26.055  1.00  0.00     0.036 C 
BRANCH  39  40
HETATM   40  C17 UNL     1      37.855 -25.223  25.838  1.00  0.00    -0.020 C 
HETATM   41  C18 UNL     1      37.588 -26.485  24.978  1.00  0.00     0.009 C 
HETATM   42  C19 UNL     1      37.183 -24.056  25.235  1.00  0.00     0.009 C 
ENDBRANCH  39  40
ENDBRANCH  36  39
ENDBRANCH  35  36
ENDBRANCH  33  35
ENDBRANCH  32  33
ENDBRANCH  31  32
ENDBRANCH   6  31
BRANCH  10  43
HETATM   43  O6  UNL     1      46.664 -22.033  32.851  1.00  0.00    -0.396 OA
ATOM     44  H6  UNL     1      47.592 -22.121  32.669  1.00  0.00     0.210 HD
ENDBRANCH  10  43
TORSDOF 13
ENDMDL
MODEL 3
REMARK VINA RESULT: -8.100024509      2.342      3.764
REMARK  13 active torsions:
REMARK  status: ('A' for Active; 'I' for Inactive)
REMARK    1  A    between atoms: O1_2  and  C2_3 
REMARK    2  A    between atoms: C5_7  and  C6_8 
REMARK    3  A    between atoms: C8_10  and  O2_11 
REMARK    4  A    between atoms: C11_15  and  C12_16 
REMARK    5  A    between atoms: C12_16  and  O3_17 
REMARK    6  A    between atoms: O3_17  and  C13_18 
REMARK    7  A    between atoms: C13_18  and  C14_20 
REMARK    8  A    between atoms: C14_20  and  C15_21 
REMARK    9  A    between atoms: C15_21  and  O5_22 
REMARK   10  A    between atoms: C15_21  and  C16_24 
REMARK   11  A    between atoms: C16_24  and  C17_25 
REMARK   12  A    between atoms: C23_31  and  O6_32 
REMARK   13  A    between atoms: C31_41  and  N1_42 
ROOT
HETATM    1  C6  UNL     1      40.907 -19.497  27.733  1.00  0.00     0.017 C 
HETATM    2  C7  UNL     1      40.856 -20.774  27.930  1.00  0.00    -0.042 C 
HETATM    3  C8  UNL     1      39.681 -21.650  28.087  1.00  0.00     0.148 C 
HETATM    4  C9  UNL     1      40.293 -23.085  28.183  1.00  0.00     0.042 C 
HETATM    5  C10 UNL     1      41.507 -22.696  28.975  1.00  0.00     0.007 C 
HETATM    6  C11 UNL     1      42.372 -23.700  29.557  1.00  0.00     0.024 C 
HETATM    7  C20 UNL     1      43.711 -23.135  29.880  1.00  0.00    -0.034 C 
HETATM    8  C21 UNL     1      44.819 -24.060  30.192  1.00  0.00     0.012 C 
HETATM    9  C22 UNL     1      45.438 -23.824  31.585  1.00  0.00     0.032 C 
HETATM   10  C23 UNL     1      45.914 -22.419  31.742  1.00  0.00     0.118 C 
HETATM   11  C24 UNL     1      44.731 -21.506  31.516  1.00  0.00     0.032 C 
HETATM   12  C25 UNL     1      43.506 -22.268  31.141  1.00  0.00     0.012 C 
HETATM   13  C26 UNL     1      44.233 -22.145  28.853  1.00  0.00     0.011 C 
HETATM   14  C27 UNL     1      43.265 -21.003  28.603  1.00  0.00     0.015 C 
HETATM   15  C28 UNL     1      42.056 -21.676  28.030  1.00  0.00    -0.014 C 
HETATM   16  C29 UNL     1      42.340 -22.142  26.649  1.00  0.00     0.020 C 
ENDROOT
BRANCH   1  17
HETATM   17  C5  UNL     1      39.786 -18.564  27.612  1.00  0.00    -0.032 A 
HETATM   18  C4  UNL     1      39.225 -18.109  28.820  1.00  0.00     0.038 A 
HETATM   19  C3  UNL     1      38.158 -17.241  28.795  1.00  0.00     0.070 A 
HETATM   20  C2  UNL     1      37.659 -16.831  27.573  1.00  0.00     0.123 A 
HETATM   21 CL1  UNL     1      37.452 -16.667  30.307  1.00  0.00    -0.081 Cl
HETATM   22  C31 UNL     1      38.179 -17.251  26.379  1.00  0.00     0.138 A 
HETATM   23  C30 UNL     1      39.265 -18.136  26.416  1.00  0.00     0.050 A 
BRANCH  20  24
HETATM   24  O1  UNL     1      36.585 -15.955  27.560  1.00  0.00    -0.352 OA
HETATM   25  C1  UNL     1      36.699 -14.556  27.686  1.00  0.00     0.210 C 
ENDBRANCH  20  24
BRANCH  22  26
HETATM   26  N1  UNL     1      37.686 -16.844  25.120  1.00  0.00    -0.113 N 
HETATM   27  O7  UNL     1      36.755 -17.432  24.545  1.00  0.00    -0.532 OA
HETATM   28  O8  UNL     1      38.250 -15.761  24.502  1.00  0.00    -0.532 OA
ENDBRANCH  22  26
ENDBRANCH   1  17
BRANCH   3  29
HETATM   29  O2  UNL     1      38.811 -21.597  26.998  1.00  0.00    -0.391 OA
ATOM     30  H2  UNL     1      39.090 -22.144  26.272  1.00  0.00     0.210 HD
ENDBRANCH   3  29
BRANCH   6  31
HETATM   31  C12 UNL     1      42.409 -25.050  28.880  1.00  0.00     0.184 C 
BRANCH  31  32
HETATM   32  O3  UNL     1      41.560 -25.977  29.548  1.00  0.00    -0.321 OA
BRANCH  32  33
HETATM   33  C13 UNL     1      41.233 -27.146  28.866  1.00  0.00     0.261 C 
HETATM   34  O4  UNL     1      40.086 -27.333  28.454  1.00  0.00    -0.265 OA
BRANCH  33  35
HETATM   35  C14 UNL     1      42.378 -28.109  28.692  1.00  0.00     0.142 C 
BRANCH  35  36
HETATM   36  C15 UNL     1      42.584 -28.951  29.891  1.00  0.00     0.127 C 
BRANCH  36  37
HETATM   37  O5  UNL     1      41.246 -29.469  30.183  1.00  0.00    -0.395 OA
ATOM     38  H5  UNL     1      40.876 -28.818  30.767  1.00  0.00     0.210 HD
ENDBRANCH  36  37
BRANCH  36  39
HETATM   39  C16 UNL     1      43.441 -30.149  29.779  1.00  0.00     0.036 C 
BRANCH  39  40
HETATM   40  C17 UNL     1      44.545 -30.372  30.734  1.00  0.00    -0.020 C 
HETATM   41  C18 UNL     1      43.878 -30.732  32.087  1.00  0.00     0.009 C 
HETATM   42  C19 UNL     1      45.542 -29.303  30.937  1.00  0.00     0.009 C 
ENDBRANCH  39  40
ENDBRANCH  36  39
ENDBRANCH  35  36
ENDBRANCH  33  35
ENDBRANCH  32  33
ENDBRANCH  31  32
ENDBRANCH   6  31
BRANCH  10  43
HETATM   43  O6  UNL     1      46.451 -22.302  33.021  1.00  0.00    -0.396 OA
ATOM     44  H6  UNL     1      47.380 -22.127  32.924  1.00  0.00     0.210 HD
ENDBRANCH  10  43
TORSDOF 13
ENDMDL
MODEL 4
REMARK VINA RESULT: -8.071620931      1.567      2.958
REMARK  13 active torsions:
REMARK  status: ('A' for Active; 'I' for Inactive)
REMARK    1  A    between atoms: O1_2  and  C2_3 
REMARK    2  A    between atoms: C5_7  and  C6_8 
REMARK    3  A    between atoms: C8_10  and  O2_11 
REMARK    4  A    between atoms: C11_15  and  C12_16 
REMARK    5  A    between atoms: C12_16  and  O3_17 
REMARK    6  A    between atoms: O3_17  and  C13_18 
REMARK    7  A    between atoms: C13_18  and  C14_20 
REMARK    8  A    between atoms: C14_20  and  C15_21 
REMARK    9  A    between atoms: C15_21  and  O5_22 
REMARK   10  A    between atoms: C15_21  and  C16_24 
REMARK   11  A    between atoms: C16_24  and  C17_25 
REMARK   12  A    between atoms: C23_31  and  O6_32 
REMARK   13  A    between atoms: C31_41  and  N1_42 
ROOT
HETATM    1  C6  UNL     1      40.845 -19.546  27.512  1.00  0.00     0.017 C 
HETATM    2  C7  UNL     1      40.644 -20.722  28.011  1.00  0.00    -0.042 C 
HETATM    3  C8  UNL     1      39.391 -21.331  28.494  1.00  0.00     0.148 C 
HETATM    4  C9  UNL     1      39.803 -22.793  28.864  1.00  0.00     0.042 C 
HETATM    5  C10 UNL     1      41.159 -22.451  29.408  1.00  0.00     0.007 C 
HETATM    6  C11 UNL     1      41.948 -23.436  30.119  1.00  0.00     0.024 C 
HETATM    7  C20 UNL     1      43.386 -23.050  30.155  1.00  0.00    -0.034 C 
HETATM    8  C21 UNL     1      44.385 -24.057  30.560  1.00  0.00     0.012 C 
HETATM    9  C22 UNL     1      45.222 -23.631  31.783  1.00  0.00     0.032 C 
HETATM   10  C23 UNL     1      45.909 -22.328  31.551  1.00  0.00     0.118 C 
HETATM   11  C24 UNL     1      44.846 -21.299  31.240  1.00  0.00     0.032 C 
HETATM   12  C25 UNL     1      43.485 -21.906  31.187  1.00  0.00     0.012 C 
HETATM   13  C26 UNL     1      43.891 -22.410  28.873  1.00  0.00     0.011 C 
HETATM   14  C27 UNL     1      43.068 -21.203  28.461  1.00  0.00     0.015 C 
HETATM   15  C28 UNL     1      41.707 -21.770  28.196  1.00  0.00    -0.014 C 
HETATM   16  C29 UNL     1      41.725 -22.568  26.944  1.00  0.00     0.020 C 
ENDROOT
BRANCH   1  17
HETATM   17  C5  UNL     1      39.861 -18.486  27.291  1.00  0.00    -0.032 A 
HETATM   18  C4  UNL     1      39.770 -17.989  25.978  1.00  0.00     0.038 A 
HETATM   19  C3  UNL     1      38.879 -16.981  25.689  1.00  0.00     0.070 A 
HETATM   20  C2  UNL     1      38.088 -16.477  26.703  1.00  0.00     0.123 A 
HETATM   21 CL1  UNL     1      38.761 -16.356  24.043  1.00  0.00    -0.081 Cl
HETATM   22  C31 UNL     1      38.148 -16.935  27.991  1.00  0.00     0.138 A 
HETATM   23  C30 UNL     1      39.059 -17.962  28.275  1.00  0.00     0.050 A 
BRANCH  20  24
HETATM   24  O1  UNL     1      37.195 -15.462  26.399  1.00  0.00    -0.352 OA
HETATM   25  C1  UNL     1      37.391 -14.105  26.726  1.00  0.00     0.210 C 
ENDBRANCH  20  24
BRANCH  22  26
HETATM   26  N1  UNL     1      37.349 -16.435  29.041  1.00  0.00    -0.113 N 
HETATM   27  O7  UNL     1      37.791 -15.665  29.910  1.00  0.00    -0.532 OA
HETATM   28  O8  UNL     1      36.034 -16.809  29.114  1.00  0.00    -0.532 OA
ENDBRANCH  22  26
ENDBRANCH   1  17
BRANCH   3  29
HETATM   29  O2  UNL     1      38.393 -21.371  27.522  1.00  0.00    -0.391 OA
ATOM     30  H2  UNL     1      38.591 -20.834  26.763  1.00  0.00     0.210 HD
ENDBRANCH   3  29
BRANCH   6  31
HETATM   31  C12 UNL     1      41.699 -24.888  29.782  1.00  0.00     0.184 C 
BRANCH  31  32
HETATM   32  O3  UNL     1      42.295 -25.228  28.534  1.00  0.00    -0.321 OA
BRANCH  32  33
HETATM   33  C13 UNL     1      41.819 -26.368  27.892  1.00  0.00     0.261 C 
HETATM   34  O4  UNL     1      40.742 -26.349  27.293  1.00  0.00    -0.265 OA
BRANCH  33  35
HETATM   35  C14 UNL     1      42.721 -27.569  28.001  1.00  0.00     0.142 C 
BRANCH  35  36
HETATM   36  C15 UNL     1      42.520 -28.303  29.270  1.00  0.00     0.127 C 
BRANCH  36  37
HETATM   37  O5  UNL     1      41.093 -28.628  29.258  1.00  0.00    -0.395 OA
ATOM     38  H5  UNL     1      40.995 -29.240  29.978  1.00  0.00     0.210 HD
ENDBRANCH  36  37
BRANCH  36  39
HETATM   39  C16 UNL     1      43.204 -29.599  29.457  1.00  0.00     0.036 C 
BRANCH  39  40
HETATM   40  C17 UNL     1      44.325 -29.723  30.411  1.00  0.00    -0.020 C 
HETATM   41  C18 UNL     1      43.715 -30.283  31.722  1.00  0.00     0.009 C 
HETATM   42  C19 UNL     1      45.146 -28.534  30.709  1.00  0.00     0.009 C 
ENDBRANCH  39  40
ENDBRANCH  36  39
ENDBRANCH  35  36
ENDBRANCH  33  35
ENDBRANCH  32  33
ENDBRANCH  31  32
ENDBRANCH   6  31
BRANCH  10  43
HETATM   43  O6  UNL     1      46.632 -22.027  32.701  1.00  0.00    -0.396 OA
ATOM     44  H6  UNL     1      47.298 -21.395  32.460  1.00  0.00     0.210 HD
ENDBRANCH  10  43
TORSDOF 13
ENDMDL
MODEL 5
REMARK VINA RESULT: -7.868596413      2.755      4.660
REMARK  13 active torsions:
REMARK  status: ('A' for Active; 'I' for Inactive)
REMARK    1  A    between atoms: O1_2  and  C2_3 
REMARK    2  A    between atoms: C5_7  and  C6_8 
REMARK    3  A    between atoms: C8_10  and  O2_11 
REMARK    4  A    between atoms: C11_15  and  C12_16 
REMARK    5  A    between atoms: C12_16  and  O3_17 
REMARK    6  A    between atoms: O3_17  and  C13_18 
REMARK    7  A    between atoms: C13_18  and  C14_20 
REMARK    8  A    between atoms: C14_20  and  C15_21 
REMARK    9  A    between atoms: C15_21  and  O5_22 
REMARK   10  A    between atoms: C15_21  and  C16_24 
REMARK   11  A    between atoms: C16_24  and  C17_25 
REMARK   12  A    between atoms: C23_31  and  O6_32 
REMARK   13  A    between atoms: C31_41  and  N1_42 
ROOT
HETATM    1  C6  UNL     1      39.658 -20.101  26.274  1.00  0.00     0.017 C 
HETATM    2  C7  UNL     1      38.907 -21.120  26.010  1.00  0.00    -0.042 C 
HETATM    3  C8  UNL     1      37.437 -21.231  26.039  1.00  0.00     0.148 C 
HETATM    4  C9  UNL     1      37.160 -22.678  25.517  1.00  0.00     0.042 C 
HETATM    5  C10 UNL     1      38.339 -23.324  26.182  1.00  0.00     0.007 C 
HETATM    6  C11 UNL     1      38.480 -24.765  26.218  1.00  0.00     0.024 C 
HETATM    7  C20 UNL     1      39.889 -25.161  26.492  1.00  0.00    -0.034 C 
HETATM    8  C21 UNL     1      40.291 -26.564  26.268  1.00  0.00     0.012 C 
HETATM    9  C22 UNL     1      40.855 -27.247  27.530  1.00  0.00     0.032 C 
HETATM   10  C23 UNL     1      42.010 -26.492  28.093  1.00  0.00     0.118 C 
HETATM   11  C24 UNL     1      41.534 -25.091  28.406  1.00  0.00     0.032 C 
HETATM   12  C25 UNL     1      40.116 -24.884  27.994  1.00  0.00     0.012 C 
HETATM   13  C26 UNL     1      40.926 -24.285  25.812  1.00  0.00     0.011 C 
HETATM   14  C27 UNL     1      40.755 -22.815  26.147  1.00  0.00     0.015 C 
HETATM   15  C28 UNL     1      39.411 -22.471  25.583  1.00  0.00    -0.014 C 
HETATM   16  C29 UNL     1      39.476 -22.439  24.100  1.00  0.00     0.020 C 
ENDROOT
BRANCH   1  17
HETATM   17  C5  UNL     1      39.238 -18.759  26.679  1.00  0.00    -0.032 A 
HETATM   18  C4  UNL     1      39.634 -17.704  25.836  1.00  0.00     0.038 A 
HETATM   19  C3  UNL     1      39.292 -16.410  26.154  1.00  0.00     0.070 A 
HETATM   20  C2  UNL     1      38.561 -16.174  27.303  1.00  0.00     0.123 A 
HETATM   21 CL1  UNL     1      39.785 -15.085  25.099  1.00  0.00    -0.081 Cl
HETATM   22  C31 UNL     1      38.159 -17.173  28.146  1.00  0.00     0.138 A 
HETATM   23  C30 UNL     1      38.513 -18.489  27.814  1.00  0.00     0.050 A 
BRANCH  20  24
HETATM   24  O1  UNL     1      38.223 -14.867  27.612  1.00  0.00    -0.352 OA
HETATM   25  C1  UNL     1      37.104 -14.190  27.086  1.00  0.00     0.210 C 
ENDBRANCH  20  24
BRANCH  22  26
HETATM   26  N1  UNL     1      37.411 -16.955  29.323  1.00  0.00    -0.113 N 
HETATM   27  O7  UNL     1      37.913 -17.028  30.458  1.00  0.00    -0.532 OA
HETATM   28  O8  UNL     1      36.080 -16.653  29.221  1.00  0.00    -0.532 OA
ENDBRANCH  22  26
ENDBRANCH   1  17
BRANCH   3  29
HETATM   29  O2  UNL     1      36.804 -20.314  25.201  1.00  0.00    -0.391 OA
ATOM     30  H2  UNL     1      37.020 -19.412  25.406  1.00  0.00     0.210 HD
ENDBRANCH   3  29
BRANCH   6  31
HETATM   31  C12 UNL     1      37.814 -25.546  25.110  1.00  0.00     0.184 C 
BRANCH  31  32
HETATM   32  O3  UNL     1      36.824 -26.426  25.633  1.00  0.00    -0.321 OA
BRANCH  32  33
HETATM   33  C13 UNL     1      35.928 -26.986  24.727  1.00  0.00     0.261 C 
HETATM   34  O4  UNL     1      35.277 -27.990  25.026  1.00  0.00    -0.265 OA
BRANCH  33  35
HETATM   35  C14 UNL     1      35.842 -26.267  23.406  1.00  0.00     0.142 C 
BRANCH  35  36
HETATM   36  C15 UNL     1      34.527 -25.619  23.211  1.00  0.00     0.127 C 
BRANCH  36  37
HETATM   37  O5  UNL     1      34.104 -25.278  24.570  1.00  0.00    -0.395 OA
ATOM     38  H5  UNL     1      33.707 -26.080  24.889  1.00  0.00     0.210 HD
ENDBRANCH  36  37
BRANCH  36  39
HETATM   39  C16 UNL     1      34.465 -24.347  22.462  1.00  0.00     0.036 C 
BRANCH  39  40
HETATM   40  C17 UNL     1      35.381 -23.237  22.794  1.00  0.00    -0.020 C 
HETATM   41  C18 UNL     1      34.479 -22.015  23.109  1.00  0.00     0.009 C 
HETATM   42  C19 UNL     1      36.422 -22.852  21.822  1.00  0.00     0.009 C 
ENDBRANCH  39  40
ENDBRANCH  36  39
ENDBRANCH  35  36
ENDBRANCH  33  35
ENDBRANCH  32  33
ENDBRANCH  31  32
ENDBRANCH   6  31
BRANCH  10  43
HETATM   43  O6  UNL     1      42.447 -27.179  29.221  1.00  0.00    -0.396 OA
ATOM     44  H6  UNL     1      42.868 -26.548  29.793  1.00  0.00     0.210 HD
ENDBRANCH  10  43
TORSDOF 13
ENDMDL
