MODEL 1
REMARK VINA RESULT: -7.975633391      0.000      0.000
REMARK  14 active torsions:
REMARK  status: ('A' for Active; 'I' for Inactive)
REMARK    1  A    between atoms: C2_2  and  C3_3 
REMARK    2  A    between atoms: C3_3  and  C4_4 
REMARK    3  A    between atoms: C4_4  and  C5_5 
REMARK    4  A    between atoms: C5_5  and  C6_6 
REMARK    5  A    between atoms: C11_11  and  O1_12 
REMARK    6  A    between atoms: C13_18  and  O3_19 
REMARK    7  A    between atoms: C13_18  and  C14_21 
REMARK    8  A    between atoms: C14_21  and  C15_22 
REMARK    9  A    between atoms: C15_22  and  O5_24 
REMARK   10  A    between atoms: O5_24  and  C16_25 
REMARK   11  A    between atoms: C18_27  and  O6_28 
REMARK   12  A    between atoms: O6_28  and  C19_29 
REMARK   13  A    between atoms: C23_33  and  O7_34 
REMARK   14  A    between atoms: C26_39  and  O9_41 
ROOT
HETATM    1  C5  UNL     1      58.086  56.015 113.558  1.00  0.00    -0.003 C 
HETATM    2  C8  UNL     1      58.806  55.127 114.553  1.00  0.00     0.040 C 
HETATM    3  C9  UNL     1      59.782  54.155 114.120  1.00  0.00    -0.022 C 
HETATM    4  C10 UNL     1      61.004  54.364 113.398  1.00  0.00     0.052 C 
HETATM    5  C11 UNL     1      61.885  55.489 113.620  1.00  0.00     0.142 C 
HETATM    6  N1  UNL     1      61.807  56.623 114.419  1.00  0.00    -0.305 N 
ATOM      7  H1  UNL     1      62.651  56.803 114.963  1.00  0.00     0.171 HD
HETATM    8  C12 UNL     1      60.792  57.567 114.623  1.00  0.00     0.261 C 
HETATM    9  O2  UNL     1      60.755  58.116 115.772  1.00  0.00    -0.270 OA
HETATM   10  C13 UNL     1      59.764  57.967 113.604  1.00  0.00     0.178 C 
HETATM   11  C26 UNL     1      58.421  57.419 113.858  1.00  0.00     0.102 C 
HETATM   12  C27 UNL     1      57.386  58.468 113.512  1.00  0.00     0.050 C 
ENDROOT
BRANCH  10  13
HETATM   13  O3  UNL     1      59.626  59.362 113.904  1.00  0.00    -0.377 OA
ATOM     14  H3  UNL     1      59.678  59.734 113.031  1.00  0.00     0.211 HD
ENDBRANCH  10  13
BRANCH  10  15
HETATM   15  C14 UNL     1      60.305  58.020 112.227  1.00  0.00     0.162 C 
BRANCH  15  16
HETATM   16  C15 UNL     1      60.935  59.370 111.968  1.00  0.00     0.264 C 
HETATM   17  O4  UNL     1      62.108  59.614 112.372  1.00  0.00    -0.265 OA
BRANCH  16  18
HETATM   18  O5  UNL     1      60.280  60.387 111.293  1.00  0.00    -0.289 OA
BRANCH  18  19
HETATM   19  C16 UNL     1      60.935  61.208 110.342  1.00  0.00     0.272 C 
HETATM   20  C17 UNL     1      59.968  62.256 109.887  1.00  0.00     0.096 C 
HETATM   21  C18 UNL     1      59.859  62.324 108.377  1.00  0.00     0.158 C 
HETATM   22  C23 UNL     1      61.288  62.298 107.832  1.00  0.00     0.176 C 
HETATM   23  C24 UNL     1      61.954  61.047 108.266  1.00  0.00     0.151 C 
HETATM   24  C25 UNL     1      63.397  61.391 108.637  1.00  0.00     0.042 C 
HETATM   25  O8  UNL     1      61.364  60.378 109.318  1.00  0.00    -0.353 OA
BRANCH  21  26
HETATM   26  O6  UNL     1      59.278  63.484 107.940  1.00  0.00    -0.373 OA
BRANCH  26  27
HETATM   27  C19 UNL     1      58.477  63.325 106.818  1.00  0.00     0.050 C 
HETATM   28  C20 UNL     1      59.196  62.614 105.692  1.00  0.00     0.045 C 
HETATM   29  C21 UNL     1      57.190  62.614 107.136  1.00  0.00     0.045 C 
HETATM   30  C22 UNL     1      58.130  64.713 106.314  1.00  0.00     0.045 C 
ENDBRANCH  26  27
ENDBRANCH  21  26
BRANCH  22  31
HETATM   31  O7  UNL     1      61.977  63.451 108.203  1.00  0.00    -0.390 OA
ATOM     32  H7  UNL     1      62.220  63.958 107.437  1.00  0.00     0.210 HD
ENDBRANCH  22  31
ENDBRANCH  18  19
ENDBRANCH  16  18
ENDBRANCH  15  16
ENDBRANCH  10  15
BRANCH  11  33
HETATM   33  O9  UNL     1      58.347  57.456 115.300  1.00  0.00    -0.386 OA
ATOM     34  H9  UNL     1      57.748  58.176 115.457  1.00  0.00     0.210 HD
ENDBRANCH  11  33
BRANCH   1  35
HETATM   35  C4  UNL     1      58.098  55.511 112.183  1.00  0.00     0.013 C 
BRANCH  35  36
HETATM   36  C3  UNL     1      56.890  55.696 111.323  1.00  0.00     0.001 C 
BRANCH  36  37
HETATM   37  C2  UNL     1      57.380  55.489 109.868  1.00  0.00    -0.005 C 
HETATM   38  C1  UNL     1      56.163  55.489 108.984  1.00  0.00     0.005 C 
ENDBRANCH  36  37
ENDBRANCH  35  36
ENDBRANCH   1  35
BRANCH   1  39
HETATM   39  C6  UNL     1      56.595  55.891 113.979  1.00  0.00     0.008 C 
HETATM   40  C7  UNL     1      56.323  54.744 114.888  1.00  0.00     0.006 C 
ENDBRANCH   1  39
BRANCH   5  41
HETATM   41  O1  UNL     1      62.980  55.405 112.913  1.00  0.00    -0.346 OA
ATOM     42  H1  UNL     1      63.729  55.777 113.365  1.00  0.00     0.219 HD
ENDBRANCH   5  41
TORSDOF 14
ENDMDL
MODEL 2
REMARK VINA RESULT: -7.948134582      1.341      3.319
REMARK  14 active torsions:
REMARK  status: ('A' for Active; 'I' for Inactive)
REMARK    1  A    between atoms: C2_2  and  C3_3 
REMARK    2  A    between atoms: C3_3  and  C4_4 
REMARK    3  A    between atoms: C4_4  and  C5_5 
REMARK    4  A    between atoms: C5_5  and  C6_6 
REMARK    5  A    between atoms: C11_11  and  O1_12 
REMARK    6  A    between atoms: C13_18  and  O3_19 
REMARK    7  A    between atoms: C13_18  and  C14_21 
REMARK    8  A    between atoms: C14_21  and  C15_22 
REMARK    9  A    between atoms: C15_22  and  O5_24 
REMARK   10  A    between atoms: O5_24  and  C16_25 
REMARK   11  A    between atoms: C18_27  and  O6_28 
REMARK   12  A    between atoms: O6_28  and  C19_29 
REMARK   13  A    between atoms: C23_33  and  O7_34 
REMARK   14  A    between atoms: C26_39  and  O9_41 
ROOT
HETATM    1  C5  UNL     1      58.020  55.999 113.208  1.00  0.00    -0.003 C 
HETATM    2  C8  UNL     1      58.871  55.039 114.015  1.00  0.00     0.040 C 
HETATM    3  C9  UNL     1      59.942  54.290 113.400  1.00  0.00    -0.022 C 
HETATM    4  C10 UNL     1      61.108  54.776 112.719  1.00  0.00     0.052 C 
HETATM    5  C11 UNL     1      61.855  55.941 113.139  1.00  0.00     0.142 C 
HETATM    6  N1  UNL     1      61.667  56.891 114.137  1.00  0.00    -0.305 N 
ATOM      7  H1  UNL     1      62.500  57.070 114.697  1.00  0.00     0.171 HD
HETATM    8  C12 UNL     1      60.554  57.649 114.521  1.00  0.00     0.261 C 
HETATM    9  O2  UNL     1      60.487  57.970 115.752  1.00  0.00    -0.270 OA
HETATM   10  C13 UNL     1      59.455  58.101 113.602  1.00  0.00     0.178 C 
HETATM   11  C26 UNL     1      58.195  57.355 113.761  1.00  0.00     0.102 C 
HETATM   12  C27 UNL     1      57.032  58.314 113.625  1.00  0.00     0.050 C 
ENDROOT
BRANCH  10  13
HETATM   13  O3  UNL     1      59.161  59.390 114.158  1.00  0.00    -0.377 OA
ATOM     14  H3  UNL     1      58.552  59.148 114.846  1.00  0.00     0.211 HD
ENDBRANCH  10  13
BRANCH  10  15
HETATM   15  C14 UNL     1      59.942  58.471 112.255  1.00  0.00     0.162 C 
BRANCH  15  16
HETATM   16  C15 UNL     1      60.684  59.789 112.315  1.00  0.00     0.264 C 
HETATM   17  O4  UNL     1      61.619  59.956 113.149  1.00  0.00    -0.265 OA
BRANCH  16  18
HETATM   18  O5  UNL     1      60.386  60.856 111.483  1.00  0.00    -0.289 OA
BRANCH  18  19
HETATM   19  C16 UNL     1      60.794  60.893 110.127  1.00  0.00     0.272 C 
HETATM   20  C17 UNL     1      62.107  60.183 110.016  1.00  0.00     0.096 C 
HETATM   21  C18 UNL     1      63.157  61.016 109.308  1.00  0.00     0.158 C 
HETATM   22  C23 UNL     1      62.486  61.603 108.065  1.00  0.00     0.176 C 
HETATM   23  C24 UNL     1      61.330  62.435 108.480  1.00  0.00     0.151 C 
HETATM   24  C25 UNL     1      60.196  62.185 107.486  1.00  0.00     0.042 C 
HETATM   25  O8  UNL     1      60.863  62.228 109.761  1.00  0.00    -0.353 OA
BRANCH  21  26
HETATM   26  O6  UNL     1      64.224  60.272 108.881  1.00  0.00    -0.373 OA
BRANCH  26  27
HETATM   27  C19 UNL     1      65.375  60.456 109.633  1.00  0.00     0.050 C 
HETATM   28  C20 UNL     1      65.724  61.918 109.807  1.00  0.00     0.045 C 
HETATM   29  C21 UNL     1      65.288  59.785 110.977  1.00  0.00     0.045 C 
HETATM   30  C22 UNL     1      66.518  59.817 108.866  1.00  0.00     0.045 C 
ENDBRANCH  26  27
ENDBRANCH  21  26
BRANCH  22  31
HETATM   31  O7  UNL     1      62.148  60.594 107.165  1.00  0.00    -0.390 OA
ATOM     32  H7  UNL     1      62.907  60.062 106.958  1.00  0.00     0.210 HD
ENDBRANCH  22  31
ENDBRANCH  18  19
ENDBRANCH  16  18
ENDBRANCH  15  16
ENDBRANCH  10  15
BRANCH  11  33
HETATM   33  O9  UNL     1      58.162  57.117 115.186  1.00  0.00    -0.386 OA
ATOM     34  H9  UNL     1      59.079  57.176 115.425  1.00  0.00     0.210 HD
ENDBRANCH  11  33
BRANCH   1  35
HETATM   35  C4  UNL     1      58.050  55.762 111.763  1.00  0.00     0.013 C 
BRANCH  35  36
HETATM   36  C3  UNL     1      56.764  55.605 111.019  1.00  0.00     0.001 C 
BRANCH  36  37
HETATM   37  C2  UNL     1      57.160  55.476 109.527  1.00  0.00    -0.005 C 
HETATM   38  C1  UNL     1      55.903  55.632 108.717  1.00  0.00     0.005 C 
ENDBRANCH  36  37
ENDBRANCH  35  36
ENDBRANCH   1  35
BRANCH   1  39
HETATM   39  C6  UNL     1      56.569  55.619 113.611  1.00  0.00     0.008 C 
HETATM   40  C7  UNL     1      56.496  54.609 114.703  1.00  0.00     0.006 C 
ENDBRANCH   1  39
BRANCH   5  41
HETATM   41  O1  UNL     1      62.930  56.123 112.421  1.00  0.00    -0.346 OA
ATOM     42  H1  UNL     1      62.887  55.669 111.588  1.00  0.00     0.219 HD
ENDBRANCH   5  41
TORSDOF 14
ENDMDL
MODEL 3
REMARK VINA RESULT: -7.737281556      4.322      7.560
REMARK  14 active torsions:
REMARK  status: ('A' for Active; 'I' for Inactive)
REMARK    1  A    between atoms: C2_2  and  C3_3 
REMARK    2  A    between atoms: C3_3  and  C4_4 
REMARK    3  A    between atoms: C4_4  and  C5_5 
REMARK    4  A    between atoms: C5_5  and  C6_6 
REMARK    5  A    between atoms: C11_11  and  O1_12 
REMARK    6  A    between atoms: C13_18  and  O3_19 
REMARK    7  A    between atoms: C13_18  and  C14_21 
REMARK    8  A    between atoms: C14_21  and  C15_22 
REMARK    9  A    between atoms: C15_22  and  O5_24 
REMARK   10  A    between atoms: O5_24  and  C16_25 
REMARK   11  A    between atoms: C18_27  and  O6_28 
REMARK   12  A    between atoms: O6_28  and  C19_29 
REMARK   13  A    between atoms: C23_33  and  O7_34 
REMARK   14  A    between atoms: C26_39  and  O9_41 
ROOT
HETATM    1  C5  UNL     1      53.460  58.232 112.663  1.00  0.00    -0.003 C 
HETATM    2  C8  UNL     1      52.498  57.615 111.668  1.00  0.00     0.040 C 
HETATM    3  C9  UNL     1      52.580  57.920 110.258  1.00  0.00    -0.022 C 
HETATM    4  C10 UNL     1      53.674  57.715 109.353  1.00  0.00     0.052 C 
HETATM    5  C11 UNL     1      54.536  56.554 109.385  1.00  0.00     0.142 C 
HETATM    6  N1  UNL     1      54.636  55.460 110.236  1.00  0.00    -0.305 N 
ATOM      7  H1  UNL     1      54.685  54.565 109.751  1.00  0.00     0.171 HD
HETATM    8  C12 UNL     1      54.683  55.350 111.632  1.00  0.00     0.261 C 
HETATM    9  O2  UNL     1      54.201  54.282 112.130  1.00  0.00    -0.270 OA
HETATM   10  C13 UNL     1      55.250  56.383 112.563  1.00  0.00     0.178 C 
HETATM   11  C26 UNL     1      54.230  57.150 113.301  1.00  0.00     0.102 C 
HETATM   12  C27 UNL     1      54.717  57.385 114.715  1.00  0.00     0.050 C 
ENDROOT
BRANCH  10  13
HETATM   13  O3  UNL     1      55.835  55.541 113.565  1.00  0.00    -0.377 OA
ATOM     14  H3  UNL     1      55.945  56.164 114.273  1.00  0.00     0.211 HD
ENDBRANCH  10  13
BRANCH  10  15
HETATM   15  C14 UNL     1      56.447  57.060 112.018  1.00  0.00     0.162 C 
BRANCH  15  16
HETATM   16  C15 UNL     1      57.507  56.038 111.670  1.00  0.00     0.264 C 
HETATM   17  O4  UNL     1      57.673  55.674 110.471  1.00  0.00    -0.265 OA
BRANCH  16  18
HETATM   18  O5  UNL     1      58.332  55.459 112.622  1.00  0.00    -0.289 OA
BRANCH  18  19
HETATM   19  C16 UNL     1      58.873  56.198 113.703  1.00  0.00     0.272 C 
HETATM   20  C17 UNL     1      59.937  57.102 113.162  1.00  0.00     0.096 C 
HETATM   21  C18 UNL     1      61.247  56.965 113.912  1.00  0.00     0.158 C 
HETATM   22  C23 UNL     1      60.902  56.978 115.403  1.00  0.00     0.176 C 
HETATM   23  C24 UNL     1      59.991  55.848 115.704  1.00  0.00     0.151 C 
HETATM   24  C25 UNL     1      58.943  56.346 116.698  1.00  0.00     0.042 C 
HETATM   25  O8  UNL     1      59.353  55.277 114.622  1.00  0.00    -0.353 OA
BRANCH  21  26
HETATM   26  O6  UNL     1      62.099  58.012 113.683  1.00  0.00    -0.373 OA
BRANCH  26  27
HETATM   27  C19 UNL     1      63.166  57.697 112.853  1.00  0.00     0.050 C 
HETATM   28  C20 UNL     1      64.504  57.963 113.508  1.00  0.00     0.045 C 
HETATM   29  C21 UNL     1      63.105  56.275 112.366  1.00  0.00     0.045 C 
HETATM   30  C22 UNL     1      63.077  58.608 111.644  1.00  0.00     0.045 C 
ENDBRANCH  26  27
ENDBRANCH  21  26
BRANCH  22  31
HETATM   31  O7  UNL     1      60.390  58.218 115.778  1.00  0.00    -0.390 OA
ATOM     32  H7  UNL     1      60.379  58.304 116.724  1.00  0.00     0.210 HD
ENDBRANCH  22  31
ENDBRANCH  18  19
ENDBRANCH  16  18
ENDBRANCH  15  16
ENDBRANCH  10  15
BRANCH  11  33
HETATM   33  O9  UNL     1      53.218  56.149 113.546  1.00  0.00    -0.386 OA
ATOM     34  H9  UNL     1      52.624  56.597 114.136  1.00  0.00     0.210 HD
ENDBRANCH  11  33
BRANCH   1  35
HETATM   35  C4  UNL     1      54.120  59.451 112.186  1.00  0.00     0.013 C 
BRANCH  35  36
HETATM   36  C3  UNL     1      53.696  60.775 112.732  1.00  0.00     0.001 C 
BRANCH  36  37
HETATM   37  C2  UNL     1      52.705  61.355 111.692  1.00  0.00    -0.005 C 
HETATM   38  C1  UNL     1      52.015  62.525 112.339  1.00  0.00     0.005 C 
ENDBRANCH  36  37
ENDBRANCH  35  36
ENDBRANCH   1  35
BRANCH   1  39
HETATM   39  C6  UNL     1      52.527  58.742 113.796  1.00  0.00     0.008 C 
HETATM   40  C7  UNL     1      51.079  58.523 113.523  1.00  0.00     0.006 C 
ENDBRANCH   1  39
BRANCH   5  41
HETATM   41  O1  UNL     1      55.392  56.549 108.399  1.00  0.00    -0.346 OA
ATOM     42  H1  UNL     1      56.116  57.146 108.549  1.00  0.00     0.219 HD
ENDBRANCH   5  41
TORSDOF 14
ENDMDL
MODEL 4
REMARK VINA RESULT: -7.730007594      2.768      4.961
REMARK  14 active torsions:
REMARK  status: ('A' for Active; 'I' for Inactive)
REMARK    1  A    between atoms: C2_2  and  C3_3 
REMARK    2  A    between atoms: C3_3  and  C4_4 
REMARK    3  A    between atoms: C4_4  and  C5_5 
REMARK    4  A    between atoms: C5_5  and  C6_6 
REMARK    5  A    between atoms: C11_11  and  O1_12 
REMARK    6  A    between atoms: C13_18  and  O3_19 
REMARK    7  A    between atoms: C13_18  and  C14_21 
REMARK    8  A    between atoms: C14_21  and  C15_22 
REMARK    9  A    between atoms: C15_22  and  O5_24 
REMARK   10  A    between atoms: O5_24  and  C16_25 
REMARK   11  A    between atoms: C18_27  and  O6_28 
REMARK   12  A    between atoms: O6_28  and  C19_29 
REMARK   13  A    between atoms: C23_33  and  O7_34 
REMARK   14  A    between atoms: C26_39  and  O9_41 
ROOT
HETATM    1  C5  UNL     1      53.566  57.507 112.963  1.00  0.00    -0.003 C 
HETATM    2  C8  UNL     1      53.045  57.040 114.306  1.00  0.00     0.040 C 
HETATM    3  C9  UNL     1      53.045  55.640 114.664  1.00  0.00    -0.022 C 
HETATM    4  C10 UNL     1      54.152  54.734 114.761  1.00  0.00     0.052 C 
HETATM    5  C11 UNL     1      55.448  55.103 115.286  1.00  0.00     0.142 C 
HETATM    6  N1  UNL     1      55.999  56.304 115.717  1.00  0.00    -0.305 N 
ATOM      7  H1  UNL     1      56.477  56.238 116.616  1.00  0.00     0.171 HD
HETATM    8  C12 UNL     1      56.024  57.588 115.158  1.00  0.00     0.261 C 
HETATM    9  O2  UNL     1      56.063  58.561 115.979  1.00  0.00    -0.270 OA
HETATM   10  C13 UNL     1      56.008  57.891 113.687  1.00  0.00     0.178 C 
HETATM   11  C26 UNL     1      54.716  58.400 113.193  1.00  0.00     0.102 C 
HETATM   12  C27 UNL     1      54.972  59.482 112.165  1.00  0.00     0.050 C 
ENDROOT
BRANCH  10  13
HETATM   13  O3  UNL     1      56.865  59.039 113.646  1.00  0.00    -0.377 OA
ATOM     14  H3  UNL     1      56.518  59.542 114.373  1.00  0.00     0.211 HD
ENDBRANCH  10  13
BRANCH  10  15
HETATM   15  C14 UNL     1      56.785  56.920 112.887  1.00  0.00     0.162 C 
BRANCH  15  16
HETATM   16  C15 UNL     1      58.267  57.120 113.123  1.00  0.00     0.264 C 
HETATM   17  O4  UNL     1      58.805  56.697 114.186  1.00  0.00    -0.265 OA
BRANCH  16  18
HETATM   18  O5  UNL     1      59.091  57.762 112.214  1.00  0.00    -0.289 OA
BRANCH  18  19
HETATM   19  C16 UNL     1      60.402  58.184 112.549  1.00  0.00     0.272 C 
HETATM   20  C17 UNL     1      60.666  59.481 111.850  1.00  0.00     0.096 C 
HETATM   21  C18 UNL     1      61.959  59.458 111.059  1.00  0.00     0.158 C 
HETATM   22  C23 UNL     1      63.020  58.838 111.970  1.00  0.00     0.176 C 
HETATM   23  C24 UNL     1      62.598  57.468 112.349  1.00  0.00     0.151 C 
HETATM   24  C25 UNL     1      62.957  57.260 113.820  1.00  0.00     0.042 C 
HETATM   25  O8  UNL     1      61.264  57.170 112.162  1.00  0.00    -0.353 OA
BRANCH  21  26
HETATM   26  O6  UNL     1      62.395  60.711 110.722  1.00  0.00    -0.373 OA
BRANCH  26  27
HETATM   27  C19 UNL     1      61.978  61.134 109.468  1.00  0.00     0.050 C 
HETATM   28  C20 UNL     1      61.407  60.004 108.638  1.00  0.00     0.045 C 
HETATM   29  C21 UNL     1      60.985  62.262 109.551  1.00  0.00     0.045 C 
HETATM   30  C22 UNL     1      63.204  61.645 108.736  1.00  0.00     0.045 C 
ENDBRANCH  26  27
ENDBRANCH  21  26
BRANCH  22  31
HETATM   31  O7  UNL     1      63.272  59.663 113.064  1.00  0.00    -0.390 OA
ATOM     32  H7  UNL     1      63.417  60.559 112.782  1.00  0.00     0.210 HD
ENDBRANCH  22  31
ENDBRANCH  18  19
ENDBRANCH  16  18
ENDBRANCH  15  16
ENDBRANCH  10  15
BRANCH  11  33
HETATM   33  O9  UNL     1      54.266  59.208 114.303  1.00  0.00    -0.386 OA
ATOM     34  H9  UNL     1      55.000  59.794 114.442  1.00  0.00     0.210 HD
ENDBRANCH  11  33
BRANCH   1  35
HETATM   35  C4  UNL     1      53.615  56.460 111.938  1.00  0.00     0.013 C 
BRANCH  35  36
HETATM   36  C3  UNL     1      53.924  56.832 110.524  1.00  0.00     0.001 C 
BRANCH  36  37
HETATM   37  C2  UNL     1      54.844  55.707 109.991  1.00  0.00    -0.005 C 
HETATM   38  C1  UNL     1      54.981  55.909 108.507  1.00  0.00     0.005 C 
ENDBRANCH  36  37
ENDBRANCH  35  36
ENDBRANCH   1  35
BRANCH   1  39
HETATM   39  C6  UNL     1      52.451  58.462 112.456  1.00  0.00     0.008 C 
HETATM   40  C7  UNL     1      51.185  58.370 113.236  1.00  0.00     0.006 C 
ENDBRANCH   1  39
BRANCH   5  41
HETATM   41  O1  UNL     1      56.258  54.082 115.364  1.00  0.00    -0.346 OA
ATOM     42  H1  UNL     1      57.100  54.319 115.735  1.00  0.00     0.219 HD
ENDBRANCH   5  41
TORSDOF 14
ENDMDL
MODEL 5
REMARK VINA RESULT: -7.712358621      5.032      8.478
REMARK  14 active torsions:
REMARK  status: ('A' for Active; 'I' for Inactive)
REMARK    1  A    between atoms: C2_2  and  C3_3 
REMARK    2  A    between atoms: C3_3  and  C4_4 
REMARK    3  A    between atoms: C4_4  and  C5_5 
REMARK    4  A    between atoms: C5_5  and  C6_6 
REMARK    5  A    between atoms: C11_11  and  O1_12 
REMARK    6  A    between atoms: C13_18  and  O3_19 
REMARK    7  A    between atoms: C13_18  and  C14_21 
REMARK    8  A    between atoms: C14_21  and  C15_22 
REMARK    9  A    between atoms: C15_22  and  O5_24 
REMARK   10  A    between atoms: O5_24  and  C16_25 
REMARK   11  A    between atoms: C18_27  and  O6_28 
REMARK   12  A    between atoms: O6_28  and  C19_29 
REMARK   13  A    between atoms: C23_33  and  O7_34 
REMARK   14  A    between atoms: C26_39  and  O9_41 
ROOT
HETATM    1  C5  UNL     1      52.233  59.032 111.539  1.00  0.00    -0.003 C 
HETATM    2  C8  UNL     1      52.297  59.495 112.981  1.00  0.00     0.040 C 
HETATM    3  C9  UNL     1      51.592  58.791 114.026  1.00  0.00    -0.022 C 
HETATM    4  C10 UNL     1      51.727  57.425 114.443  1.00  0.00     0.052 C 
HETATM    5  C11 UNL     1      52.992  56.728 114.511  1.00  0.00     0.142 C 
HETATM    6  N1  UNL     1      54.293  57.068 114.159  1.00  0.00    -0.305 N 
ATOM      7  H1  UNL     1      54.982  56.861 114.881  1.00  0.00     0.171 HD
HETATM    8  C12 UNL     1      54.839  57.641 113.003  1.00  0.00     0.261 C 
HETATM    9  O2  UNL     1      55.885  58.350 113.165  1.00  0.00    -0.270 OA
HETATM   10  C13 UNL     1      54.289  57.482 111.615  1.00  0.00     0.178 C 
HETATM   11  C26 UNL     1      53.596  58.677 111.103  1.00  0.00     0.102 C 
HETATM   12  C27 UNL     1      53.919  58.844 109.633  1.00  0.00     0.050 C 
ENDROOT
BRANCH  10  13
HETATM   13  O3  UNL     1      55.503  57.438 110.854  1.00  0.00    -0.377 OA
ATOM     14  H3  UNL     1      55.650  58.366 110.708  1.00  0.00     0.211 HD
ENDBRANCH  10  13
BRANCH  10  15
HETATM   15  C14 UNL     1      53.740  56.131 111.361  1.00  0.00     0.162 C 
BRANCH  15  16
HETATM   16  C15 UNL     1      54.821  55.089 111.546  1.00  0.00     0.264 C 
HETATM   17  O4  UNL     1      55.117  54.303 110.601  1.00  0.00    -0.265 OA
BRANCH  16  18
HETATM   18  O5  UNL     1      55.526  54.941 112.730  1.00  0.00    -0.289 OA
BRANCH  18  19
HETATM   19  C16 UNL     1      56.925  54.716 112.753  1.00  0.00     0.272 C 
HETATM   20  C17 UNL     1      57.389  54.821 114.172  1.00  0.00     0.096 C 
HETATM   21  C18 UNL     1      58.555  55.777 114.328  1.00  0.00     0.158 C 
HETATM   22  C23 UNL     1      59.546  55.446 113.211  1.00  0.00     0.176 C 
HETATM   23  C24 UNL     1      58.880  55.623 111.898  1.00  0.00     0.151 C 
HETATM   24  C25 UNL     1      59.338  54.486 110.985  1.00  0.00     0.042 C 
HETATM   25  O8  UNL     1      57.501  55.660 111.918  1.00  0.00    -0.353 OA
BRANCH  21  26
HETATM   26  O6  UNL     1      59.215  55.616 115.517  1.00  0.00    -0.373 OA
BRANCH  26  27
HETATM   27  C19 UNL     1      59.026  56.660 116.411  1.00  0.00     0.050 C 
HETATM   28  C20 UNL     1      60.331  57.289 116.849  1.00  0.00     0.045 C 
HETATM   29  C21 UNL     1      58.104  57.716 115.864  1.00  0.00     0.045 C 
HETATM   30  C22 UNL     1      58.378  56.076 117.652  1.00  0.00     0.045 C 
ENDBRANCH  26  27
ENDBRANCH  21  26
BRANCH  22  31
HETATM   31  O7  UNL     1      60.085  54.174 113.392  1.00  0.00    -0.390 OA
ATOM     32  H7  UNL     1      61.034  54.204 113.358  1.00  0.00     0.210 HD
ENDBRANCH  22  31
ENDBRANCH  18  19
ENDBRANCH  16  18
ENDBRANCH  15  16
ENDBRANCH  10  15
BRANCH  11  33
HETATM   33  O9  UNL     1      54.390  59.748 111.659  1.00  0.00    -0.386 OA
ATOM     34  H9  UNL     1      55.210  59.312 111.861  1.00  0.00     0.210 HD
ENDBRANCH  11  33
BRANCH   1  35
HETATM   35  C4  UNL     1      51.092  58.164 111.236  1.00  0.00     0.013 C 
BRANCH  35  36
HETATM   36  C3  UNL     1      49.990  58.680 110.368  1.00  0.00     0.001 C 
BRANCH  36  37
HETATM   37  C2  UNL     1      50.070  57.853 109.060  1.00  0.00    -0.005 C 
HETATM   38  C1  UNL     1      49.962  58.820 107.914  1.00  0.00     0.005 C 
ENDBRANCH  36  37
ENDBRANCH  35  36
ENDBRANCH   1  35
BRANCH   1  39
HETATM   39  C6  UNL     1      51.920  60.336 110.755  1.00  0.00     0.008 C 
HETATM   40  C7  UNL     1      51.892  61.555 111.610  1.00  0.00     0.006 C 
ENDBRANCH   1  39
BRANCH   5  41
HETATM   41  O1  UNL     1      52.868  55.529 115.014  1.00  0.00    -0.346 OA
ATOM     42  H1  UNL     1      53.662  55.237 115.446  1.00  0.00     0.219 HD
ENDBRANCH   5  41
TORSDOF 14
ENDMDL
