MODEL 1
REMARK VINA RESULT: -6.610386228      0.000      0.000
REMARK  6 active torsions:
REMARK  status: ('A' for Active; 'I' for Inactive)
REMARK    1  A    between atoms: N1_1  and  N2_4 
REMARK    2  A    between atoms: N2_4  and  N3_5 
REMARK    3  A    between atoms: N3_5  and  C1_7 
REMARK    4  A    between atoms: C2_8  and  O1_9 
REMARK    5  A    between atoms: C3_11  and  C4_12 
REMARK    6  A    between atoms: C4_12  and  O2_13 
ROOT
HETATM    1  C1  UNL     1      -7.303 -41.255 -78.420  1.00  0.00     0.238 C 
HETATM    2  C2  UNL     1      -7.846 -39.969 -77.804  1.00  0.00     0.182 C 
HETATM    3  C3  UNL     1      -9.346 -40.209 -78.024  1.00  0.00     0.182 C 
HETATM    4  O3  UNL     1      -9.459 -41.520 -77.566  1.00  0.00    -0.321 OA
HETATM    5  C5  UNL     1      -8.468 -42.200 -78.271  1.00  0.00     0.309 C 
HETATM    6  O4  UNL     1      -9.015 -42.559 -79.497  1.00  0.00    -0.329 OA
HETATM    7  C6  UNL     1      -9.468 -43.885 -79.319  1.00  0.00     0.200 C 
HETATM    8  C7  UNL     1      -8.333 -44.427 -78.447  1.00  0.00     0.200 C 
HETATM    9  O5  UNL     1      -8.059 -43.352 -77.636  1.00  0.00    -0.329 OA
ENDROOT
BRANCH   1  10
HETATM   10  N3  UNL     1      -6.108 -41.710 -77.782  1.00  0.00    -0.237 N 
ATOM     11  H3  UNL     1      -6.099 -42.555 -77.212  1.00  0.00     0.197 HD
BRANCH  10  12
HETATM   12  N2  UNL     1      -5.075 -41.028 -77.953  1.00  0.00    -0.248 NA
BRANCH  12  13
HETATM   13  N1  UNL     1      -4.020 -40.611 -78.430  1.00  0.00    -0.261 N 
ATOM     14  H12 UNL     1      -3.824 -41.439 -78.993  1.00  0.00     0.193 HD
ATOM     15  H11 UNL     1      -3.226 -40.004 -78.636  1.00  0.00     0.193 HD
ENDBRANCH  12  13
ENDBRANCH  10  12
ENDBRANCH   1  10
BRANCH   2  16
HETATM   16  O1  UNL     1      -7.529 -40.009 -76.458  1.00  0.00    -0.390 OA
ATOM     17  H1  UNL     1      -7.098 -40.841 -76.304  1.00  0.00     0.210 HD
ENDBRANCH   2  16
BRANCH   3  18
HETATM   18  C4  UNL     1     -10.172 -39.251 -77.209  1.00  0.00     0.199 C 
BRANCH  18  19
HETATM   19  O2  UNL     1      -9.471 -38.049 -77.141  1.00  0.00    -0.398 OA
ATOM     20  H2  UNL     1      -8.909 -38.005 -77.907  1.00  0.00     0.209 HD
ENDBRANCH  18  19
ENDBRANCH   3  18
TORSDOF 6
ENDMDL
MODEL 2
REMARK VINA RESULT: -6.100565997      1.092      1.107
REMARK  6 active torsions:
REMARK  status: ('A' for Active; 'I' for Inactive)
REMARK    1  A    between atoms: N1_1  and  N2_4 
REMARK    2  A    between atoms: N2_4  and  N3_5 
REMARK    3  A    between atoms: N3_5  and  C1_7 
REMARK    4  A    between atoms: C2_8  and  O1_9 
REMARK    5  A    between atoms: C3_11  and  C4_12 
REMARK    6  A    between atoms: C4_12  and  O2_13 
ROOT
HETATM    1  C1  UNL     1      -8.060 -40.897 -78.412  1.00  0.00     0.238 C 
HETATM    2  C2  UNL     1      -8.316 -39.665 -77.547  1.00  0.00     0.182 C 
HETATM    3  C3  UNL     1      -9.825 -39.835 -77.323  1.00  0.00     0.182 C 
HETATM    4  O3  UNL     1      -9.874 -41.182 -76.972  1.00  0.00    -0.321 OA
HETATM    5  C5  UNL     1      -9.182 -41.816 -78.001  1.00  0.00     0.309 C 
HETATM    6  O4  UNL     1     -10.091 -42.030 -79.030  1.00  0.00    -0.329 OA
HETATM    7  C6  UNL     1     -10.549 -43.353 -78.843  1.00  0.00     0.200 C 
HETATM    8  C7  UNL     1      -9.240 -44.016 -78.408  1.00  0.00     0.200 C 
HETATM    9  O5  UNL     1      -8.672 -43.039 -77.626  1.00  0.00    -0.329 OA
ENDROOT
BRANCH   1  10
HETATM   10  N3  UNL     1      -6.759 -41.451 -78.210  1.00  0.00    -0.237 N 
ATOM     11  H3  UNL     1      -6.634 -42.409 -77.884  1.00  0.00     0.197 HD
BRANCH  10  12
HETATM   12  N2  UNL     1      -5.780 -40.711 -78.448  1.00  0.00    -0.248 NA
BRANCH  12  13
HETATM   13  N1  UNL     1      -4.674 -40.331 -78.830  1.00  0.00    -0.261 N 
ATOM     14  H12 UNL     1      -4.897 -40.335 -79.825  1.00  0.00     0.193 HD
ATOM     15  H11 UNL     1      -3.702 -40.020 -78.817  1.00  0.00     0.193 HD
ENDBRANCH  12  13
ENDBRANCH  10  12
ENDBRANCH   1  10
BRANCH   2  16
HETATM   16  O1  UNL     1      -7.614 -39.853 -76.370  1.00  0.00    -0.390 OA
ATOM     17  H1  UNL     1      -7.938 -39.206 -75.754  1.00  0.00     0.210 HD
ENDBRANCH   2  16
BRANCH   3  18
HETATM   18  C4  UNL     1     -10.311 -38.941 -76.214  1.00  0.00     0.199 C 
BRANCH  18  19
HETATM   19  O2  UNL     1      -9.926 -39.524 -75.009  1.00  0.00    -0.398 OA
ATOM     20  H2  UNL     1      -8.976 -39.574 -75.009  1.00  0.00     0.209 HD
ENDBRANCH  18  19
ENDBRANCH   3  18
TORSDOF 6
ENDMDL
MODEL 3
REMARK VINA RESULT: -5.754609982      2.697      3.762
REMARK  6 active torsions:
REMARK  status: ('A' for Active; 'I' for Inactive)
REMARK    1  A    between atoms: N1_1  and  N2_4 
REMARK    2  A    between atoms: N2_4  and  N3_5 
REMARK    3  A    between atoms: N3_5  and  C1_7 
REMARK    4  A    between atoms: C2_8  and  O1_9 
REMARK    5  A    between atoms: C3_11  and  C4_12 
REMARK    6  A    between atoms: C4_12  and  O2_13 
ROOT
HETATM    1  C1  UNL     1      -9.145 -40.003 -77.823  1.00  0.00     0.238 C 
HETATM    2  C2  UNL     1     -10.498 -40.628 -77.493  1.00  0.00     0.182 C 
HETATM    3  C3  UNL     1     -10.368 -41.929 -78.296  1.00  0.00     0.182 C 
HETATM    4  O3  UNL     1      -9.093 -42.336 -77.908  1.00  0.00    -0.321 OA
HETATM    5  C5  UNL     1      -8.304 -41.212 -78.146  1.00  0.00     0.309 C 
HETATM    6  O4  UNL     1      -7.932 -41.254 -79.484  1.00  0.00    -0.329 OA
HETATM    7  C6  UNL     1      -6.655 -41.860 -79.489  1.00  0.00     0.200 C 
HETATM    8  C7  UNL     1      -6.068 -41.223 -78.227  1.00  0.00     0.200 C 
HETATM    9  O5  UNL     1      -7.155 -41.199 -77.387  1.00  0.00    -0.329 OA
ENDROOT
BRANCH   1  10
HETATM   10  N3  UNL     1      -8.628 -39.211 -76.754  1.00  0.00    -0.237 N 
ATOM     11  H3  UNL     1      -7.663 -39.310 -76.437  1.00  0.00     0.197 HD
BRANCH  10  12
HETATM   12  N2  UNL     1      -9.407 -38.392 -76.222  1.00  0.00    -0.248 NA
BRANCH  12  13
HETATM   13  N1  UNL     1     -10.147 -37.853 -75.398  1.00  0.00    -0.261 N 
ATOM     14  H12 UNL     1     -10.695 -37.326 -76.077  1.00  0.00     0.193 HD
ATOM     15  H11 UNL     1     -10.570 -37.587 -74.509  1.00  0.00     0.193 HD
ENDBRANCH  12  13
ENDBRANCH  10  12
ENDBRANCH   1  10
BRANCH   2  16
HETATM   16  O1  UNL     1     -10.497 -40.881 -76.133  1.00  0.00    -0.390 OA
ATOM     17  H1  UNL     1     -11.344 -41.259 -75.926  1.00  0.00     0.210 HD
ENDBRANCH   2  16
BRANCH   3  18
HETATM   18  C4  UNL     1     -11.426 -42.921 -77.894  1.00  0.00     0.199 C 
BRANCH  18  19
HETATM   19  O2  UNL     1     -10.823 -43.859 -77.060  1.00  0.00    -0.398 OA
ATOM     20  H2  UNL     1     -10.052 -43.451 -76.684  1.00  0.00     0.209 HD
ENDBRANCH  18  19
ENDBRANCH   3  18
TORSDOF 6
ENDMDL
MODEL 4
REMARK VINA RESULT: -5.644690532      1.267      1.429
REMARK  6 active torsions:
REMARK  status: ('A' for Active; 'I' for Inactive)
REMARK    1  A    between atoms: N1_1  and  N2_4 
REMARK    2  A    between atoms: N2_4  and  N3_5 
REMARK    3  A    between atoms: N3_5  and  C1_7 
REMARK    4  A    between atoms: C2_8  and  O1_9 
REMARK    5  A    between atoms: C3_11  and  C4_12 
REMARK    6  A    between atoms: C4_12  and  O2_13 
ROOT
HETATM    1  C1  UNL     1      -8.612 -41.663 -78.729  1.00  0.00     0.238 C 
HETATM    2  C2  UNL     1      -8.562 -40.273 -78.101  1.00  0.00     0.182 C 
HETATM    3  C3  UNL     1     -10.055 -40.090 -77.797  1.00  0.00     0.182 C 
HETATM    4  O3  UNL     1     -10.340 -41.316 -77.199  1.00  0.00    -0.321 OA
HETATM    5  C5  UNL     1      -9.859 -42.248 -78.116  1.00  0.00     0.309 C 
HETATM    6  O4  UNL     1     -10.863 -42.449 -79.055  1.00  0.00    -0.329 OA
HETATM    7  C6  UNL     1     -11.555 -43.597 -78.609  1.00  0.00     0.200 C 
HETATM    8  C7  UNL     1     -10.372 -44.426 -78.104  1.00  0.00     0.200 C 
HETATM    9  O5  UNL     1      -9.571 -43.464 -77.537  1.00  0.00    -0.329 OA
ENDROOT
BRANCH   1  10
HETATM   10  N3  UNL     1      -7.432 -42.427 -78.472  1.00  0.00    -0.237 N 
ATOM     11  H3  UNL     1      -7.471 -43.308 -77.960  1.00  0.00     0.197 HD
BRANCH  10  12
HETATM   12  N2  UNL     1      -6.351 -41.969 -78.901  1.00  0.00    -0.248 NA
BRANCH  12  13
HETATM   13  N1  UNL     1      -5.292 -41.345 -78.959  1.00  0.00    -0.261 N 
ATOM     14  H12 UNL     1      -5.338 -40.970 -78.012  1.00  0.00     0.193 HD
ATOM     15  H11 UNL     1      -4.417 -40.960 -79.314  1.00  0.00     0.193 HD
ENDBRANCH  12  13
ENDBRANCH  10  12
ENDBRANCH   1  10
BRANCH   2  16
HETATM   16  O1  UNL     1      -7.828 -40.391 -76.934  1.00  0.00    -0.390 OA
ATOM     17  H1  UNL     1      -7.129 -39.749 -76.986  1.00  0.00     0.210 HD
ENDBRANCH   2  16
BRANCH   3  18
HETATM   18  C4  UNL     1     -10.278 -38.935 -76.858  1.00  0.00     0.199 C 
BRANCH  18  19
HETATM   19  O2  UNL     1      -9.320 -37.968 -77.152  1.00  0.00    -0.398 OA
ATOM     20  H2  UNL     1      -9.201 -37.439 -76.371  1.00  0.00     0.209 HD
ENDBRANCH  18  19
ENDBRANCH   3  18
TORSDOF 6
ENDMDL
MODEL 5
REMARK VINA RESULT: -5.571460400      2.938      3.608
REMARK  6 active torsions:
REMARK  status: ('A' for Active; 'I' for Inactive)
REMARK    1  A    between atoms: N1_1  and  N2_4 
REMARK    2  A    between atoms: N2_4  and  N3_5 
REMARK    3  A    between atoms: N3_5  and  C1_7 
REMARK    4  A    between atoms: C2_8  and  O1_9 
REMARK    5  A    between atoms: C3_11  and  C4_12 
REMARK    6  A    between atoms: C4_12  and  O2_13 
ROOT
HETATM    1  C1  UNL     1     -10.111 -40.441 -78.994  1.00  0.00     0.238 C 
HETATM    2  C2  UNL     1     -10.650 -39.453 -77.963  1.00  0.00     0.182 C 
HETATM    3  C3  UNL     1     -10.182 -40.158 -76.683  1.00  0.00     0.182 C 
HETATM    4  O3  UNL     1      -8.862 -40.443 -77.022  1.00  0.00    -0.321 OA
HETATM    5  C5  UNL     1      -8.971 -41.090 -78.251  1.00  0.00     0.309 C 
HETATM    6  O4  UNL     1      -9.213 -42.432 -77.983  1.00  0.00    -0.329 OA
HETATM    7  C6  UNL     1      -7.944 -43.050 -78.037  1.00  0.00     0.200 C 
HETATM    8  C7  UNL     1      -7.338 -42.280 -79.212  1.00  0.00     0.200 C 
HETATM    9  O5  UNL     1      -7.818 -41.010 -79.000  1.00  0.00    -0.329 OA
ENDROOT
BRANCH   1  10
HETATM   10  N3  UNL     1      -9.717 -39.808 -80.212  1.00  0.00    -0.237 N 
ATOM     11  H3  UNL     1      -8.755 -39.510 -80.369  1.00  0.00     0.197 HD
BRANCH  10  12
HETATM   12  N2  UNL     1     -10.602 -39.635 -81.077  1.00  0.00    -0.248 NA
BRANCH  12  13
HETATM   13  N1  UNL     1     -11.495 -39.865 -81.892  1.00  0.00    -0.261 N 
ATOM     14  H12 UNL     1     -12.118 -40.337 -81.237  1.00  0.00     0.193 HD
ATOM     15  H11 UNL     1     -12.019 -39.899 -82.768  1.00  0.00     0.193 HD
ENDBRANCH  12  13
ENDBRANCH  10  12
ENDBRANCH   1  10
BRANCH   2  16
HETATM   16  O1  UNL     1      -9.964 -38.266 -78.155  1.00  0.00    -0.390 OA
ATOM     17  H1  UNL     1     -10.009 -37.790 -77.335  1.00  0.00     0.210 HD
ENDBRANCH   2  16
BRANCH   3  18
HETATM   18  C4  UNL     1     -10.277 -39.240 -75.494  1.00  0.00     0.199 C 
BRANCH  18  19
HETATM   19  O2  UNL     1      -9.033 -38.636 -75.334  1.00  0.00    -0.398 OA
ATOM     20  H2  UNL     1      -9.147 -37.705 -75.487  1.00  0.00     0.209 HD
ENDBRANCH  18  19
ENDBRANCH   3  18
TORSDOF 6
ENDMDL
