MODEL 1
REMARK VINA RESULT: -8.096925131      0.000      0.000
REMARK  11 active torsions:
REMARK  status: ('A' for Active; 'I' for Inactive)
REMARK    1  A    between atoms: C2_2  and  O1_3 
REMARK    2  A    between atoms: O1_3  and  C3_4 
REMARK    3  A    between atoms: C3_4  and  C4_6 
REMARK    4  A    between atoms: C4_6  and  N1_7 
REMARK    5  A    between atoms: C4_6  and  C11_27 
REMARK    6  A    between atoms: N1_7  and  N2_8 
REMARK    7  A    between atoms: N2_8  and  C5_10 
REMARK    8  A    between atoms: C5_10  and  O3_11 
REMARK    9  A    between atoms: C5_10  and  C6_13 
REMARK   10  A    between atoms: C7_14  and  O4_15 
REMARK   11  A    between atoms: C9_19  and  N4_20 
REMARK       I    between atoms: C11_27  and  N7_29 
ROOT
HETATM    1  C5  UNL     1      41.932 270.098 161.754  1.00  0.00     0.170 C 
ENDROOT
BRANCH   1   2
HETATM    2  N2  UNL     1      41.482 271.358 162.148  1.00  0.00    -0.282 N 
ATOM      3  H2  UNL     1      41.876 272.198 161.724  1.00  0.00     0.184 HD
BRANCH   2   4
HETATM    4  N1  UNL     1      40.477 271.468 163.140  1.00  0.00    -0.114 NA
BRANCH   4   5
HETATM    5  C4  UNL     1      40.786 272.567 164.070  1.00  0.00     0.290 C 
BRANCH   5   6
HETATM    6  C3  UNL     1      41.559 273.560 163.250  1.00  0.00     0.289 C 
HETATM    7  O2  UNL     1      41.006 274.206 162.289  1.00  0.00    -0.263 OA
BRANCH   6   8
HETATM    8  O1  UNL     1      42.872 273.842 163.462  1.00  0.00    -0.320 OA
BRANCH   8   9
HETATM    9  C2  UNL     1      43.551 275.003 163.045  1.00  0.00     0.174 C 
HETATM   10  C1  UNL     1      45.046 274.715 163.144  1.00  0.00     0.034 C 
ENDBRANCH   8   9
ENDBRANCH   6   8
ENDBRANCH   5   6
BRANCH   5  11
HETATM   11  C11 UNL     1      41.559 272.067 165.219  1.00  0.00     0.250 C 
HETATM   12  O5  UNL     1      42.444 271.190 164.998  1.00  0.00    -0.271 OA
HETATM   13  N7  UNL     1      41.366 272.508 166.542  1.00  0.00    -0.350 N 
HETATM   14  C12 UNL     1      42.171 272.030 167.684  1.00  0.00     0.126 C 
HETATM   15  C15 UNL     1      40.406 273.433 167.092  1.00  0.00     0.126 C 
HETATM   16  C13 UNL     1      41.206 271.983 168.840  1.00  0.00     0.021 C 
HETATM   17  C14 UNL     1      39.976 272.704 168.368  1.00  0.00     0.021 C 
ENDBRANCH   5  11
ENDBRANCH   4   5
ENDBRANCH   2   4
ENDBRANCH   1   2
BRANCH   1  18
HETATM   18  O3  UNL     1      42.676 269.502 162.640  1.00  0.00    -0.345 OA
ATOM     19  H3  UNL     1      43.212 268.802 162.284  1.00  0.00     0.219 HD
ENDBRANCH   1  18
BRANCH   1  20
HETATM   20  C6  UNL     1      41.707 269.366 160.544  1.00  0.00     0.109 A 
HETATM   21  C7  UNL     1      40.474 269.144 160.017  1.00  0.00     0.175 A 
HETATM   22  N3  UNL     1      40.366 268.431 158.856  1.00  0.00    -0.170 N 
HETATM   23  C9  UNL     1      41.414 267.932 158.198  1.00  0.00     0.679 A 
ATOM     24  H3  UNL     1      39.434 268.272 158.472  1.00  0.00     0.186 HD
HETATM   25  N5  UNL     1      42.623 268.156 158.729  1.00  0.00    -0.178 N 
HETATM   26  C10 UNL     1      42.827 268.846 159.866  1.00  0.00     0.150 A 
ATOM     27  H5  UNL     1      43.438 267.783 158.243  1.00  0.00     0.185 HD
HETATM   28  N6  UNL     1      44.134 269.044 160.366  1.00  0.00    -0.081 NA
BRANCH  21  29
HETATM   29  O4  UNL     1      39.348 269.621 160.626  1.00  0.00    -0.340 OA
HETATM   30  C8  UNL     1      38.666 270.720 160.057  1.00  0.00     0.211 C 
ENDBRANCH  21  29
BRANCH  23  31
HETATM   31  N4  UNL     1      41.286 267.266 157.111  1.00  0.00    -0.234 N 
ATOM     32  H42 UNL     1      41.723 266.351 157.001  1.00  0.00     0.174 HD
ATOM     33  H41 UNL     1      40.748 267.616 156.318  1.00  0.00     0.174 HD
ENDBRANCH  23  31
ENDBRANCH   1  20
TORSDOF 11
ENDMDL
MODEL 2
REMARK VINA RESULT: -7.981621451      1.766      2.665
REMARK  11 active torsions:
REMARK  status: ('A' for Active; 'I' for Inactive)
REMARK    1  A    between atoms: C2_2  and  O1_3 
REMARK    2  A    between atoms: O1_3  and  C3_4 
REMARK    3  A    between atoms: C3_4  and  C4_6 
REMARK    4  A    between atoms: C4_6  and  N1_7 
REMARK    5  A    between atoms: C4_6  and  C11_27 
REMARK    6  A    between atoms: N1_7  and  N2_8 
REMARK    7  A    between atoms: N2_8  and  C5_10 
REMARK    8  A    between atoms: C5_10  and  O3_11 
REMARK    9  A    between atoms: C5_10  and  C6_13 
REMARK   10  A    between atoms: C7_14  and  O4_15 
REMARK   11  A    between atoms: C9_19  and  N4_20 
REMARK       I    between atoms: C11_27  and  N7_29 
ROOT
HETATM    1  C5  UNL     1      42.733 269.013 160.572  1.00  0.00     0.170 C 
ENDROOT
BRANCH   1   2
HETATM    2  N2  UNL     1      42.362 270.198 161.208  1.00  0.00    -0.282 N 
ATOM      3  H2  UNL     1      42.798 271.080 160.940  1.00  0.00     0.184 HD
BRANCH   2   4
HETATM    4  N1  UNL     1      41.379 270.173 162.226  1.00  0.00    -0.114 NA
BRANCH   4   5
HETATM    5  C4  UNL     1      41.453 271.391 163.049  1.00  0.00     0.290 C 
BRANCH   5   6
HETATM    6  C3  UNL     1      41.911 272.466 162.105  1.00  0.00     0.289 C 
HETATM    7  O2  UNL     1      41.198 272.819 161.099  1.00  0.00    -0.263 OA
BRANCH   6   8
HETATM    8  O1  UNL     1      43.090 273.130 162.244  1.00  0.00    -0.320 OA
BRANCH   8   9
HETATM    9  C2  UNL     1      43.283 274.346 162.928  1.00  0.00     0.174 C 
HETATM   10  C1  UNL     1      43.264 275.461 161.887  1.00  0.00     0.034 C 
ENDBRANCH   8   9
ENDBRANCH   6   8
ENDBRANCH   5   6
BRANCH   5  11
HETATM   11  C11 UNL     1      42.386 271.199 164.172  1.00  0.00     0.250 C 
HETATM   12  O5  UNL     1      43.315 270.351 164.029  1.00  0.00    -0.271 OA
HETATM   13  N7  UNL     1      42.299 271.900 165.389  1.00  0.00    -0.350 N 
HETATM   14  C12 UNL     1      43.260 271.729 166.497  1.00  0.00     0.126 C 
HETATM   15  C15 UNL     1      41.327 272.860 165.851  1.00  0.00     0.126 C 
HETATM   16  C13 UNL     1      42.433 271.871 167.748  1.00  0.00     0.021 C 
HETATM   17  C14 UNL     1      41.101 272.397 167.293  1.00  0.00     0.021 C 
ENDBRANCH   5  11
ENDBRANCH   4   5
ENDBRANCH   2   4
ENDBRANCH   1   2
BRANCH   1  18
HETATM   18  O3  UNL     1      43.567 268.285 161.257  1.00  0.00    -0.345 OA
ATOM     19  H3  UNL     1      43.162 267.547 161.697  1.00  0.00     0.219 HD
ENDBRANCH   1  18
BRANCH   1  20
HETATM   20  C6  UNL     1      42.346 268.477 159.302  1.00  0.00     0.109 A 
HETATM   21  C7  UNL     1      43.221 268.238 158.289  1.00  0.00     0.175 A 
HETATM   22  N3  UNL     1      42.751 267.725 157.112  1.00  0.00    -0.170 N 
HETATM   23  C9  UNL     1      41.465 267.440 156.895  1.00  0.00     0.679 A 
ATOM     24  H3  UNL     1      43.418 267.551 156.361  1.00  0.00     0.186 HD
HETATM   25  N5  UNL     1      40.615 267.681 157.902  1.00  0.00    -0.178 N 
HETATM   26  C10 UNL     1      40.985 268.184 159.093  1.00  0.00     0.150 A 
ATOM     27  H5  UNL     1      39.627 267.471 157.756  1.00  0.00     0.185 HD
HETATM   28  N6  UNL     1      40.029 268.412 160.110  1.00  0.00    -0.081 NA
BRANCH  21  29
HETATM   29  O4  UNL     1      44.554 268.501 158.428  1.00  0.00    -0.340 OA
HETATM   30  C8  UNL     1      45.334 268.749 157.277  1.00  0.00     0.211 C 
ENDBRANCH  21  29
BRANCH  23  31
HETATM   31  N4  UNL     1      41.049 266.960 155.782  1.00  0.00    -0.234 N 
ATOM     32  H42 UNL     1      41.630 266.997 154.945  1.00  0.00     0.174 HD
ATOM     33  H41 UNL     1      40.132 266.524 155.686  1.00  0.00     0.174 HD
ENDBRANCH  23  31
ENDBRANCH   1  20
TORSDOF 11
ENDMDL
MODEL 3
REMARK VINA RESULT: -7.941052545      2.124      7.484
REMARK  11 active torsions:
REMARK  status: ('A' for Active; 'I' for Inactive)
REMARK    1  A    between atoms: C2_2  and  O1_3 
REMARK    2  A    between atoms: O1_3  and  C3_4 
REMARK    3  A    between atoms: C3_4  and  C4_6 
REMARK    4  A    between atoms: C4_6  and  N1_7 
REMARK    5  A    between atoms: C4_6  and  C11_27 
REMARK    6  A    between atoms: N1_7  and  N2_8 
REMARK    7  A    between atoms: N2_8  and  C5_10 
REMARK    8  A    between atoms: C5_10  and  O3_11 
REMARK    9  A    between atoms: C5_10  and  C6_13 
REMARK   10  A    between atoms: C7_14  and  O4_15 
REMARK   11  A    between atoms: C9_19  and  N4_20 
REMARK       I    between atoms: C11_27  and  N7_29 
ROOT
HETATM    1  C5  UNL     1      40.598 272.897 166.834  1.00  0.00     0.170 C 
ENDROOT
BRANCH   1   2
HETATM    2  N2  UNL     1      40.657 273.272 165.492  1.00  0.00    -0.282 N 
ATOM      3  H2  UNL     1      41.128 274.136 165.223  1.00  0.00     0.184 HD
BRANCH   2   4
HETATM    4  N1  UNL     1      40.063 272.450 164.504  1.00  0.00    -0.114 NA
BRANCH   4   5
HETATM    5  C4  UNL     1      41.008 272.198 163.404  1.00  0.00     0.290 C 
BRANCH   5   6
HETATM    6  C3  UNL     1      41.617 273.538 163.104  1.00  0.00     0.289 C 
HETATM    7  O2  UNL     1      40.966 274.438 162.463  1.00  0.00    -0.263 OA
BRANCH   6   8
HETATM    8  O1  UNL     1      42.876 273.887 163.482  1.00  0.00    -0.320 OA
BRANCH   8   9
HETATM    9  C2  UNL     1      43.578 275.037 163.072  1.00  0.00     0.174 C 
HETATM   10  C1  UNL     1      45.066 274.708 163.137  1.00  0.00     0.034 C 
ENDBRANCH   8   9
ENDBRANCH   6   8
ENDBRANCH   5   6
BRANCH   5  11
HETATM   11  C11 UNL     1      40.305 271.630 162.241  1.00  0.00     0.250 C 
HETATM   12  O5  UNL     1      39.069 271.873 162.122  1.00  0.00    -0.271 OA
HETATM   13  N7  UNL     1      40.930 270.834 161.262  1.00  0.00    -0.350 N 
HETATM   14  C12 UNL     1      40.228 270.299 160.079  1.00  0.00     0.126 C 
HETATM   15  C15 UNL     1      42.285 270.349 161.173  1.00  0.00     0.126 C 
HETATM   16  C13 UNL     1      40.847 268.947 159.843  1.00  0.00     0.021 C 
HETATM   17  C14 UNL     1      42.062 268.901 160.727  1.00  0.00     0.021 C 
ENDBRANCH   5  11
ENDBRANCH   4   5
ENDBRANCH   2   4
ENDBRANCH   1   2
BRANCH   1  18
HETATM   18  O3  UNL     1      39.392 272.881 167.325  1.00  0.00    -0.345 OA
ATOM     19  H3  UNL     1      39.283 272.287 168.058  1.00  0.00     0.219 HD
ENDBRANCH   1  18
BRANCH   1  20
HETATM   20  C6  UNL     1      41.639 272.531 167.746  1.00  0.00     0.109 A 
HETATM   21  C7  UNL     1      42.724 271.792 167.391  1.00  0.00     0.175 A 
HETATM   22  N3  UNL     1      43.664 271.495 168.338  1.00  0.00    -0.170 N 
HETATM   23  C9  UNL     1      43.580 271.891 169.609  1.00  0.00     0.679 A 
ATOM     24  H3  UNL     1      44.473 270.939 168.057  1.00  0.00     0.186 HD
HETATM   25  N5  UNL     1      42.505 272.617 169.945  1.00  0.00    -0.178 N 
HETATM   26  C10 UNL     1      41.531 272.958 169.083  1.00  0.00     0.150 A 
ATOM     27  H5  UNL     1      42.420 272.930 170.913  1.00  0.00     0.185 HD
HETATM   28  N6  UNL     1      40.425 273.728 169.511  1.00  0.00    -0.081 NA
BRANCH  21  29
HETATM   29  O4  UNL     1      42.888 271.347 166.111  1.00  0.00    -0.340 OA
HETATM   30  C8  UNL     1      44.172 271.389 165.522  1.00  0.00     0.211 C 
ENDBRANCH  21  29
BRANCH  23  31
HETATM   31  N4  UNL     1      44.474 271.598 170.478  1.00  0.00    -0.234 N 
ATOM     32  H42 UNL     1      45.263 270.998 170.237  1.00  0.00     0.174 HD
ATOM     33  H41 UNL     1      44.439 271.948 171.436  1.00  0.00     0.174 HD
ENDBRANCH  23  31
ENDBRANCH   1  20
TORSDOF 11
ENDMDL
MODEL 4
REMARK VINA RESULT: -7.751553266      1.192      2.387
REMARK  11 active torsions:
REMARK  status: ('A' for Active; 'I' for Inactive)
REMARK    1  A    between atoms: C2_2  and  O1_3 
REMARK    2  A    between atoms: O1_3  and  C3_4 
REMARK    3  A    between atoms: C3_4  and  C4_6 
REMARK    4  A    between atoms: C4_6  and  N1_7 
REMARK    5  A    between atoms: C4_6  and  C11_27 
REMARK    6  A    between atoms: N1_7  and  N2_8 
REMARK    7  A    between atoms: N2_8  and  C5_10 
REMARK    8  A    between atoms: C5_10  and  O3_11 
REMARK    9  A    between atoms: C5_10  and  C6_13 
REMARK   10  A    between atoms: C7_14  and  O4_15 
REMARK   11  A    between atoms: C9_19  and  N4_20 
REMARK       I    between atoms: C11_27  and  N7_29 
ROOT
HETATM    1  C5  UNL     1      41.765 269.830 161.606  1.00  0.00     0.170 C 
ENDROOT
BRANCH   1   2
HETATM    2  N2  UNL     1      41.481 271.098 162.115  1.00  0.00    -0.282 N 
ATOM      3  H2  UNL     1      42.016 271.907 161.799  1.00  0.00     0.184 HD
BRANCH   2   4
HETATM    4  N1  UNL     1      40.450 271.258 163.071  1.00  0.00    -0.114 NA
BRANCH   4   5
HETATM    5  C4  UNL     1      40.741 272.392 163.963  1.00  0.00     0.290 C 
BRANCH   5   6
HETATM    6  C3  UNL     1      41.426 273.403 163.089  1.00  0.00     0.289 C 
HETATM    7  O2  UNL     1      40.808 273.979 162.124  1.00  0.00    -0.263 OA
BRANCH   6   8
HETATM    8  O1  UNL     1      42.725 273.775 163.253  1.00  0.00    -0.320 OA
BRANCH   8   9
HETATM    9  C2  UNL     1      43.285 275.015 162.896  1.00  0.00     0.174 C 
HETATM   10  C1  UNL     1      44.796 274.901 163.080  1.00  0.00     0.034 C 
ENDBRANCH   8   9
ENDBRANCH   6   8
ENDBRANCH   5   6
BRANCH   5  11
HETATM   11  C11 UNL     1      41.588 271.959 165.087  1.00  0.00     0.250 C 
HETATM   12  O5  UNL     1      42.486 271.100 164.853  1.00  0.00    -0.271 OA
HETATM   13  N7  UNL     1      41.450 272.445 166.402  1.00  0.00    -0.350 N 
HETATM   14  C12 UNL     1      42.327 272.035 167.516  1.00  0.00     0.126 C 
HETATM   15  C15 UNL     1      40.492 273.363 166.966  1.00  0.00     0.126 C 
HETATM   16  C13 UNL     1      41.425 272.005 168.723  1.00  0.00     0.021 C 
HETATM   17  C14 UNL     1      40.150 272.673 168.290  1.00  0.00     0.021 C 
ENDBRANCH   5  11
ENDBRANCH   4   5
ENDBRANCH   2   4
ENDBRANCH   1   2
BRANCH   1  18
HETATM   18  O3  UNL     1      41.097 268.870 162.177  1.00  0.00    -0.345 OA
ATOM     19  H3  UNL     1      40.162 269.028 162.225  1.00  0.00     0.219 HD
ENDBRANCH   1  18
BRANCH   1  20
HETATM   20  C6  UNL     1      42.664 269.424 160.568  1.00  0.00     0.109 A 
HETATM   21  C7  UNL     1      43.988 269.734 160.556  1.00  0.00     0.175 A 
HETATM   22  N3  UNL     1      44.762 269.298 159.517  1.00  0.00    -0.170 N 
HETATM   23  C9  UNL     1      44.290 268.575 158.499  1.00  0.00     0.679 A 
ATOM     24  H3  UNL     1      45.754 269.538 159.520  1.00  0.00     0.186 HD
HETATM   25  N5  UNL     1      42.984 268.279 158.524  1.00  0.00    -0.178 N 
HETATM   26  C10 UNL     1      42.146 268.663 159.503  1.00  0.00     0.150 A 
ATOM     27  H5  UNL     1      42.602 267.727 157.755  1.00  0.00     0.185 HD
HETATM   28  N6  UNL     1      40.777 268.311 159.461  1.00  0.00    -0.081 NA
BRANCH  21  29
HETATM   29  O4  UNL     1      44.552 270.469 161.559  1.00  0.00    -0.340 OA
HETATM   30  C8  UNL     1      45.127 269.804 162.665  1.00  0.00     0.211 C 
ENDBRANCH  21  29
BRANCH  23  31
HETATM   31  N4  UNL     1      45.038 268.179 157.536  1.00  0.00    -0.234 N 
ATOM     32  H42 UNL     1      46.054 268.238 157.603  1.00  0.00     0.174 HD
ATOM     33  H41 UNL     1      44.655 267.793 156.673  1.00  0.00     0.174 HD
ENDBRANCH  23  31
ENDBRANCH   1  20
TORSDOF 11
ENDMDL
MODEL 5
REMARK VINA RESULT: -7.699896007      2.159      3.686
REMARK  11 active torsions:
REMARK  status: ('A' for Active; 'I' for Inactive)
REMARK    1  A    between atoms: C2_2  and  O1_3 
REMARK    2  A    between atoms: O1_3  and  C3_4 
REMARK    3  A    between atoms: C3_4  and  C4_6 
REMARK    4  A    between atoms: C4_6  and  N1_7 
REMARK    5  A    between atoms: C4_6  and  C11_27 
REMARK    6  A    between atoms: N1_7  and  N2_8 
REMARK    7  A    between atoms: N2_8  and  C5_10 
REMARK    8  A    between atoms: C5_10  and  O3_11 
REMARK    9  A    between atoms: C5_10  and  C6_13 
REMARK   10  A    between atoms: C7_14  and  O4_15 
REMARK   11  A    between atoms: C9_19  and  N4_20 
REMARK       I    between atoms: C11_27  and  N7_29 
ROOT
HETATM    1  C5  UNL     1      42.690 268.781 159.866  1.00  0.00     0.170 C 
ENDROOT
BRANCH   1   2
HETATM    2  N2  UNL     1      42.235 269.830 160.665  1.00  0.00    -0.282 N 
ATOM      3  H2  UNL     1      42.394 270.796 160.380  1.00  0.00     0.184 HD
BRANCH   2   4
HETATM    4  N1  UNL     1      41.551 269.549 161.872  1.00  0.00    -0.114 NA
BRANCH   4   5
HETATM    5  C4  UNL     1      41.599 270.710 162.777  1.00  0.00     0.290 C 
BRANCH   5   6
HETATM    6  C3  UNL     1      41.512 271.906 161.874  1.00  0.00     0.289 C 
HETATM    7  O2  UNL     1      42.522 272.673 161.682  1.00  0.00    -0.263 OA
BRANCH   6   8
HETATM    8  O1  UNL     1      40.379 272.257 161.207  1.00  0.00    -0.320 OA
BRANCH   8   9
HETATM    9  C2  UNL     1      39.058 272.060 161.651  1.00  0.00     0.174 C 
HETATM   10  C1  UNL     1      38.345 271.220 160.595  1.00  0.00     0.034 C 
ENDBRANCH   8   9
ENDBRANCH   6   8
ENDBRANCH   5   6
BRANCH   5  11
HETATM   11  C11 UNL     1      42.841 270.695 163.567  1.00  0.00     0.250 C 
HETATM   12  O5  UNL     1      43.804 269.993 163.141  1.00  0.00    -0.271 OA
HETATM   13  N7  UNL     1      43.013 271.413 164.766  1.00  0.00    -0.350 N 
HETATM   14  C12 UNL     1      44.274 271.424 165.534  1.00  0.00     0.126 C 
HETATM   15  C15 UNL     1      42.087 272.230 165.511  1.00  0.00     0.126 C 
HETATM   16  C13 UNL     1      43.844 271.479 166.977  1.00  0.00     0.021 C 
HETATM   17  C14 UNL     1      42.373 271.783 166.948  1.00  0.00     0.021 C 
ENDBRANCH   5  11
ENDBRANCH   4   5
ENDBRANCH   2   4
ENDBRANCH   1   2
BRANCH   1  18
HETATM   18  O3  UNL     1      43.772 268.210 160.310  1.00  0.00    -0.345 OA
ATOM     19  H3  UNL     1      44.213 267.668 159.667  1.00  0.00     0.219 HD
ENDBRANCH   1  18
BRANCH   1  20
HETATM   20  C6  UNL     1      42.163 268.241 158.649  1.00  0.00     0.109 A 
HETATM   21  C7  UNL     1      42.909 268.039 157.530  1.00  0.00     0.175 A 
HETATM   22  N3  UNL     1      42.311 267.518 156.418  1.00  0.00    -0.170 N 
HETATM   23  C9  UNL     1      41.018 267.189 156.362  1.00  0.00     0.679 A 
ATOM     24  H3  UNL     1      42.882 267.372 155.585  1.00  0.00     0.186 HD
HETATM   25  N5  UNL     1      40.295 267.394 157.472  1.00  0.00    -0.178 N 
HETATM   26  C10 UNL     1      40.797 267.901 158.611  1.00  0.00     0.150 A 
ATOM     27  H5  UNL     1      39.305 267.150 157.451  1.00  0.00     0.185 HD
HETATM   28  N6  UNL     1      39.972 268.089 159.744  1.00  0.00    -0.081 NA
BRANCH  21  29
HETATM   29  O4  UNL     1      44.239 268.348 157.502  1.00  0.00    -0.340 OA
HETATM   30  C8  UNL     1      44.841 268.704 156.274  1.00  0.00     0.211 C 
ENDBRANCH  21  29
BRANCH  23  31
HETATM   31  N4  UNL     1      40.481 266.701 155.306  1.00  0.00    -0.234 N 
ATOM     32  H42 UNL     1      40.550 265.706 155.094  1.00  0.00     0.174 HD
ATOM     33  H41 UNL     1      39.966 267.278 154.641  1.00  0.00     0.174 HD
ENDBRANCH  23  31
ENDBRANCH   1  20
TORSDOF 11
ENDMDL
