MODEL 1
REMARK VINA RESULT: -6.961751399      0.000      0.000
REMARK  9 active torsions:
REMARK  status: ('A' for Active; 'I' for Inactive)
REMARK    1  A    between atoms: C2_2  and  C3_3 
REMARK    2  A    between atoms: C3_3  and  C5_5 
REMARK    3  A    between atoms: C6_7  and  C7_8 
REMARK    4  A    between atoms: C6_7  and  C12_13 
REMARK    5  A    between atoms: C7_8  and  C8_9 
REMARK    6  A    between atoms: C12_13  and  C15_16 
REMARK    7  A    between atoms: C15_16  and  O2_17 
REMARK    8  A    between atoms: O2_17  and  C16_18 
REMARK    9  A    between atoms: C24_29  and  O6_30 
ROOT
HETATM    1  C5  UNL     1      -5.102 -23.036  30.911  1.00  0.00     0.199 C 
HETATM    2  O1  UNL     1      -5.571 -22.460  29.771  1.00  0.00    -0.362 OA
HETATM    3  C6  UNL     1      -6.206 -23.413  28.970  1.00  0.00     0.116 C 
HETATM    4  C18 UNL     1      -6.935 -24.264  29.953  1.00  0.00     0.196 C 
HETATM    5  O4  UNL     1      -6.497 -25.575  29.899  1.00  0.00    -0.217 OA
HETATM    6  O5  UNL     1      -7.112 -26.565  30.249  1.00  0.00    -0.226 OA
HETATM    7  C19 UNL     1      -8.454 -26.691  30.219  1.00  0.00     0.122 C 
HETATM    8  C20 UNL     1      -8.967 -26.941  28.825  1.00  0.00     0.044 C 
HETATM    9  C21 UNL     1     -10.117 -27.906  28.971  1.00  0.00     0.003 C 
HETATM   10  C22 UNL     1      -9.547 -28.859  30.029  1.00  0.00     0.003 C 
HETATM   11  C23 UNL     1      -8.984 -27.864  31.022  1.00  0.00     0.044 C 
HETATM   12  C24 UNL     1      -9.052 -25.406  30.728  1.00  0.00     0.163 C 
HETATM   13  C25 UNL     1      -8.370 -24.190  30.152  1.00  0.00     0.062 C 
HETATM   14  C26 UNL     1      -8.761 -23.089  31.162  1.00  0.00     0.016 C 
HETATM   15  C27 UNL     1      -6.282 -23.831  31.276  1.00  0.00     0.197 C 
HETATM   16  O7  UNL     1      -6.619 -24.063  32.400  1.00  0.00    -0.291 OA
ENDROOT
BRANCH   3  17
HETATM   17  C7  UNL     1      -5.055 -24.315  28.473  1.00  0.00     0.070 C 
BRANCH  17  18
HETATM   18  C8  UNL     1      -3.782 -23.639  28.241  1.00  0.00    -0.022 C 
HETATM   19  C9  UNL     1      -3.259 -23.599  27.027  1.00  0.00    -0.091 C 
HETATM   20  C10 UNL     1      -1.943 -22.916  26.756  1.00  0.00     0.042 C 
HETATM   21  C11 UNL     1      -3.992 -24.183  25.874  1.00  0.00     0.042 C 
ENDBRANCH  17  18
ENDBRANCH   3  17
BRANCH   3  22
HETATM   22  C12 UNL     1      -6.835 -22.636  27.930  1.00  0.00     0.009 C 
HETATM   23  C13 UNL     1      -6.020 -21.608  27.200  1.00  0.00     0.020 C 
HETATM   24  C14 UNL     1      -7.541 -23.428  26.847  1.00  0.00     0.020 C 
BRANCH  22  25
HETATM   25  C15 UNL     1      -8.011 -21.848  28.544  1.00  0.00     0.190 C 
BRANCH  25  26
HETATM   26  O2  UNL     1      -9.174 -21.951  27.779  1.00  0.00    -0.321 OA
BRANCH  26  27
HETATM   27  C16 UNL     1     -10.409 -21.490  28.137  1.00  0.00     0.254 C 
HETATM   28  C17 UNL     1     -11.418 -22.269  28.902  1.00  0.00     0.126 C 
HETATM   29  O3  UNL     1     -10.726 -20.319  27.800  1.00  0.00    -0.266 OA
ENDBRANCH  26  27
ENDBRANCH  25  26
ENDBRANCH  22  25
ENDBRANCH   3  22
BRANCH   1  30
HETATM   30  C3  UNL     1      -4.585 -22.021  31.840  1.00  0.00     0.018 C 
HETATM   31  C4  UNL     1      -4.361 -20.638  31.256  1.00  0.00     0.013 C 
BRANCH  30  32
HETATM   32  C2  UNL     1      -3.555 -22.329  32.841  1.00  0.00     0.002 C 
HETATM   33  C1  UNL     1      -3.991 -22.544  34.248  1.00  0.00     0.005 C 
ENDBRANCH  30  32
ENDBRANCH   1  30
BRANCH  12  34
HETATM   34  O6  UNL     1      -9.149 -25.412  32.118  1.00  0.00    -0.392 OA
ATOM     35  H6  UNL     1      -9.994 -25.085  32.403  1.00  0.00     0.210 HD
ENDBRANCH  12  34
TORSDOF 9
ENDMDL
MODEL 2
REMARK VINA RESULT: -6.893789692      1.866      5.092
REMARK  9 active torsions:
REMARK  status: ('A' for Active; 'I' for Inactive)
REMARK    1  A    between atoms: C2_2  and  C3_3 
REMARK    2  A    between atoms: C3_3  and  C5_5 
REMARK    3  A    between atoms: C6_7  and  C7_8 
REMARK    4  A    between atoms: C6_7  and  C12_13 
REMARK    5  A    between atoms: C7_8  and  C8_9 
REMARK    6  A    between atoms: C12_13  and  C15_16 
REMARK    7  A    between atoms: C15_16  and  O2_17 
REMARK    8  A    between atoms: O2_17  and  C16_18 
REMARK    9  A    between atoms: C24_29  and  O6_30 
ROOT
HETATM    1  C5  UNL     1      -6.434 -25.038  28.104  1.00  0.00     0.199 C 
HETATM    2  O1  UNL     1      -7.725 -24.622  28.203  1.00  0.00    -0.362 OA
HETATM    3  C6  UNL     1      -8.194 -24.792  29.509  1.00  0.00     0.116 C 
HETATM    4  C18 UNL     1      -7.024 -24.410  30.350  1.00  0.00     0.196 C 
HETATM    5  O4  UNL     1      -6.608 -25.468  31.138  1.00  0.00    -0.217 OA
HETATM    6  O5  UNL     1      -5.981 -25.401  32.178  1.00  0.00    -0.226 OA
HETATM    7  C19 UNL     1      -6.042 -24.376  33.052  1.00  0.00     0.122 C 
HETATM    8  C20 UNL     1      -7.297 -24.417  33.885  1.00  0.00     0.044 C 
HETATM    9  C21 UNL     1      -6.900 -23.948  35.261  1.00  0.00     0.003 C 
HETATM   10  C22 UNL     1      -5.552 -24.663  35.421  1.00  0.00     0.003 C 
HETATM   11  C23 UNL     1      -4.922 -24.367  34.075  1.00  0.00     0.044 C 
HETATM   12  C24 UNL     1      -6.030 -23.093  32.264  1.00  0.00     0.163 C 
HETATM   13  C25 UNL     1      -6.943 -23.150  31.064  1.00  0.00     0.062 C 
HETATM   14  C26 UNL     1      -6.386 -22.013  30.179  1.00  0.00     0.016 C 
HETATM   15  C27 UNL     1      -5.890 -24.403  29.312  1.00  0.00     0.197 C 
HETATM   16  O7  UNL     1      -4.774 -23.983  29.410  1.00  0.00    -0.291 OA
ENDROOT
BRANCH   3  17
HETATM   17  C7  UNL     1      -8.292 -26.323  29.678  1.00  0.00     0.070 C 
BRANCH  17  18
HETATM   18  C8  UNL     1      -8.963 -27.034  28.592  1.00  0.00    -0.022 C 
HETATM   19  C9  UNL     1      -8.393 -28.089  28.034  1.00  0.00    -0.091 C 
HETATM   20  C10 UNL     1      -9.055 -28.840  26.906  1.00  0.00     0.042 C 
HETATM   21  C11 UNL     1      -7.098 -28.603  28.548  1.00  0.00     0.042 C 
ENDBRANCH  17  18
ENDBRANCH   3  17
BRANCH   3  22
HETATM   22  C12 UNL     1      -9.468 -24.117  29.517  1.00  0.00     0.009 C 
HETATM   23  C13 UNL     1     -10.706 -24.901  29.194  1.00  0.00     0.020 C 
HETATM   24  C14 UNL     1      -9.801 -23.347  30.780  1.00  0.00     0.020 C 
BRANCH  22  25
HETATM   25  C15 UNL     1      -9.433 -22.981  28.472  1.00  0.00     0.190 C 
BRANCH  25  26
HETATM   26  O2  UNL     1     -10.711 -22.551  28.114  1.00  0.00    -0.321 OA
BRANCH  26  27
HETATM   27  C16 UNL     1     -11.215 -21.296  28.307  1.00  0.00     0.254 C 
HETATM   28  C17 UNL     1     -12.458 -20.987  29.060  1.00  0.00     0.126 C 
HETATM   29  O3  UNL     1     -10.588 -20.322  27.814  1.00  0.00    -0.266 OA
ENDBRANCH  26  27
ENDBRANCH  25  26
ENDBRANCH  22  25
ENDBRANCH   3  22
BRANCH   1  30
HETATM   30  C3  UNL     1      -5.873 -24.709  26.786  1.00  0.00     0.018 C 
HETATM   31  C4  UNL     1      -6.275 -23.364  26.210  1.00  0.00     0.013 C 
BRANCH  30  32
HETATM   32  C2  UNL     1      -5.748 -25.709  25.718  1.00  0.00     0.002 C 
HETATM   33  C1  UNL     1      -5.704 -25.226  24.310  1.00  0.00     0.005 C 
ENDBRANCH  30  32
ENDBRANCH   1  30
BRANCH  12  34
HETATM   34  O6  UNL     1      -4.727 -22.687  31.983  1.00  0.00    -0.392 OA
ATOM     35  H6  UNL     1      -4.141 -22.894  32.701  1.00  0.00     0.210 HD
ENDBRANCH  12  34
TORSDOF 9
ENDMDL
MODEL 3
REMARK VINA RESULT: -6.849766880      2.116      3.801
REMARK  9 active torsions:
REMARK  status: ('A' for Active; 'I' for Inactive)
REMARK    1  A    between atoms: C2_2  and  C3_3 
REMARK    2  A    between atoms: C3_3  and  C5_5 
REMARK    3  A    between atoms: C6_7  and  C7_8 
REMARK    4  A    between atoms: C6_7  and  C12_13 
REMARK    5  A    between atoms: C7_8  and  C8_9 
REMARK    6  A    between atoms: C12_13  and  C15_16 
REMARK    7  A    between atoms: C15_16  and  O2_17 
REMARK    8  A    between atoms: O2_17  and  C16_18 
REMARK    9  A    between atoms: C24_29  and  O6_30 
ROOT
HETATM    1  C5  UNL     1      -3.813 -23.517  27.819  1.00  0.00     0.199 C 
HETATM    2  O1  UNL     1      -4.885 -23.108  27.088  1.00  0.00    -0.362 OA
HETATM    3  C6  UNL     1      -6.070 -23.606  27.638  1.00  0.00     0.116 C 
HETATM    4  C18 UNL     1      -5.845 -23.492  29.107  1.00  0.00     0.196 C 
HETATM    5  O4  UNL     1      -5.896 -24.733  29.717  1.00  0.00    -0.217 OA
HETATM    6  O5  UNL     1      -6.146 -24.961  30.886  1.00  0.00    -0.226 OA
HETATM    7  C19 UNL     1      -6.942 -24.204  31.668  1.00  0.00     0.122 C 
HETATM    8  C20 UNL     1      -8.402 -24.431  31.376  1.00  0.00     0.044 C 
HETATM    9  C21 UNL     1      -9.110 -24.355  32.705  1.00  0.00     0.003 C 
HETATM   10  C22 UNL     1      -8.121 -25.124  33.591  1.00  0.00     0.003 C 
HETATM   11  C23 UNL     1      -6.813 -24.498  33.150  1.00  0.00     0.044 C 
HETATM   12  C24 UNL     1      -6.616 -22.759  31.399  1.00  0.00     0.163 C 
HETATM   13  C25 UNL     1      -6.469 -22.470  29.926  1.00  0.00     0.062 C 
HETATM   14  C26 UNL     1      -5.659 -21.155  29.933  1.00  0.00     0.016 C 
HETATM   15  C27 UNL     1      -4.329 -23.241  29.166  1.00  0.00     0.197 C 
HETATM   16  O7  UNL     1      -3.653 -22.892  30.090  1.00  0.00    -0.291 OA
ENDROOT
BRANCH   3  17
HETATM   17  C7  UNL     1      -6.004 -25.123  27.364  1.00  0.00     0.070 C 
BRANCH  17  18
HETATM   18  C8  UNL     1      -5.650 -25.502  25.998  1.00  0.00    -0.022 C 
HETATM   19  C9  UNL     1      -6.001 -26.685  25.523  1.00  0.00    -0.091 C 
HETATM   20  C10 UNL     1      -5.645 -27.108  24.120  1.00  0.00     0.042 C 
HETATM   21  C11 UNL     1      -6.814 -27.615  26.346  1.00  0.00     0.042 C 
ENDBRANCH  17  18
ENDBRANCH   3  17
BRANCH   3  22
HETATM   22  C12 UNL     1      -7.111 -22.922  26.911  1.00  0.00     0.009 C 
HETATM   23  C13 UNL     1      -6.988 -21.442  26.690  1.00  0.00     0.020 C 
HETATM   24  C14 UNL     1      -7.459 -23.500  25.552  1.00  0.00     0.020 C 
BRANCH  22  25
HETATM   25  C15 UNL     1      -8.444 -23.103  27.667  1.00  0.00     0.190 C 
BRANCH  25  26
HETATM   26  O2  UNL     1      -9.210 -21.936  27.676  1.00  0.00    -0.321 OA
BRANCH  26  27
HETATM   27  C16 UNL     1     -10.388 -21.761  28.345  1.00  0.00     0.254 C 
HETATM   28  C17 UNL     1     -11.062 -22.801  29.166  1.00  0.00     0.126 C 
HETATM   29  O3  UNL     1     -10.954 -20.638  28.266  1.00  0.00    -0.266 OA
ENDBRANCH  26  27
ENDBRANCH  25  26
ENDBRANCH  22  25
ENDBRANCH   3  22
BRANCH   1  30
HETATM   30  C3  UNL     1      -2.580 -22.865  27.357  1.00  0.00     0.018 C 
HETATM   31  C4  UNL     1      -2.760 -21.563  26.598  1.00  0.00     0.013 C 
BRANCH  30  32
HETATM   32  C2  UNL     1      -1.451 -23.628  26.808  1.00  0.00     0.002 C 
HETATM   33  C1  UNL     1      -1.174 -23.513  25.349  1.00  0.00     0.005 C 
ENDBRANCH  30  32
ENDBRANCH   1  30
BRANCH  12  34
HETATM   34  O6  UNL     1      -5.549 -22.328  32.184  1.00  0.00    -0.392 OA
ATOM     35  H6  UNL     1      -5.842 -21.732  32.864  1.00  0.00     0.210 HD
ENDBRANCH  12  34
TORSDOF 9
ENDMDL
MODEL 4
REMARK VINA RESULT: -6.821674865      2.097      5.737
REMARK  9 active torsions:
REMARK  status: ('A' for Active; 'I' for Inactive)
REMARK    1  A    between atoms: C2_2  and  C3_3 
REMARK    2  A    between atoms: C3_3  and  C5_5 
REMARK    3  A    between atoms: C6_7  and  C7_8 
REMARK    4  A    between atoms: C6_7  and  C12_13 
REMARK    5  A    between atoms: C7_8  and  C8_9 
REMARK    6  A    between atoms: C12_13  and  C15_16 
REMARK    7  A    between atoms: C15_16  and  O2_17 
REMARK    8  A    between atoms: O2_17  and  C16_18 
REMARK    9  A    between atoms: C24_29  and  O6_30 
ROOT
HETATM    1  C5  UNL     1      -8.776 -26.462  32.287  1.00  0.00     0.199 C 
HETATM    2  O1  UNL     1      -9.851 -25.840  31.732  1.00  0.00    -0.362 OA
HETATM    3  C6  UNL     1      -9.434 -24.820  30.872  1.00  0.00     0.116 C 
HETATM    4  C18 UNL     1      -8.242 -25.404  30.193  1.00  0.00     0.196 C 
HETATM    5  O4  UNL     1      -7.106 -24.657  30.450  1.00  0.00    -0.217 OA
HETATM    6  O5  UNL     1      -6.097 -24.608  29.773  1.00  0.00    -0.226 OA
HETATM    7  C19 UNL     1      -6.054 -24.778  28.435  1.00  0.00     0.122 C 
HETATM    8  C20 UNL     1      -6.534 -23.555  27.697  1.00  0.00     0.044 C 
HETATM    9  C21 UNL     1      -5.667 -23.444  26.468  1.00  0.00     0.003 C 
HETATM   10  C22 UNL     1      -4.297 -23.799  27.062  1.00  0.00     0.003 C 
HETATM   11  C23 UNL     1      -4.661 -25.017  27.886  1.00  0.00     0.044 C 
HETATM   12  C24 UNL     1      -6.952 -25.934  28.086  1.00  0.00     0.163 C 
HETATM   13  C25 UNL     1      -8.267 -25.882  28.824  1.00  0.00     0.062 C 
HETATM   14  C26 UNL     1      -8.752 -27.345  28.727  1.00  0.00     0.016 C 
HETATM   15  C27 UNL     1      -7.952 -26.625  31.082  1.00  0.00     0.197 C 
HETATM   16  O7  UNL     1      -7.216 -27.548  30.886  1.00  0.00    -0.291 OA
ENDROOT
BRANCH   3  17
HETATM   17  C7  UNL     1      -8.843 -23.750  31.814  1.00  0.00     0.070 C 
BRANCH  17  18
HETATM   18  C8  UNL     1      -9.575 -23.536  33.060  1.00  0.00    -0.022 C 
HETATM   19  C9  UNL     1      -8.920 -23.353  34.194  1.00  0.00    -0.091 C 
HETATM   20  C10 UNL     1      -9.646 -23.136  35.498  1.00  0.00     0.042 C 
HETATM   21  C11 UNL     1      -7.437 -23.296  34.205  1.00  0.00     0.042 C 
ENDBRANCH  17  18
ENDBRANCH   3  17
BRANCH   3  22
HETATM   22  C12 UNL     1     -10.643 -24.410  30.201  1.00  0.00     0.009 C 
HETATM   23  C13 UNL     1     -11.437 -25.436  29.447  1.00  0.00     0.020 C 
HETATM   24  C14 UNL     1     -11.655 -23.669  31.053  1.00  0.00     0.020 C 
BRANCH  22  25
HETATM   25  C15 UNL     1     -10.286 -23.334  29.153  1.00  0.00     0.190 C 
BRANCH  25  26
HETATM   26  O2  UNL     1     -11.409 -22.632  28.711  1.00  0.00    -0.321 OA
BRANCH  26  27
HETATM   27  C16 UNL     1     -11.498 -21.276  28.571  1.00  0.00     0.254 C 
HETATM   28  C17 UNL     1     -12.629 -20.445  29.061  1.00  0.00     0.126 C 
HETATM   29  O3  UNL     1     -10.559 -20.677  27.986  1.00  0.00    -0.266 OA
ENDBRANCH  26  27
ENDBRANCH  25  26
ENDBRANCH  22  25
ENDBRANCH   3  22
BRANCH   1  30
HETATM   30  C3  UNL     1      -9.190 -27.643  33.058  1.00  0.00     0.018 C 
HETATM   31  C4  UNL     1     -10.347 -28.440  32.483  1.00  0.00     0.013 C 
BRANCH  30  32
HETATM   32  C2  UNL     1      -9.248 -27.637  34.525  1.00  0.00     0.002 C 
HETATM   33  C1  UNL     1      -8.231 -26.836  35.262  1.00  0.00     0.005 C 
ENDBRANCH  30  32
ENDBRANCH   1  30
BRANCH  12  34
HETATM   34  O6  UNL     1      -6.276 -27.147  28.192  1.00  0.00    -0.392 OA
ATOM     35  H6  UNL     1      -5.996 -27.460  27.340  1.00  0.00     0.210 HD
ENDBRANCH  12  34
TORSDOF 9
ENDMDL
MODEL 5
REMARK VINA RESULT: -6.692007446      1.901      5.955
REMARK  9 active torsions:
REMARK  status: ('A' for Active; 'I' for Inactive)
REMARK    1  A    between atoms: C2_2  and  C3_3 
REMARK    2  A    between atoms: C3_3  and  C5_5 
REMARK    3  A    between atoms: C6_7  and  C7_8 
REMARK    4  A    between atoms: C6_7  and  C12_13 
REMARK    5  A    between atoms: C7_8  and  C8_9 
REMARK    6  A    between atoms: C12_13  and  C15_16 
REMARK    7  A    between atoms: C15_16  and  O2_17 
REMARK    8  A    between atoms: O2_17  and  C16_18 
REMARK    9  A    between atoms: C24_29  and  O6_30 
ROOT
HETATM    1  C5  UNL     1      -7.367 -26.518  28.359  1.00  0.00     0.199 C 
HETATM    2  O1  UNL     1      -8.043 -25.407  28.759  1.00  0.00    -0.362 OA
HETATM    3  C6  UNL     1      -7.160 -24.339  28.940  1.00  0.00     0.116 C 
HETATM    4  C18 UNL     1      -6.196 -24.489  27.813  1.00  0.00     0.196 C 
HETATM    5  O4  UNL     1      -4.908 -24.683  28.279  1.00  0.00    -0.217 OA
HETATM    6  O5  UNL     1      -3.874 -24.451  27.683  1.00  0.00    -0.226 OA
HETATM    7  C19 UNL     1      -3.718 -23.489  26.750  1.00  0.00     0.122 C 
HETATM    8  C20 UNL     1      -3.597 -22.120  27.367  1.00  0.00     0.044 C 
HETATM    9  C21 UNL     1      -2.594 -21.372  26.525  1.00  0.00     0.003 C 
HETATM   10  C22 UNL     1      -1.554 -22.474  26.287  1.00  0.00     0.003 C 
HETATM   11  C23 UNL     1      -2.458 -23.631  25.919  1.00  0.00     0.044 C 
HETATM   12  C24 UNL     1      -4.930 -23.509  25.858  1.00  0.00     0.163 C 
HETATM   13  C25 UNL     1      -6.215 -23.638  26.638  1.00  0.00     0.062 C 
HETATM   14  C26 UNL     1      -7.198 -24.150  25.564  1.00  0.00     0.016 C 
HETATM   15  C27 UNL     1      -6.511 -25.915  27.330  1.00  0.00     0.197 C 
HETATM   16  O7  UNL     1      -6.159 -26.473  26.331  1.00  0.00    -0.291 OA
ENDROOT
BRANCH   3  17
HETATM   17  C7  UNL     1      -6.341 -24.734  30.188  1.00  0.00     0.070 C 
BRANCH  17  18
HETATM   18  C8  UNL     1      -5.528 -23.669  30.770  1.00  0.00    -0.022 C 
HETATM   19  C9  UNL     1      -5.426 -23.551  32.083  1.00  0.00    -0.091 C 
HETATM   20  C10 UNL     1      -4.600 -22.458  32.714  1.00  0.00     0.042 C 
HETATM   21  C11 UNL     1      -6.080 -24.536  32.980  1.00  0.00     0.042 C 
ENDBRANCH  17  18
ENDBRANCH   3  17
BRANCH   3  22
HETATM   22  C12 UNL     1      -8.022 -23.200  29.139  1.00  0.00     0.009 C 
HETATM   23  C13 UNL     1      -8.462 -22.859  30.533  1.00  0.00     0.020 C 
HETATM   24  C14 UNL     1      -7.538 -21.892  28.542  1.00  0.00     0.020 C 
BRANCH  22  25
HETATM   25  C15 UNL     1      -9.330 -23.425  28.351  1.00  0.00     0.190 C 
BRANCH  25  26
HETATM   26  O2  UNL     1      -9.880 -22.231  27.885  1.00  0.00    -0.321 OA
BRANCH  26  27
HETATM   27  C16 UNL     1     -10.943 -21.572  28.435  1.00  0.00     0.254 C 
HETATM   28  C17 UNL     1     -11.976 -22.201  29.299  1.00  0.00     0.126 C 
HETATM   29  O3  UNL     1     -11.065 -20.341  28.200  1.00  0.00    -0.266 OA
ENDBRANCH  26  27
ENDBRANCH  25  26
ENDBRANCH  22  25
ENDBRANCH   3  22
BRANCH   1  30
HETATM   30  C3  UNL     1      -8.296 -27.599  28.000  1.00  0.00     0.018 C 
HETATM   31  C4  UNL     1      -9.696 -27.492  28.576  1.00  0.00     0.013 C 
BRANCH  30  32
HETATM   32  C2  UNL     1      -7.873 -29.004  27.935  1.00  0.00     0.002 C 
HETATM   33  C1  UNL     1      -6.687 -29.414  28.736  1.00  0.00     0.005 C 
ENDBRANCH  30  32
ENDBRANCH   1  30
BRANCH  12  34
HETATM   34  O6  UNL     1      -4.783 -24.436  24.828  1.00  0.00    -0.392 OA
ATOM     35  H6  UNL     1      -3.866 -24.624  24.665  1.00  0.00     0.210 HD
ENDBRANCH  12  34
TORSDOF 9
ENDMDL
