MODEL 1
REMARK VINA RESULT: -6.830503429      0.000      0.000
REMARK  11 active torsions:
REMARK  status: ('A' for Active; 'I' for Inactive)
REMARK    1  A    between atoms: C2_2  and  C3_3 
REMARK    2  A    between atoms: C3_3  and  C4_4 
REMARK    3  A    between atoms: C4_4  and  C5_5 
REMARK    4  A    between atoms: C5_5  and  C6_6 
REMARK    5  A    between atoms: C6_6  and  O1_7 
REMARK    6  A    between atoms: O1_7  and  N1_8 
REMARK    7  A    between atoms: N2_10  and  C7_12 
REMARK    8  A    between atoms: C7_12  and  C8_13 
REMARK    9  A    between atoms: C9_14  and  N3_15 
REMARK   10  A    between atoms: C11_23  and  O2_24 
REMARK   11  A    between atoms: C12_26  and  O3_27 
ROOT
HETATM    1  C8  UNL     1     -28.522  25.486 -15.675  1.00  0.00     0.088 C 
HETATM    2  C9  UNL     1     -27.919  24.709 -16.803  1.00  0.00     0.297 C 
HETATM    3  N6  UNL     1     -28.609  23.439 -16.785  1.00  0.00    -0.025 N 
ATOM      4  H61 UNL     1     -28.008  22.660 -17.055  1.00  0.00     0.282 HD
ATOM      5  H62 UNL     1     -29.293  23.352 -17.537  1.00  0.00     0.282 HD
HETATM    6  C11 UNL     1     -29.187  23.268 -15.489  1.00  0.00     0.350 C 
HETATM    7  C12 UNL     1     -28.639  24.389 -14.606  1.00  0.00     0.183 C 
ENDROOT
BRANCH   1   8
HETATM    8  C7  UNL     1     -27.653  26.601 -15.170  1.00  0.00     0.152 C 
BRANCH   8   9
HETATM    9  N2  UNL     1     -28.444  27.814 -15.242  1.00  0.00    -0.316 N 
HETATM   10  N1  UNL     1     -27.984  28.963 -15.392  1.00  0.00    -0.212 N 
ATOM     11  H1  UNL     1     -26.976  29.102 -15.474  1.00  0.00     0.215 HD
ATOM     12  H2  UNL     1     -29.457  27.719 -15.164  1.00  0.00     0.182 HD
BRANCH  10  13
HETATM   13  O1  UNL     1     -28.824  30.031 -15.445  1.00  0.00    -0.265 OA
BRANCH  13  14
HETATM   14  C6  UNL     1     -28.381  31.253 -16.051  1.00  0.00     0.203 C 
BRANCH  14  15
HETATM   15  C5  UNL     1     -26.910  31.018 -16.396  1.00  0.00     0.029 C 
BRANCH  15  16
HETATM   16  C4  UNL     1     -26.709  31.442 -17.835  1.00  0.00     0.002 C 
BRANCH  16  17
HETATM   17  C3  UNL     1     -26.250  30.292 -18.664  1.00  0.00    -0.000 C 
BRANCH  17  18
HETATM   18  C2  UNL     1     -27.305  29.268 -18.954  1.00  0.00    -0.005 C 
HETATM   19  C1  UNL     1     -26.721  27.906 -18.605  1.00  0.00     0.005 C 
ENDBRANCH  17  18
ENDBRANCH  16  17
ENDBRANCH  15  16
ENDBRANCH  14  15
ENDBRANCH  13  14
ENDBRANCH  10  13
ENDBRANCH   8   9
ENDBRANCH   1   8
BRANCH   2  20
HETATM   20  N3  UNL     1     -26.513  24.470 -16.623  1.00  0.00    -0.339 N 
HETATM   21  C10 UNL     1     -25.681  24.281 -17.569  1.00  0.00     0.198 C 
HETATM   22  N4  UNL     1     -26.087  24.292 -18.928  1.00  0.00    -0.067 NA
HETATM   23  N5  UNL     1     -24.322  24.056 -17.265  1.00  0.00    -0.067 NA
ATOM     24  H3  UNL     1     -26.155  24.451 -15.668  1.00  0.00     0.163 HD
ENDBRANCH   2  20
BRANCH   7  25
HETATM   25  O3  UNL     1     -27.354  24.083 -14.156  1.00  0.00    -0.391 OA
ATOM     26  H3  UNL     1     -27.356  23.185 -13.847  1.00  0.00     0.210 HD
ENDBRANCH   7  25
BRANCH   6  27
HETATM   27  O2  UNL     1     -28.973  22.026 -14.934  1.00  0.00    -0.368 OA
ATOM     28  H2  UNL     1     -29.549  21.818 -14.207  1.00  0.00     0.212 HD
ENDBRANCH   6  27
TORSDOF 11
ENDMDL
MODEL 2
REMARK VINA RESULT: -6.749952760      1.446      2.150
REMARK  11 active torsions:
REMARK  status: ('A' for Active; 'I' for Inactive)
REMARK    1  A    between atoms: C2_2  and  C3_3 
REMARK    2  A    between atoms: C3_3  and  C4_4 
REMARK    3  A    between atoms: C4_4  and  C5_5 
REMARK    4  A    between atoms: C5_5  and  C6_6 
REMARK    5  A    between atoms: C6_6  and  O1_7 
REMARK    6  A    between atoms: O1_7  and  N1_8 
REMARK    7  A    between atoms: N2_10  and  C7_12 
REMARK    8  A    between atoms: C7_12  and  C8_13 
REMARK    9  A    between atoms: C9_14  and  N3_15 
REMARK   10  A    between atoms: C11_23  and  O2_24 
REMARK   11  A    between atoms: C12_26  and  O3_27 
ROOT
HETATM    1  C8  UNL     1     -28.527  25.316 -15.994  1.00  0.00     0.088 C 
HETATM    2  C9  UNL     1     -27.987  24.171 -16.792  1.00  0.00     0.297 C 
HETATM    3  N6  UNL     1     -28.641  23.003 -16.247  1.00  0.00    -0.025 N 
ATOM      4  H61 UNL     1     -28.042  22.177 -16.252  1.00  0.00     0.282 HD
ATOM      5  H62 UNL     1     -29.375  22.642 -16.857  1.00  0.00     0.282 HD
HETATM    6  C11 UNL     1     -29.120  23.331 -14.940  1.00  0.00     0.350 C 
HETATM    7  C12 UNL     1     -28.538  24.700 -14.587  1.00  0.00     0.183 C 
ENDROOT
BRANCH   1   8
HETATM    8  C7  UNL     1     -27.653  26.536 -16.011  1.00  0.00     0.152 C 
BRANCH   8   9
HETATM    9  N2  UNL     1     -27.733  27.089 -17.349  1.00  0.00    -0.316 N 
HETATM   10  N1  UNL     1     -26.781  27.600 -17.971  1.00  0.00    -0.212 N 
ATOM     11  H1  UNL     1     -25.858  27.652 -17.539  1.00  0.00     0.215 HD
ATOM     12  H2  UNL     1     -28.638  27.058 -17.817  1.00  0.00     0.182 HD
BRANCH  10  13
HETATM   13  O1  UNL     1     -26.972  28.089 -19.226  1.00  0.00    -0.265 OA
BRANCH  13  14
HETATM   14  C6  UNL     1     -26.995  29.506 -19.441  1.00  0.00     0.203 C 
BRANCH  14  15
HETATM   15  C5  UNL     1     -25.914  30.068 -18.516  1.00  0.00     0.029 C 
BRANCH  15  16
HETATM   16  C4  UNL     1     -26.203  31.541 -18.324  1.00  0.00     0.002 C 
BRANCH  16  17
HETATM   17  C3  UNL     1     -27.047  31.759 -17.115  1.00  0.00    -0.000 C 
BRANCH  17  18
HETATM   18  C2  UNL     1     -26.833  30.764 -16.015  1.00  0.00    -0.005 C 
HETATM   19  C1  UNL     1     -28.205  30.257 -15.591  1.00  0.00     0.005 C 
ENDBRANCH  17  18
ENDBRANCH  16  17
ENDBRANCH  15  16
ENDBRANCH  14  15
ENDBRANCH  13  14
ENDBRANCH  10  13
ENDBRANCH   8   9
ENDBRANCH   1   8
BRANCH   2  20
HETATM   20  N3  UNL     1     -26.566  24.013 -16.644  1.00  0.00    -0.339 N 
HETATM   21  C10 UNL     1     -25.714  24.204 -17.572  1.00  0.00     0.198 C 
HETATM   22  N4  UNL     1     -26.110  24.603 -18.873  1.00  0.00    -0.067 NA
HETATM   23  N5  UNL     1     -24.341  24.015 -17.304  1.00  0.00    -0.067 NA
ATOM     24  H3  UNL     1     -26.214  23.727 -15.730  1.00  0.00     0.163 HD
ENDBRANCH   2  20
BRANCH   7  25
HETATM   25  O3  UNL     1     -27.217  24.581 -14.155  1.00  0.00    -0.391 OA
ATOM     26  H3  UNL     1     -26.844  25.453 -14.100  1.00  0.00     0.210 HD
ENDBRANCH   7  25
BRANCH   6  27
HETATM   27  O2  UNL     1     -28.834  22.387 -13.980  1.00  0.00    -0.368 OA
ATOM     28  H2  UNL     1     -28.218  22.679 -13.318  1.00  0.00     0.212 HD
ENDBRANCH   6  27
TORSDOF 11
ENDMDL
MODEL 3
REMARK VINA RESULT: -6.705623350      2.505      6.470
REMARK  11 active torsions:
REMARK  status: ('A' for Active; 'I' for Inactive)
REMARK    1  A    between atoms: C2_2  and  C3_3 
REMARK    2  A    between atoms: C3_3  and  C4_4 
REMARK    3  A    between atoms: C4_4  and  C5_5 
REMARK    4  A    between atoms: C5_5  and  C6_6 
REMARK    5  A    between atoms: C6_6  and  O1_7 
REMARK    6  A    between atoms: O1_7  and  N1_8 
REMARK    7  A    between atoms: N2_10  and  C7_12 
REMARK    8  A    between atoms: C7_12  and  C8_13 
REMARK    9  A    between atoms: C9_14  and  N3_15 
REMARK   10  A    between atoms: C11_23  and  O2_24 
REMARK   11  A    between atoms: C12_26  and  O3_27 
ROOT
HETATM    1  C8  UNL     1     -27.635  28.788 -16.780  1.00  0.00     0.088 C 
HETATM    2  C9  UNL     1     -27.916  30.171 -17.279  1.00  0.00     0.297 C 
HETATM    3  N6  UNL     1     -27.037  30.338 -18.414  1.00  0.00    -0.025 N 
ATOM      4  H61 UNL     1     -26.693  31.294 -18.509  1.00  0.00     0.282 HD
ATOM      5  H62 UNL     1     -27.529  30.280 -19.305  1.00  0.00     0.282 HD
HETATM    6  C11 UNL     1     -25.982  29.379 -18.302  1.00  0.00     0.350 C 
HETATM    7  C12 UNL     1     -26.106  28.743 -16.917  1.00  0.00     0.183 C 
ENDROOT
BRANCH   1   8
HETATM    8  C7  UNL     1     -28.026  28.566 -15.348  1.00  0.00     0.152 C 
BRANCH   8   9
HETATM    9  N2  UNL     1     -27.407  27.324 -14.932  1.00  0.00    -0.316 N 
HETATM   10  N1  UNL     1     -28.004  26.367 -14.399  1.00  0.00    -0.212 N 
ATOM     11  H1  UNL     1     -29.008  26.426 -14.226  1.00  0.00     0.215 HD
ATOM     12  H2  UNL     1     -26.404  27.223 -15.088  1.00  0.00     0.182 HD
BRANCH  10  13
HETATM   13  O1  UNL     1     -27.318  25.246 -14.050  1.00  0.00    -0.265 OA
BRANCH  13  14
HETATM   14  C6  UNL     1     -27.721  23.974 -14.574  1.00  0.00     0.203 C 
BRANCH  14  15
HETATM   15  C5  UNL     1     -28.847  24.287 -15.560  1.00  0.00     0.029 C 
BRANCH  15  16
HETATM   16  C4  UNL     1     -28.354  23.917 -16.943  1.00  0.00     0.002 C 
BRANCH  16  17
HETATM   17  C3  UNL     1     -27.985  25.137 -17.715  1.00  0.00    -0.000 C 
BRANCH  17  18
HETATM   18  C2  UNL     1     -26.512  25.325 -17.922  1.00  0.00    -0.005 C 
HETATM   19  C1  UNL     1     -25.879  23.940 -17.947  1.00  0.00     0.005 C 
ENDBRANCH  17  18
ENDBRANCH  16  17
ENDBRANCH  15  16
ENDBRANCH  14  15
ENDBRANCH  13  14
ENDBRANCH  10  13
ENDBRANCH   8   9
ENDBRANCH   1   8
BRANCH   2  20
HETATM   20  N3  UNL     1     -27.609  31.184 -16.307  1.00  0.00    -0.339 N 
HETATM   21  C10 UNL     1     -27.703  32.439 -16.511  1.00  0.00     0.198 C 
HETATM   22  N4  UNL     1     -28.135  32.958 -17.758  1.00  0.00    -0.067 NA
HETATM   23  N5  UNL     1     -27.371  33.338 -15.475  1.00  0.00    -0.067 NA
ATOM     24  H3  UNL     1     -27.292  30.877 -15.387  1.00  0.00     0.163 HD
ENDBRANCH   2  20
BRANCH   7  25
HETATM   25  O3  UNL     1     -25.557  29.572 -15.939  1.00  0.00    -0.391 OA
ATOM     26  H3  UNL     1     -25.042  30.241 -16.373  1.00  0.00     0.210 HD
ENDBRANCH   7  25
BRANCH   6  27
HETATM   27  O2  UNL     1     -24.724  29.895 -18.520  1.00  0.00    -0.368 OA
ATOM     28  H2  UNL     1     -24.017  29.349 -18.195  1.00  0.00     0.212 HD
ENDBRANCH   6  27
TORSDOF 11
ENDMDL
MODEL 4
REMARK VINA RESULT: -6.680259202      2.398      6.215
REMARK  11 active torsions:
REMARK  status: ('A' for Active; 'I' for Inactive)
REMARK    1  A    between atoms: C2_2  and  C3_3 
REMARK    2  A    between atoms: C3_3  and  C4_4 
REMARK    3  A    between atoms: C4_4  and  C5_5 
REMARK    4  A    between atoms: C5_5  and  C6_6 
REMARK    5  A    between atoms: C6_6  and  O1_7 
REMARK    6  A    between atoms: O1_7  and  N1_8 
REMARK    7  A    between atoms: N2_10  and  C7_12 
REMARK    8  A    between atoms: C7_12  and  C8_13 
REMARK    9  A    between atoms: C9_14  and  N3_15 
REMARK   10  A    between atoms: C11_23  and  O2_24 
REMARK   11  A    between atoms: C12_26  and  O3_27 
ROOT
HETATM    1  C8  UNL     1     -27.422  29.585 -15.373  1.00  0.00     0.088 C 
HETATM    2  C9  UNL     1     -26.576  29.662 -16.605  1.00  0.00     0.297 C 
HETATM    3  N6  UNL     1     -26.167  31.045 -16.685  1.00  0.00    -0.025 N 
ATOM      4  H61 UNL     1     -26.093  31.380 -17.646  1.00  0.00     0.282 HD
ATOM      5  H62 UNL     1     -25.193  31.184 -16.416  1.00  0.00     0.282 HD
HETATM    6  C11 UNL     1     -27.075  31.822 -15.898  1.00  0.00     0.350 C 
HETATM    7  C12 UNL     1     -28.220  30.892 -15.496  1.00  0.00     0.183 C 
ENDROOT
BRANCH   1   8
HETATM    8  C7  UNL     1     -28.361  28.414 -15.351  1.00  0.00     0.152 C 
BRANCH   8   9
HETATM    9  N2  UNL     1     -27.597  27.275 -14.882  1.00  0.00    -0.316 N 
HETATM   10  N1  UNL     1     -28.070  26.299 -14.266  1.00  0.00    -0.212 N 
ATOM     11  H1  UNL     1     -29.068  26.263 -14.057  1.00  0.00     0.215 HD
ATOM     12  H2  UNL     1     -26.595  27.271 -15.070  1.00  0.00     0.182 HD
BRANCH  10  13
HETATM   13  O1  UNL     1     -27.257  25.283 -13.873  1.00  0.00    -0.265 OA
BRANCH  13  14
HETATM   14  C6  UNL     1     -27.342  24.011 -14.528  1.00  0.00     0.203 C 
BRANCH  14  15
HETATM   15  C5  UNL     1     -28.777  23.924 -15.048  1.00  0.00     0.029 C 
BRANCH  15  16
HETATM   16  C4  UNL     1     -28.705  23.605 -16.526  1.00  0.00     0.002 C 
BRANCH  16  17
HETATM   17  C3  UNL     1     -27.458  24.160 -17.124  1.00  0.00    -0.000 C 
BRANCH  17  18
HETATM   18  C2  UNL     1     -27.655  25.399 -17.945  1.00  0.00    -0.005 C 
HETATM   19  C1  UNL     1     -26.587  25.396 -19.031  1.00  0.00     0.005 C 
ENDBRANCH  17  18
ENDBRANCH  16  17
ENDBRANCH  15  16
ENDBRANCH  14  15
ENDBRANCH  13  14
ENDBRANCH  10  13
ENDBRANCH   8   9
ENDBRANCH   1   8
BRANCH   2  20
HETATM   20  N3  UNL     1     -27.303  29.328 -17.799  1.00  0.00    -0.339 N 
HETATM   21  C10 UNL     1     -26.782  29.193 -18.954  1.00  0.00     0.198 C 
HETATM   22  N4  UNL     1     -25.390  29.365 -19.164  1.00  0.00    -0.067 NA
HETATM   23  N5  UNL     1     -27.602  28.863 -20.053  1.00  0.00    -0.067 NA
ATOM     24  H3  UNL     1     -28.311  29.190 -17.717  1.00  0.00     0.163 HD
ENDBRANCH   2  20
BRANCH   7  25
HETATM   25  O3  UNL     1     -29.132  30.748 -16.541  1.00  0.00    -0.391 OA
ATOM     26  H3  UNL     1     -29.364  31.614 -16.853  1.00  0.00     0.210 HD
ENDBRANCH   7  25
BRANCH   6  27
HETATM   27  O2  UNL     1     -27.532  32.961 -16.522  1.00  0.00    -0.368 OA
ATOM     28  H2  UNL     1     -28.326  33.321 -16.144  1.00  0.00     0.212 HD
ENDBRANCH   6  27
TORSDOF 11
ENDMDL
MODEL 5
REMARK VINA RESULT: -6.448710314      3.166      5.369
REMARK  11 active torsions:
REMARK  status: ('A' for Active; 'I' for Inactive)
REMARK    1  A    between atoms: C2_2  and  C3_3 
REMARK    2  A    between atoms: C3_3  and  C4_4 
REMARK    3  A    between atoms: C4_4  and  C5_5 
REMARK    4  A    between atoms: C5_5  and  C6_6 
REMARK    5  A    between atoms: C6_6  and  O1_7 
REMARK    6  A    between atoms: O1_7  and  N1_8 
REMARK    7  A    between atoms: N2_10  and  C7_12 
REMARK    8  A    between atoms: C7_12  and  C8_13 
REMARK    9  A    between atoms: C9_14  and  N3_15 
REMARK   10  A    between atoms: C11_23  and  O2_24 
REMARK   11  A    between atoms: C12_26  and  O3_27 
ROOT
HETATM    1  C8  UNL     1     -24.744  24.427 -17.975  1.00  0.00     0.088 C 
HETATM    2  C9  UNL     1     -23.877  23.213 -18.101  1.00  0.00     0.297 C 
HETATM    3  N6  UNL     1     -22.622  23.709 -18.617  1.00  0.00    -0.025 N 
ATOM      4  H61 UNL     1     -22.168  23.051 -19.250  1.00  0.00     0.282 HD
ATOM      5  H62 UNL     1     -21.891  23.744 -17.908  1.00  0.00     0.282 HD
HETATM    6  C11 UNL     1     -22.865  24.982 -19.224  1.00  0.00     0.350 C 
HETATM    7  C12 UNL     1     -24.381  25.168 -19.270  1.00  0.00     0.183 C 
ENDROOT
BRANCH   1   8
HETATM    8  C7  UNL     1     -26.214  24.126 -17.953  1.00  0.00     0.152 C 
BRANCH   8   9
HETATM    9  N2  UNL     1     -26.732  24.660 -16.709  1.00  0.00    -0.316 N 
HETATM   10  N1  UNL     1     -26.824  24.026 -15.639  1.00  0.00    -0.212 N 
ATOM     11  H1  UNL     1     -26.521  23.052 -15.596  1.00  0.00     0.215 HD
ATOM     12  H2  UNL     1     -27.046  25.630 -16.709  1.00  0.00     0.182 HD
BRANCH  10  13
HETATM   13  O1  UNL     1     -27.327  24.631 -14.530  1.00  0.00    -0.265 OA
BRANCH  13  14
HETATM   14  C6  UNL     1     -28.572  25.338 -14.610  1.00  0.00     0.203 C 
BRANCH  14  15
HETATM   15  C5  UNL     1     -28.306  26.692 -13.951  1.00  0.00     0.029 C 
BRANCH  15  16
HETATM   16  C4  UNL     1     -28.498  27.756 -15.010  1.00  0.00     0.002 C 
BRANCH  16  17
HETATM   17  C3  UNL     1     -27.208  28.063 -15.689  1.00  0.00    -0.000 C 
BRANCH  17  18
HETATM   18  C2  UNL     1     -26.840  29.517 -15.708  1.00  0.00    -0.005 C 
HETATM   19  C1  UNL     1     -28.138  30.312 -15.658  1.00  0.00     0.005 C 
ENDBRANCH  17  18
ENDBRANCH  16  17
ENDBRANCH  15  16
ENDBRANCH  14  15
ENDBRANCH  13  14
ENDBRANCH  10  13
ENDBRANCH   8   9
ENDBRANCH   1   8
BRANCH   2  20
HETATM   20  N3  UNL     1     -24.405  22.248 -19.025  1.00  0.00    -0.339 N 
HETATM   21  C10 UNL     1     -23.861  21.128 -19.295  1.00  0.00     0.198 C 
HETATM   22  N4  UNL     1     -22.647  20.725 -18.683  1.00  0.00    -0.067 NA
HETATM   23  N5  UNL     1     -24.477  20.262 -20.224  1.00  0.00    -0.067 NA
ATOM     24  H3  UNL     1     -25.279  22.476 -19.501  1.00  0.00     0.163 HD
ENDBRANCH   2  20
BRANCH   7  25
HETATM   25  O3  UNL     1     -24.936  24.468 -20.342  1.00  0.00    -0.391 OA
ATOM     26  H3  UNL     1     -24.262  23.908 -20.709  1.00  0.00     0.210 HD
ENDBRANCH   7  25
BRANCH   6  27
HETATM   27  O2  UNL     1     -22.290  25.134 -20.466  1.00  0.00    -0.368 OA
ATOM     28  H2  UNL     1     -22.636  25.863 -20.969  1.00  0.00     0.212 HD
ENDBRANCH   6  27
TORSDOF 11
ENDMDL
