MODEL 1
REMARK VINA RESULT: -6.707450225      0.000      0.000
REMARK  4 active torsions:
REMARK  status: ('A' for Active; 'I' for Inactive)
REMARK    1  A    between atoms: C2_2  and  C4_4 
REMARK    2  A    between atoms: C8_8  and  C9_9 
REMARK    3  A    between atoms: C9_9  and  O1_10 
REMARK    4  A    between atoms: C9_9  and  C10_12 
ROOT
HETATM    1  C9  UNL     1      93.207  20.604  62.555  1.00  0.00     0.157 C 
ENDROOT
BRANCH   1   2
HETATM    2  C8  UNL     1      93.438  20.345  63.992  1.00  0.00     0.023 C 
HETATM    3  C4  UNL     1      93.049  21.423  64.936  1.00  0.00    -0.004 C 
HETATM    4  C5  UNL     1      91.565  21.524  64.755  1.00  0.00     0.005 C 
HETATM    5  C6  UNL     1      91.167  20.050  64.817  1.00  0.00     0.001 C 
HETATM    6  C7  UNL     1      92.432  19.267  64.445  1.00  0.00     0.008 C 
BRANCH   3   7
HETATM    7  C2  UNL     1      93.792  22.689  64.875  1.00  0.00    -0.018 C 
HETATM    8  C1  UNL     1      94.034  23.187  66.282  1.00  0.00     0.010 C 
HETATM    9  C3  UNL     1      92.843  23.721  64.233  1.00  0.00     0.010 C 
ENDBRANCH   3   7
ENDBRANCH   1   2
BRANCH   1  10
HETATM   10  O1  UNL     1      94.162  21.436  61.966  1.00  0.00    -0.390 OA
ATOM     11  H1  UNL     1      94.077  21.516  61.023  1.00  0.00     0.210 HD
ENDBRANCH   1  10
BRANCH   1  12
HETATM   12  C10 UNL     1      93.224  19.366  61.716  1.00  0.00    -0.009 A 
HETATM   13  C11 UNL     1      94.229  18.441  61.715  1.00  0.00     0.056 A 
HETATM   14  C12 UNL     1      94.128  17.331  60.879  1.00  0.00     0.155 A 
HETATM   15  F1  UNL     1      95.135  16.408  60.881  1.00  0.00    -0.203 F 
HETATM   16  C13 UNL     1      93.042  17.136  60.052  1.00  0.00     0.156 A 
HETATM   17  F2  UNL     1      92.994  16.025  59.250  1.00  0.00    -0.203 F 
HETATM   18  C14 UNL     1      92.030  18.075  60.057  1.00  0.00     0.065 A 
HETATM   19  C15 UNL     1      92.115  19.180  60.879  1.00  0.00     0.022 A 
HETATM   20 BR1  UNL     1      90.680  20.444  60.843  1.00  0.00    -0.050 Br
ENDBRANCH   1  12
TORSDOF 4
ENDMDL
MODEL 2
REMARK VINA RESULT: -6.091077709      4.134      6.532
REMARK  4 active torsions:
REMARK  status: ('A' for Active; 'I' for Inactive)
REMARK    1  A    between atoms: C2_2  and  C4_4 
REMARK    2  A    between atoms: C8_8  and  C9_9 
REMARK    3  A    between atoms: C9_9  and  O1_10 
REMARK    4  A    between atoms: C9_9  and  C10_12 
ROOT
HETATM    1  C9  UNL     1      93.437  21.877  63.394  1.00  0.00     0.157 C 
ENDROOT
BRANCH   1   2
HETATM    2  C8  UNL     1      91.980  21.659  63.280  1.00  0.00     0.023 C 
HETATM    3  C4  UNL     1      91.540  20.369  62.690  1.00  0.00    -0.004 C 
HETATM    4  C5  UNL     1      92.048  19.351  63.666  1.00  0.00     0.005 C 
HETATM    5  C6  UNL     1      91.592  19.968  64.987  1.00  0.00     0.001 C 
HETATM    6  C7  UNL     1      91.419  21.464  64.704  1.00  0.00     0.008 C 
BRANCH   3   7
HETATM    7  C2  UNL     1      91.855  20.118  61.277  1.00  0.00    -0.018 C 
HETATM    8  C1  UNL     1      90.575  20.150  60.473  1.00  0.00     0.010 C 
HETATM    9  C3  UNL     1      92.356  18.663  61.193  1.00  0.00     0.010 C 
ENDBRANCH   3   7
ENDBRANCH   1   2
BRANCH   1  10
HETATM   10  O1  UNL     1      94.143  21.630  62.214  1.00  0.00    -0.390 OA
ATOM     11  H1  UNL     1      93.700  21.043  61.613  1.00  0.00     0.210 HD
ENDBRANCH   1  10
BRANCH   1  12
HETATM   12  C10 UNL     1      93.803  23.280  63.760  1.00  0.00    -0.009 A 
HETATM   13  C11 UNL     1      93.573  24.373  62.975  1.00  0.00     0.056 A 
HETATM   14  C12 UNL     1      93.970  25.630  63.429  1.00  0.00     0.155 A 
HETATM   15  F1  UNL     1      93.738  26.721  62.641  1.00  0.00    -0.203 F 
HETATM   16  C13 UNL     1      94.589  25.804  64.649  1.00  0.00     0.156 A 
HETATM   17  F2  UNL     1      94.959  27.062  65.046  1.00  0.00    -0.203 F 
HETATM   18  C14 UNL     1      94.819  24.694  65.437  1.00  0.00     0.065 A 
HETATM   19  C15 UNL     1      94.432  23.442  65.002  1.00  0.00     0.022 A 
HETATM   20 BR1  UNL     1      94.777  21.945  66.140  1.00  0.00    -0.050 Br
ENDBRANCH   1  12
TORSDOF 4
ENDMDL
MODEL 3
REMARK VINA RESULT: -6.079448289      2.727      4.270
REMARK  4 active torsions:
REMARK  status: ('A' for Active; 'I' for Inactive)
REMARK    1  A    between atoms: C2_2  and  C4_4 
REMARK    2  A    between atoms: C8_8  and  C9_9 
REMARK    3  A    between atoms: C9_9  and  O1_10 
REMARK    4  A    between atoms: C9_9  and  C10_12 
ROOT
HETATM    1  C9  UNL     1      94.409  22.067  65.347  1.00  0.00     0.157 C 
ENDROOT
BRANCH   1   2
HETATM    2  C8  UNL     1      93.583  23.246  65.676  1.00  0.00     0.023 C 
HETATM    3  C4  UNL     1      94.243  24.330  66.449  1.00  0.00    -0.004 C 
HETATM    4  C5  UNL     1      95.321  24.809  65.523  1.00  0.00     0.005 C 
HETATM    5  C6  UNL     1      94.537  24.947  64.219  1.00  0.00     0.001 C 
HETATM    6  C7  UNL     1      93.324  24.022  64.368  1.00  0.00     0.008 C 
BRANCH   3   7
HETATM    7  C2  UNL     1      94.663  24.033  67.825  1.00  0.00    -0.018 C 
HETATM    8  C1  UNL     1      94.063  25.061  68.757  1.00  0.00     0.010 C 
HETATM    9  C3  UNL     1      96.186  24.270  67.877  1.00  0.00     0.010 C 
ENDBRANCH   3   7
ENDBRANCH   1   2
BRANCH   1  10
HETATM   10  O1  UNL     1      94.768  21.295  66.454  1.00  0.00    -0.390 OA
ATOM     11  H1  UNL     1      95.446  21.683  66.995  1.00  0.00     0.210 HD
ENDBRANCH   1  10
BRANCH   1  12
HETATM   12  C10 UNL     1      93.731  21.103  64.426  1.00  0.00    -0.009 A 
HETATM   13  C11 UNL     1      92.576  20.434  64.714  1.00  0.00     0.056 A 
HETATM   14  C12 UNL     1      92.048  19.555  63.770  1.00  0.00     0.155 A 
HETATM   15  F1  UNL     1      90.892  18.889  64.063  1.00  0.00    -0.203 F 
HETATM   16  C13 UNL     1      92.656  19.339  62.552  1.00  0.00     0.156 A 
HETATM   17  F2  UNL     1      92.093  18.463  61.660  1.00  0.00    -0.203 F 
HETATM   18  C14 UNL     1      93.824  20.018  62.268  1.00  0.00     0.065 A 
HETATM   19  C15 UNL     1      94.361  20.892  63.191  1.00  0.00     0.022 A 
HETATM   20 BR1  UNL     1      95.980  21.803  62.737  1.00  0.00    -0.050 Br
ENDBRANCH   1  12
TORSDOF 4
ENDMDL
MODEL 4
REMARK VINA RESULT: -6.000147073      3.633      4.902
REMARK  4 active torsions:
REMARK  status: ('A' for Active; 'I' for Inactive)
REMARK    1  A    between atoms: C2_2  and  C4_4 
REMARK    2  A    between atoms: C8_8  and  C9_9 
REMARK    3  A    between atoms: C9_9  and  O1_10 
REMARK    4  A    between atoms: C9_9  and  C10_12 
ROOT
HETATM    1  C9  UNL     1      94.299  22.883  62.988  1.00  0.00     0.157 C 
ENDROOT
BRANCH   1   2
HETATM    2  C8  UNL     1      95.610  22.521  62.411  1.00  0.00     0.023 C 
HETATM    3  C4  UNL     1      96.555  23.636  62.146  1.00  0.00    -0.004 C 
HETATM    4  C5  UNL     1      96.828  24.189  63.512  1.00  0.00     0.005 C 
HETATM    5  C6  UNL     1      97.107  22.905  64.292  1.00  0.00     0.001 C 
HETATM    6  C7  UNL     1      96.419  21.787  63.500  1.00  0.00     0.008 C 
BRANCH   3   7
HETATM    7  C2  UNL     1      96.187  24.618  61.117  1.00  0.00    -0.018 C 
HETATM    8  C1  UNL     1      97.190  24.550  59.989  1.00  0.00     0.010 C 
HETATM    9  C3  UNL     1      96.377  26.009  61.753  1.00  0.00     0.010 C 
ENDBRANCH   3   7
ENDBRANCH   1   2
BRANCH   1  10
HETATM   10  O1  UNL     1      93.489  23.636  62.135  1.00  0.00    -0.390 OA
ATOM     11  H1  UNL     1      93.969  24.222  61.561  1.00  0.00     0.210 HD
ENDBRANCH   1  10
BRANCH   1  12
HETATM   12  C10 UNL     1      93.459  21.698  63.348  1.00  0.00    -0.009 A 
HETATM   13  C11 UNL     1      93.020  20.758  62.461  1.00  0.00     0.056 A 
HETATM   14  C12 UNL     1      92.236  19.703  62.923  1.00  0.00     0.155 A 
HETATM   15  F1  UNL     1      91.799  18.764  62.032  1.00  0.00    -0.203 F 
HETATM   16  C13 UNL     1      91.888  19.579  64.252  1.00  0.00     0.156 A 
HETATM   17  F2  UNL     1      91.114  18.521  64.653  1.00  0.00    -0.203 F 
HETATM   18  C14 UNL     1      92.335  20.534  65.143  1.00  0.00     0.065 A 
HETATM   19  C15 UNL     1      93.113  21.585  64.702  1.00  0.00     0.022 A 
HETATM   20 BR1  UNL     1      93.701  22.874  65.985  1.00  0.00    -0.050 Br
ENDBRANCH   1  12
TORSDOF 4
ENDMDL
MODEL 5
REMARK VINA RESULT: -5.900337855      2.208      3.039
REMARK  4 active torsions:
REMARK  status: ('A' for Active; 'I' for Inactive)
REMARK    1  A    between atoms: C2_2  and  C4_4 
REMARK    2  A    between atoms: C8_8  and  C9_9 
REMARK    3  A    between atoms: C9_9  and  O1_10 
REMARK    4  A    between atoms: C9_9  and  C10_12 
ROOT
HETATM    1  C9  UNL     1      94.459  22.374  63.333  1.00  0.00     0.157 C 
ENDROOT
BRANCH   1   2
HETATM    2  C8  UNL     1      95.269  22.073  64.532  1.00  0.00     0.023 C 
HETATM    3  C4  UNL     1      95.862  23.232  65.246  1.00  0.00    -0.004 C 
HETATM    4  C5  UNL     1      94.664  23.996  65.723  1.00  0.00     0.005 C 
HETATM    5  C6  UNL     1      93.825  22.869  66.323  1.00  0.00     0.001 C 
HETATM    6  C7  UNL     1      94.311  21.586  65.639  1.00  0.00     0.008 C 
BRANCH   3   7
HETATM    7  C2  UNL     1      96.889  24.017  64.547  1.00  0.00    -0.018 C 
HETATM    8  C1  UNL     1      98.120  24.107  65.419  1.00  0.00     0.010 C 
HETATM    9  C3  UNL     1      96.347  25.457  64.452  1.00  0.00     0.010 C 
ENDBRANCH   3   7
ENDBRANCH   1   2
BRANCH   1  10
HETATM   10  O1  UNL     1      95.191  22.910  62.271  1.00  0.00    -0.390 OA
ATOM     11  H1  UNL     1      95.262  23.858  62.289  1.00  0.00     0.210 HD
ENDBRANCH   1  10
BRANCH   1  12
HETATM   12  C10 UNL     1      93.786  21.172  62.751  1.00  0.00    -0.009 A 
HETATM   13  C11 UNL     1      94.439  20.076  62.263  1.00  0.00     0.056 A 
HETATM   14  C12 UNL     1      93.694  19.021  61.739  1.00  0.00     0.155 A 
HETATM   15  F1  UNL     1      94.351  17.927  61.251  1.00  0.00    -0.203 F 
HETATM   16  C13 UNL     1      92.316  19.049  61.698  1.00  0.00     0.156 A 
HETATM   17  F2  UNL     1      91.633  17.983  61.172  1.00  0.00    -0.203 F 
HETATM   18  C14 UNL     1      91.663  20.160  62.193  1.00  0.00     0.065 A 
HETATM   19  C15 UNL     1      92.385  21.213  62.715  1.00  0.00     0.022 A 
HETATM   20 BR1  UNL     1      91.423  22.723  63.387  1.00  0.00    -0.050 Br
ENDBRANCH   1  12
TORSDOF 4
ENDMDL
