MODEL 1
REMARK VINA RESULT: -6.746681669      0.000      0.000
REMARK  4 active torsions:
REMARK  status: ('A' for Active; 'I' for Inactive)
REMARK    1  A    between atoms: C2_2  and  C3_3 
REMARK    2  A    between atoms: C4_4  and  C5_5 
REMARK    3  A    between atoms: C6_6  and  C7_7 
REMARK    4  A    between atoms: N1_15  and  O1_17 
ROOT
HETATM    1  C5  UNL     1      93.920  20.686  62.714  1.00  0.00    -0.029 A 
HETATM    2  C6  UNL     1      93.210  21.118  63.732  1.00  0.00    -0.032 A 
HETATM    3  C8  UNL     1      94.109  21.925  64.579  1.00  0.00     0.077 A 
HETATM    4  C9  UNL     1      94.175  21.397  65.997  1.00  0.00     0.039 C 
HETATM    5 BR1  UNL     1      93.551  23.783  64.618  1.00  0.00    -0.074 Br
HETATM    6  C10 UNL     1      95.408  21.886  63.901  1.00  0.00     0.036 A 
HETATM    7 CL2  UNL     1      96.910  22.683  64.447  1.00  0.00    -0.087 Cl
HETATM    8  C11 UNL     1      95.290  21.160  62.812  1.00  0.00     0.033 A 
ENDROOT
BRANCH   1   9
HETATM    9  C4  UNL     1      93.405  19.837  61.617  1.00  0.00     0.014 C 
HETATM   10  C3  UNL     1      93.750  18.550  61.557  1.00  0.00     0.027 C 
BRANCH  10  11
HETATM   11  C2  UNL     1      93.265  17.679  60.494  1.00  0.00     0.028 C 
HETATM   12  C1  UNL     1      91.909  17.780  59.922  1.00  0.00     0.070 C 
HETATM   13  N1  UNL     1      94.058  16.785  60.036  1.00  0.00    -0.274 N 
ATOM     14  H1  UNL     1      94.992  16.730  60.444  1.00  0.00     0.193 HD
BRANCH  13  15
HETATM   15  O1  UNL     1      93.754  15.905  59.053  1.00  0.00    -0.290 OA
ATOM     16  H1  UNL     1      94.369  15.567  58.414  1.00  0.00     0.244 HD
ENDBRANCH  13  15
ENDBRANCH  10  11
ENDBRANCH   1   9
BRANCH   2  17
HETATM   17  C7  UNL     1      91.761  20.826  63.957  1.00  0.00     0.151 C 
HETATM   18 CL1  UNL     1      91.504  19.205  64.617  1.00  0.00    -0.126 Cl
ENDBRANCH   2  17
TORSDOF 4
ENDMDL
MODEL 2
REMARK VINA RESULT: -6.225672977      1.433      1.487
REMARK  4 active torsions:
REMARK  status: ('A' for Active; 'I' for Inactive)
REMARK    1  A    between atoms: C2_2  and  C3_3 
REMARK    2  A    between atoms: C4_4  and  C5_5 
REMARK    3  A    between atoms: C6_6  and  C7_7 
REMARK    4  A    between atoms: N1_15  and  O1_17 
ROOT
HETATM    1  C5  UNL     1      94.228  21.208  62.815  1.00  0.00    -0.029 A 
HETATM    2  C6  UNL     1      93.286  21.964  63.334  1.00  0.00    -0.032 A 
HETATM    3  C8  UNL     1      93.874  23.298  63.560  1.00  0.00     0.077 A 
HETATM    4  C9  UNL     1      93.772  23.721  65.011  1.00  0.00     0.039 C 
HETATM    5 BR1  UNL     1      93.020  24.636  62.445  1.00  0.00    -0.074 Br
HETATM    6  C10 UNL     1      95.262  23.185  63.101  1.00  0.00     0.036 A 
HETATM    7 CL2  UNL     1      96.490  24.482  63.121  1.00  0.00    -0.087 Cl
HETATM    8  C11 UNL     1      95.462  21.962  62.667  1.00  0.00     0.033 A 
ENDROOT
BRANCH   1   9
HETATM    9  C4  UNL     1      94.065  19.788  62.432  1.00  0.00     0.014 C 
HETATM   10  C3  UNL     1      93.453  19.475  61.289  1.00  0.00     0.027 C 
BRANCH  10  11
HETATM   11  C2  UNL     1      93.272  18.090  60.874  1.00  0.00     0.028 C 
HETATM   12  C1  UNL     1      92.162  17.644  60.011  1.00  0.00     0.070 C 
HETATM   13  N1  UNL     1      94.119  17.222  61.282  1.00  0.00    -0.274 N 
ATOM     14  H1  UNL     1      94.879  17.549  61.878  1.00  0.00     0.193 HD
BRANCH  13  15
HETATM   15  O1  UNL     1      94.085  15.902  60.983  1.00  0.00    -0.290 OA
ATOM     16  H1  UNL     1      93.457  15.490  60.402  1.00  0.00     0.244 HD
ENDBRANCH  13  15
ENDBRANCH  10  11
ENDBRANCH   1   9
BRANCH   2  17
HETATM   17  C7  UNL     1      91.889  21.520  63.626  1.00  0.00     0.151 C 
HETATM   18 CL1  UNL     1      91.803  20.498  65.067  1.00  0.00    -0.126 Cl
ENDBRANCH   2  17
TORSDOF 4
ENDMDL
MODEL 3
REMARK VINA RESULT: -5.945202870      1.534      1.558
REMARK  4 active torsions:
REMARK  status: ('A' for Active; 'I' for Inactive)
REMARK    1  A    between atoms: C2_2  and  C3_3 
REMARK    2  A    between atoms: C4_4  and  C5_5 
REMARK    3  A    between atoms: C6_6  and  C7_7 
REMARK    4  A    between atoms: N1_15  and  O1_17 
ROOT
HETATM    1  C5  UNL     1      93.800  21.234  63.198  1.00  0.00    -0.029 A 
HETATM    2  C6  UNL     1      93.226  21.550  64.337  1.00  0.00    -0.032 A 
HETATM    3  C8  UNL     1      94.278  22.094  65.218  1.00  0.00     0.077 A 
HETATM    4  C9  UNL     1      94.388  21.319  66.514  1.00  0.00     0.039 C 
HETATM    5 BR1  UNL     1      93.953  23.965  65.621  1.00  0.00    -0.074 Br
HETATM    6  C10 UNL     1      95.507  22.040  64.421  1.00  0.00     0.036 A 
HETATM    7 CL2  UNL     1      97.132  22.564  64.947  1.00  0.00    -0.087 Cl
HETATM    8  C11 UNL     1      95.220  21.536  63.242  1.00  0.00     0.033 A 
ENDROOT
BRANCH   1   9
HETATM    9  C4  UNL     1      93.105  20.652  62.028  1.00  0.00     0.014 C 
HETATM   10  C3  UNL     1      93.244  19.355  61.751  1.00  0.00     0.027 C 
BRANCH  10  11
HETATM   11  C2  UNL     1      92.577  18.743  60.610  1.00  0.00     0.028 C 
HETATM   12  C1  UNL     1      92.727  17.318  60.255  1.00  0.00     0.070 C 
HETATM   13  N1  UNL     1      91.826  19.480  59.882  1.00  0.00    -0.274 N 
ATOM     14  H1  UNL     1      91.735  20.462  60.143  1.00  0.00     0.193 HD
BRANCH  13  15
HETATM   15  O1  UNL     1      91.142  19.058  58.793  1.00  0.00    -0.290 OA
ATOM     16  H1  UNL     1      91.536  18.793  57.970  1.00  0.00     0.244 HD
ENDBRANCH  13  15
ENDBRANCH  10  11
ENDBRANCH   1   9
BRANCH   2  17
HETATM   17  C7  UNL     1      91.774  21.377  64.648  1.00  0.00     0.151 C 
HETATM   18 CL1  UNL     1      91.377  19.704  65.061  1.00  0.00    -0.126 Cl
ENDBRANCH   2  17
TORSDOF 4
ENDMDL
MODEL 4
REMARK VINA RESULT: -5.819855377      1.618      3.044
REMARK  4 active torsions:
REMARK  status: ('A' for Active; 'I' for Inactive)
REMARK    1  A    between atoms: C2_2  and  C3_3 
REMARK    2  A    between atoms: C4_4  and  C5_5 
REMARK    3  A    between atoms: C6_6  and  C7_7 
REMARK    4  A    between atoms: N1_15  and  O1_17 
ROOT
HETATM    1  C5  UNL     1      93.241  20.886  63.098  1.00  0.00    -0.029 A 
HETATM    2  C6  UNL     1      93.907  22.011  63.226  1.00  0.00    -0.032 A 
HETATM    3  C8  UNL     1      93.065  22.929  64.015  1.00  0.00     0.077 A 
HETATM    4  C9  UNL     1      92.784  24.219  63.271  1.00  0.00     0.039 C 
HETATM    5 BR1  UNL     1      93.890  23.345  65.721  1.00  0.00    -0.074 Br
HETATM    6  C10 UNL     1      91.845  22.170  64.308  1.00  0.00     0.036 A 
HETATM    7 CL2  UNL     1      90.436  22.751  65.238  1.00  0.00    -0.087 Cl
HETATM    8  C11 UNL     1      91.955  20.977  63.769  1.00  0.00     0.033 A 
ENDROOT
BRANCH   1   9
HETATM    9  C4  UNL     1      93.723  19.688  62.374  1.00  0.00     0.014 C 
HETATM   10  C3  UNL     1      92.884  18.999  61.599  1.00  0.00     0.027 C 
BRANCH  10  11
HETATM   11  C2  UNL     1      93.319  17.815  60.870  1.00  0.00     0.028 C 
HETATM   12  C1  UNL     1      92.580  17.257  59.721  1.00  0.00     0.070 C 
HETATM   13  N1  UNL     1      94.395  17.233  61.247  1.00  0.00    -0.274 N 
ATOM     14  H1  UNL     1      94.892  17.633  62.043  1.00  0.00     0.193 HD
BRANCH  13  15
HETATM   15  O1  UNL     1      94.924  16.128  60.673  1.00  0.00    -0.290 OA
ATOM     16  H1  UNL     1      94.956  15.961  59.739  1.00  0.00     0.244 HD
ENDBRANCH  13  15
ENDBRANCH  10  11
ENDBRANCH   1   9
BRANCH   2  17
HETATM   17  C7  UNL     1      95.267  22.275  62.664  1.00  0.00     0.151 C 
HETATM   18 CL1  UNL     1      96.553  21.777  63.772  1.00  0.00    -0.126 Cl
ENDBRANCH   2  17
TORSDOF 4
ENDMDL
MODEL 5
REMARK VINA RESULT: -5.723229867      1.770      1.833
REMARK  4 active torsions:
REMARK  status: ('A' for Active; 'I' for Inactive)
REMARK    1  A    between atoms: C2_2  and  C3_3 
REMARK    2  A    between atoms: C4_4  and  C5_5 
REMARK    3  A    between atoms: C6_6  and  C7_7 
REMARK    4  A    between atoms: N1_15  and  O1_17 
ROOT
HETATM    1  C5  UNL     1      93.553  20.893  63.071  1.00  0.00    -0.029 A 
HETATM    2  C6  UNL     1      93.010  20.964  64.266  1.00  0.00    -0.032 A 
HETATM    3  C8  UNL     1      92.801  22.393  64.565  1.00  0.00     0.077 A 
HETATM    4  C9  UNL     1      93.506  22.814  65.838  1.00  0.00     0.039 C 
HETATM    5 BR1  UNL     1      90.911  22.807  64.717  1.00  0.00    -0.074 Br
HETATM    6  C10 UNL     1      93.297  23.106  63.383  1.00  0.00     0.036 A 
HETATM    7 CL2  UNL     1      93.314  24.876  63.145  1.00  0.00    -0.087 Cl
HETATM    8  C11 UNL     1      93.735  22.222  62.515  1.00  0.00     0.033 A 
ENDROOT
BRANCH   1   9
HETATM    9  C4  UNL     1      93.928  19.638  62.381  1.00  0.00     0.014 C 
HETATM   10  C3  UNL     1      93.064  19.054  61.550  1.00  0.00     0.027 C 
BRANCH  10  11
HETATM   11  C2  UNL     1      93.394  17.820  60.850  1.00  0.00     0.028 C 
HETATM   12  C1  UNL     1      92.573  17.266  59.757  1.00  0.00     0.070 C 
HETATM   13  N1  UNL     1      94.449  17.187  61.205  1.00  0.00    -0.274 N 
ATOM     14  H1  UNL     1      95.004  17.586  61.963  1.00  0.00     0.193 HD
BRANCH  13  15
HETATM   15  O1  UNL     1      94.886  16.032  60.653  1.00  0.00    -0.290 OA
ATOM     16  H1  UNL     1      94.780  15.170  61.036  1.00  0.00     0.244 HD
ENDBRANCH  13  15
ENDBRANCH  10  11
ENDBRANCH   1   9
BRANCH   2  17
HETATM   17  C7  UNL     1      92.678  19.792  65.133  1.00  0.00     0.151 C 
HETATM   18 CL1  UNL     1      91.171  19.008  64.643  1.00  0.00    -0.126 Cl
ENDBRANCH   2  17
TORSDOF 4
ENDMDL
