MODEL 1
REMARK VINA RESULT: -8.395194785      0.000      0.000
REMARK  3 active torsions:
REMARK  status: ('A' for Active; 'I' for Inactive)
REMARK    1  A    between atoms: C3_3  and  C4_4 
REMARK    2  A    between atoms: C11_14  and  C12_15 
REMARK    3  A    between atoms: C12_15  and  C13_16 
ROOT
HETATM    1  C1  UNL     1      91.335  19.189  64.812  1.00  0.00     0.069 C 
HETATM    2  C2  UNL     1      92.486  20.090  64.656  1.00  0.00     0.015 C 
HETATM    3  C3  UNL     1      93.049  20.389  63.502  1.00  0.00    -0.025 C 
HETATM    4  C10 UNL     1      94.244  21.290  63.385  1.00  0.00     0.055 C 
HETATM    5  C11 UNL     1      94.088  22.411  64.476  1.00  0.00     0.083 C 
HETATM    6  C18 UNL     1      94.150  21.607  65.694  1.00  0.00     0.226 C 
HETATM    7  O1  UNL     1      95.009  21.611  66.556  1.00  0.00    -0.273 OA
HETATM    8  N1  UNL     1      93.023  20.699  65.850  1.00  0.00    -0.330 N 
ATOM      9  H1  UNL     1      92.626  20.500  66.769  1.00  0.00     0.168 HD
ENDROOT
BRANCH   3  10
HETATM   10  C4  UNL     1      92.572  19.842  62.248  1.00  0.00    -0.023 A 
HETATM   11  C5  UNL     1      91.594  20.480  61.513  1.00  0.00     0.057 A 
HETATM   12  C6  UNL     1      91.146  20.006  60.308  1.00  0.00     0.157 A 
HETATM   13  F1  UNL     1      90.194  20.644  59.608  1.00  0.00    -0.203 F 
HETATM   14  C7  UNL     1      91.692  18.850  59.813  1.00  0.00     0.176 A 
HETATM   15  F2  UNL     1      91.241  18.387  58.614  1.00  0.00    -0.201 F 
HETATM   16  C8  UNL     1      92.675  18.169  60.505  1.00  0.00     0.076 A 
HETATM   17 CL1  UNL     1      93.347  16.697  59.840  1.00  0.00    -0.081 Cl
HETATM   18  C9  UNL     1      93.097  18.693  61.730  1.00  0.00     0.039 A 
ENDBRANCH   3  10
BRANCH   5  19
HETATM   19  C12 UNL     1      95.066  23.449  64.166  1.00  0.00     0.019 C 
BRANCH  19  20
HETATM   20  C13 UNL     1      94.582  24.637  63.434  1.00  0.00    -0.014 C 
HETATM   21  C14 UNL     1      93.044  24.475  63.342  1.00  0.00     0.005 C 
HETATM   22  C15 UNL     1      92.693  24.888  61.963  1.00  0.00     0.000 C 
HETATM   23  C16 UNL     1      93.837  25.759  61.505  1.00  0.00     0.000 C 
HETATM   24  C17 UNL     1      95.008  24.862  62.028  1.00  0.00     0.005 C 
ENDBRANCH  19  20
ENDBRANCH   5  19
TORSDOF 3
ENDMDL
MODEL 2
REMARK VINA RESULT: -8.320457898      1.745      2.467
REMARK  3 active torsions:
REMARK  status: ('A' for Active; 'I' for Inactive)
REMARK    1  A    between atoms: C3_3  and  C4_4 
REMARK    2  A    between atoms: C11_14  and  C12_15 
REMARK    3  A    between atoms: C12_15  and  C13_16 
ROOT
HETATM    1  C1  UNL     1      91.871  20.103  65.053  1.00  0.00     0.069 C 
HETATM    2  C2  UNL     1      92.630  21.284  64.618  1.00  0.00     0.015 C 
HETATM    3  C3  UNL     1      93.022  21.505  63.378  1.00  0.00    -0.025 C 
HETATM    4  C10 UNL     1      93.823  22.710  62.978  1.00  0.00     0.055 C 
HETATM    5  C11 UNL     1      93.316  23.915  63.848  1.00  0.00     0.083 C 
HETATM    6  C18 UNL     1      93.688  23.454  65.184  1.00  0.00     0.226 C 
HETATM    7  O1  UNL     1      94.515  23.927  65.941  1.00  0.00    -0.273 OA
HETATM    8  N1  UNL     1      92.953  22.274  65.617  1.00  0.00    -0.330 N 
ATOM      9  H1  UNL     1      92.676  22.152  66.592  1.00  0.00     0.168 HD
ENDROOT
BRANCH   3  10
HETATM   10  C4  UNL     1      92.731  20.579  62.302  1.00  0.00    -0.023 A 
HETATM   11  C5  UNL     1      93.559  19.509  62.034  1.00  0.00     0.057 A 
HETATM   12  C6  UNL     1      93.293  18.597  61.046  1.00  0.00     0.157 A 
HETATM   13  F1  UNL     1      94.112  17.561  60.803  1.00  0.00    -0.203 F 
HETATM   14  C7  UNL     1      92.160  18.757  60.293  1.00  0.00     0.176 A 
HETATM   15  F2  UNL     1      91.904  17.845  59.313  1.00  0.00    -0.201 F 
HETATM   16  C8  UNL     1      91.293  19.811  60.516  1.00  0.00     0.076 A 
HETATM   17 CL1  UNL     1      89.857  19.980  59.533  1.00  0.00    -0.081 Cl
HETATM   18  C9  UNL     1      91.609  20.713  61.535  1.00  0.00     0.039 A 
ENDBRANCH   3  10
BRANCH   5  19
HETATM   19  C12 UNL     1      93.862  25.132  63.255  1.00  0.00     0.019 C 
BRANCH  19  20
HETATM   20  C13 UNL     1      93.303  25.560  61.956  1.00  0.00    -0.014 C 
HETATM   21  C14 UNL     1      94.523  25.774  61.025  1.00  0.00     0.005 C 
HETATM   22  C15 UNL     1      94.226  27.018  60.277  1.00  0.00     0.000 C 
HETATM   23  C16 UNL     1      92.726  27.175  60.345  1.00  0.00     0.000 C 
HETATM   24  C17 UNL     1      92.547  26.836  61.862  1.00  0.00     0.005 C 
ENDBRANCH  19  20
ENDBRANCH   5  19
TORSDOF 3
ENDMDL
MODEL 3
REMARK VINA RESULT: -8.286375476      1.112      1.626
REMARK  3 active torsions:
REMARK  status: ('A' for Active; 'I' for Inactive)
REMARK    1  A    between atoms: C3_3  and  C4_4 
REMARK    2  A    between atoms: C11_14  and  C12_15 
REMARK    3  A    between atoms: C12_15  and  C13_16 
ROOT
HETATM    1  C1  UNL     1      91.611  19.992  64.976  1.00  0.00     0.069 C 
HETATM    2  C2  UNL     1      92.421  21.148  64.566  1.00  0.00     0.015 C 
HETATM    3  C3  UNL     1      92.790  21.399  63.325  1.00  0.00    -0.025 C 
HETATM    4  C10 UNL     1      93.644  22.574  62.949  1.00  0.00     0.055 C 
HETATM    5  C11 UNL     1      93.229  23.768  63.882  1.00  0.00     0.083 C 
HETATM    6  C18 UNL     1      93.612  23.233  65.186  1.00  0.00     0.226 C 
HETATM    7  O1  UNL     1      94.484  23.629  65.936  1.00  0.00    -0.273 OA
HETATM    8  N1  UNL     1      92.826  22.077  65.594  1.00  0.00    -0.330 N 
ATOM      9  H1  UNL     1      92.570  21.929  66.571  1.00  0.00     0.168 HD
ENDROOT
BRANCH   3  10
HETATM   10  C4  UNL     1      92.419  20.535  62.222  1.00  0.00    -0.023 A 
HETATM   11  C5  UNL     1      91.331  20.820  61.423  1.00  0.00     0.057 A 
HETATM   12  C6  UNL     1      90.976  20.041  60.353  1.00  0.00     0.157 A 
HETATM   13  F1  UNL     1      89.913  20.337  59.587  1.00  0.00    -0.203 F 
HETATM   14  C7  UNL     1      91.732  18.935  60.066  1.00  0.00     0.176 A 
HETATM   15  F2  UNL     1      91.371  18.167  58.999  1.00  0.00    -0.201 F 
HETATM   16  C8  UNL     1      92.833  18.601  60.831  1.00  0.00     0.076 A 
HETATM   17 CL1  UNL     1      93.772  17.181  60.432  1.00  0.00    -0.081 Cl
HETATM   18  C9  UNL     1      93.154  19.426  61.912  1.00  0.00     0.039 A 
ENDBRANCH   3  10
BRANCH   5  19
HETATM   19  C12 UNL     1      93.823  24.977  63.321  1.00  0.00     0.019 C 
BRANCH  19  20
HETATM   20  C13 UNL     1      93.322  25.431  62.008  1.00  0.00    -0.014 C 
HETATM   21  C14 UNL     1      94.580  25.629  61.125  1.00  0.00     0.005 C 
HETATM   22  C15 UNL     1      94.336  26.888  60.380  1.00  0.00     0.000 C 
HETATM   23  C16 UNL     1      92.838  27.075  60.395  1.00  0.00     0.000 C 
HETATM   24  C17 UNL     1      92.596  26.723  61.901  1.00  0.00     0.005 C 
ENDBRANCH  19  20
ENDBRANCH   5  19
TORSDOF 3
ENDMDL
MODEL 4
REMARK VINA RESULT: -8.131508916      1.417      1.897
REMARK  3 active torsions:
REMARK  status: ('A' for Active; 'I' for Inactive)
REMARK    1  A    between atoms: C3_3  and  C4_4 
REMARK    2  A    between atoms: C11_14  and  C12_15 
REMARK    3  A    between atoms: C12_15  and  C13_16 
ROOT
HETATM    1  C1  UNL     1      91.719  19.798  65.087  1.00  0.00     0.069 C 
HETATM    2  C2  UNL     1      92.866  20.683  64.836  1.00  0.00     0.015 C 
HETATM    3  C3  UNL     1      93.463  20.818  63.668  1.00  0.00    -0.025 C 
HETATM    4  C10 UNL     1      94.653  21.709  63.457  1.00  0.00     0.055 C 
HETATM    5  C11 UNL     1      94.452  22.974  64.367  1.00  0.00     0.083 C 
HETATM    6  C18 UNL     1      94.482  22.358  65.691  1.00  0.00     0.226 C 
HETATM    7  O1  UNL     1      95.313  22.499  66.569  1.00  0.00    -0.273 OA
HETATM    8  N1  UNL     1      93.359  21.466  65.944  1.00  0.00    -0.330 N 
ATOM      9  H1  UNL     1      92.935  21.399  66.869  1.00  0.00     0.168 HD
ENDROOT
BRANCH   3  10
HETATM   10  C4  UNL     1      93.032  20.088  62.494  1.00  0.00    -0.023 A 
HETATM   11  C5  UNL     1      93.737  18.997  62.028  1.00  0.00     0.057 A 
HETATM   12  C6  UNL     1      93.335  18.266  60.941  1.00  0.00     0.157 A 
HETATM   13  F1  UNL     1      94.035  17.206  60.506  1.00  0.00    -0.203 F 
HETATM   14  C7  UNL     1      92.187  18.635  60.289  1.00  0.00     0.176 A 
HETATM   15  F2  UNL     1      91.796  17.901  59.209  1.00  0.00    -0.201 F 
HETATM   16  C8  UNL     1      91.441  19.719  60.710  1.00  0.00     0.076 A 
HETATM   17 CL1  UNL     1      89.982  20.158  59.851  1.00  0.00    -0.081 Cl
HETATM   18  C9  UNL     1      91.892  20.432  61.823  1.00  0.00     0.039 A 
ENDBRANCH   3  10
BRANCH   5  19
HETATM   19  C12 UNL     1      95.430  23.969  63.939  1.00  0.00     0.019 C 
BRANCH  19  20
HETATM   20  C13 UNL     1      94.937  25.091  63.114  1.00  0.00    -0.014 C 
HETATM   21  C14 UNL     1      93.394  25.070  63.257  1.00  0.00     0.005 C 
HETATM   22  C15 UNL     1      92.875  25.328  61.893  1.00  0.00     0.000 C 
HETATM   23  C16 UNL     1      94.003  26.013  61.161  1.00  0.00     0.000 C 
HETATM   24  C17 UNL     1      95.165  25.084  61.645  1.00  0.00     0.005 C 
ENDBRANCH  19  20
ENDBRANCH   5  19
TORSDOF 3
ENDMDL
MODEL 5
REMARK VINA RESULT: -8.067551640      1.951      2.524
REMARK  3 active torsions:
REMARK  status: ('A' for Active; 'I' for Inactive)
REMARK    1  A    between atoms: C3_3  and  C4_4 
REMARK    2  A    between atoms: C11_14  and  C12_15 
REMARK    3  A    between atoms: C12_15  and  C13_16 
ROOT
HETATM    1  C1  UNL     1      92.089  20.456  64.968  1.00  0.00     0.069 C 
HETATM    2  C2  UNL     1      93.381  20.963  64.482  1.00  0.00     0.015 C 
HETATM    3  C3  UNL     1      93.824  20.818  63.249  1.00  0.00    -0.025 C 
HETATM    4  C10 UNL     1      95.163  21.323  62.797  1.00  0.00     0.055 C 
HETATM    5  C11 UNL     1      95.428  22.674  63.552  1.00  0.00     0.083 C 
HETATM    6  C18 UNL     1      95.481  22.202  64.934  1.00  0.00     0.226 C 
HETATM    7  O1  UNL     1      96.433  22.191  65.691  1.00  0.00    -0.273 OA
HETATM    8  N1  UNL     1      94.210  21.682  65.419  1.00  0.00    -0.330 N 
ATOM      9  H1  UNL     1      93.917  21.821  66.387  1.00  0.00     0.168 HD
ENDROOT
BRANCH   3  10
HETATM   10  C4  UNL     1      93.057  20.126  62.232  1.00  0.00    -0.023 A 
HETATM   11  C5  UNL     1      91.868  20.640  61.757  1.00  0.00     0.057 A 
HETATM   12  C6  UNL     1      91.138  20.028  60.773  1.00  0.00     0.157 A 
HETATM   13  F1  UNL     1      89.983  20.546  60.324  1.00  0.00    -0.203 F 
HETATM   14  C7  UNL     1      91.608  18.856  60.239  1.00  0.00     0.176 A 
HETATM   15  F2  UNL     1      90.875  18.255  59.260  1.00  0.00    -0.201 F 
HETATM   16  C8  UNL     1      92.794  18.295  60.675  1.00  0.00     0.076 A 
HETATM   17 CL1  UNL     1      93.360  16.799  59.968  1.00  0.00    -0.081 Cl
HETATM   18  C9  UNL     1      93.501  18.958  61.681  1.00  0.00     0.039 A 
ENDBRANCH   3  10
BRANCH   5  19
HETATM   19  C12 UNL     1      96.562  23.317  62.897  1.00  0.00     0.019 C 
BRANCH  19  20
HETATM   20  C13 UNL     1      96.818  22.961  61.486  1.00  0.00    -0.014 C 
HETATM   21  C14 UNL     1      98.266  22.409  61.448  1.00  0.00     0.005 C 
HETATM   22  C15 UNL     1      98.871  22.991  60.226  1.00  0.00     0.000 C 
HETATM   23  C16 UNL     1      97.704  23.362  59.343  1.00  0.00     0.000 C 
HETATM   24  C17 UNL     1      96.806  24.020  60.443  1.00  0.00     0.005 C 
ENDBRANCH  19  20
ENDBRANCH   5  19
TORSDOF 3
ENDMDL
