MODEL 1
REMARK VINA RESULT: -6.566145720      0.000      0.000
REMARK  7 active torsions:
REMARK  status: ('A' for Active; 'I' for Inactive)
REMARK    1  A    between atoms: C2_2  and  C3_3 
REMARK    2  A    between atoms: C3_3  and  N1_5 
REMARK    3  A    between atoms: C5_6  and  N2_7 
REMARK    4  A    between atoms: C7_9  and  O1_10 
REMARK    5  A    between atoms: N3_12  and  C8_13 
REMARK    6  A    between atoms: C8_13  and  C9_14 
REMARK    7  A    between atoms: N4_15  and  O2_17 
ROOT
HETATM    1  N2  UNL     1      14.321  13.780   3.172  1.00  0.00    -0.278 N 
HETATM    2  C6  UNL     1      14.584  12.472   3.454  1.00  0.00     0.157 A 
HETATM    3  C7  UNL     1      13.480  11.698   3.267  1.00  0.00     0.161 A 
HETATM    4  N3  UNL     1      12.504  12.560   2.857  1.00  0.00    -0.298 N 
HETATM    5  C10 UNL     1      13.034  13.795   2.810  1.00  0.00     0.188 A 
HETATM    6  S1  UNL     1      12.225  15.142   2.370  1.00  0.00    -0.040 SA
ENDROOT
BRANCH   1   7
HETATM    7  C5  UNL     1      15.242  14.863   3.258  1.00  0.00     0.141 A 
HETATM    8  N1  UNL     1      15.748  15.394   4.399  1.00  0.00    -0.303 N 
HETATM    9  C13 UNL     1      16.583  16.403   4.010  1.00  0.00     0.180 A 
HETATM   10  N5  UNL     1      16.570  16.466   2.666  1.00  0.00    -0.333 N 
HETATM   11  S2  UNL     1      17.421  17.333   5.054  1.00  0.00    -0.040 SA
HETATM   12  C11 UNL     1      15.750  15.527   2.163  1.00  0.00     0.052 A 
ATOM     13  H5  UNL     1      17.107  17.131   2.110  1.00  0.00     0.168 HD
HETATM   14  C12 UNL     1      15.433  15.236   0.742  1.00  0.00     0.072 C 
BRANCH   8  15
HETATM   15  C3  UNL     1      15.467  14.986   5.725  1.00  0.00     0.089 C 
HETATM   16  C4  UNL     1      14.681  16.012   6.529  1.00  0.00     0.033 C 
BRANCH  15  17
HETATM   17  C2  UNL     1      16.673  14.538   6.520  1.00  0.00     0.021 C 
HETATM   18  C1  UNL     1      17.331  13.367   5.848  1.00  0.00     0.007 C 
ENDBRANCH  15  17
ENDBRANCH   8  15
ENDBRANCH   1   7
BRANCH   3  19
HETATM   19  O1  UNL     1      13.402  10.335   3.461  1.00  0.00    -0.345 OA
ATOM     20  H1  UNL     1      13.890   9.674   2.983  1.00  0.00     0.219 HD
ENDBRANCH   3  19
BRANCH   4  21
HETATM   21  C8  UNL     1      11.150  12.151   2.542  1.00  0.00     0.180 C 
BRANCH  21  22
HETATM   22  C9  UNL     1      11.123  11.424   1.249  1.00  0.00     0.107 C 
HETATM   23  N4  UNL     1      11.511  10.190   1.175  1.00  0.00    -0.283 N 
ATOM     24  H4  UNL     1      11.834   9.736   2.030  1.00  0.00     0.192 HD
BRANCH  23  25
HETATM   25  O2  UNL     1      11.513   9.469   0.028  1.00  0.00    -0.291 OA
ATOM     26  H2  UNL     1      12.266   9.394  -0.546  1.00  0.00     0.244 HD
ENDBRANCH  23  25
ENDBRANCH  21  22
ENDBRANCH   4  21
TORSDOF 7
ENDMDL
MODEL 2
REMARK VINA RESULT: -6.560254368      4.407      7.108
REMARK  7 active torsions:
REMARK  status: ('A' for Active; 'I' for Inactive)
REMARK    1  A    between atoms: C2_2  and  C3_3 
REMARK    2  A    between atoms: C3_3  and  N1_5 
REMARK    3  A    between atoms: C5_6  and  N2_7 
REMARK    4  A    between atoms: C7_9  and  O1_10 
REMARK    5  A    between atoms: N3_12  and  C8_13 
REMARK    6  A    between atoms: C8_13  and  C9_14 
REMARK    7  A    between atoms: N4_15  and  O2_17 
ROOT
HETATM    1  N2  UNL     1      16.629  16.395   6.170  1.00  0.00    -0.278 N 
HETATM    2  C6  UNL     1      15.404  16.759   6.648  1.00  0.00     0.157 A 
HETATM    3  C7  UNL     1      15.268  18.113   6.668  1.00  0.00     0.161 A 
HETATM    4  N3  UNL     1      16.449  18.599   6.187  1.00  0.00    -0.298 N 
HETATM    5  C10 UNL     1      17.242  17.551   5.898  1.00  0.00     0.188 A 
HETATM    6  S1  UNL     1      18.754  17.663   5.296  1.00  0.00    -0.040 SA
ENDROOT
BRANCH   1   7
HETATM    7  C5  UNL     1      17.111  15.065   6.012  1.00  0.00     0.141 A 
HETATM    8  N1  UNL     1      16.778  14.206   5.017  1.00  0.00    -0.303 N 
HETATM    9  C13 UNL     1      17.472  13.054   5.263  1.00  0.00     0.180 A 
HETATM   10  N5  UNL     1      18.200  13.230   6.380  1.00  0.00    -0.333 N 
HETATM   11  S2  UNL     1      17.382  11.729   4.317  1.00  0.00    -0.040 SA
HETATM   12  C11 UNL     1      18.004  14.464   6.875  1.00  0.00     0.052 A 
ATOM     13  H5  UNL     1      18.813  12.527   6.792  1.00  0.00     0.168 HD
HETATM   14  C12 UNL     1      18.599  15.086   8.085  1.00  0.00     0.072 C 
BRANCH   8  15
HETATM   15  C3  UNL     1      15.892  14.452   3.942  1.00  0.00     0.089 C 
HETATM   16  C4  UNL     1      16.226  15.706   3.146  1.00  0.00     0.033 C 
BRANCH  15  17
HETATM   17  C2  UNL     1      14.427  14.469   4.319  1.00  0.00     0.021 C 
HETATM   18  C1  UNL     1      13.689  13.391   3.578  1.00  0.00     0.007 C 
ENDBRANCH  15  17
ENDBRANCH   8  15
ENDBRANCH   1   7
BRANCH   3  19
HETATM   19  O1  UNL     1      14.156  18.810   7.091  1.00  0.00    -0.345 OA
ATOM     20  H1  UNL     1      13.984  19.102   7.979  1.00  0.00     0.219 HD
ENDBRANCH   3  19
BRANCH   4  21
HETATM   21  C8  UNL     1      16.737  20.011   6.037  1.00  0.00     0.180 C 
BRANCH  21  22
HETATM   22  C9  UNL     1      15.952  20.576   4.911  1.00  0.00     0.107 C 
HETATM   23  N4  UNL     1      16.492  20.740   3.744  1.00  0.00    -0.283 N 
ATOM     24  H4  UNL     1      17.468  20.470   3.624  1.00  0.00     0.192 HD
BRANCH  23  25
HETATM   25  O2  UNL     1      15.832  21.250   2.676  1.00  0.00    -0.291 OA
ATOM     26  H2  UNL     1      15.256  22.003   2.723  1.00  0.00     0.244 HD
ENDBRANCH  23  25
ENDBRANCH  21  22
ENDBRANCH   4  21
TORSDOF 7
ENDMDL
MODEL 3
REMARK VINA RESULT: -6.505264349      3.443      6.474
REMARK  7 active torsions:
REMARK  status: ('A' for Active; 'I' for Inactive)
REMARK    1  A    between atoms: C2_2  and  C3_3 
REMARK    2  A    between atoms: C3_3  and  N1_5 
REMARK    3  A    between atoms: C5_6  and  N2_7 
REMARK    4  A    between atoms: C7_9  and  O1_10 
REMARK    5  A    between atoms: N3_12  and  C8_13 
REMARK    6  A    between atoms: C8_13  and  C9_14 
REMARK    7  A    between atoms: N4_15  and  O2_17 
ROOT
HETATM    1  N2  UNL     1      16.158  14.029   4.449  1.00  0.00    -0.278 N 
HETATM    2  C6  UNL     1      17.454  13.950   4.032  1.00  0.00     0.157 A 
HETATM    3  C7  UNL     1      18.215  14.919   4.610  1.00  0.00     0.161 A 
HETATM    4  N3  UNL     1      17.358  15.618   5.409  1.00  0.00    -0.298 N 
HETATM    5  C10 UNL     1      16.138  15.065   5.293  1.00  0.00     0.188 A 
HETATM    6  S1  UNL     1      14.801  15.581   6.073  1.00  0.00    -0.040 SA
ENDROOT
BRANCH   1   7
HETATM    7  C5  UNL     1      15.090  13.176   4.049  1.00  0.00     0.141 A 
HETATM    8  N1  UNL     1      14.036  13.525   3.270  1.00  0.00    -0.303 N 
HETATM    9  C13 UNL     1      13.268  12.401   3.145  1.00  0.00     0.180 A 
HETATM   10  N5  UNL     1      13.857  11.409   3.837  1.00  0.00    -0.333 N 
HETATM   11  S2  UNL     1      11.883  12.348   2.288  1.00  0.00    -0.040 SA
HETATM   12  C11 UNL     1      14.989  11.849   4.412  1.00  0.00     0.052 A 
ATOM     13  H5  UNL     1      13.495  10.459   3.914  1.00  0.00     0.168 HD
HETATM   14  C12 UNL     1      15.951  11.103   5.261  1.00  0.00     0.072 C 
BRANCH   8  15
HETATM   15  C3  UNL     1      13.783  14.796   2.701  1.00  0.00     0.089 C 
HETATM   16  C4  UNL     1      12.353  15.282   2.897  1.00  0.00     0.033 C 
BRANCH  15  17
HETATM   17  C2  UNL     1      14.164  14.926   1.243  1.00  0.00     0.021 C 
HETATM   18  C1  UNL     1      15.595  15.364   1.118  1.00  0.00     0.007 C 
ENDBRANCH  15  17
ENDBRANCH   8  15
ENDBRANCH   1   7
BRANCH   3  19
HETATM   19  O1  UNL     1      19.564  15.120   4.407  1.00  0.00    -0.345 OA
ATOM     20  H1  UNL     1      20.193  15.399   5.063  1.00  0.00     0.219 HD
ENDBRANCH   3  19
BRANCH   4  21
HETATM   21  C8  UNL     1      17.757  16.752   6.219  1.00  0.00     0.180 C 
BRANCH  21  22
HETATM   22  C9  UNL     1      17.847  17.973   5.380  1.00  0.00     0.107 C 
HETATM   23  N4  UNL     1      16.775  18.553   4.939  1.00  0.00    -0.283 N 
ATOM     24  H4  UNL     1      15.872  18.146   5.184  1.00  0.00     0.192 HD
BRANCH  23  25
HETATM   25  O2  UNL     1      16.786  19.668   4.169  1.00  0.00    -0.291 OA
ATOM     26  H2  UNL     1      16.012  20.184   3.978  1.00  0.00     0.244 HD
ENDBRANCH  23  25
ENDBRANCH  21  22
ENDBRANCH   4  21
TORSDOF 7
ENDMDL
MODEL 4
REMARK VINA RESULT: -6.303824923      3.403      6.742
REMARK  7 active torsions:
REMARK  status: ('A' for Active; 'I' for Inactive)
REMARK    1  A    between atoms: C2_2  and  C3_3 
REMARK    2  A    between atoms: C3_3  and  N1_5 
REMARK    3  A    between atoms: C5_6  and  N2_7 
REMARK    4  A    between atoms: C7_9  and  O1_10 
REMARK    5  A    between atoms: N3_12  and  C8_13 
REMARK    6  A    between atoms: C8_13  and  C9_14 
REMARK    7  A    between atoms: N4_15  and  O2_17 
ROOT
HETATM    1  N2  UNL     1      16.181  13.841   4.425  1.00  0.00    -0.278 N 
HETATM    2  C6  UNL     1      17.475  13.692   4.017  1.00  0.00     0.157 A 
HETATM    3  C7  UNL     1      18.286  14.606   4.618  1.00  0.00     0.161 A 
HETATM    4  N3  UNL     1      17.465  15.342   5.421  1.00  0.00    -0.298 N 
HETATM    5  C10 UNL     1      16.215  14.863   5.285  1.00  0.00     0.188 A 
HETATM    6  S1  UNL     1      14.903  15.445   6.063  1.00  0.00    -0.040 SA
ENDROOT
BRANCH   1   7
HETATM    7  C5  UNL     1      15.069  13.060   4.002  1.00  0.00     0.141 A 
HETATM    8  N1  UNL     1      14.029  13.492   3.246  1.00  0.00    -0.303 N 
HETATM    9  C13 UNL     1      13.204  12.414   3.085  1.00  0.00     0.180 A 
HETATM   10  N5  UNL     1      13.746  11.367   3.733  1.00  0.00    -0.333 N 
HETATM   11  S2  UNL     1      11.812  12.463   2.239  1.00  0.00    -0.040 SA
HETATM   12  C11 UNL     1      14.904  11.727   4.314  1.00  0.00     0.052 A 
ATOM     13  H5  UNL     1      13.338  10.434   3.776  1.00  0.00     0.168 HD
HETATM   14  C12 UNL     1      15.833  10.900   5.125  1.00  0.00     0.072 C 
BRANCH   8  15
HETATM   15  C3  UNL     1      13.836  14.795   2.729  1.00  0.00     0.089 C 
HETATM   16  C4  UNL     1      12.425  15.331   2.928  1.00  0.00     0.033 C 
BRANCH  15  17
HETATM   17  C2  UNL     1      14.243  14.970   1.283  1.00  0.00     0.021 C 
HETATM   18  C1  UNL     1      15.686  15.379   1.197  1.00  0.00     0.007 C 
ENDBRANCH  15  17
ENDBRANCH   8  15
ENDBRANCH   1   7
BRANCH   3  19
HETATM   19  O1  UNL     1      19.647  14.730   4.429  1.00  0.00    -0.345 OA
ATOM     20  H1  UNL     1      20.255  15.161   5.018  1.00  0.00     0.219 HD
ENDBRANCH   3  19
BRANCH   4  21
HETATM   21  C8  UNL     1      17.922  16.437   6.252  1.00  0.00     0.180 C 
BRANCH  21  22
HETATM   22  C9  UNL     1      18.176  15.958   7.634  1.00  0.00     0.107 C 
HETATM   23  N4  UNL     1      18.200  16.789   8.628  1.00  0.00    -0.283 N 
ATOM     24  H4  UNL     1      18.039  17.777   8.433  1.00  0.00     0.192 HD
BRANCH  23  25
HETATM   25  O2  UNL     1      18.426  16.418   9.912  1.00  0.00    -0.291 OA
ATOM     26  H2  UNL     1      18.863  16.970  10.550  1.00  0.00     0.244 HD
ENDBRANCH  23  25
ENDBRANCH  21  22
ENDBRANCH   4  21
TORSDOF 7
ENDMDL
MODEL 5
REMARK VINA RESULT: -6.255178240      3.285      6.238
REMARK  7 active torsions:
REMARK  status: ('A' for Active; 'I' for Inactive)
REMARK    1  A    between atoms: C2_2  and  C3_3 
REMARK    2  A    between atoms: C3_3  and  N1_5 
REMARK    3  A    between atoms: C5_6  and  N2_7 
REMARK    4  A    between atoms: C7_9  and  O1_10 
REMARK    5  A    between atoms: N3_12  and  C8_13 
REMARK    6  A    between atoms: C8_13  and  C9_14 
REMARK    7  A    between atoms: N4_15  and  O2_17 
ROOT
HETATM    1  N2  UNL     1      16.512  13.553   4.053  1.00  0.00    -0.278 N 
HETATM    2  C6  UNL     1      17.302  12.459   3.847  1.00  0.00     0.157 A 
HETATM    3  C7  UNL     1      18.374  12.465   4.686  1.00  0.00     0.161 A 
HETATM    4  N3  UNL     1      18.240  13.599   5.431  1.00  0.00    -0.298 N 
HETATM    5  C10 UNL     1      17.121  14.229   5.032  1.00  0.00     0.188 A 
HETATM    6  S1  UNL     1      16.567  15.633   5.653  1.00  0.00    -0.040 SA
ENDROOT
BRANCH   1   7
HETATM    7  C5  UNL     1      15.312  13.869   3.355  1.00  0.00     0.141 A 
HETATM    8  N1  UNL     1      14.126  13.220   3.468  1.00  0.00    -0.303 N 
HETATM    9  C13 UNL     1      13.263  13.859   2.623  1.00  0.00     0.180 A 
HETATM   10  N5  UNL     1      13.925  14.864   2.024  1.00  0.00    -0.333 N 
HETATM   11  S2  UNL     1      11.705  13.419   2.425  1.00  0.00    -0.040 SA
HETATM   12  C11 UNL     1      15.199  14.904   2.451  1.00  0.00     0.052 A 
ATOM     13  H5  UNL     1      13.518  15.505   1.343  1.00  0.00     0.168 HD
HETATM   14  C12 UNL     1      16.282  15.842   2.060  1.00  0.00     0.072 C 
BRANCH   8  15
HETATM   15  C3  UNL     1      13.841  12.106   4.293  1.00  0.00     0.089 C 
HETATM   16  C4  UNL     1      14.333  12.263   5.726  1.00  0.00     0.033 C 
BRANCH  15  17
HETATM   17  C2  UNL     1      14.304  10.775   3.745  1.00  0.00     0.021 C 
HETATM   18  C1  UNL     1      13.176  10.090   3.027  1.00  0.00     0.007 C 
ENDBRANCH  15  17
ENDBRANCH   8  15
ENDBRANCH   1   7
BRANCH   3  19
HETATM   19  O1  UNL     1      19.366  11.507   4.741  1.00  0.00    -0.345 OA
ATOM     20  H1  UNL     1      20.279  11.636   4.514  1.00  0.00     0.219 HD
ENDBRANCH   3  19
BRANCH   4  21
HETATM   21  C8  UNL     1      19.177  14.001   6.462  1.00  0.00     0.180 C 
BRANCH  21  22
HETATM   22  C9  UNL     1      20.426  14.513   5.845  1.00  0.00     0.107 C 
HETATM   23  N4  UNL     1      21.387  13.704   5.528  1.00  0.00    -0.283 N 
ATOM     24  H4  UNL     1      21.260  12.709   5.713  1.00  0.00     0.192 HD
BRANCH  23  25
HETATM   25  O2  UNL     1      22.552  14.105   4.963  1.00  0.00    -0.291 OA
ATOM     26  H2  UNL     1      23.259  13.513   4.737  1.00  0.00     0.244 HD
ENDBRANCH  23  25
ENDBRANCH  21  22
ENDBRANCH   4  21
TORSDOF 7
ENDMDL
