MODEL 1
REMARK VINA RESULT: -5.173748800      0.000      0.000
REMARK  1 active torsions:
REMARK  status: ('A' for Active; 'I' for Inactive)
REMARK    1  A    between atoms: N1_4  and  C4_5 
ROOT
HETATM    1  C4  UNL     1      -2.175   5.133  84.851  1.00  0.00     0.226 C 
HETATM    2  C5  UNL     1      -2.812   6.484  84.881  1.00  0.00     0.055 C 
HETATM    3  C6  UNL     1      -2.148   7.440  83.956  1.00  0.00     0.115 C 
HETATM    4  N2  UNL     1      -0.809   7.139  83.593  1.00  0.00    -0.421 N 
ATOM      5  H2  UNL     1      -0.420   7.417  82.692  1.00  0.00     0.153 HD
HETATM    6  C7  UNL     1      -0.037   6.426  84.557  1.00  0.00     0.115 C 
HETATM    7  C8  UNL     1      -0.682   5.151  85.041  1.00  0.00     0.055 C 
ENDROOT
BRANCH   1   8
HETATM    8  N1  UNL     1      -2.739   4.158  85.727  1.00  0.00     0.093 N 
HETATM    9  C3  UNL     1      -3.533   4.714  86.795  1.00  0.00     0.273 C 
HETATM   10  C2  UNL     1      -3.500   3.690  87.906  1.00  0.00     0.032 C 
HETATM   11  C1  UNL     1      -2.696   2.533  87.353  1.00  0.00     0.032 C 
HETATM   12  C9  UNL     1      -1.797   3.257  86.339  1.00  0.00     0.273 C 
ENDBRANCH   1   8
TORSDOF 1
ENDMDL
MODEL 2
REMARK VINA RESULT: -5.110984457      1.524      2.281
REMARK  1 active torsions:
REMARK  status: ('A' for Active; 'I' for Inactive)
REMARK    1  A    between atoms: N1_4  and  C4_5 
ROOT
HETATM    1  C4  UNL     1      -0.899   4.322  84.891  1.00  0.00     0.226 C 
HETATM    2  C5  UNL     1      -1.400   3.757  83.601  1.00  0.00     0.055 C 
HETATM    3  C6  UNL     1      -0.422   3.929  82.494  1.00  0.00     0.115 C 
HETATM    4  N2  UNL     1       0.536   4.964  82.654  1.00  0.00    -0.421 N 
ATOM      5  H2  UNL     1       1.466   4.905  82.240  1.00  0.00     0.153 HD
HETATM    6  C7  UNL     1       0.127   6.091  83.425  1.00  0.00     0.115 C 
HETATM    7  C8  UNL     1      -0.407   5.740  84.792  1.00  0.00     0.055 C 
ENDROOT
BRANCH   1   8
HETATM    8  N1  UNL     1      -1.786   4.217  86.004  1.00  0.00     0.093 N 
HETATM    9  C3  UNL     1      -2.063   2.861  86.409  1.00  0.00     0.273 C 
HETATM   10  C2  UNL     1      -3.409   2.906  87.096  1.00  0.00     0.032 C 
HETATM   11  C1  UNL     1      -3.808   4.365  87.086  1.00  0.00     0.032 C 
HETATM   12  C9  UNL     1      -3.060   4.868  85.842  1.00  0.00     0.273 C 
ENDBRANCH   1   8
TORSDOF 1
ENDMDL
MODEL 3
REMARK VINA RESULT: -4.932068552      2.041      4.197
REMARK  1 active torsions:
REMARK  status: ('A' for Active; 'I' for Inactive)
REMARK    1  A    between atoms: N1_4  and  C4_5 
ROOT
HETATM    1  C4  UNL     1      -1.731   4.088  85.562  1.00  0.00     0.226 C 
HETATM    2  C5  UNL     1      -3.045   4.797  85.606  1.00  0.00     0.055 C 
HETATM    3  C6  UNL     1      -3.607   4.854  86.982  1.00  0.00     0.115 C 
HETATM    4  N2  UNL     1      -3.137   3.875  87.896  1.00  0.00    -0.421 N 
ATOM      5  H2  UNL     1      -3.082   4.057  88.899  1.00  0.00     0.153 HD
HETATM    6  C7  UNL     1      -2.747   2.624  87.337  1.00  0.00     0.115 C 
HETATM    7  C8  UNL     1      -1.737   2.736  86.222  1.00  0.00     0.055 C 
ENDROOT
BRANCH   1   8
HETATM    8  N1  UNL     1      -1.130   3.970  84.273  1.00  0.00     0.093 N 
HETATM    9  C3  UNL     1      -1.735   4.803  83.263  1.00  0.00     0.273 C 
HETATM   10  C2  UNL     1      -1.446   4.123  81.944  1.00  0.00     0.032 C 
HETATM   11  C1  UNL     1      -0.606   2.915  82.299  1.00  0.00     0.032 C 
HETATM   12  C9  UNL     1      -1.080   2.636  83.733  1.00  0.00     0.273 C 
ENDBRANCH   1   8
TORSDOF 1
ENDMDL
MODEL 4
REMARK VINA RESULT: -4.905117824      1.575      2.257
REMARK  1 active torsions:
REMARK  status: ('A' for Active; 'I' for Inactive)
REMARK    1  A    between atoms: N1_4  and  C4_5 
ROOT
HETATM    1  C4  UNL     1      -1.535   4.549  84.579  1.00  0.00     0.226 C 
HETATM    2  C5  UNL     1      -0.490   5.607  84.435  1.00  0.00     0.055 C 
HETATM    3  C6  UNL     1      -0.165   5.887  83.011  1.00  0.00     0.115 C 
HETATM    4  N2  UNL     1      -0.467   4.856  82.081  1.00  0.00    -0.421 N 
ATOM      5  H2  UNL     1      -0.711   5.061  81.112  1.00  0.00     0.153 HD
HETATM    6  C7  UNL     1      -0.411   3.522  82.577  1.00  0.00     0.115 C 
HETATM    7  C8  UNL     1      -1.245   3.288  83.812  1.00  0.00     0.055 C 
ENDROOT
BRANCH   1   8
HETATM    8  N1  UNL     1      -1.893   4.205  85.917  1.00  0.00     0.093 N 
HETATM    9  C3  UNL     1      -1.793   2.796  86.208  1.00  0.00     0.273 C 
HETATM   10  C2  UNL     1      -2.756   2.544  87.346  1.00  0.00     0.032 C 
HETATM   11  C1  UNL     1      -3.332   3.902  87.684  1.00  0.00     0.032 C 
HETATM   12  C9  UNL     1      -3.208   4.620  86.331  1.00  0.00     0.273 C 
ENDBRANCH   1   8
TORSDOF 1
ENDMDL
MODEL 5
REMARK VINA RESULT: -4.865811359      3.102      4.513
REMARK  1 active torsions:
REMARK  status: ('A' for Active; 'I' for Inactive)
REMARK    1  A    between atoms: N1_4  and  C4_5 
ROOT
HETATM    1  C4  UNL     1      -1.138   3.594  84.059  1.00  0.00     0.226 C 
HETATM    2  C5  UNL     1      -2.243   4.600  84.090  1.00  0.00     0.055 C 
HETATM    3  C6  UNL     1      -2.505   5.107  85.463  1.00  0.00     0.115 C 
HETATM    4  N2  UNL     1      -2.081   4.276  86.533  1.00  0.00    -0.421 N 
ATOM      5  H2  UNL     1      -1.797   4.662  87.434  1.00  0.00     0.153 HD
HETATM    6  C7  UNL     1      -2.074   2.873  86.280  1.00  0.00     0.115 C 
HETATM    7  C8  UNL     1      -1.297   2.473  85.050  1.00  0.00     0.055 C 
ENDROOT
BRANCH   1   8
HETATM    8  N1  UNL     1      -0.835   3.040  82.780  1.00  0.00     0.093 N 
HETATM    9  C3  UNL     1      -1.650   3.554  81.707  1.00  0.00     0.273 C 
HETATM   10  C2  UNL     1      -1.655   2.479  80.645  1.00  0.00     0.032 C 
HETATM   11  C1  UNL     1      -0.754   1.389  81.183  1.00  0.00     0.032 C 
HETATM   12  C9  UNL     1      -0.901   1.604  82.697  1.00  0.00     0.273 C 
ENDBRANCH   1   8
TORSDOF 1
ENDMDL
