MODEL 1
REMARK VINA RESULT: -5.846520865      0.000      0.000
REMARK  1 active torsions:
REMARK  status: ('A' for Active; 'I' for Inactive)
REMARK    1  A    between atoms: N1_5  and  C5_6 
ROOT
HETATM    1  C1  UNL     1      -3.274   2.625  87.086  1.00  0.00     0.004 C 
HETATM    2  C2  UNL     1      -2.847   1.176  86.818  1.00  0.00     0.035 C 
HETATM    3  C3  UNL     1      -1.449   1.227  86.246  1.00  0.00     0.214 C 
HETATM    4  C4  UNL     1      -1.320   0.604  84.913  1.00  0.00     0.305 C 
HETATM    5  N1  UNL     1      -1.108   1.482  83.829  1.00  0.00     0.097 N 
HETATM    6  C8  UNL     1      -1.712   2.779  83.936  1.00  0.00     0.305 C 
HETATM    7  C9  UNL     1      -1.742   3.341  85.310  1.00  0.00     0.214 C 
HETATM    8  C10 UNL     1      -3.148   3.417  85.806  1.00  0.00     0.035 C 
HETATM    9  N2  UNL     1      -0.911   2.562  86.203  1.00  0.00    -0.063 N 
ATOM     10  H21 UNL     1       0.076   2.584  85.947  1.00  0.00     0.278 HD
ATOM     11  H22 UNL     1      -0.819   2.983  87.128  1.00  0.00     0.278 HD
ENDROOT
BRANCH   5  12
HETATM   12  C5  UNL     1      -1.308   0.973  82.524  1.00  0.00     0.223 A 
HETATM   13  C6  UNL     1      -1.014  -0.405  82.111  1.00  0.00     0.038 A 
HETATM   14  C7  UNL     1      -0.040   0.744  81.703  1.00  0.00     0.038 A 
ENDBRANCH   5  12
TORSDOF 1
ENDMDL
MODEL 2
REMARK VINA RESULT: -5.718753832      2.230      4.096
REMARK  1 active torsions:
REMARK  status: ('A' for Active; 'I' for Inactive)
REMARK    1  A    between atoms: N1_5  and  C5_6 
ROOT
HETATM    1  C1  UNL     1      -0.972   5.693  84.583  1.00  0.00     0.004 C 
HETATM    2  C2  UNL     1      -0.068   4.512  84.957  1.00  0.00     0.035 C 
HETATM    3  C3  UNL     1      -0.753   3.258  84.464  1.00  0.00     0.214 C 
HETATM    4  C4  UNL     1      -1.032   2.266  85.523  1.00  0.00     0.305 C 
HETATM    5  N1  UNL     1      -2.386   2.098  85.882  1.00  0.00     0.097 N 
HETATM    6  C8  UNL     1      -3.218   3.262  85.780  1.00  0.00     0.305 C 
HETATM    7  C9  UNL     1      -2.891   4.165  84.649  1.00  0.00     0.214 C 
HETATM    8  C10 UNL     1      -2.348   5.459  85.161  1.00  0.00     0.035 C 
HETATM    9  N2  UNL     1      -1.964   3.532  83.735  1.00  0.00    -0.063 N 
ATOM     10  H21 UNL     1      -2.354   2.703  83.287  1.00  0.00     0.278 HD
ATOM     11  H22 UNL     1      -1.803   4.079  82.890  1.00  0.00     0.278 HD
ENDROOT
BRANCH   5  12
HETATM   12  C5  UNL     1      -2.665   1.422  87.093  1.00  0.00     0.223 A 
HETATM   13  C6  UNL     1      -4.013   1.106  87.582  1.00  0.00     0.038 A 
HETATM   14  C7  UNL     1      -3.222   2.290  88.221  1.00  0.00     0.038 A 
ENDBRANCH   5  12
TORSDOF 1
ENDMDL
MODEL 3
REMARK VINA RESULT: -5.409620751      1.001      1.294
REMARK  1 active torsions:
REMARK  status: ('A' for Active; 'I' for Inactive)
REMARK    1  A    between atoms: N1_5  and  C5_6 
ROOT
HETATM    1  C1  UNL     1      -2.906   4.043  85.759  1.00  0.00     0.004 C 
HETATM    2  C2  UNL     1      -2.767   2.573  86.174  1.00  0.00     0.035 C 
HETATM    3  C3  UNL     1      -1.376   2.133  85.780  1.00  0.00     0.214 C 
HETATM    4  C4  UNL     1      -1.347   0.980  84.856  1.00  0.00     0.305 C 
HETATM    5  N1  UNL     1      -0.948   1.250  83.530  1.00  0.00     0.097 N 
HETATM    6  C8  UNL     1      -1.286   2.546  83.017  1.00  0.00     0.305 C 
HETATM    7  C9  UNL     1      -1.230   3.645  84.012  1.00  0.00     0.214 C 
HETATM    8  C10 UNL     1      -2.603   4.166  84.284  1.00  0.00     0.035 C 
HETATM    9  N2  UNL     1      -0.585   3.204  85.231  1.00  0.00    -0.063 N 
ATOM     10  H21 UNL     1       0.391   2.945  85.091  1.00  0.00     0.278 HD
ATOM     11  H22 UNL     1      -0.429   3.963  85.894  1.00  0.00     0.278 HD
ENDROOT
BRANCH   5  12
HETATM   12  C5  UNL     1      -1.220   0.267  82.550  1.00  0.00     0.223 A 
HETATM   13  C6  UNL     1      -0.384   0.009  81.370  1.00  0.00     0.038 A 
HETATM   14  C7  UNL     1      -1.722   0.794  81.206  1.00  0.00     0.038 A 
ENDBRANCH   5  12
TORSDOF 1
ENDMDL
MODEL 4
REMARK VINA RESULT: -5.325740841      1.591      4.617
REMARK  1 active torsions:
REMARK  status: ('A' for Active; 'I' for Inactive)
REMARK    1  A    between atoms: N1_5  and  C5_6 
ROOT
HETATM    1  C1  UNL     1       1.288   2.137  80.781  1.00  0.00     0.004 C 
HETATM    2  C2  UNL     1       0.772   0.762  81.224  1.00  0.00     0.035 C 
HETATM    3  C3  UNL     1      -0.698   0.923  81.537  1.00  0.00     0.214 C 
HETATM    4  C4  UNL     1      -1.065   0.549  82.918  1.00  0.00     0.305 C 
HETATM    5  N1  UNL     1      -1.420   1.608  83.781  1.00  0.00     0.097 N 
HETATM    6  C8  UNL     1      -0.762   2.861  83.549  1.00  0.00     0.305 C 
HETATM    7  C9  UNL     1      -0.488   3.168  82.123  1.00  0.00     0.214 C 
HETATM    8  C10 UNL     1       0.982   3.146  81.863  1.00  0.00     0.035 C 
HETATM    9  N2  UNL     1      -1.189   2.247  81.254  1.00  0.00    -0.063 N 
ATOM     10  H21 UNL     1      -2.203   2.320  81.334  1.00  0.00     0.278 HD
ATOM     11  H22 UNL     1      -1.113   2.495  80.268  1.00  0.00     0.278 HD
ENDROOT
BRANCH   5  12
HETATM   12  C5  UNL     1      -1.454   1.341  85.169  1.00  0.00     0.223 A 
HETATM   13  C6  UNL     1      -2.289   2.061  86.138  1.00  0.00     0.038 A 
HETATM   14  C7  UNL     1      -0.763   2.374  86.058  1.00  0.00     0.038 A 
ENDBRANCH   5  12
TORSDOF 1
ENDMDL
MODEL 5
REMARK VINA RESULT: -5.284429717      1.424      2.025
REMARK  1 active torsions:
REMARK  status: ('A' for Active; 'I' for Inactive)
REMARK    1  A    between atoms: N1_5  and  C5_6 
ROOT
HETATM    1  C1  UNL     1      -2.405   4.836  85.033  1.00  0.00     0.004 C 
HETATM    2  C2  UNL     1      -2.770   3.350  85.145  1.00  0.00     0.035 C 
HETATM    3  C3  UNL     1      -1.471   2.578  85.162  1.00  0.00     0.214 C 
HETATM    4  C4  UNL     1      -1.347   1.580  84.080  1.00  0.00     0.305 C 
HETATM    5  N1  UNL     1      -0.418   1.875  83.059  1.00  0.00     0.097 N 
HETATM    6  C8  UNL     1      -0.234   3.264  82.752  1.00  0.00     0.305 C 
HETATM    7  C9  UNL     1      -0.321   4.178  83.918  1.00  0.00     0.214 C 
HETATM    8  C10 UNL     1      -1.539   5.036  83.812  1.00  0.00     0.035 C 
HETATM    9  N2  UNL     1      -0.311   3.432  85.159  1.00  0.00    -0.063 N 
ATOM     10  H21 UNL     1       0.558   2.921  85.307  1.00  0.00     0.278 HD
ATOM     11  H22 UNL     1      -0.258   4.031  85.982  1.00  0.00     0.278 HD
ENDROOT
BRANCH   5  12
HETATM   12  C5  UNL     1      -0.505   1.132  81.859  1.00  0.00     0.223 A 
HETATM   13  C6  UNL     1      -1.760   0.783  81.181  1.00  0.00     0.038 A 
HETATM   14  C7  UNL     1      -1.004  -0.305  82.006  1.00  0.00     0.038 A 
ENDBRANCH   5  12
TORSDOF 1
ENDMDL
