MODEL 1
REMARK VINA RESULT: -6.129650227      0.000      0.000
REMARK  3 active torsions:
REMARK  status: ('A' for Active; 'I' for Inactive)
REMARK    1  A    between atoms: C2_2  and  O1_4 
REMARK    2  A    between atoms: O1_4  and  C4_5 
REMARK    3  A    between atoms: C7_8  and  N1_9 
ROOT
HETATM    1  N1  UNL     1      -1.054   2.228  84.260  1.00  0.00    -0.355 N 
ATOM      2  H1  UNL     1      -0.727   1.485  84.877  1.00  0.00     0.163 HD
HETATM    3  C8  UNL     1      -1.037   2.065  82.983  1.00  0.00     0.171 C 
HETATM    4  N2  UNL     1      -0.584   0.889  82.287  1.00  0.00    -0.361 N 
ATOM      5  H2  UNL     1      -0.359  -0.016  82.699  1.00  0.00     0.162 HD
HETATM    6  C9  UNL     1      -0.510   1.245  80.883  1.00  0.00     0.142 C 
HETATM    7  C10 UNL     1      -1.660   2.254  80.777  1.00  0.00     0.142 C 
HETATM    8  N3  UNL     1      -1.461   3.008  82.007  1.00  0.00    -0.361 N 
ATOM      9  H3  UNL     1      -1.598   4.009  82.142  1.00  0.00     0.162 HD
ENDROOT
BRANCH   1  10
HETATM   10  C7  UNL     1      -1.535   3.457  84.807  1.00  0.00     0.113 C 
HETATM   11  C4  UNL     1      -1.535   3.510  86.322  1.00  0.00     0.144 C 
HETATM   12  C5  UNL     1      -0.059   3.838  86.229  1.00  0.00     0.036 C 
HETATM   13  C6  UNL     1      -0.382   4.470  84.867  1.00  0.00     0.030 C 
BRANCH  11  14
HETATM   14  O1  UNL     1      -1.752   2.323  86.965  1.00  0.00    -0.379 OA
BRANCH  14  15
HETATM   15  C2  UNL     1      -2.899   2.312  87.749  1.00  0.00     0.114 C 
HETATM   16  C1  UNL     1      -4.149   2.618  86.989  1.00  0.00     0.039 C 
HETATM   17  C3  UNL     1      -2.719   3.410  88.791  1.00  0.00     0.039 C 
ENDBRANCH  14  15
ENDBRANCH  11  14
ENDBRANCH   1  10
TORSDOF 3
ENDMDL
MODEL 2
REMARK VINA RESULT: -5.814738837      1.165      1.345
REMARK  3 active torsions:
REMARK  status: ('A' for Active; 'I' for Inactive)
REMARK    1  A    between atoms: C2_2  and  O1_4 
REMARK    2  A    between atoms: O1_4  and  C4_5 
REMARK    3  A    between atoms: C7_8  and  N1_9 
ROOT
HETATM    1  N1  UNL     1      -0.371   3.219  83.472  1.00  0.00    -0.355 N 
ATOM      2  H1  UNL     1       0.401   2.961  84.087  1.00  0.00     0.163 HD
HETATM    3  C8  UNL     1      -0.558   2.586  82.367  1.00  0.00     0.171 C 
HETATM    4  N2  UNL     1       0.240   1.496  81.871  1.00  0.00    -0.361 N 
ATOM      5  H2  UNL     1       0.958   0.983  82.382  1.00  0.00     0.162 HD
HETATM    6  C9  UNL     1      -0.179   1.270  80.501  1.00  0.00     0.142 C 
HETATM    7  C10 UNL     1      -1.664   1.643  80.584  1.00  0.00     0.142 C 
HETATM    8  N3  UNL     1      -1.588   2.834  81.419  1.00  0.00    -0.361 N 
ATOM      9  H3  UNL     1      -2.157   3.676  81.339  1.00  0.00     0.162 HD
ENDROOT
BRANCH   1  10
HETATM   10  C7  UNL     1      -1.250   4.286  83.833  1.00  0.00     0.113 C 
HETATM   11  C4  UNL     1      -1.447   4.457  85.326  1.00  0.00     0.144 C 
HETATM   12  C5  UNL     1      -0.131   5.207  85.330  1.00  0.00     0.036 C 
HETATM   13  C6  UNL     1      -0.458   5.601  83.882  1.00  0.00     0.030 C 
BRANCH  11  14
HETATM   14  O1  UNL     1      -1.385   3.316  86.076  1.00  0.00    -0.379 OA
BRANCH  14  15
HETATM   15  C2  UNL     1      -2.209   3.333  87.194  1.00  0.00     0.114 C 
HETATM   16  C1  UNL     1      -2.707   1.982  87.594  1.00  0.00     0.039 C 
HETATM   17  C3  UNL     1      -3.424   4.174  86.820  1.00  0.00     0.039 C 
ENDBRANCH  14  15
ENDBRANCH  11  14
ENDBRANCH   1  10
TORSDOF 3
ENDMDL
MODEL 3
REMARK VINA RESULT: -5.675085366      1.773      2.274
REMARK  3 active torsions:
REMARK  status: ('A' for Active; 'I' for Inactive)
REMARK    1  A    between atoms: C2_2  and  O1_4 
REMARK    2  A    between atoms: O1_4  and  C4_5 
REMARK    3  A    between atoms: C7_8  and  N1_9 
ROOT
HETATM    1  N1  UNL     1       0.310   4.106  82.840  1.00  0.00    -0.355 N 
ATOM      2  H1  UNL     1       1.291   4.372  82.924  1.00  0.00     0.163 HD
HETATM    3  C8  UNL     1      -0.023   3.066  82.158  1.00  0.00     0.171 C 
HETATM    4  N2  UNL     1       0.880   2.187  81.461  1.00  0.00    -0.361 N 
ATOM      5  H2  UNL     1       1.898   2.176  81.531  1.00  0.00     0.162 HD
HETATM    6  C9  UNL     1       0.058   1.320  80.639  1.00  0.00     0.142 C 
HETATM    7  C10 UNL     1      -1.199   1.198  81.510  1.00  0.00     0.142 C 
HETATM    8  N3  UNL     1      -1.342   2.577  81.957  1.00  0.00    -0.361 N 
ATOM      9  H3  UNL     1      -2.213   3.088  82.097  1.00  0.00     0.162 HD
ENDROOT
BRANCH   1  10
HETATM   10  C7  UNL     1      -0.704   4.884  83.479  1.00  0.00     0.113 C 
HETATM   11  C4  UNL     1      -0.539   5.014  84.980  1.00  0.00     0.144 C 
HETATM   12  C5  UNL     1       0.471   6.107  84.692  1.00  0.00     0.036 C 
HETATM   13  C6  UNL     1      -0.323   6.370  83.404  1.00  0.00     0.030 C 
BRANCH  11  14
HETATM   14  O1  UNL     1       0.033   3.949  85.617  1.00  0.00    -0.379 OA
BRANCH  14  15
HETATM   15  C2  UNL     1      -0.879   3.133  86.276  1.00  0.00     0.114 C 
HETATM   16  C1  UNL     1      -1.205   1.876  85.535  1.00  0.00     0.039 C 
HETATM   17  C3  UNL     1      -2.168   3.939  86.395  1.00  0.00     0.039 C 
ENDBRANCH  14  15
ENDBRANCH  11  14
ENDBRANCH   1  10
TORSDOF 3
ENDMDL
MODEL 4
REMARK VINA RESULT: -5.664663008      2.544      5.664
REMARK  3 active torsions:
REMARK  status: ('A' for Active; 'I' for Inactive)
REMARK    1  A    between atoms: C2_2  and  O1_4 
REMARK    2  A    between atoms: O1_4  and  C4_5 
REMARK    3  A    between atoms: C7_8  and  N1_9 
ROOT
HETATM    1  N1  UNL     1      -0.983   1.903  83.147  1.00  0.00    -0.355 N 
ATOM      2  H1  UNL     1      -0.837   0.894  83.150  1.00  0.00     0.163 HD
HETATM    3  C8  UNL     1      -1.042   2.552  84.258  1.00  0.00     0.171 C 
HETATM    4  N2  UNL     1      -0.918   1.985  85.576  1.00  0.00    -0.361 N 
ATOM      5  H2  UNL     1      -0.623   1.037  85.808  1.00  0.00     0.162 HD
HETATM    6  C9  UNL     1      -1.296   3.030  86.509  1.00  0.00     0.142 C 
HETATM    7  C10 UNL     1      -0.814   4.278  85.760  1.00  0.00     0.142 C 
HETATM    8  N3  UNL     1      -1.239   3.952  84.406  1.00  0.00    -0.361 N 
ATOM      9  H3  UNL     1      -1.604   4.597  83.706  1.00  0.00     0.162 HD
ENDROOT
BRANCH   1  10
HETATM   10  C7  UNL     1      -1.124   2.605  81.911  1.00  0.00     0.113 C 
HETATM   11  C4  UNL     1       0.165   2.758  81.128  1.00  0.00     0.144 C 
HETATM   12  C5  UNL     1      -0.062   1.342  80.638  1.00  0.00     0.036 C 
HETATM   13  C6  UNL     1      -1.561   1.621  80.817  1.00  0.00     0.030 C 
BRANCH  11  14
HETATM   14  O1  UNL     1       1.310   2.862  81.868  1.00  0.00    -0.379 OA
BRANCH  14  15
HETATM   15  C2  UNL     1       2.034   4.022  81.620  1.00  0.00     0.114 C 
HETATM   16  C1  UNL     1       1.478   5.234  82.295  1.00  0.00     0.039 C 
HETATM   17  C3  UNL     1       1.958   4.263  80.116  1.00  0.00     0.039 C 
ENDBRANCH  14  15
ENDBRANCH  11  14
ENDBRANCH   1  10
TORSDOF 3
ENDMDL
MODEL 5
REMARK VINA RESULT: -5.626690912      1.884      3.079
REMARK  3 active torsions:
REMARK  status: ('A' for Active; 'I' for Inactive)
REMARK    1  A    between atoms: C2_2  and  O1_4 
REMARK    2  A    between atoms: O1_4  and  C4_5 
REMARK    3  A    between atoms: C7_8  and  N1_9 
ROOT
HETATM    1  N1  UNL     1      -1.267   2.193  84.350  1.00  0.00    -0.355 N 
ATOM      2  H1  UNL     1      -1.980   1.483  84.517  1.00  0.00     0.163 HD
HETATM    3  C8  UNL     1      -0.755   2.332  83.177  1.00  0.00     0.171 C 
HETATM    4  N2  UNL     1      -1.090   1.559  82.010  1.00  0.00    -0.361 N 
ATOM      5  H2  UNL     1      -1.870   0.909  81.912  1.00  0.00     0.162 HD
HETATM    6  C9  UNL     1      -0.102   1.887  81.001  1.00  0.00     0.142 C 
HETATM    7  C10 UNL     1       0.192   3.352  81.346  1.00  0.00     0.142 C 
HETATM    8  N3  UNL     1       0.240   3.274  82.799  1.00  0.00    -0.361 N 
ATOM      9  H3  UNL     1       0.863   3.791  83.420  1.00  0.00     0.162 HD
ENDROOT
BRANCH   1  10
HETATM   10  C7  UNL     1      -0.831   3.039  85.415  1.00  0.00     0.113 C 
HETATM   11  C4  UNL     1      -1.597   4.342  85.533  1.00  0.00     0.144 C 
HETATM   12  C5  UNL     1      -2.665   3.552  86.262  1.00  0.00     0.036 C 
HETATM   13  C6  UNL     1      -1.533   2.618  86.715  1.00  0.00     0.030 C 
BRANCH  11  14
HETATM   14  O1  UNL     1      -2.065   4.872  84.364  1.00  0.00    -0.379 OA
BRANCH  14  15
HETATM   15  C2  UNL     1      -1.736   6.209  84.182  1.00  0.00     0.114 C 
HETATM   16  C1  UNL     1      -0.349   6.551  84.625  1.00  0.00     0.039 C 
HETATM   17  C3  UNL     1      -2.701   7.011  85.047  1.00  0.00     0.039 C 
ENDBRANCH  14  15
ENDBRANCH  11  14
ENDBRANCH   1  10
TORSDOF 3
ENDMDL
