MODEL 1
REMARK VINA RESULT: -6.989432265      0.000      0.000
REMARK  10 active torsions:
REMARK  status: ('A' for Active; 'I' for Inactive)
REMARK    1  A    between atoms: N1_1  and  C1_4 
REMARK    2  A    between atoms: C3_8  and  C4_9 
REMARK    3  A    between atoms: C4_9  and  N3_10 
REMARK    4  A    between atoms: N3_10  and  C5_12 
REMARK    5  A    between atoms: N4_14  and  C7_15 
REMARK    6  A    between atoms: C7_15  and  C8_16 
REMARK    7  A    between atoms: C8_16  and  O1_17 
REMARK    8  A    between atoms: N5_19  and  O2_20 
REMARK    9  A    between atoms: C9_22  and  N6_23 
REMARK   10  A    between atoms: N6_23  and  N7_25 
ROOT
HETATM    1  C5  UNL     1     -46.089 -30.175   2.332  1.00  0.00     0.134 A 
HETATM    2  C6  UNL     1     -45.396 -30.704   3.392  1.00  0.00     0.162 A 
HETATM    3  N4  UNL     1     -44.104 -31.092   3.301  1.00  0.00    -0.257 N 
HETATM    4  N5  UNL     1     -43.495 -30.952   2.132  1.00  0.00     0.019 N 
HETATM    5  C9  UNL     1     -44.163 -30.432   1.076  1.00  0.00     0.740 A 
HETATM    6  N8  UNL     1     -45.448 -30.042   1.156  1.00  0.00    -0.171 N 
ATOM      7  H8  UNL     1     -45.926 -29.655   0.343  1.00  0.00     0.186 HD
ENDROOT
BRANCH   1   8
HETATM    8  N3  UNL     1     -47.470 -29.767   2.460  1.00  0.00    -0.370 N 
ATOM      9  H3  UNL     1     -47.743 -28.798   2.303  1.00  0.00     0.161 HD
BRANCH   8  10
HETATM   10  C4  UNL     1     -48.458 -30.765   2.815  1.00  0.00     0.162 C 
BRANCH  10  11
HETATM   11  C3  UNL     1     -48.346 -31.886   1.860  1.00  0.00    -0.009 A 
HETATM   12  C2  UNL     1     -47.949 -33.122   2.308  1.00  0.00     0.116 A 
HETATM   13  N2  UNL     1     -47.853 -34.141   1.408  1.00  0.00    -0.202 N 
HETATM   14  C1  UNL     1     -48.127 -33.999   0.104  1.00  0.00     0.675 A 
ATOM     15  H2  UNL     1     -47.559 -35.058   1.743  1.00  0.00     0.183 HD
HETATM   16  N9  UNL     1     -48.515 -32.793  -0.337  1.00  0.00    -0.202 N 
HETATM   17  C10 UNL     1     -48.627 -31.740   0.522  1.00  0.00     0.116 A 
ATOM     18  H9  UNL     1     -48.730 -32.663  -1.326  1.00  0.00     0.183 HD
BRANCH  14  19
HETATM   19  N1  UNL     1     -48.021 -35.006  -0.724  1.00  0.00    -0.234 N 
ATOM     20  H12 UNL     1     -48.848 -35.525  -1.017  1.00  0.00     0.174 HD
ATOM     21  H11 UNL     1     -47.114 -35.292  -1.093  1.00  0.00     0.174 HD
ENDBRANCH  14  19
ENDBRANCH  10  11
ENDBRANCH   8  10
ENDBRANCH   1   8
BRANCH   3  22
HETATM   22  C7  UNL     1     -43.468 -31.633   4.468  1.00  0.00     0.177 C 
BRANCH  22  23
HETATM   23  C8  UNL     1     -42.933 -30.582   5.401  1.00  0.00     0.185 C 
BRANCH  23  24
HETATM   24  O1  UNL     1     -41.778 -30.052   4.809  1.00  0.00    -0.399 OA
ATOM     25  H1  UNL     1     -41.238 -30.786   4.540  1.00  0.00     0.209 HD
ENDBRANCH  23  24
ENDBRANCH  22  23
ENDBRANCH   3  22
BRANCH   5  26
HETATM   26  N6  UNL     1     -43.535 -30.310  -0.052  1.00  0.00    -0.135 N 
ATOM     27  H6  UNL     1     -43.853 -30.844  -0.861  1.00  0.00     0.205 HD
BRANCH  26  28
HETATM   28  N7  UNL     1     -42.433 -29.463  -0.181  1.00  0.00    -0.331 N 
ATOM     29  H72 UNL     1     -42.063 -29.020   0.659  1.00  0.00     0.177 HD
ATOM     30  H71 UNL     1     -42.003 -29.286  -1.089  1.00  0.00     0.177 HD
ENDBRANCH  26  28
ENDBRANCH   5  26
BRANCH   4  31
HETATM   31  O2  UNL     1     -42.185 -31.336   2.002  1.00  0.00    -0.254 OA
ATOM     32  H2  UNL     1     -41.596 -30.818   1.466  1.00  0.00     0.247 HD
ENDBRANCH   4  31
TORSDOF 10
ENDMDL
MODEL 2
REMARK VINA RESULT: -6.885678743      3.044      5.812
REMARK  10 active torsions:
REMARK  status: ('A' for Active; 'I' for Inactive)
REMARK    1  A    between atoms: N1_1  and  C1_4 
REMARK    2  A    between atoms: C3_8  and  C4_9 
REMARK    3  A    between atoms: C4_9  and  N3_10 
REMARK    4  A    between atoms: N3_10  and  C5_12 
REMARK    5  A    between atoms: N4_14  and  C7_15 
REMARK    6  A    between atoms: C7_15  and  C8_16 
REMARK    7  A    between atoms: C8_16  and  O1_17 
REMARK    8  A    between atoms: N5_19  and  O2_20 
REMARK    9  A    between atoms: C9_22  and  N6_23 
REMARK   10  A    between atoms: N6_23  and  N7_25 
ROOT
HETATM    1  C5  UNL     1     -44.640 -31.104   0.869  1.00  0.00     0.134 A 
HETATM    2  C6  UNL     1     -45.931 -30.681   1.071  1.00  0.00     0.162 A 
HETATM    3  N4  UNL     1     -46.935 -30.959   0.209  1.00  0.00    -0.257 N 
HETATM    4  N5  UNL     1     -46.646 -31.671  -0.872  1.00  0.00     0.019 N 
HETATM    5  C9  UNL     1     -45.379 -32.096  -1.085  1.00  0.00     0.740 A 
HETATM    6  N8  UNL     1     -44.373 -31.825  -0.235  1.00  0.00    -0.171 N 
ATOM      7  H8  UNL     1     -43.428 -32.158  -0.423  1.00  0.00     0.186 HD
ENDROOT
BRANCH   1   8
HETATM    8  N3  UNL     1     -43.587 -30.791   1.809  1.00  0.00    -0.370 N 
ATOM      9  H3  UNL     1     -42.608 -30.891   1.545  1.00  0.00     0.161 HD
BRANCH   8  10
HETATM   10  C4  UNL     1     -43.952 -30.334   3.133  1.00  0.00     0.162 C 
BRANCH  10  11
HETATM   11  C3  UNL     1     -43.471 -31.327   4.114  1.00  0.00    -0.009 A 
HETATM   12  C2  UNL     1     -43.710 -32.663   3.901  1.00  0.00     0.116 A 
HETATM   13  N2  UNL     1     -43.256 -33.561   4.820  1.00  0.00    -0.202 N 
HETATM   14  C1  UNL     1     -42.587 -33.207   5.926  1.00  0.00     0.675 A 
ATOM     15  H2  UNL     1     -43.434 -34.552   4.659  1.00  0.00     0.183 HD
HETATM   16  N9  UNL     1     -42.352 -31.904   6.138  1.00  0.00    -0.202 N 
HETATM   17  C10 UNL     1     -42.785 -30.965   5.249  1.00  0.00     0.116 A 
ATOM     18  H9  UNL     1     -41.844 -31.612   6.973  1.00  0.00     0.183 HD
BRANCH  14  19
HETATM   19  N1  UNL     1     -42.171 -34.104   6.782  1.00  0.00    -0.234 N 
ATOM     20  H12 UNL     1     -41.197 -34.119   7.083  1.00  0.00     0.174 HD
ATOM     21  H11 UNL     1     -42.807 -34.803   7.165  1.00  0.00     0.174 HD
ENDBRANCH  14  19
ENDBRANCH  10  11
ENDBRANCH   8  10
ENDBRANCH   1   8
BRANCH   3  22
HETATM   22  C7  UNL     1     -48.251 -30.471   0.511  1.00  0.00     0.177 C 
BRANCH  22  23
HETATM   23  C8  UNL     1     -48.618 -30.594   1.963  1.00  0.00     0.185 C 
BRANCH  23  24
HETATM   24  O1  UNL     1     -48.688 -29.294   2.484  1.00  0.00    -0.399 OA
ATOM     25  H1  UNL     1     -48.031 -29.229   3.167  1.00  0.00     0.209 HD
ENDBRANCH  23  24
ENDBRANCH  22  23
ENDBRANCH   3  22
BRANCH   5  26
HETATM   26  N6  UNL     1     -45.134 -32.790  -2.154  1.00  0.00    -0.135 N 
ATOM     27  H6  UNL     1     -44.488 -32.420  -2.852  1.00  0.00     0.205 HD
BRANCH  26  28
HETATM   28  N7  UNL     1     -45.734 -34.032  -2.367  1.00  0.00    -0.331 N 
ATOM     29  H72 UNL     1     -46.514 -34.301  -1.768  1.00  0.00     0.177 HD
ATOM     30  H71 UNL     1     -45.408 -34.660  -3.102  1.00  0.00     0.177 HD
ENDBRANCH  26  28
ENDBRANCH   5  26
BRANCH   4  31
HETATM   31  O2  UNL     1     -47.639 -31.972  -1.768  1.00  0.00    -0.254 OA
ATOM     32  H2  UNL     1     -48.103 -31.268  -2.206  1.00  0.00     0.247 HD
ENDBRANCH   4  31
TORSDOF 10
ENDMDL
MODEL 3
REMARK VINA RESULT: -6.851025036      3.025      5.812
REMARK  10 active torsions:
REMARK  status: ('A' for Active; 'I' for Inactive)
REMARK    1  A    between atoms: N1_1  and  C1_4 
REMARK    2  A    between atoms: C3_8  and  C4_9 
REMARK    3  A    between atoms: C4_9  and  N3_10 
REMARK    4  A    between atoms: N3_10  and  C5_12 
REMARK    5  A    between atoms: N4_14  and  C7_15 
REMARK    6  A    between atoms: C7_15  and  C8_16 
REMARK    7  A    between atoms: C8_16  and  O1_17 
REMARK    8  A    between atoms: N5_19  and  O2_20 
REMARK    9  A    between atoms: C9_22  and  N6_23 
REMARK   10  A    between atoms: N6_23  and  N7_25 
ROOT
HETATM    1  C5  UNL     1     -44.643 -31.091   0.770  1.00  0.00     0.134 A 
HETATM    2  C6  UNL     1     -45.931 -30.688   1.022  1.00  0.00     0.162 A 
HETATM    3  N4  UNL     1     -46.964 -30.987   0.202  1.00  0.00    -0.257 N 
HETATM    4  N5  UNL     1     -46.707 -31.699  -0.887  1.00  0.00     0.019 N 
HETATM    5  C9  UNL     1     -45.443 -32.104  -1.149  1.00  0.00     0.740 A 
HETATM    6  N8  UNL     1     -44.408 -31.813  -0.341  1.00  0.00    -0.171 N 
ATOM      7  H8  UNL     1     -43.466 -32.132  -0.565  1.00  0.00     0.186 HD
ENDROOT
BRANCH   1   8
HETATM    8  N3  UNL     1     -43.558 -30.757   1.666  1.00  0.00    -0.370 N 
ATOM      9  H3  UNL     1     -42.589 -30.914   1.391  1.00  0.00     0.161 HD
BRANCH   8  10
HETATM   10  C4  UNL     1     -43.877 -30.195   2.961  1.00  0.00     0.162 C 
BRANCH  10  11
HETATM   11  C3  UNL     1     -43.465 -31.163   3.998  1.00  0.00    -0.009 A 
HETATM   12  C2  UNL     1     -42.717 -30.734   5.068  1.00  0.00     0.116 A 
HETATM   13  N2  UNL     1     -42.349 -31.645   6.012  1.00  0.00    -0.202 N 
HETATM   14  C1  UNL     1     -42.679 -32.942   5.951  1.00  0.00     0.675 A 
ATOM     15  H2  UNL     1     -41.795 -31.324   6.806  1.00  0.00     0.183 HD
HETATM   16  N9  UNL     1     -43.409 -33.364   4.908  1.00  0.00    -0.202 N 
HETATM   17  C10 UNL     1     -43.803 -32.494   3.936  1.00  0.00     0.116 A 
ATOM     18  H9  UNL     1     -43.672 -34.348   4.842  1.00  0.00     0.183 HD
BRANCH  14  19
HETATM   19  N1  UNL     1     -42.303 -33.782   6.881  1.00  0.00    -0.234 N 
ATOM     20  H12 UNL     1     -41.586 -33.518   7.556  1.00  0.00     0.174 HD
ATOM     21  H11 UNL     1     -42.716 -34.712   6.950  1.00  0.00     0.174 HD
ENDBRANCH  14  19
ENDBRANCH  10  11
ENDBRANCH   8  10
ENDBRANCH   1   8
BRANCH   3  22
HETATM   22  C7  UNL     1     -48.274 -30.518   0.554  1.00  0.00     0.177 C 
BRANCH  22  23
HETATM   23  C8  UNL     1     -48.542 -30.542   2.033  1.00  0.00     0.185 C 
BRANCH  23  24
HETATM   24  O1  UNL     1     -48.650 -29.208   2.455  1.00  0.00    -0.399 OA
ATOM     25  H1  UNL     1     -49.557 -28.950   2.338  1.00  0.00     0.209 HD
ENDBRANCH  23  24
ENDBRANCH  22  23
ENDBRANCH   3  22
BRANCH   5  26
HETATM   26  N6  UNL     1     -45.229 -32.799  -2.224  1.00  0.00    -0.135 N 
ATOM     27  H6  UNL     1     -44.632 -32.414  -2.956  1.00  0.00     0.205 HD
BRANCH  26  28
HETATM   28  N7  UNL     1     -45.798 -34.062  -2.397  1.00  0.00    -0.331 N 
ATOM     29  H72 UNL     1     -46.787 -34.117  -2.637  1.00  0.00     0.177 HD
ATOM     30  H71 UNL     1     -45.246 -34.912  -2.289  1.00  0.00     0.177 HD
ENDBRANCH  26  28
ENDBRANCH   5  26
BRANCH   4  31
HETATM   31  O2  UNL     1     -47.730 -32.020  -1.741  1.00  0.00    -0.254 OA
ATOM     32  H2  UNL     1     -47.531 -32.417  -2.581  1.00  0.00     0.247 HD
ENDBRANCH   4  31
TORSDOF 10
ENDMDL
MODEL 4
REMARK VINA RESULT: -6.815273829      1.607      2.244
REMARK  10 active torsions:
REMARK  status: ('A' for Active; 'I' for Inactive)
REMARK    1  A    between atoms: N1_1  and  C1_4 
REMARK    2  A    between atoms: C3_8  and  C4_9 
REMARK    3  A    between atoms: C4_9  and  N3_10 
REMARK    4  A    between atoms: N3_10  and  C5_12 
REMARK    5  A    between atoms: N4_14  and  C7_15 
REMARK    6  A    between atoms: C7_15  and  C8_16 
REMARK    7  A    between atoms: C8_16  and  O1_17 
REMARK    8  A    between atoms: N5_19  and  O2_20 
REMARK    9  A    between atoms: C9_22  and  N6_23 
REMARK   10  A    between atoms: N6_23  and  N7_25 
ROOT
HETATM    1  C5  UNL     1     -45.976 -32.001   1.356  1.00  0.00     0.134 A 
HETATM    2  C6  UNL     1     -45.399 -32.246   2.578  1.00  0.00     0.162 A 
HETATM    3  N4  UNL     1     -44.081 -32.059   2.815  1.00  0.00    -0.257 N 
HETATM    4  N5  UNL     1     -43.326 -31.623   1.816  1.00  0.00     0.019 N 
HETATM    5  C9  UNL     1     -43.879 -31.376   0.606  1.00  0.00     0.740 A 
HETATM    6  N8  UNL     1     -45.188 -31.558   0.359  1.00  0.00    -0.171 N 
ATOM      7  H8  UNL     1     -45.576 -31.365  -0.564  1.00  0.00     0.186 HD
ENDROOT
BRANCH   1   8
HETATM    8  N3  UNL     1     -47.389 -32.209   1.132  1.00  0.00    -0.370 N 
ATOM      9  H3  UNL     1     -48.016 -32.405   1.912  1.00  0.00     0.161 HD
BRANCH   8  10
HETATM   10  C4  UNL     1     -47.896 -32.133  -0.222  1.00  0.00     0.162 C 
BRANCH  10  11
HETATM   11  C3  UNL     1     -47.661 -33.436  -0.877  1.00  0.00    -0.009 A 
HETATM   12  C2  UNL     1     -48.209 -34.575  -0.338  1.00  0.00     0.116 A 
HETATM   13  N2  UNL     1     -47.978 -35.765  -0.960  1.00  0.00    -0.202 N 
HETATM   14  C1  UNL     1     -47.242 -35.883  -2.073  1.00  0.00     0.675 A 
ATOM     15  H2  UNL     1     -48.387 -36.609  -0.558  1.00  0.00     0.183 HD
HETATM   16  N9  UNL     1     -46.705 -34.773  -2.602  1.00  0.00    -0.202 N 
HETATM   17  C10 UNL     1     -46.905 -33.557  -2.019  1.00  0.00     0.116 A 
ATOM     18  H9  UNL     1     -46.142 -34.840  -3.449  1.00  0.00     0.183 HD
BRANCH  14  19
HETATM   19  N1  UNL     1     -47.046 -37.048  -2.636  1.00  0.00    -0.234 N 
ATOM     20  H12 UNL     1     -46.119 -37.473  -2.636  1.00  0.00     0.174 HD
ATOM     21  H11 UNL     1     -47.811 -37.553  -3.082  1.00  0.00     0.174 HD
ENDBRANCH  14  19
ENDBRANCH  10  11
ENDBRANCH   8  10
ENDBRANCH   1   8
BRANCH   3  22
HETATM   22  C7  UNL     1     -43.575 -32.344   4.128  1.00  0.00     0.177 C 
BRANCH  22  23
HETATM   23  C8  UNL     1     -43.494 -31.133   5.014  1.00  0.00     0.185 C 
BRANCH  23  24
HETATM   24  O1  UNL     1     -42.292 -30.476   4.710  1.00  0.00    -0.399 OA
ATOM     25  H1  UNL     1     -41.806 -30.389   5.521  1.00  0.00     0.209 HD
ENDBRANCH  23  24
ENDBRANCH  22  23
ENDBRANCH   3  22
BRANCH   5  26
HETATM   26  N6  UNL     1     -43.109 -30.950  -0.348  1.00  0.00    -0.135 N 
ATOM     27  H6  UNL     1     -43.000 -31.514  -1.191  1.00  0.00     0.205 HD
BRANCH  26  28
HETATM   28  N7  UNL     1     -42.428 -29.736  -0.244  1.00  0.00    -0.331 N 
ATOM     29  H72 UNL     1     -41.875 -29.423  -1.041  1.00  0.00     0.177 HD
ATOM     30  H71 UNL     1     -42.477 -29.171   0.603  1.00  0.00     0.177 HD
ENDBRANCH  26  28
ENDBRANCH   5  26
BRANCH   4  31
HETATM   31  O2  UNL     1     -41.985 -31.423   2.020  1.00  0.00    -0.254 OA
ATOM     32  H2  UNL     1     -41.616 -31.574   2.883  1.00  0.00     0.247 HD
ENDBRANCH   4  31
TORSDOF 10
ENDMDL
MODEL 5
REMARK VINA RESULT: -6.743447370      1.661      2.194
REMARK  10 active torsions:
REMARK  status: ('A' for Active; 'I' for Inactive)
REMARK    1  A    between atoms: N1_1  and  C1_4 
REMARK    2  A    between atoms: C3_8  and  C4_9 
REMARK    3  A    between atoms: C4_9  and  N3_10 
REMARK    4  A    between atoms: N3_10  and  C5_12 
REMARK    5  A    between atoms: N4_14  and  C7_15 
REMARK    6  A    between atoms: C7_15  and  C8_16 
REMARK    7  A    between atoms: C8_16  and  O1_17 
REMARK    8  A    between atoms: N5_19  and  O2_20 
REMARK    9  A    between atoms: C9_22  and  N6_23 
REMARK   10  A    between atoms: N6_23  and  N7_25 
ROOT
HETATM    1  C5  UNL     1     -46.407 -31.435   1.923  1.00  0.00     0.134 A 
HETATM    2  C6  UNL     1     -45.752 -32.198   2.858  1.00  0.00     0.162 A 
HETATM    3  N4  UNL     1     -44.442 -32.032   3.151  1.00  0.00    -0.257 N 
HETATM    4  N5  UNL     1     -43.776 -31.090   2.498  1.00  0.00     0.019 N 
HETATM    5  C9  UNL     1     -44.406 -30.329   1.574  1.00  0.00     0.740 A 
HETATM    6  N8  UNL     1     -45.708 -30.486   1.276  1.00  0.00    -0.171 N 
ATOM      7  H8  UNL     1     -46.156 -29.898   0.574  1.00  0.00     0.186 HD
ENDROOT
BRANCH   1   8
HETATM    8  N3  UNL     1     -47.809 -31.636   1.633  1.00  0.00    -0.370 N 
ATOM      9  H3  UNL     1     -48.465 -31.873   2.376  1.00  0.00     0.161 HD
BRANCH   8  10
HETATM   10  C4  UNL     1     -48.262 -31.492   0.265  1.00  0.00     0.162 C 
BRANCH  10  11
HETATM   11  C3  UNL     1     -47.837 -32.687  -0.490  1.00  0.00    -0.009 A 
HETATM   12  C2  UNL     1     -47.012 -32.544  -1.580  1.00  0.00     0.116 A 
HETATM   13  N2  UNL     1     -46.633 -33.662  -2.261  1.00  0.00    -0.202 N 
HETATM   14  C1  UNL     1     -47.026 -34.898  -1.923  1.00  0.00     0.675 A 
ATOM     15  H2  UNL     1     -46.020 -33.553  -3.068  1.00  0.00     0.183 HD
HETATM   16  N9  UNL     1     -47.832 -35.041  -0.860  1.00  0.00    -0.202 N 
HETATM   17  C10 UNL     1     -48.240 -33.956  -0.144  1.00  0.00     0.116 A 
ATOM     18  H9  UNL     1     -48.142 -35.973  -0.585  1.00  0.00     0.183 HD
BRANCH  14  19
HETATM   19  N1  UNL     1     -46.638 -35.943  -2.607  1.00  0.00    -0.234 N 
ATOM     20  H12 UNL     1     -45.873 -35.867  -3.278  1.00  0.00     0.174 HD
ATOM     21  H11 UNL     1     -47.088 -36.850  -2.486  1.00  0.00     0.174 HD
ENDBRANCH  14  19
ENDBRANCH  10  11
ENDBRANCH   8  10
ENDBRANCH   1   8
BRANCH   3  22
HETATM   22  C7  UNL     1     -43.850 -32.881   4.145  1.00  0.00     0.177 C 
BRANCH  22  23
HETATM   23  C8  UNL     1     -43.539 -32.170   5.432  1.00  0.00     0.185 C 
BRANCH  23  24
HETATM   24  O1  UNL     1     -43.195 -33.150   6.375  1.00  0.00    -0.399 OA
ATOM     25  H1  UNL     1     -42.578 -32.755   6.979  1.00  0.00     0.209 HD
ENDBRANCH  23  24
ENDBRANCH  22  23
ENDBRANCH   3  22
BRANCH   5  26
HETATM   26  N6  UNL     1     -43.721 -29.417   0.955  1.00  0.00    -0.135 N 
ATOM     27  H6  UNL     1     -43.920 -28.434   1.139  1.00  0.00     0.205 HD
BRANCH  26  28
HETATM   28  N7  UNL     1     -42.719 -29.754   0.044  1.00  0.00    -0.331 N 
ATOM     29  H72 UNL     1     -42.971 -29.841  -0.941  1.00  0.00     0.177 HD
ATOM     30  H71 UNL     1     -41.758 -29.911   0.345  1.00  0.00     0.177 HD
ENDBRANCH  26  28
ENDBRANCH   5  26
BRANCH   4  31
HETATM   31  O2  UNL     1     -42.446 -30.894   2.768  1.00  0.00    -0.254 OA
ATOM     32  H2  UNL     1     -41.828 -30.825   2.050  1.00  0.00     0.247 HD
ENDBRANCH   4  31
TORSDOF 10
ENDMDL
