MODEL 1
REMARK VINA RESULT: -8.052834053      0.000      0.000
REMARK  5 active torsions:
REMARK  status: ('A' for Active; 'I' for Inactive)
REMARK       I    between atoms: C1_4  and  N2_5 
REMARK       I    between atoms: C1_4  and  N6_23 
REMARK    1  A    between atoms: N2_5  and  C2_7 
REMARK    2  A    between atoms: C2_7  and  C3_8 
REMARK    3  A    between atoms: C3_8  and  N3_9 
REMARK    4  A    between atoms: N3_9  and  C4_11 
REMARK    5  A    between atoms: N6_23  and  N7_25 
ROOT
HETATM    1  N3  UNL     1     -45.675 -32.749   3.303  1.00  0.00    -0.374 N 
ATOM      2  H3  UNL     1     -45.764 -33.728   3.576  1.00  0.00     0.161 HD
ENDROOT
BRANCH   1   3
HETATM    3  C3  UNL     1     -44.529 -32.002   3.776  1.00  0.00     0.141 C 
BRANCH   3   4
HETATM    4  C2  UNL     1     -43.417 -31.990   2.771  1.00  0.00     0.157 C 
BRANCH   4   5
HETATM    5  N2  UNL     1     -43.102 -30.650   2.347  1.00  0.00    -0.224 N 
HETATM    6  C1  UNL     1     -43.660 -30.103   1.186  1.00  0.00     0.691 C 
HETATM    7  N1  UNL     1     -43.797 -28.827   1.076  1.00  0.00    -0.233 N 
HETATM    8  N6  UNL     1     -44.090 -30.912   0.102  1.00  0.00    -0.072 N 
ATOM      9  H12 UNL     1     -43.489 -28.245   1.855  1.00  0.00     0.174 HD
ATOM     10  H11 UNL     1     -44.205 -28.429   0.230  1.00  0.00     0.174 HD
ATOM     11  H6  UNL     1     -45.072 -30.863  -0.170  1.00  0.00     0.212 HD
ATOM     12  H2  UNL     1     -42.459 -30.088   2.905  1.00  0.00     0.177 HD
BRANCH   8  13
HETATM   13  N7  UNL     1     -43.265 -31.765  -0.612  1.00  0.00    -0.024 N 
HETATM   14  O4  UNL     1     -42.073 -31.916  -0.233  1.00  0.00    -0.516 OA
HETATM   15  O5  UNL     1     -43.683 -32.462  -1.727  1.00  0.00    -0.516 OA
ENDBRANCH   8  13
ENDBRANCH   4   5
ENDBRANCH   3   4
ENDBRANCH   1   3
BRANCH   1  16
HETATM   16  C4  UNL     1     -46.679 -32.186   2.480  1.00  0.00     0.109 C 
HETATM   17  C5  UNL     1     -46.980 -30.863   2.700  1.00  0.00     0.122 C 
HETATM   18  C6  UNL     1     -47.926 -30.052   2.076  1.00  0.00     0.251 C 
HETATM   19  O1  UNL     1     -48.128 -28.918   2.552  1.00  0.00    -0.268 OA
HETATM   20  N4  UNL     1     -48.662 -30.349   0.997  1.00  0.00    -0.286 N 
HETATM   21  C7  UNL     1     -48.829 -31.563   0.424  1.00  0.00     0.316 C 
ATOM     22  H4  UNL     1     -49.154 -29.571   0.557  1.00  0.00     0.172 HD
HETATM   23  O2  UNL     1     -49.740 -31.544  -0.462  1.00  0.00    -0.262 OA
HETATM   24  C8  UNL     1     -48.192 -32.763   0.642  1.00  0.00     0.315 C 
HETATM   25  O3  UNL     1     -48.561 -33.693  -0.108  1.00  0.00    -0.262 OA
HETATM   26  N5  UNL     1     -47.225 -33.014   1.573  1.00  0.00    -0.305 N 
ATOM     27  H5  UNL     1     -46.865 -33.968   1.581  1.00  0.00     0.170 HD
ENDBRANCH   1  16
TORSDOF 5
ENDMDL
MODEL 2
REMARK VINA RESULT: -7.967010691      3.061      4.665
REMARK  5 active torsions:
REMARK  status: ('A' for Active; 'I' for Inactive)
REMARK       I    between atoms: C1_4  and  N2_5 
REMARK       I    between atoms: C1_4  and  N6_23 
REMARK    1  A    between atoms: N2_5  and  C2_7 
REMARK    2  A    between atoms: C2_7  and  C3_8 
REMARK    3  A    between atoms: C3_8  and  N3_9 
REMARK    4  A    between atoms: N3_9  and  C4_11 
REMARK    5  A    between atoms: N6_23  and  N7_25 
ROOT
HETATM    1  N3  UNL     1     -46.316 -29.998   1.361  1.00  0.00    -0.374 N 
ATOM      2  H3  UNL     1     -46.469 -29.009   1.162  1.00  0.00     0.161 HD
ENDROOT
BRANCH   1   3
HETATM    3  C3  UNL     1     -46.707 -30.509   2.657  1.00  0.00     0.141 C 
BRANCH   3   4
HETATM    4  C2  UNL     1     -45.523 -30.739   3.548  1.00  0.00     0.157 C 
BRANCH   4   5
HETATM    5  N2  UNL     1     -44.972 -29.496   4.025  1.00  0.00    -0.224 N 
HETATM    6  C1  UNL     1     -43.601 -29.353   4.268  1.00  0.00     0.691 C 
HETATM    7  N1  UNL     1     -43.052 -28.190   4.197  1.00  0.00    -0.233 N 
HETATM    8  N6  UNL     1     -42.773 -30.459   4.596  1.00  0.00    -0.072 N 
ATOM      9  H12 UNL     1     -43.647 -27.396   3.962  1.00  0.00     0.174 HD
ATOM     10  H11 UNL     1     -42.053 -28.086   4.374  1.00  0.00     0.174 HD
ATOM     11  H6  UNL     1     -41.992 -30.670   3.975  1.00  0.00     0.212 HD
ATOM     12  H2  UNL     1     -45.594 -28.704   4.190  1.00  0.00     0.177 HD
BRANCH   8  13
HETATM   13  N7  UNL     1     -42.956 -31.271   5.703  1.00  0.00    -0.024 N 
HETATM   14  O4  UNL     1     -43.689 -30.862   6.642  1.00  0.00    -0.516 OA
HETATM   15  O5  UNL     1     -42.371 -32.513   5.833  1.00  0.00    -0.516 OA
ENDBRANCH   8  13
ENDBRANCH   4   5
ENDBRANCH   3   4
ENDBRANCH   1   3
BRANCH   1  16
HETATM   16  C4  UNL     1     -45.730 -30.804   0.357  1.00  0.00     0.109 C 
HETATM   17  C5  UNL     1     -44.369 -30.982   0.431  1.00  0.00     0.122 C 
HETATM   18  C6  UNL     1     -43.518 -31.691  -0.415  1.00  0.00     0.251 C 
HETATM   19  O1  UNL     1     -42.290 -31.581  -0.235  1.00  0.00    -0.268 OA
HETATM   20  N4  UNL     1     -43.869 -32.497  -1.426  1.00  0.00    -0.286 N 
HETATM   21  C7  UNL     1     -45.089 -32.618  -1.996  1.00  0.00     0.316 C 
ATOM     22  H4  UNL     1     -43.131 -33.089  -1.809  1.00  0.00     0.172 HD
HETATM   23  O2  UNL     1     -45.047 -33.321  -3.054  1.00  0.00    -0.262 OA
HETATM   24  C8  UNL     1     -46.316 -32.120  -1.624  1.00  0.00     0.315 C 
HETATM   25  O3  UNL     1     -47.265 -32.468  -2.360  1.00  0.00    -0.262 OA
HETATM   26  N5  UNL     1     -46.576 -31.307  -0.558  1.00  0.00    -0.305 N 
ATOM     27  H5  UNL     1     -47.554 -31.043  -0.439  1.00  0.00     0.170 HD
ENDBRANCH   1  16
TORSDOF 5
ENDMDL
MODEL 3
REMARK VINA RESULT: -7.872438445      2.294      3.675
REMARK  5 active torsions:
REMARK  status: ('A' for Active; 'I' for Inactive)
REMARK       I    between atoms: C1_4  and  N2_5 
REMARK       I    between atoms: C1_4  and  N6_23 
REMARK    1  A    between atoms: N2_5  and  C2_7 
REMARK    2  A    between atoms: C2_7  and  C3_8 
REMARK    3  A    between atoms: C3_8  and  N3_9 
REMARK    4  A    between atoms: N3_9  and  C4_11 
REMARK    5  A    between atoms: N6_23  and  N7_25 
ROOT
HETATM    1  N3  UNL     1     -47.066 -30.745   0.286  1.00  0.00    -0.374 N 
ATOM      2  H3  UNL     1     -47.334 -29.894  -0.209  1.00  0.00     0.161 HD
ENDROOT
BRANCH   1   3
HETATM    3  C3  UNL     1     -46.780 -30.659   1.702  1.00  0.00     0.141 C 
BRANCH   3   4
HETATM    4  C2  UNL     1     -45.412 -31.179   2.028  1.00  0.00     0.157 C 
BRANCH   4   5
HETATM    5  N2  UNL     1     -44.471 -30.105   2.222  1.00  0.00    -0.224 N 
HETATM    6  C1  UNL     1     -43.797 -29.523   1.142  1.00  0.00     0.691 C 
HETATM    7  N1  UNL     1     -43.379 -28.308   1.222  1.00  0.00    -0.233 N 
HETATM    8  N6  UNL     1     -43.550 -30.232  -0.064  1.00  0.00    -0.072 N 
ATOM      9  H12 UNL     1     -43.557 -27.799   2.088  1.00  0.00     0.174 HD
ATOM     10  H11 UNL     1     -42.889 -27.884   0.435  1.00  0.00     0.174 HD
ATOM     11  H6  UNL     1     -43.939 -29.854  -0.927  1.00  0.00     0.212 HD
ATOM     12  H2  UNL     1     -44.292 -29.763   3.166  1.00  0.00     0.177 HD
BRANCH   8  13
HETATM   13  N7  UNL     1     -42.814 -31.403  -0.145  1.00  0.00    -0.024 N 
HETATM   14  O4  UNL     1     -42.779 -32.024  -1.241  1.00  0.00    -0.516 OA
HETATM   15  O5  UNL     1     -42.114 -31.930   0.920  1.00  0.00    -0.516 OA
ENDBRANCH   8  13
ENDBRANCH   4   5
ENDBRANCH   3   4
ENDBRANCH   1   3
BRANCH   1  16
HETATM   16  C4  UNL     1     -46.991 -31.953  -0.447  1.00  0.00     0.109 C 
HETATM   17  C5  UNL     1     -47.846 -32.957  -0.061  1.00  0.00     0.122 C 
HETATM   18  C6  UNL     1     -47.986 -34.248  -0.566  1.00  0.00     0.251 C 
HETATM   19  O1  UNL     1     -48.725 -35.040   0.050  1.00  0.00    -0.268 OA
HETATM   20  N4  UNL     1     -47.407 -34.756  -1.662  1.00  0.00    -0.286 N 
HETATM   21  C7  UNL     1     -46.392 -34.221  -2.379  1.00  0.00     0.316 C 
ATOM     22  H4  UNL     1     -47.774 -35.648  -1.996  1.00  0.00     0.172 HD
HETATM   23  O2  UNL     1     -45.944 -35.039  -3.242  1.00  0.00    -0.262 OA
HETATM   24  C8  UNL     1     -45.796 -32.983  -2.321  1.00  0.00     0.315 C 
HETATM   25  O3  UNL     1     -44.902 -32.794  -3.175  1.00  0.00    -0.262 OA
HETATM   26  N5  UNL     1     -46.087 -31.979  -1.441  1.00  0.00    -0.305 N 
ATOM     27  H5  UNL     1     -45.540 -31.126  -1.556  1.00  0.00     0.170 HD
ENDBRANCH   1  16
TORSDOF 5
ENDMDL
MODEL 4
REMARK VINA RESULT: -7.802726110      2.253      3.019
REMARK  5 active torsions:
REMARK  status: ('A' for Active; 'I' for Inactive)
REMARK       I    between atoms: C1_4  and  N2_5 
REMARK       I    between atoms: C1_4  and  N6_23 
REMARK    1  A    between atoms: N2_5  and  C2_7 
REMARK    2  A    between atoms: C2_7  and  C3_8 
REMARK    3  A    between atoms: C3_8  and  N3_9 
REMARK    4  A    between atoms: N3_9  and  C4_11 
REMARK    5  A    between atoms: N6_23  and  N7_25 
ROOT
HETATM    1  N3  UNL     1     -46.499 -32.699   1.738  1.00  0.00    -0.374 N 
ATOM      2  H3  UNL     1     -46.158 -32.917   0.801  1.00  0.00     0.161 HD
ENDROOT
BRANCH   1   3
HETATM    3  C3  UNL     1     -45.541 -32.629   2.821  1.00  0.00     0.141 C 
BRANCH   3   4
HETATM    4  C2  UNL     1     -44.691 -31.397   2.736  1.00  0.00     0.157 C 
BRANCH   4   5
HETATM    5  N2  UNL     1     -43.840 -31.422   1.574  1.00  0.00    -0.224 N 
HETATM    6  C1  UNL     1     -43.722 -30.309   0.734  1.00  0.00     0.691 C 
HETATM    7  N1  UNL     1     -42.651 -30.136   0.039  1.00  0.00    -0.233 N 
HETATM    8  N6  UNL     1     -44.755 -29.342   0.612  1.00  0.00    -0.072 N 
ATOM      9  H12 UNL     1     -41.909 -30.830   0.127  1.00  0.00     0.174 HD
ATOM     10  H11 UNL     1     -42.565 -29.324  -0.573  1.00  0.00     0.174 HD
ATOM     11  H6  UNL     1     -44.537 -28.378   0.861  1.00  0.00     0.212 HD
ATOM     12  H2  UNL     1     -43.313 -32.268   1.359  1.00  0.00     0.177 HD
BRANCH   8  13
HETATM   13  N7  UNL     1     -46.040 -29.622   0.177  1.00  0.00    -0.024 N 
HETATM   14  O4  UNL     1     -46.229 -30.637  -0.547  1.00  0.00    -0.516 OA
HETATM   15  O5  UNL     1     -47.132 -28.842   0.496  1.00  0.00    -0.516 OA
ENDBRANCH   8  13
ENDBRANCH   4   5
ENDBRANCH   3   4
ENDBRANCH   1   3
BRANCH   1  16
HETATM   16  C4  UNL     1     -47.885 -32.479   1.915  1.00  0.00     0.109 C 
HETATM   17  C5  UNL     1     -48.474 -33.116   2.982  1.00  0.00     0.122 C 
HETATM   18  C6  UNL     1     -49.806 -33.114   3.392  1.00  0.00     0.251 C 
HETATM   19  O1  UNL     1     -50.137 -33.897   4.304  1.00  0.00    -0.268 OA
HETATM   20  N4  UNL     1     -50.799 -32.353   2.915  1.00  0.00    -0.286 N 
HETATM   21  C7  UNL     1     -50.792 -31.603   1.789  1.00  0.00     0.316 C 
ATOM     22  H4  UNL     1     -51.660 -32.337   3.463  1.00  0.00     0.172 HD
HETATM   23  O2  UNL     1     -51.950 -31.157   1.514  1.00  0.00    -0.262 OA
HETATM   24  C8  UNL     1     -49.770 -31.261   0.935  1.00  0.00     0.315 C 
HETATM   25  O3  UNL     1     -50.104 -30.499   0.001  1.00  0.00    -0.262 OA
HETATM   26  N5  UNL     1     -48.469 -31.669   1.017  1.00  0.00    -0.305 N 
ATOM     27  H5  UNL     1     -47.852 -31.305   0.291  1.00  0.00     0.170 HD
ENDBRANCH   1  16
TORSDOF 5
ENDMDL
MODEL 5
REMARK VINA RESULT: -7.768839057      1.323      2.036
REMARK  5 active torsions:
REMARK  status: ('A' for Active; 'I' for Inactive)
REMARK       I    between atoms: C1_4  and  N2_5 
REMARK       I    between atoms: C1_4  and  N6_23 
REMARK    1  A    between atoms: N2_5  and  C2_7 
REMARK    2  A    between atoms: C2_7  and  C3_8 
REMARK    3  A    between atoms: C3_8  and  N3_9 
REMARK    4  A    between atoms: N3_9  and  C4_11 
REMARK    5  A    between atoms: N6_23  and  N7_25 
ROOT
HETATM    1  N3  UNL     1     -45.380 -31.000   3.718  1.00  0.00    -0.374 N 
ATOM      2  H3  UNL     1     -45.223 -30.131   4.229  1.00  0.00     0.161 HD
ENDROOT
BRANCH   1   3
HETATM    3  C3  UNL     1     -44.393 -32.053   3.828  1.00  0.00     0.141 C 
BRANCH   3   4
HETATM    4  C2  UNL     1     -43.488 -32.097   2.633  1.00  0.00     0.157 C 
BRANCH   4   5
HETATM    5  N2  UNL     1     -43.049 -30.778   2.254  1.00  0.00    -0.224 N 
HETATM    6  C1  UNL     1     -43.522 -30.161   1.090  1.00  0.00     0.691 C 
HETATM    7  N1  UNL     1     -43.549 -28.876   1.007  1.00  0.00    -0.233 N 
HETATM    8  N6  UNL     1     -43.981 -30.908  -0.028  1.00  0.00    -0.072 N 
ATOM      9  H12 UNL     1     -43.219 -28.340   1.809  1.00  0.00     0.174 HD
ATOM     10  H11 UNL     1     -43.893 -28.427   0.159  1.00  0.00     0.174 HD
ATOM     11  H6  UNL     1     -44.946 -30.770  -0.328  1.00  0.00     0.212 HD
ATOM     12  H2  UNL     1     -42.381 -30.285   2.845  1.00  0.00     0.177 HD
BRANCH   8  13
HETATM   13  N7  UNL     1     -43.206 -31.810  -0.737  1.00  0.00    -0.024 N 
HETATM   14  O4  UNL     1     -42.018 -32.014  -0.367  1.00  0.00    -0.516 OA
HETATM   15  O5  UNL     1     -43.668 -32.503  -1.836  1.00  0.00    -0.516 OA
ENDBRANCH   8  13
ENDBRANCH   4   5
ENDBRANCH   3   4
ENDBRANCH   1   3
BRANCH   1  16
HETATM   16  C4  UNL     1     -46.552 -31.117   2.935  1.00  0.00     0.109 C 
HETATM   17  C5  UNL     1     -47.362 -32.195   3.204  1.00  0.00     0.122 C 
HETATM   18  C6  UNL     1     -48.552 -32.586   2.592  1.00  0.00     0.251 C 
HETATM   19  O1  UNL     1     -49.033 -33.693   2.904  1.00  0.00    -0.268 OA
HETATM   20  N4  UNL     1     -49.262 -31.898   1.688  1.00  0.00    -0.286 N 
HETATM   21  C7  UNL     1     -48.873 -30.802   0.997  1.00  0.00     0.316 C 
ATOM     22  H4  UNL     1     -50.204 -32.240   1.498  1.00  0.00     0.172 HD
HETATM   23  O2  UNL     1     -49.699 -30.507   0.078  1.00  0.00    -0.262 OA
HETATM   24  C8  UNL     1     -47.769 -29.992   1.131  1.00  0.00     0.315 C 
HETATM   25  O3  UNL     1     -47.740 -29.017   0.348  1.00  0.00    -0.262 OA
HETATM   26  N5  UNL     1     -46.740 -30.157   2.014  1.00  0.00    -0.305 N 
ATOM     27  H5  UNL     1     -46.009 -29.447   1.968  1.00  0.00     0.170 HD
ENDBRANCH   1  16
TORSDOF 5
ENDMDL
