MODEL 1
REMARK VINA RESULT: -7.430010094      0.000      0.000
REMARK  6 active torsions:
REMARK  status: ('A' for Active; 'I' for Inactive)
REMARK       I    between atoms: C1_2  and  N1_3 
REMARK    1  A    between atoms: C1_2  and  O3_14 
REMARK    2  A    between atoms: N1_3  and  N2_5 
REMARK    3  A    between atoms: C5_11  and  O2_12 
REMARK    4  A    between atoms: O3_14  and  N3_15 
REMARK    5  A    between atoms: C7_18  and  O4_19 
REMARK    6  A    between atoms: N4_22  and  O5_24 
ROOT
HETATM    1  N3  UNL     1      28.991 -21.355 -24.639  1.00  0.00    -0.246 N 
ATOM      2  H3  UNL     1      29.326 -22.313 -24.737  1.00  0.00     0.195 HD
HETATM    3  C6  UNL     1      27.730 -21.154 -24.694  1.00  0.00     0.161 C 
HETATM    4  C7  UNL     1      26.614 -22.114 -24.886  1.00  0.00     0.230 C 
HETATM    5  C8  UNL     1      25.533 -21.417 -25.594  1.00  0.00     0.059 C 
HETATM    6  N4  UNL     1      24.856 -21.818 -26.626  1.00  0.00    -0.274 N 
ATOM      7  H4  UNL     1      24.129 -21.210 -27.004  1.00  0.00     0.193 HD
HETATM    8  C9  UNL     1      25.250 -20.078 -24.964  1.00  0.00     0.204 C 
HETATM    9  S2  UNL     1      26.930 -19.581 -24.549  1.00  0.00     0.197 S 
HETATM   10  O6  UNL     1      26.999 -19.068 -23.154  1.00  0.00    -0.221 OA
HETATM   11  O7  UNL     1      27.497 -18.661 -25.562  1.00  0.00    -0.221 OA
ENDROOT
BRANCH   1  12
HETATM   12  O3  UNL     1      29.908 -20.377 -24.458  1.00  0.00    -0.179 OA
BRANCH  12  13
HETATM   13  C1  UNL     1      30.634 -20.282 -23.292  1.00  0.00     0.401 C 
HETATM   14  O1  UNL     1      30.037 -20.103 -22.210  1.00  0.00    -0.235 OA
HETATM   15  N1  UNL     1      32.034 -20.388 -23.324  1.00  0.00    -0.244 N 
ATOM     16  H1  UNL     1      32.521 -20.535 -24.209  1.00  0.00     0.192 HD
BRANCH  15  17
HETATM   17  N2  UNL     1      32.748 -20.289 -22.134  1.00  0.00    -0.301 N 
HETATM   18  C2  UNL     1      33.284 -21.300 -21.539  1.00  0.00     0.043 C 
HETATM   19  C3  UNL     1      33.222 -22.671 -22.019  1.00  0.00     0.068 C 
HETATM   20  C5  UNL     1      34.038 -21.163 -20.272  1.00  0.00     0.226 C 
HETATM   21  C4  UNL     1      34.617 -23.275 -21.928  1.00  0.00     0.082 C 
HETATM   22  S1  UNL     1      35.087 -22.661 -20.259  1.00  0.00    -0.131 SA
ATOM     23  H2  UNL     1      32.853 -19.368 -21.709  1.00  0.00     0.186 HD
BRANCH  20  24
HETATM   24  O2  UNL     1      34.912 -20.078 -20.396  1.00  0.00    -0.379 OA
ATOM     25  H2  UNL     1      35.744 -20.401 -20.720  1.00  0.00     0.211 HD
ENDBRANCH  20  24
ENDBRANCH  15  17
ENDBRANCH  12  13
ENDBRANCH   1  12
BRANCH   4  26
HETATM   26  O4  UNL     1      26.097 -22.535 -23.642  1.00  0.00    -0.383 OA
ATOM     27  H4  UNL     1      25.457 -23.228 -23.760  1.00  0.00     0.211 HD
ENDBRANCH   4  26
BRANCH   6  28
HETATM   28  O5  UNL     1      25.083 -23.028 -27.227  1.00  0.00    -0.290 OA
ATOM     29  H5  UNL     1      24.498 -23.768 -27.115  1.00  0.00     0.244 HD
ENDBRANCH   6  28
TORSDOF 6
ENDMDL
MODEL 2
REMARK VINA RESULT: -7.121432337      1.493      1.625
REMARK  6 active torsions:
REMARK  status: ('A' for Active; 'I' for Inactive)
REMARK       I    between atoms: C1_2  and  N1_3 
REMARK    1  A    between atoms: C1_2  and  O3_14 
REMARK    2  A    between atoms: N1_3  and  N2_5 
REMARK    3  A    between atoms: C5_11  and  O2_12 
REMARK    4  A    between atoms: O3_14  and  N3_15 
REMARK    5  A    between atoms: C7_18  and  O4_19 
REMARK    6  A    between atoms: N4_22  and  O5_24 
ROOT
HETATM    1  N3  UNL     1      28.957 -21.457 -24.406  1.00  0.00    -0.246 N 
ATOM      2  H3  UNL     1      29.266 -22.427 -24.477  1.00  0.00     0.195 HD
HETATM    3  C6  UNL     1      27.709 -21.217 -24.538  1.00  0.00     0.161 C 
HETATM    4  C7  UNL     1      26.575 -22.142 -24.788  1.00  0.00     0.230 C 
HETATM    5  C8  UNL     1      25.562 -21.418 -25.565  1.00  0.00     0.059 C 
HETATM    6  N4  UNL     1      24.934 -21.807 -26.632  1.00  0.00    -0.274 N 
ATOM      7  H4  UNL     1      24.251 -21.180 -27.057  1.00  0.00     0.193 HD
HETATM    8  C9  UNL     1      25.287 -20.064 -24.964  1.00  0.00     0.204 C 
HETATM    9  S2  UNL     1      26.954 -19.617 -24.454  1.00  0.00     0.197 S 
HETATM   10  O6  UNL     1      26.957 -19.092 -23.062  1.00  0.00    -0.221 OA
HETATM   11  O7  UNL     1      27.610 -18.726 -25.439  1.00  0.00    -0.221 OA
ENDROOT
BRANCH   1  12
HETATM   12  O3  UNL     1      29.894 -20.508 -24.180  1.00  0.00    -0.179 OA
BRANCH  12  13
HETATM   13  C1  UNL     1      31.060 -20.798 -23.507  1.00  0.00     0.401 C 
HETATM   14  O1  UNL     1      31.676 -19.881 -22.924  1.00  0.00    -0.235 OA
HETATM   15  N1  UNL     1      31.547 -22.115 -23.478  1.00  0.00    -0.244 N 
ATOM     16  H1  UNL     1      31.041 -22.863 -23.953  1.00  0.00     0.192 HD
BRANCH  15  17
HETATM   17  N2  UNL     1      32.726 -22.385 -22.792  1.00  0.00    -0.301 N 
HETATM   18  C2  UNL     1      32.761 -22.895 -21.607  1.00  0.00     0.043 C 
HETATM   19  C3  UNL     1      31.588 -23.256 -20.828  1.00  0.00     0.068 C 
HETATM   20  C5  UNL     1      34.034 -23.171 -20.902  1.00  0.00     0.226 C 
HETATM   21  C4  UNL     1      31.813 -24.642 -20.238  1.00  0.00     0.082 C 
HETATM   22  S1  UNL     1      33.550 -24.435 -19.672  1.00  0.00    -0.131 SA
ATOM     23  H2  UNL     1      33.611 -22.169 -23.250  1.00  0.00     0.186 HD
BRANCH  20  24
HETATM   24  O2  UNL     1      34.901 -23.809 -21.794  1.00  0.00    -0.379 OA
ATOM     25  H2  UNL     1      35.334 -23.145 -22.317  1.00  0.00     0.211 HD
ENDBRANCH  20  24
ENDBRANCH  15  17
ENDBRANCH  12  13
ENDBRANCH   1  12
BRANCH   4  26
HETATM   26  O4  UNL     1      25.972 -22.533 -23.573  1.00  0.00    -0.383 OA
ATOM     27  H4  UNL     1      25.303 -23.190 -23.726  1.00  0.00     0.211 HD
ENDBRANCH   4  26
BRANCH   6  28
HETATM   28  O5  UNL     1      25.156 -23.030 -27.208  1.00  0.00    -0.290 OA
ATOM     29  H5  UNL     1      24.865 -23.237 -28.088  1.00  0.00     0.244 HD
ENDBRANCH   6  28
TORSDOF 6
ENDMDL
MODEL 3
REMARK VINA RESULT: -7.109173311      2.173      8.116
REMARK  6 active torsions:
REMARK  status: ('A' for Active; 'I' for Inactive)
REMARK       I    between atoms: C1_2  and  N1_3 
REMARK    1  A    between atoms: C1_2  and  O3_14 
REMARK    2  A    between atoms: N1_3  and  N2_5 
REMARK    3  A    between atoms: C5_11  and  O2_12 
REMARK    4  A    between atoms: O3_14  and  N3_15 
REMARK    5  A    between atoms: C7_18  and  O4_19 
REMARK    6  A    between atoms: N4_22  and  O5_24 
ROOT
HETATM    1  N3  UNL     1      31.536 -20.331 -22.833  1.00  0.00    -0.246 N 
ATOM      2  H3  UNL     1      31.961 -20.101 -23.731  1.00  0.00     0.195 HD
HETATM    3  C6  UNL     1      32.309 -20.674 -21.875  1.00  0.00     0.161 C 
HETATM    4  C7  UNL     1      33.787 -20.804 -21.836  1.00  0.00     0.230 C 
HETATM    5  C8  UNL     1      34.124 -21.863 -20.878  1.00  0.00     0.059 C 
HETATM    6  N4  UNL     1      34.946 -22.857 -21.030  1.00  0.00    -0.274 N 
ATOM      7  H4  UNL     1      35.072 -23.514 -20.260  1.00  0.00     0.193 HD
HETATM    8  C9  UNL     1      33.368 -21.686 -19.587  1.00  0.00     0.204 C 
HETATM    9  S2  UNL     1      31.791 -21.114 -20.240  1.00  0.00     0.197 S 
HETATM   10  O6  UNL     1      31.309 -19.923 -19.489  1.00  0.00    -0.221 OA
HETATM   11  O7  UNL     1      30.802 -22.213 -20.331  1.00  0.00    -0.221 OA
ENDROOT
BRANCH   1  12
HETATM   12  O3  UNL     1      30.189 -20.254 -22.731  1.00  0.00    -0.179 OA
BRANCH  12  13
HETATM   13  C1  UNL     1      29.365 -21.012 -23.533  1.00  0.00     0.401 C 
HETATM   14  O1  UNL     1      28.795 -22.014 -23.054  1.00  0.00    -0.235 OA
HETATM   15  N1  UNL     1      29.170 -20.655 -24.877  1.00  0.00    -0.244 N 
ATOM     16  H1  UNL     1      29.635 -19.835 -25.267  1.00  0.00     0.192 HD
BRANCH  15  17
HETATM   17  N2  UNL     1      28.333 -21.435 -25.670  1.00  0.00    -0.301 N 
HETATM   18  C2  UNL     1      27.053 -21.278 -25.725  1.00  0.00     0.043 C 
HETATM   19  C3  UNL     1      26.311 -20.277 -24.977  1.00  0.00     0.068 C 
HETATM   20  C5  UNL     1      26.189 -22.125 -26.579  1.00  0.00     0.226 C 
HETATM   21  C4  UNL     1      25.330 -19.601 -25.926  1.00  0.00     0.082 C 
HETATM   22  S1  UNL     1      24.696 -21.092 -26.794  1.00  0.00    -0.131 SA
ATOM     23  H2  UNL     1      28.754 -22.170 -26.238  1.00  0.00     0.186 HD
BRANCH  20  24
HETATM   24  O2  UNL     1      26.780 -22.223 -27.842  1.00  0.00    -0.379 OA
ATOM     25  H2  UNL     1      26.480 -23.026 -28.251  1.00  0.00     0.211 HD
ENDBRANCH  20  24
ENDBRANCH  15  17
ENDBRANCH  12  13
ENDBRANCH   1  12
BRANCH   4  26
HETATM   26  O4  UNL     1      34.381 -19.612 -21.369  1.00  0.00    -0.383 OA
ATOM     27  H4  UNL     1      35.188 -19.432 -21.837  1.00  0.00     0.211 HD
ENDBRANCH   4  26
BRANCH   6  28
HETATM   28  O5  UNL     1      35.652 -23.053 -22.188  1.00  0.00    -0.290 OA
ATOM     29  H5  UNL     1      36.424 -22.542 -22.404  1.00  0.00     0.244 HD
ENDBRANCH   6  28
TORSDOF 6
ENDMDL
MODEL 4
REMARK VINA RESULT: -6.991053512      2.545      7.720
REMARK  6 active torsions:
REMARK  status: ('A' for Active; 'I' for Inactive)
REMARK       I    between atoms: C1_2  and  N1_3 
REMARK    1  A    between atoms: C1_2  and  O3_14 
REMARK    2  A    between atoms: N1_3  and  N2_5 
REMARK    3  A    between atoms: C5_11  and  O2_12 
REMARK    4  A    between atoms: O3_14  and  N3_15 
REMARK    5  A    between atoms: C7_18  and  O4_19 
REMARK    6  A    between atoms: N4_22  and  O5_24 
ROOT
HETATM    1  N3  UNL     1      30.431 -23.039 -22.860  1.00  0.00    -0.246 N 
ATOM      2  H3  UNL     1      30.649 -23.601 -23.683  1.00  0.00     0.195 HD
HETATM    3  C6  UNL     1      31.353 -22.293 -22.385  1.00  0.00     0.161 C 
HETATM    4  C7  UNL     1      32.752 -22.090 -22.839  1.00  0.00     0.230 C 
HETATM    5  C8  UNL     1      33.572 -21.790 -21.660  1.00  0.00     0.059 C 
HETATM    6  N4  UNL     1      34.714 -22.304 -21.319  1.00  0.00    -0.274 N 
ATOM      7  H4  UNL     1      35.162 -21.985 -20.460  1.00  0.00     0.193 HD
HETATM    8  C9  UNL     1      32.919 -20.739 -20.800  1.00  0.00     0.204 C 
HETATM    9  S2  UNL     1      31.198 -21.239 -20.970  1.00  0.00     0.197 S 
HETATM   10  O6  UNL     1      30.334 -20.065 -21.265  1.00  0.00    -0.221 OA
HETATM   11  O7  UNL     1      30.745 -22.051 -19.817  1.00  0.00    -0.221 OA
ENDROOT
BRANCH   1  12
HETATM   12  O3  UNL     1      29.185 -23.131 -22.342  1.00  0.00    -0.179 OA
BRANCH  12  13
HETATM   13  C1  UNL     1      28.155 -22.344 -22.807  1.00  0.00     0.401 C 
HETATM   14  O1  UNL     1      26.992 -22.558 -22.409  1.00  0.00    -0.235 OA
HETATM   15  N1  UNL     1      28.417 -21.311 -23.721  1.00  0.00    -0.244 N 
ATOM     16  H1  UNL     1      29.369 -21.136 -24.044  1.00  0.00     0.192 HD
BRANCH  15  17
HETATM   17  N2  UNL     1      27.362 -20.528 -24.178  1.00  0.00    -0.301 N 
HETATM   18  C2  UNL     1      26.838 -20.653 -25.351  1.00  0.00     0.043 C 
HETATM   19  C3  UNL     1      27.268 -21.616 -26.350  1.00  0.00     0.068 C 
HETATM   20  C5  UNL     1      25.715 -19.803 -25.809  1.00  0.00     0.226 C 
HETATM   21  C4  UNL     1      26.031 -22.288 -26.931  1.00  0.00     0.082 C 
HETATM   22  S1  UNL     1      24.972 -20.801 -27.149  1.00  0.00    -0.131 SA
ATOM     23  H2  UNL     1      26.982 -19.817 -23.553  1.00  0.00     0.186 HD
BRANCH  20  24
HETATM   24  O2  UNL     1      24.760 -19.749 -24.789  1.00  0.00    -0.379 OA
ATOM     25  H2  UNL     1      24.193 -19.004 -24.951  1.00  0.00     0.211 HD
ENDBRANCH  20  24
ENDBRANCH  15  17
ENDBRANCH  12  13
ENDBRANCH   1  12
BRANCH   4  26
HETATM   26  O4  UNL     1      32.840 -20.979 -23.705  1.00  0.00    -0.383 OA
ATOM     27  H4  UNL     1      33.060 -20.192 -23.221  1.00  0.00     0.211 HD
ENDBRANCH   4  26
BRANCH   6  28
HETATM   28  O5  UNL     1      35.340 -23.262 -22.073  1.00  0.00    -0.290 OA
ATOM     29  H5  UNL     1      36.285 -23.364 -22.081  1.00  0.00     0.244 HD
ENDBRANCH   6  28
TORSDOF 6
ENDMDL
MODEL 5
REMARK VINA RESULT: -6.973801830      4.560      7.571
REMARK  6 active torsions:
REMARK  status: ('A' for Active; 'I' for Inactive)
REMARK       I    between atoms: C1_2  and  N1_3 
REMARK    1  A    between atoms: C1_2  and  O3_14 
REMARK    2  A    between atoms: N1_3  and  N2_5 
REMARK    3  A    between atoms: C5_11  and  O2_12 
REMARK    4  A    between atoms: O3_14  and  N3_15 
REMARK    5  A    between atoms: C7_18  and  O4_19 
REMARK    6  A    between atoms: N4_22  and  O5_24 
ROOT
HETATM    1  N3  UNL     1      29.014 -23.098 -21.184  1.00  0.00    -0.246 N 
ATOM      2  H3  UNL     1      29.601 -23.827 -20.779  1.00  0.00     0.195 HD
HETATM    3  C6  UNL     1      29.504 -22.392 -22.130  1.00  0.00     0.161 C 
HETATM    4  C7  UNL     1      30.841 -22.448 -22.774  1.00  0.00     0.230 C 
HETATM    5  C8  UNL     1      31.190 -21.092 -23.210  1.00  0.00     0.059 C 
HETATM    6  N4  UNL     1      32.305 -20.449 -23.033  1.00  0.00    -0.274 N 
ATOM      7  H4  UNL     1      32.391 -19.502 -23.402  1.00  0.00     0.193 HD
HETATM    8  C9  UNL     1      30.045 -20.449 -23.949  1.00  0.00     0.204 C 
HETATM    9  S2  UNL     1      28.669 -21.080 -22.975  1.00  0.00     0.197 S 
HETATM   10  O6  UNL     1      27.594 -21.606 -23.859  1.00  0.00    -0.221 OA
HETATM   11  O7  UNL     1      28.202 -20.090 -21.977  1.00  0.00    -0.221 OA
ENDROOT
BRANCH   1  12
HETATM   12  O3  UNL     1      27.767 -22.939 -20.686  1.00  0.00    -0.179 OA
BRANCH  12  13
HETATM   13  C1  UNL     1      26.706 -23.678 -21.160  1.00  0.00     0.401 C 
HETATM   14  O1  UNL     1      25.572 -23.159 -21.214  1.00  0.00    -0.235 OA
HETATM   15  N1  UNL     1      26.904 -25.004 -21.578  1.00  0.00    -0.244 N 
ATOM     16  H1  UNL     1      27.832 -25.427 -21.534  1.00  0.00     0.192 HD
BRANCH  15  17
HETATM   17  N2  UNL     1      25.819 -25.733 -22.054  1.00  0.00    -0.301 N 
HETATM   18  C2  UNL     1      25.904 -26.954 -22.464  1.00  0.00     0.043 C 
HETATM   19  C3  UNL     1      27.131 -27.733 -22.488  1.00  0.00     0.068 C 
HETATM   20  C5  UNL     1      24.730 -27.703 -22.965  1.00  0.00     0.226 C 
HETATM   21  C4  UNL     1      26.836 -29.108 -21.904  1.00  0.00     0.082 C 
HETATM   22  S1  UNL     1      25.242 -29.446 -22.755  1.00  0.00    -0.131 SA
ATOM     23  H2  UNL     1      24.906 -25.278 -22.080  1.00  0.00     0.186 HD
BRANCH  20  24
HETATM   24  O2  UNL     1      23.668 -27.501 -22.079  1.00  0.00    -0.379 OA
ATOM     25  H2  UNL     1      22.858 -27.703 -22.532  1.00  0.00     0.211 HD
ENDBRANCH  20  24
ENDBRANCH  15  17
ENDBRANCH  12  13
ENDBRANCH   1  12
BRANCH   4  26
HETATM   26  O4  UNL     1      30.807 -23.264 -23.926  1.00  0.00    -0.383 OA
ATOM     27  H4  UNL     1      31.556 -23.090 -24.484  1.00  0.00     0.211 HD
ENDBRANCH   4  26
BRANCH   6  28
HETATM   28  O5  UNL     1      33.369 -20.999 -22.367  1.00  0.00    -0.290 OA
ATOM     29  H5  UNL     1      33.680 -21.879 -22.546  1.00  0.00     0.244 HD
ENDBRANCH   6  28
TORSDOF 6
ENDMDL
