MODEL 1
REMARK VINA RESULT: -9.259170928      0.000      0.000
REMARK  6 active torsions:
REMARK  status: ('A' for Active; 'I' for Inactive)
REMARK    1  A    between atoms: C2_2  and  O1_3 
REMARK    2  A    between atoms: C2_2  and  C3_5 
REMARK    3  A    between atoms: C2_2  and  C5_11 
REMARK    4  A    between atoms: C3_5  and  O2_6 
REMARK    5  A    between atoms: O2_6  and  S1_7 
REMARK    6  A    between atoms: C22_29  and  O6_30 
ROOT
HETATM    1  C5  UNL     1      -9.225 -11.952  29.346  1.00  0.00     0.030 C 
HETATM    2  C6  UNL     1      -9.260 -11.070  30.576  1.00  0.00     0.009 C 
HETATM    3  C7  UNL     1     -10.284 -11.763  31.422  1.00  0.00     0.006 C 
HETATM    4  C8  UNL     1     -10.370 -13.205  30.914  1.00  0.00    -0.001 C 
HETATM    5  C9  UNL     1     -10.221 -14.100  32.075  1.00  0.00    -0.005 C 
HETATM    6  C10 UNL     1     -10.757 -15.487  31.906  1.00  0.00     0.006 C 
HETATM    7  C11 UNL     1     -11.015 -15.997  33.321  1.00  0.00     0.007 C 
HETATM    8  C12 UNL     1      -9.862 -15.825  34.255  1.00  0.00     0.012 C 
HETATM    9  C13 UNL     1      -8.623 -15.261  33.637  1.00  0.00    -0.035 C 
HETATM   10  C14 UNL     1      -7.815 -16.406  33.002  1.00  0.00     0.016 C 
HETATM   11  C15 UNL     1      -7.675 -14.745  34.706  1.00  0.00     0.010 C 
HETATM   12  C16 UNL     1      -8.248 -13.746  35.636  1.00  0.00     0.002 C 
HETATM   13  C17 UNL     1      -9.723 -13.820  35.780  1.00  0.00     0.020 C 
HETATM   14  C18 UNL     1     -10.219 -15.240  35.603  1.00  0.00     0.051 C 
HETATM   15  C19 UNL     1      -9.808 -16.089  36.750  1.00  0.00     0.138 C 
HETATM   16  O5  UNL     1      -9.026 -16.995  36.710  1.00  0.00    -0.297 OA
HETATM   17  C20 UNL     1     -10.534 -15.622  37.947  1.00  0.00     0.081 C 
HETATM   18  C21 UNL     1     -11.845 -15.176  37.391  1.00  0.00     0.040 C 
HETATM   19  C22 UNL     1     -11.715 -15.169  35.860  1.00  0.00     0.135 C 
HETATM   20  C23 UNL     1      -8.838 -14.128  32.665  1.00  0.00    -0.002 C 
HETATM   21  C24 UNL     1      -7.751 -14.016  31.642  1.00  0.00     0.006 C 
HETATM   22  C25 UNL     1      -8.194 -14.110  30.218  1.00  0.00     0.010 C 
HETATM   23  C26 UNL     1      -9.350 -13.329  29.807  1.00  0.00    -0.034 C 
HETATM   24  C27 UNL     1     -10.085 -14.114  28.702  1.00  0.00     0.016 C 
ENDROOT
BRANCH   1  25
HETATM   25  C2  UNL     1      -8.200 -11.481  28.427  1.00  0.00     0.081 C 
HETATM   26  C1  UNL     1      -6.880 -12.156  28.404  1.00  0.00     0.048 C 
BRANCH  25  27
HETATM   27  O1  UNL     1      -7.930 -10.140  28.838  1.00  0.00    -0.388 OA
ATOM     28  H1  UNL     1      -8.707  -9.860  29.308  1.00  0.00     0.210 HD
ENDBRANCH  25  27
BRANCH  25  29
HETATM   29  C3  UNL     1      -8.654 -11.326  26.983  1.00  0.00     0.227 C 
BRANCH  29  30
HETATM   30  O2  UNL     1     -10.059 -11.158  27.037  1.00  0.00    -0.273 OA
BRANCH  30  31
HETATM   31  S1  UNL     1     -10.529  -9.686  26.411  1.00  0.00     0.261 S 
HETATM   32  C4  UNL     1     -10.895  -8.607  27.776  1.00  0.00     0.194 C 
HETATM   33  O3  UNL     1      -9.442  -9.022  25.614  1.00  0.00    -0.199 OA
HETATM   34  O4  UNL     1     -11.745  -9.796  25.551  1.00  0.00    -0.199 OA
ENDBRANCH  30  31
ENDBRANCH  29  30
ENDBRANCH  25  29
ENDBRANCH   1  25
BRANCH  19  35
HETATM   35  O6  UNL     1     -12.225 -13.930  35.468  1.00  0.00    -0.394 OA
ATOM     36  H6  UNL     1     -12.362 -13.904  34.528  1.00  0.00     0.210 HD
ENDBRANCH  19  35
TORSDOF 6
ENDMDL
MODEL 2
REMARK VINA RESULT: -9.231186140      4.788      7.632
REMARK  6 active torsions:
REMARK  status: ('A' for Active; 'I' for Inactive)
REMARK    1  A    between atoms: C2_2  and  O1_3 
REMARK    2  A    between atoms: C2_2  and  C3_5 
REMARK    3  A    between atoms: C2_2  and  C5_11 
REMARK    4  A    between atoms: C3_5  and  O2_6 
REMARK    5  A    between atoms: O2_6  and  S1_7 
REMARK    6  A    between atoms: C22_29  and  O6_30 
ROOT
HETATM    1  C5  UNL     1      -9.480 -11.259  30.850  1.00  0.00     0.030 C 
HETATM    2  C6  UNL     1     -10.417 -11.519  32.011  1.00  0.00     0.009 C 
HETATM    3  C7  UNL     1     -10.219 -10.291  32.846  1.00  0.00     0.006 C 
HETATM    4  C8  UNL     1      -9.646  -9.217  31.918  1.00  0.00    -0.001 C 
HETATM    5  C9  UNL     1     -10.472  -8.006  32.069  1.00  0.00    -0.005 C 
HETATM    6  C10 UNL     1      -9.828  -6.718  31.660  1.00  0.00     0.006 C 
HETATM    7  C11 UNL     1     -10.589  -5.628  32.411  1.00  0.00     0.007 C 
HETATM    8  C12 UNL     1     -12.073  -5.714  32.279  1.00  0.00     0.012 C 
HETATM    9  C13 UNL     1     -12.568  -6.796  31.373  1.00  0.00    -0.035 C 
HETATM   10  C14 UNL     1     -12.566  -6.277  29.925  1.00  0.00     0.016 C 
HETATM   11  C15 UNL     1     -14.043  -7.072  31.619  1.00  0.00     0.010 C 
HETATM   12  C16 UNL     1     -14.402  -7.409  33.015  1.00  0.00     0.002 C 
HETATM   13  C17 UNL     1     -13.461  -6.881  34.034  1.00  0.00     0.020 C 
HETATM   14  C18 UNL     1     -12.836  -5.580  33.579  1.00  0.00     0.051 C 
HETATM   15  C19 UNL     1     -13.840  -4.486  33.571  1.00  0.00     0.138 C 
HETATM   16  O5  UNL     1     -14.263  -3.927  32.600  1.00  0.00    -0.297 OA
HETATM   17  C20 UNL     1     -14.223  -4.209  34.969  1.00  0.00     0.081 C 
HETATM   18  C21 UNL     1     -12.959  -4.465  35.720  1.00  0.00     0.040 C 
HETATM   19  C22 UNL     1     -11.974  -5.128  34.746  1.00  0.00     0.135 C 
HETATM   20  C23 UNL     1     -11.855  -8.120  31.489  1.00  0.00    -0.002 C 
HETATM   21  C24 UNL     1     -11.910  -8.930  30.233  1.00  0.00     0.006 C 
HETATM   22  C25 UNL     1     -10.586  -9.305  29.650  1.00  0.00     0.010 C 
HETATM   23  C26 UNL     1      -9.570  -9.836  30.543  1.00  0.00    -0.034 C 
HETATM   24  C27 UNL     1      -8.190  -9.399  30.008  1.00  0.00     0.016 C 
ENDROOT
BRANCH   1  25
HETATM   25  C2  UNL     1      -9.604 -12.323  29.866  1.00  0.00     0.081 C 
HETATM   26  C1  UNL     1     -10.925 -12.958  29.644  1.00  0.00     0.048 C 
BRANCH  25  27
HETATM   27  O1  UNL     1      -8.760 -13.369  30.351  1.00  0.00    -0.388 OA
ATOM     28  H1  UNL     1      -7.950 -13.285  29.862  1.00  0.00     0.210 HD
ENDBRANCH  25  27
BRANCH  25  29
HETATM   29  C3  UNL     1      -9.020 -12.002  28.497  1.00  0.00     0.227 C 
BRANCH  29  30
HETATM   30  O2  UNL     1     -10.117 -12.002  27.601  1.00  0.00    -0.273 OA
BRANCH  30  31
HETATM   31  S1  UNL     1      -9.881 -10.940  26.338  1.00  0.00     0.261 S 
HETATM   32  C4  UNL     1     -11.302  -9.875  26.251  1.00  0.00     0.194 C 
HETATM   33  O3  UNL     1      -8.687 -10.052  26.542  1.00  0.00    -0.199 OA
HETATM   34  O4  UNL     1      -9.730 -11.641  25.027  1.00  0.00    -0.199 OA
ENDBRANCH  30  31
ENDBRANCH  29  30
ENDBRANCH  25  29
ENDBRANCH   1  25
BRANCH  19  35
HETATM   35  O6  UNL     1     -11.473  -6.227  35.445  1.00  0.00    -0.394 OA
ATOM     36  H6  UNL     1     -11.492  -7.008  34.904  1.00  0.00     0.210 HD
ENDBRANCH  19  35
TORSDOF 6
ENDMDL
MODEL 3
REMARK VINA RESULT: -9.057036420      6.477      8.719
REMARK  6 active torsions:
REMARK  status: ('A' for Active; 'I' for Inactive)
REMARK    1  A    between atoms: C2_2  and  O1_3 
REMARK    2  A    between atoms: C2_2  and  C3_5 
REMARK    3  A    between atoms: C2_2  and  C5_11 
REMARK    4  A    between atoms: C3_5  and  O2_6 
REMARK    5  A    between atoms: O2_6  and  S1_7 
REMARK    6  A    between atoms: C22_29  and  O6_30 
ROOT
HETATM    1  C5  UNL     1     -10.378  -8.003  30.367  1.00  0.00     0.030 C 
HETATM    2  C6  UNL     1      -9.299  -7.314  31.175  1.00  0.00     0.009 C 
HETATM    3  C7  UNL     1      -9.936  -5.992  31.474  1.00  0.00     0.006 C 
HETATM    4  C8  UNL     1     -11.446  -6.186  31.314  1.00  0.00    -0.001 C 
HETATM    5  C9  UNL     1     -12.096  -5.680  32.535  1.00  0.00    -0.005 C 
HETATM    6  C10 UNL     1     -13.542  -5.313  32.404  1.00  0.00     0.006 C 
HETATM    7  C11 UNL     1     -13.814  -4.328  33.538  1.00  0.00     0.007 C 
HETATM    8  C12 UNL     1     -13.353  -4.794  34.880  1.00  0.00     0.012 C 
HETATM    9  C13 UNL     1     -12.777  -6.174  34.908  1.00  0.00    -0.035 C 
HETATM   10  C14 UNL     1     -13.922  -7.191  35.055  1.00  0.00     0.016 C 
HETATM   11  C15 UNL     1     -11.977  -6.398  36.181  1.00  0.00     0.010 C 
HETATM   12  C16 UNL     1     -10.895  -5.418  36.432  1.00  0.00     0.002 C 
HETATM   13  C17 UNL     1     -11.103  -4.098  35.786  1.00  0.00     0.020 C 
HETATM   14  C18 UNL     1     -12.577  -3.769  35.677  1.00  0.00     0.051 C 
HETATM   15  C19 UNL     1     -13.157  -3.491  37.014  1.00  0.00     0.138 C 
HETATM   16  O5  UNL     1     -13.964  -4.166  37.586  1.00  0.00    -0.297 OA
HETATM   17  C20 UNL     1     -12.564  -2.236  37.516  1.00  0.00     0.081 C 
HETATM   18  C21 UNL     1     -12.372  -1.435  36.272  1.00  0.00     0.040 C 
HETATM   19  C22 UNL     1     -12.625  -2.372  35.081  1.00  0.00     0.135 C 
HETATM   20  C23 UNL     1     -11.868  -6.525  33.758  1.00  0.00    -0.002 C 
HETATM   21  C24 UNL     1     -11.823  -7.993  33.469  1.00  0.00     0.006 C 
HETATM   22  C25 UNL     1     -12.219  -8.388  32.083  1.00  0.00     0.010 C 
HETATM   23  C26 UNL     1     -11.655  -7.642  30.970  1.00  0.00    -0.034 C 
HETATM   24  C27 UNL     1     -12.702  -7.616  29.837  1.00  0.00     0.016 C 
ENDROOT
BRANCH   1  25
HETATM   25  C2  UNL     1      -9.971  -9.365  30.055  1.00  0.00     0.081 C 
HETATM   26  C1  UNL     1     -10.039 -10.403  31.111  1.00  0.00     0.048 C 
BRANCH  25  27
HETATM   27  O1  UNL     1      -8.587  -9.263  29.716  1.00  0.00    -0.388 OA
ATOM     28  H1  UNL     1      -8.247  -8.559  30.256  1.00  0.00     0.210 HD
ENDBRANCH  25  27
BRANCH  25  29
HETATM   29  C3  UNL     1     -10.602  -9.952  28.801  1.00  0.00     0.227 C 
BRANCH  29  30
HETATM   30  O2  UNL     1     -10.417  -8.983  27.786  1.00  0.00    -0.273 OA
BRANCH  30  31
HETATM   31  S1  UNL     1     -10.377  -9.677  26.271  1.00  0.00     0.261 S 
HETATM   32  C4  UNL     1      -9.831 -11.359  26.457  1.00  0.00     0.194 C 
HETATM   33  O3  UNL     1     -11.732  -9.732  25.622  1.00  0.00    -0.199 OA
HETATM   34  O4  UNL     1      -9.440  -8.971  25.346  1.00  0.00    -0.199 OA
ENDBRANCH  30  31
ENDBRANCH  29  30
ENDBRANCH  25  29
ENDBRANCH   1  25
BRANCH  19  35
HETATM   35  O6  UNL     1     -11.540  -2.161  34.228  1.00  0.00    -0.394 OA
ATOM     36  H6  UNL     1     -11.432  -1.235  34.044  1.00  0.00     0.210 HD
ENDBRANCH  19  35
TORSDOF 6
ENDMDL
MODEL 4
REMARK VINA RESULT: -9.009264663      6.696      8.756
REMARK  6 active torsions:
REMARK  status: ('A' for Active; 'I' for Inactive)
REMARK    1  A    between atoms: C2_2  and  O1_3 
REMARK    2  A    between atoms: C2_2  and  C3_5 
REMARK    3  A    between atoms: C2_2  and  C5_11 
REMARK    4  A    between atoms: C3_5  and  O2_6 
REMARK    5  A    between atoms: O2_6  and  S1_7 
REMARK    6  A    between atoms: C22_29  and  O6_30 
ROOT
HETATM    1  C5  UNL     1     -12.487  -8.011  30.313  1.00  0.00     0.030 C 
HETATM    2  C6  UNL     1     -13.500  -6.886  30.326  1.00  0.00     0.009 C 
HETATM    3  C7  UNL     1     -13.985  -6.924  31.742  1.00  0.00     0.006 C 
HETATM    4  C8  UNL     1     -12.906  -7.644  32.555  1.00  0.00    -0.001 C 
HETATM    5  C9  UNL     1     -12.576  -6.796  33.714  1.00  0.00    -0.005 C 
HETATM    6  C10 UNL     1     -11.942  -7.493  34.877  1.00  0.00     0.006 C 
HETATM    7  C11 UNL     1     -12.224  -6.604  36.086  1.00  0.00     0.007 C 
HETATM    8  C12 UNL     1     -11.874  -5.166  35.885  1.00  0.00     0.012 C 
HETATM    9  C13 UNL     1     -11.232  -4.847  34.573  1.00  0.00    -0.035 C 
HETATM   10  C14 UNL     1      -9.719  -5.101  34.680  1.00  0.00     0.016 C 
HETATM   11  C15 UNL     1     -11.294  -3.354  34.292  1.00  0.00     0.010 C 
HETATM   12  C16 UNL     1     -12.648  -2.756  34.326  1.00  0.00     0.002 C 
HETATM   13  C17 UNL     1     -13.624  -3.500  35.161  1.00  0.00     0.020 C 
HETATM   14  C18 UNL     1     -12.938  -4.186  36.324  1.00  0.00     0.051 C 
HETATM   15  C19 UNL     1     -12.461  -3.191  37.317  1.00  0.00     0.138 C 
HETATM   16  O5  UNL     1     -11.317  -2.942  37.568  1.00  0.00    -0.297 OA
HETATM   17  C20 UNL     1     -13.643  -2.565  37.940  1.00  0.00     0.081 C 
HETATM   18  C21 UNL     1     -14.636  -3.678  37.968  1.00  0.00     0.040 C 
HETATM   19  C22 UNL     1     -14.063  -4.825  37.121  1.00  0.00     0.135 C 
HETATM   20  C23 UNL     1     -11.827  -5.538  33.371  1.00  0.00    -0.002 C 
HETATM   21  C24 UNL     1     -10.852  -5.711  32.249  1.00  0.00     0.006 C 
HETATM   22  C25 UNL     1     -10.626  -7.120  31.804  1.00  0.00     0.010 C 
HETATM   23  C26 UNL     1     -11.789  -7.967  31.592  1.00  0.00    -0.034 C 
HETATM   24  C27 UNL     1     -11.393  -9.415  31.944  1.00  0.00     0.016 C 
ENDROOT
BRANCH   1  25
HETATM   25  C2  UNL     1     -11.829  -8.070  29.017  1.00  0.00     0.081 C 
HETATM   26  C1  UNL     1     -10.772  -7.082  28.693  1.00  0.00     0.048 C 
BRANCH  25  27
HETATM   27  O1  UNL     1     -12.870  -7.835  28.067  1.00  0.00    -0.388 OA
ATOM     28  H1  UNL     1     -12.434  -7.482  27.300  1.00  0.00     0.210 HD
ENDBRANCH  25  27
BRANCH  25  29
HETATM   29  C3  UNL     1     -11.298  -9.443  28.630  1.00  0.00     0.227 C 
BRANCH  29  30
HETATM   30  O2  UNL     1     -10.130  -9.203  27.866  1.00  0.00    -0.273 OA
BRANCH  30  31
HETATM   31  S1  UNL     1     -10.295  -9.750  26.300  1.00  0.00     0.261 S 
HETATM   32  C4  UNL     1      -9.780 -11.451  26.261  1.00  0.00     0.194 C 
HETATM   33  O3  UNL     1     -11.719  -9.718  25.821  1.00  0.00    -0.199 OA
HETATM   34  O4  UNL     1      -9.456  -8.976  25.336  1.00  0.00    -0.199 OA
ENDBRANCH  30  31
ENDBRANCH  29  30
ENDBRANCH  25  29
ENDBRANCH   1  25
BRANCH  19  35
HETATM   35  O6  UNL     1     -15.112  -5.203  36.282  1.00  0.00    -0.394 OA
ATOM     36  H6  UNL     1     -15.496  -6.023  36.569  1.00  0.00     0.210 HD
ENDBRANCH  19  35
TORSDOF 6
ENDMDL
MODEL 5
REMARK VINA RESULT: -8.908796272      4.103      7.262
REMARK  6 active torsions:
REMARK  status: ('A' for Active; 'I' for Inactive)
REMARK    1  A    between atoms: C2_2  and  O1_3 
REMARK    2  A    between atoms: C2_2  and  C3_5 
REMARK    3  A    between atoms: C2_2  and  C5_11 
REMARK    4  A    between atoms: C3_5  and  O2_6 
REMARK    5  A    between atoms: O2_6  and  S1_7 
REMARK    6  A    between atoms: C22_29  and  O6_30 
ROOT
HETATM    1  C5  UNL     1     -12.643  -6.763  28.487  1.00  0.00     0.030 C 
HETATM    2  C6  UNL     1     -12.823  -7.980  27.604  1.00  0.00     0.009 C 
HETATM    3  C7  UNL     1     -11.413  -8.461  27.453  1.00  0.00     0.006 C 
HETATM    4  C8  UNL     1     -10.620  -7.870  28.622  1.00  0.00    -0.001 C 
HETATM    5  C9  UNL     1      -9.898  -8.974  29.279  1.00  0.00    -0.005 C 
HETATM    6  C10 UNL     1      -8.708  -8.583  30.099  1.00  0.00     0.006 C 
HETATM    7  C11 UNL     1      -7.841  -9.837  30.177  1.00  0.00     0.007 C 
HETATM    8  C12 UNL     1      -8.576 -11.067  30.595  1.00  0.00     0.012 C 
HETATM    9  C13 UNL     1     -10.015 -10.857  30.947  1.00  0.00    -0.035 C 
HETATM   10  C14 UNL     1     -10.112 -10.415  32.417  1.00  0.00     0.016 C 
HETATM   11  C15 UNL     1     -10.765 -12.179  30.953  1.00  0.00     0.010 C 
HETATM   12  C16 UNL     1     -10.684 -12.962  29.699  1.00  0.00     0.002 C 
HETATM   13  C17 UNL     1      -9.481 -12.678  28.878  1.00  0.00     0.020 C 
HETATM   14  C18 UNL     1      -8.304 -12.289  29.747  1.00  0.00     0.051 C 
HETATM   15  C19 UNL     1      -7.813 -13.456  30.522  1.00  0.00     0.138 C 
HETATM   16  O5  UNL     1      -7.878 -13.589  31.711  1.00  0.00    -0.297 OA
HETATM   17  C20 UNL     1      -7.229 -14.422  29.572  1.00  0.00     0.081 C 
HETATM   18  C21 UNL     1      -6.643 -13.543  28.518  1.00  0.00     0.040 C 
HETATM   19  C22 UNL     1      -7.144 -12.115  28.782  1.00  0.00     0.135 C 
HETATM   20  C23 UNL     1     -10.779  -9.929  30.037  1.00  0.00    -0.002 C 
HETATM   21  C24 UNL     1     -11.938  -9.264  30.712  1.00  0.00     0.006 C 
HETATM   22  C25 UNL     1     -11.914  -7.770  30.708  1.00  0.00     0.010 C 
HETATM   23  C26 UNL     1     -11.608  -7.093  29.458  1.00  0.00    -0.034 C 
HETATM   24  C27 UNL     1     -10.868  -5.782  29.797  1.00  0.00     0.016 C 
ENDROOT
BRANCH   1  25
HETATM   25  C2  UNL     1     -13.941  -6.200  28.825  1.00  0.00     0.081 C 
HETATM   26  C1  UNL     1     -14.050  -5.258  29.965  1.00  0.00     0.048 C 
BRANCH  25  27
HETATM   27  O1  UNL     1     -14.743  -7.326  29.188  1.00  0.00    -0.388 OA
ATOM     28  H1  UNL     1     -15.257  -7.037  29.934  1.00  0.00     0.210 HD
ENDBRANCH  25  27
BRANCH  25  29
HETATM   29  C3  UNL     1     -14.699  -5.586  27.657  1.00  0.00     0.227 C 
BRANCH  29  30
HETATM   30  O2  UNL     1     -16.072  -5.752  27.959  1.00  0.00    -0.273 OA
BRANCH  30  31
HETATM   31  S1  UNL     1     -16.842  -6.701  26.824  1.00  0.00     0.261 S 
HETATM   32  C4  UNL     1     -18.495  -6.076  26.624  1.00  0.00     0.194 C 
HETATM   33  O3  UNL     1     -16.188  -6.636  25.473  1.00  0.00    -0.199 OA
HETATM   34  O4  UNL     1     -16.922  -8.133  27.241  1.00  0.00    -0.199 OA
ENDBRANCH  30  31
ENDBRANCH  29  30
ENDBRANCH  25  29
ENDBRANCH   1  25
BRANCH  19  35
HETATM   35  O6  UNL     1      -7.595 -11.664  27.541  1.00  0.00    -0.394 OA
ATOM     36  H6  UNL     1      -7.024 -11.965  26.845  1.00  0.00     0.210 HD
ENDBRANCH  19  35
TORSDOF 6
ENDMDL
