MODEL 1
REMARK VINA RESULT: -8.343838148      0.000      0.000
REMARK  6 active torsions:
REMARK  status: ('A' for Active; 'I' for Inactive)
REMARK       I    between atoms: N1_5  and  C4_6 
REMARK    1  A    between atoms: C4_6  and  C5_8 
REMARK    2  A    between atoms: C10_13  and  N2_14 
REMARK    3  A    between atoms: N2_14  and  C11_16 
REMARK    4  A    between atoms: C11_16  and  O2_17 
REMARK    5  A    between atoms: C11_16  and  N3_19 
REMARK    6  A    between atoms: C16_24  and  C17_25 
ROOT
HETATM    1  N2  UNL     1     -23.148  -3.918  18.924  1.00  0.00    -0.348 N 
ATOM      2  H2  UNL     1     -22.265  -4.079  18.441  1.00  0.00     0.163 HD
ENDROOT
BRANCH   1   3
HETATM    3  C10 UNL     1     -24.363  -3.836  18.133  1.00  0.00     0.127 C 
HETATM    4  C2  UNL     1     -24.136  -3.492  16.705  1.00  0.00     0.136 C 
HETATM    5  C1  UNL     1     -22.805  -3.946  16.219  1.00  0.00     0.055 C 
HETATM    6  F1  UNL     1     -25.102  -4.145  15.941  1.00  0.00    -0.239 F 
HETATM    7  C3  UNL     1     -24.233  -1.985  16.486  1.00  0.00     0.171 C 
HETATM    8  N1  UNL     1     -25.615  -1.618  16.690  1.00  0.00    -0.349 N 
HETATM    9  C4  UNL     1     -26.271  -0.615  15.938  1.00  0.00     0.224 C 
HETATM   10  C8  UNL     1     -26.327  -2.346  17.746  1.00  0.00     0.128 C 
HETATM   11  O1  UNL     1     -27.490  -0.373  16.178  1.00  0.00    -0.273 OA
HETATM   12  C9  UNL     1     -25.388  -2.921  18.781  1.00  0.00     0.048 C 
BRANCH   9  13
HETATM   13  C5  UNL     1     -25.566   0.144  14.891  1.00  0.00     0.078 A 
HETATM   14  C6  UNL     1     -25.801  -0.320  13.442  1.00  0.00     0.015 A 
HETATM   15  C7  UNL     1     -26.319   0.972  13.912  1.00  0.00     0.015 A 
ENDBRANCH   9  13
ENDBRANCH   1   3
BRANCH   1  16
HETATM   16  C11 UNL     1     -23.131  -3.787  20.312  1.00  0.00     0.216 C 
BRANCH  16  17
HETATM   17  O2  UNL     1     -23.544  -4.849  20.941  1.00  0.00    -0.333 OA
ATOM     18  H2  UNL     1     -23.186  -4.937  21.816  1.00  0.00     0.220 HD
ENDBRANCH  16  17
BRANCH  16  19
HETATM   19  N3  UNL     1     -22.760  -2.729  21.130  1.00  0.00    -0.333 N 
HETATM   20  C12 UNL     1     -22.053  -3.078  22.408  1.00  0.00     0.127 C 
HETATM   21  C13 UNL     1     -22.628  -2.152  23.476  1.00  0.00     0.020 C 
HETATM   22  C14 UNL     1     -24.020  -1.672  23.150  1.00  0.00     0.004 C 
HETATM   23  C15 UNL     1     -24.183  -0.990  21.825  1.00  0.00     0.036 C 
HETATM   24  C16 UNL     1     -22.955  -1.318  21.009  1.00  0.00     0.188 C 
BRANCH  24  25
HETATM   25  C17 UNL     1     -22.835  -0.693  19.711  1.00  0.00     0.196 C 
HETATM   26  O3  UNL     1     -21.909  -1.031  18.922  1.00  0.00    -0.646 OA
HETATM   27  O4  UNL     1     -23.700   0.301  19.238  1.00  0.00    -0.646 OA
ENDBRANCH  24  25
ENDBRANCH  16  19
ENDBRANCH   1  16
TORSDOF 6
ENDMDL
MODEL 2
REMARK VINA RESULT: -7.951317137      2.198      6.925
REMARK  6 active torsions:
REMARK  status: ('A' for Active; 'I' for Inactive)
REMARK       I    between atoms: N1_5  and  C4_6 
REMARK    1  A    between atoms: C4_6  and  C5_8 
REMARK    2  A    between atoms: C10_13  and  N2_14 
REMARK    3  A    between atoms: N2_14  and  C11_16 
REMARK    4  A    between atoms: C11_16  and  O2_17 
REMARK    5  A    between atoms: C11_16  and  N3_19 
REMARK    6  A    between atoms: C16_24  and  C17_25 
ROOT
HETATM    1  N2  UNL     1     -24.390  -3.798  16.479  1.00  0.00    -0.348 N 
ATOM      2  H2  UNL     1     -23.751  -4.593  16.484  1.00  0.00     0.163 HD
ENDROOT
BRANCH   1   3
HETATM    3  C10 UNL     1     -25.018  -3.408  17.728  1.00  0.00     0.127 C 
HETATM    4  C2  UNL     1     -24.113  -2.689  18.664  1.00  0.00     0.136 C 
HETATM    5  C1  UNL     1     -23.042  -1.941  17.951  1.00  0.00     0.055 C 
HETATM    6  F1  UNL     1     -24.870  -1.757  19.372  1.00  0.00    -0.239 F 
HETATM    7  C3  UNL     1     -23.450  -3.662  19.633  1.00  0.00     0.171 C 
HETATM    8  N1  UNL     1     -24.487  -4.160  20.507  1.00  0.00    -0.349 N 
HETATM    9  C4  UNL     1     -24.280  -4.440  21.878  1.00  0.00     0.224 C 
HETATM   10  C8  UNL     1     -25.800  -4.377  19.890  1.00  0.00     0.128 C 
HETATM   11  O1  UNL     1     -25.254  -4.859  22.569  1.00  0.00    -0.273 OA
HETATM   12  C9  UNL     1     -25.707  -4.584  18.397  1.00  0.00     0.048 C 
BRANCH   9  13
HETATM   13  C5  UNL     1     -22.962  -4.253  22.508  1.00  0.00     0.078 A 
HETATM   14  C6  UNL     1     -22.726  -2.897  23.199  1.00  0.00     0.015 A 
HETATM   15  C7  UNL     1     -22.834  -4.134  23.985  1.00  0.00     0.015 A 
ENDBRANCH   9  13
ENDBRANCH   1   3
BRANCH   1  16
HETATM   16  C11 UNL     1     -24.618  -3.140  15.271  1.00  0.00     0.216 C 
BRANCH  16  17
HETATM   17  O2  UNL     1     -23.561  -3.055  14.516  1.00  0.00    -0.333 OA
ATOM     18  H2  UNL     1     -23.754  -2.812  13.618  1.00  0.00     0.220 HD
ENDBRANCH  16  17
BRANCH  16  19
HETATM   19  N3  UNL     1     -25.764  -2.560  14.744  1.00  0.00    -0.333 N 
HETATM   20  C12 UNL     1     -26.676  -3.458  13.958  1.00  0.00     0.127 C 
HETATM   21  C13 UNL     1     -27.140  -2.642  12.756  1.00  0.00     0.020 C 
HETATM   22  C14 UNL     1     -26.172  -1.549  12.378  1.00  0.00     0.004 C 
HETATM   23  C15 UNL     1     -25.818  -0.584  13.470  1.00  0.00     0.036 C 
HETATM   24  C16 UNL     1     -26.250  -1.216  14.772  1.00  0.00     0.188 C 
BRANCH  24  25
HETATM   25  C17 UNL     1     -26.095  -0.429  15.974  1.00  0.00     0.196 C 
HETATM   26  O3  UNL     1     -26.896  -0.574  16.939  1.00  0.00    -0.646 OA
HETATM   27  O4  UNL     1     -25.086   0.522  16.162  1.00  0.00    -0.646 OA
ENDBRANCH  24  25
ENDBRANCH  16  19
ENDBRANCH   1  16
TORSDOF 6
ENDMDL
MODEL 3
REMARK VINA RESULT: -7.926993332      1.124      2.465
REMARK  6 active torsions:
REMARK  status: ('A' for Active; 'I' for Inactive)
REMARK       I    between atoms: N1_5  and  C4_6 
REMARK    1  A    between atoms: C4_6  and  C5_8 
REMARK    2  A    between atoms: C10_13  and  N2_14 
REMARK    3  A    between atoms: N2_14  and  C11_16 
REMARK    4  A    between atoms: C11_16  and  O2_17 
REMARK    5  A    between atoms: C11_16  and  N3_19 
REMARK    6  A    between atoms: C16_24  and  C17_25 
ROOT
HETATM    1  N2  UNL     1     -23.490  -4.213  19.218  1.00  0.00    -0.348 N 
ATOM      2  H2  UNL     1     -22.946  -5.075  19.186  1.00  0.00     0.163 HD
ENDROOT
BRANCH   1   3
HETATM    3  C10 UNL     1     -24.634  -4.084  18.335  1.00  0.00     0.127 C 
HETATM    4  C2  UNL     1     -24.289  -3.663  16.951  1.00  0.00     0.136 C 
HETATM    5  C1  UNL     1     -22.922  -4.094  16.554  1.00  0.00     0.055 C 
HETATM    6  F1  UNL     1     -25.187  -4.270  16.075  1.00  0.00    -0.239 F 
HETATM    7  C3  UNL     1     -24.370  -2.146  16.809  1.00  0.00     0.171 C 
HETATM    8  N1  UNL     1     -25.765  -1.786  16.916  1.00  0.00    -0.349 N 
HETATM    9  C4  UNL     1     -26.357  -0.741  16.169  1.00  0.00     0.224 C 
HETATM   10  C8  UNL     1     -26.561  -2.569  17.868  1.00  0.00     0.128 C 
HETATM   11  O1  UNL     1     -27.592  -0.509  16.319  1.00  0.00    -0.273 OA
HETATM   12  C9  UNL     1     -25.711  -3.203  18.944  1.00  0.00     0.048 C 
BRANCH   9  13
HETATM   13  C5  UNL     1     -25.568   0.072  15.228  1.00  0.00     0.078 A 
HETATM   14  C6  UNL     1     -25.738  -0.262  13.735  1.00  0.00     0.015 A 
HETATM   15  C7  UNL     1     -26.235   1.007  14.283  1.00  0.00     0.015 A 
ENDBRANCH   9  13
ENDBRANCH   1   3
BRANCH   1  16
HETATM   16  C11 UNL     1     -23.097  -3.214  20.108  1.00  0.00     0.216 C 
BRANCH  16  17
HETATM   17  O2  UNL     1     -22.036  -2.564  19.727  1.00  0.00    -0.333 OA
ATOM     18  H2  UNL     1     -21.668  -2.007  20.403  1.00  0.00     0.220 HD
ENDBRANCH  16  17
BRANCH  16  19
HETATM   19  N3  UNL     1     -23.634  -2.802  21.320  1.00  0.00    -0.333 N 
HETATM   20  C12 UNL     1     -23.832  -1.325  21.505  1.00  0.00     0.127 C 
HETATM   21  C13 UNL     1     -23.411  -1.017  22.939  1.00  0.00     0.020 C 
HETATM   22  C14 UNL     1     -22.422  -2.014  23.488  1.00  0.00     0.004 C 
HETATM   23  C15 UNL     1     -22.847  -3.451  23.440  1.00  0.00     0.036 C 
HETATM   24  C16 UNL     1     -24.018  -3.531  22.488  1.00  0.00     0.188 C 
BRANCH  24  25
HETATM   25  C17 UNL     1     -24.668  -4.814  22.343  1.00  0.00     0.196 C 
HETATM   26  O3  UNL     1     -24.032  -5.804  21.886  1.00  0.00    -0.646 OA
HETATM   27  O4  UNL     1     -26.005  -5.056  22.683  1.00  0.00    -0.646 OA
ENDBRANCH  24  25
ENDBRANCH  16  19
ENDBRANCH   1  16
TORSDOF 6
ENDMDL
MODEL 4
REMARK VINA RESULT: -7.878338130      6.249      8.963
REMARK  6 active torsions:
REMARK  status: ('A' for Active; 'I' for Inactive)
REMARK       I    between atoms: N1_5  and  C4_6 
REMARK    1  A    between atoms: C4_6  and  C5_8 
REMARK    2  A    between atoms: C10_13  and  N2_14 
REMARK    3  A    between atoms: N2_14  and  C11_16 
REMARK    4  A    between atoms: C11_16  and  O2_17 
REMARK    5  A    between atoms: C11_16  and  N3_19 
REMARK    6  A    between atoms: C16_24  and  C17_25 
ROOT
HETATM    1  N2  UNL     1     -24.597  -6.880  23.324  1.00  0.00    -0.348 N 
ATOM      2  H2  UNL     1     -24.182  -7.063  24.237  1.00  0.00     0.163 HD
ENDROOT
BRANCH   1   3
HETATM    3  C10 UNL     1     -25.695  -7.720  22.881  1.00  0.00     0.127 C 
HETATM    4  C2  UNL     1     -25.917  -8.923  23.726  1.00  0.00     0.136 C 
HETATM    5  C1  UNL     1     -25.492  -8.709  25.136  1.00  0.00     0.055 C 
HETATM    6  F1  UNL     1     -27.284  -9.197  23.741  1.00  0.00    -0.239 F 
HETATM    7  C3  UNL     1     -25.154 -10.123  23.175  1.00  0.00     0.171 C 
HETATM    8  N1  UNL     1     -25.782 -10.487  21.927  1.00  0.00    -0.349 N 
HETATM    9  C4  UNL     1     -25.923 -11.824  21.488  1.00  0.00     0.224 C 
HETATM   10  C8  UNL     1     -26.275  -9.375  21.106  1.00  0.00     0.128 C 
HETATM   11  O1  UNL     1     -26.503 -12.046  20.385  1.00  0.00    -0.273 OA
HETATM   12  C9  UNL     1     -25.565  -8.077  21.410  1.00  0.00     0.048 C 
BRANCH   9  13
HETATM   13  C5  UNL     1     -25.412 -12.951  22.287  1.00  0.00     0.078 A 
HETATM   14  C6  UNL     1     -26.357 -13.496  23.373  1.00  0.00     0.015 A 
HETATM   15  C7  UNL     1     -26.032 -14.299  22.186  1.00  0.00     0.015 A 
ENDBRANCH   9  13
ENDBRANCH   1   3
BRANCH   1  16
HETATM   16  C11 UNL     1     -24.082  -5.833  22.560  1.00  0.00     0.216 C 
BRANCH  16  17
HETATM   17  O2  UNL     1     -23.100  -6.189  21.782  1.00  0.00    -0.333 OA
ATOM     18  H2  UNL     1     -22.483  -5.490  21.604  1.00  0.00     0.220 HD
ENDBRANCH  16  17
BRANCH  16  19
HETATM   19  N3  UNL     1     -24.427  -4.491  22.490  1.00  0.00    -0.333 N 
HETATM   20  C12 UNL     1     -24.670  -3.925  21.120  1.00  0.00     0.127 C 
HETATM   21  C13 UNL     1     -24.031  -2.540  21.115  1.00  0.00     0.020 C 
HETATM   22  C14 UNL     1     -22.911  -2.405  22.116  1.00  0.00     0.004 C 
HETATM   23  C15 UNL     1     -23.262  -2.736  23.536  1.00  0.00     0.036 C 
HETATM   24  C16 UNL     1     -24.570  -3.491  23.501  1.00  0.00     0.188 C 
BRANCH  24  25
HETATM   25  C17 UNL     1     -25.167  -3.843  24.770  1.00  0.00     0.196 C 
HETATM   26  O3  UNL     1     -26.044  -3.099  25.291  1.00  0.00    -0.646 OA
HETATM   27  O4  UNL     1     -24.835  -4.991  25.498  1.00  0.00    -0.646 OA
ENDBRANCH  24  25
ENDBRANCH  16  19
ENDBRANCH   1  16
TORSDOF 6
ENDMDL
MODEL 5
REMARK VINA RESULT: -7.848189577      2.055      6.739
REMARK  6 active torsions:
REMARK  status: ('A' for Active; 'I' for Inactive)
REMARK       I    between atoms: N1_5  and  C4_6 
REMARK    1  A    between atoms: C4_6  and  C5_8 
REMARK    2  A    between atoms: C10_13  and  N2_14 
REMARK    3  A    between atoms: N2_14  and  C11_16 
REMARK    4  A    between atoms: C11_16  and  O2_17 
REMARK    5  A    between atoms: C11_16  and  N3_19 
REMARK    6  A    between atoms: C16_24  and  C17_25 
ROOT
HETATM    1  N2  UNL     1     -26.153  -3.978  17.132  1.00  0.00    -0.348 N 
ATOM      2  H2  UNL     1     -27.101  -3.967  17.509  1.00  0.00     0.163 HD
ENDROOT
BRANCH   1   3
HETATM    3  C10 UNL     1     -25.050  -4.228  18.042  1.00  0.00     0.127 C 
HETATM    4  C2  UNL     1     -25.423  -4.168  19.480  1.00  0.00     0.136 C 
HETATM    5  C1  UNL     1     -26.847  -4.533  19.710  1.00  0.00     0.055 C 
HETATM    6  F1  UNL     1     -24.641  -5.091  20.172  1.00  0.00    -0.239 F 
HETATM    7  C3  UNL     1     -25.194  -2.769  20.043  1.00  0.00     0.171 C 
HETATM    8  N1  UNL     1     -23.767  -2.555  20.073  1.00  0.00    -0.349 N 
HETATM    9  C4  UNL     1     -23.110  -1.831  21.096  1.00  0.00     0.224 C 
HETATM   10  C8  UNL     1     -23.005  -3.130  18.958  1.00  0.00     0.128 C 
HETATM   11  O1  UNL     1     -21.852  -1.708  21.044  1.00  0.00    -0.273 OA
HETATM   12  C9  UNL     1     -23.858  -3.342  17.729  1.00  0.00     0.048 C 
BRANCH   9  13
HETATM   13  C5  UNL     1     -23.861  -1.224  22.208  1.00  0.00     0.078 A 
HETATM   14  C6  UNL     1     -23.845  -1.998  23.539  1.00  0.00     0.015 A 
HETATM   15  C7  UNL     1     -23.155  -0.707  23.411  1.00  0.00     0.015 A 
ENDBRANCH   9  13
ENDBRANCH   1   3
BRANCH   1  16
HETATM   16  C11 UNL     1     -25.979  -3.750  15.768  1.00  0.00     0.216 C 
BRANCH  16  17
HETATM   17  O2  UNL     1     -25.144  -4.575  15.204  1.00  0.00    -0.333 OA
ATOM     18  H2  UNL     1     -25.508  -5.034  14.457  1.00  0.00     0.220 HD
ENDBRANCH  16  17
BRANCH  16  19
HETATM   19  N3  UNL     1     -26.533  -2.804  14.917  1.00  0.00    -0.333 N 
HETATM   20  C12 UNL     1     -26.966  -3.284  13.561  1.00  0.00     0.127 C 
HETATM   21  C13 UNL     1     -26.551  -2.196  12.575  1.00  0.00     0.020 C 
HETATM   22  C14 UNL     1     -25.392  -1.367  13.067  1.00  0.00     0.004 C 
HETATM   23  C15 UNL     1     -25.575  -0.717  14.406  1.00  0.00     0.036 C 
HETATM   24  C16 UNL     1     -26.750  -1.399  15.068  1.00  0.00     0.188 C 
BRANCH  24  25
HETATM   25  C17 UNL     1     -27.184  -0.881  16.345  1.00  0.00     0.196 C 
HETATM   26  O3  UNL     1     -28.400  -0.945  16.680  1.00  0.00    -0.646 OA
HETATM   27  O4  UNL     1     -26.329  -0.286  17.280  1.00  0.00    -0.646 OA
ENDBRANCH  24  25
ENDBRANCH  16  19
ENDBRANCH   1  16
TORSDOF 6
ENDMDL
