MODEL 1
REMARK VINA RESULT: -8.996006210      0.000      0.000
REMARK  8 active torsions:
REMARK  status: ('A' for Active; 'I' for Inactive)
REMARK    1  A    between atoms: C4_8  and  C5_9 
REMARK    2  A    between atoms: C7_11  and  C8_12 
REMARK    3  A    between atoms: C13_17  and  C14_18 
REMARK    4  A    between atoms: C14_18  and  N3_19 
REMARK    5  A    between atoms: C17_22  and  O1_23 
REMARK    6  A    between atoms: C17_22  and  C18_25 
REMARK    7  A    between atoms: C18_25  and  C19_26 
REMARK    8  A    between atoms: C25_32  and  N4_33 
ROOT
HETATM    1  C5  UNL     1     -13.821 -35.807 -13.656  1.00  0.00     0.027 A 
HETATM    2  C6  UNL     1     -12.690 -35.766 -12.792  1.00  0.00     0.024 A 
HETATM    3  C7  UNL     1     -12.162 -36.890 -12.218  1.00  0.00    -0.049 A 
HETATM    4  C12 UNL     1     -12.764 -38.091 -12.502  1.00  0.00     0.019 A 
HETATM    5  C13 UNL     1     -13.876 -38.152 -13.349  1.00  0.00    -0.002 A 
HETATM    6  C25 UNL     1     -14.396 -37.002 -13.919  1.00  0.00     0.051 A 
ENDROOT
BRANCH   5   7
HETATM    7  C14 UNL     1     -14.447 -39.478 -13.670  1.00  0.00     0.313 C 
BRANCH   7   8
HETATM    8  N3  UNL     1     -15.161 -40.051 -12.524  1.00  0.00     0.092 N 
HETATM    9  C15 UNL     1     -14.119 -40.855 -11.825  1.00  0.00     0.276 C 
HETATM   10  C16 UNL     1     -14.727 -41.380 -10.577  1.00  0.00     0.068 C 
HETATM   11  C17 UNL     1     -16.092 -41.976 -10.686  1.00  0.00     0.064 C 
HETATM   12  C23 UNL     1     -16.726 -41.899 -12.026  1.00  0.00     0.068 C 
HETATM   13  C24 UNL     1     -16.005 -41.120 -13.061  1.00  0.00     0.276 C 
BRANCH  11  14
HETATM   14  O1  UNL     1     -16.911 -41.379  -9.729  1.00  0.00    -0.389 OA
ATOM     15  H1  UNL     1     -17.586 -40.885 -10.179  1.00  0.00     0.210 HD
ENDBRANCH  11  14
BRANCH  11  16
HETATM   16  C18 UNL     1     -15.986 -43.447 -10.259  1.00  0.00     0.065 C 
BRANCH  16  17
HETATM   17  C19 UNL     1     -15.448 -43.634  -8.914  1.00  0.00    -0.022 C 
HETATM   18  C20 UNL     1     -15.073 -44.806  -8.396  1.00  0.00    -0.091 C 
HETATM   19  C21 UNL     1     -14.534 -44.887  -7.001  1.00  0.00     0.042 C 
HETATM   20  C22 UNL     1     -15.207 -46.037  -9.218  1.00  0.00     0.042 C 
ENDBRANCH  16  17
ENDBRANCH  11  16
ENDBRANCH   7   8
ENDBRANCH   5   7
BRANCH   6  21
HETATM   21  N4  UNL     1     -15.561 -37.110 -14.750  1.00  0.00    -0.377 N 
HETATM   22  C26 UNL     1     -16.888 -36.962 -14.217  1.00  0.00     0.126 C 
HETATM   23  C27 UNL     1     -17.751 -36.565 -15.371  1.00  0.00     0.058 C 
HETATM   24  C28 UNL     1     -17.063 -37.208 -16.539  1.00  0.00     0.189 C 
HETATM   25  F1  UNL     1     -17.655 -38.440 -16.854  1.00  0.00    -0.248 F 
HETATM   26  C29 UNL     1     -15.630 -37.392 -16.142  1.00  0.00     0.160 C 
ENDBRANCH   6  21
BRANCH   3  27
HETATM   27  C8  UNL     1     -10.963 -36.758 -11.335  1.00  0.00    -0.024 C 
HETATM   28  C9  UNL     1     -10.701 -38.096 -10.666  1.00  0.00     0.019 C 
HETATM   29  C10 UNL     1      -9.750 -36.324 -12.105  1.00  0.00     0.019 C 
HETATM   30  C11 UNL     1     -11.321 -35.751 -10.262  1.00  0.00     0.019 C 
ENDBRANCH   3  27
BRANCH   1  31
HETATM   31  C4  UNL     1     -14.271 -34.557 -14.223  1.00  0.00     0.107 A 
HETATM   32  C3  UNL     1     -14.653 -33.416 -13.490  1.00  0.00     0.130 A 
HETATM   33  N2  UNL     1     -15.005 -32.463 -14.351  1.00  0.00    -0.330 N 
HETATM   34  C2  UNL     1     -14.849 -32.993 -15.610  1.00  0.00     0.224 A 
ATOM     35  H2  UNL     1     -15.328 -31.523 -14.121  1.00  0.00     0.168 HD
HETATM   36  N1  UNL     1     -15.104 -32.333 -16.683  1.00  0.00    -0.360 N 
HETATM   37  O2  UNL     1     -14.420 -34.213 -15.444  1.00  0.00    -0.277 OA
HETATM   38  C1  UNL     1     -14.986 -32.747 -18.029  1.00  0.00     0.150 C 
ATOM     39  H1  UNL     1     -15.436 -31.378 -16.544  1.00  0.00     0.162 HD
ENDBRANCH   1  31
TORSDOF 8
ENDMDL
MODEL 2
REMARK VINA RESULT: -8.632014722      0.970      1.070
REMARK  8 active torsions:
REMARK  status: ('A' for Active; 'I' for Inactive)
REMARK    1  A    between atoms: C4_8  and  C5_9 
REMARK    2  A    between atoms: C7_11  and  C8_12 
REMARK    3  A    between atoms: C13_17  and  C14_18 
REMARK    4  A    between atoms: C14_18  and  N3_19 
REMARK    5  A    between atoms: C17_22  and  O1_23 
REMARK    6  A    between atoms: C17_22  and  C18_25 
REMARK    7  A    between atoms: C18_25  and  C19_26 
REMARK    8  A    between atoms: C25_32  and  N4_33 
ROOT
HETATM    1  C5  UNL     1     -14.248 -35.589 -13.712  1.00  0.00     0.027 A 
HETATM    2  C6  UNL     1     -13.031 -35.677 -12.978  1.00  0.00     0.024 A 
HETATM    3  C7  UNL     1     -12.663 -36.805 -12.296  1.00  0.00    -0.049 A 
HETATM    4  C12 UNL     1     -13.516 -37.879 -12.339  1.00  0.00     0.019 A 
HETATM    5  C13 UNL     1     -14.717 -37.813 -13.056  1.00  0.00    -0.002 A 
HETATM    6  C25 UNL     1     -15.072 -36.661 -13.737  1.00  0.00     0.051 A 
ENDROOT
BRANCH   5   7
HETATM    7  C14 UNL     1     -15.569 -39.020 -13.118  1.00  0.00     0.313 C 
BRANCH   7   8
HETATM    8  N3  UNL     1     -15.249 -39.964 -12.042  1.00  0.00     0.092 N 
HETATM    9  C15 UNL     1     -14.983 -41.243 -12.761  1.00  0.00     0.276 C 
HETATM   10  C16 UNL     1     -14.532 -42.233 -11.752  1.00  0.00     0.068 C 
HETATM   11  C17 UNL     1     -15.314 -42.313 -10.483  1.00  0.00     0.064 C 
HETATM   12  C23 UNL     1     -16.413 -41.325 -10.338  1.00  0.00     0.068 C 
HETATM   13  C24 UNL     1     -16.520 -40.286 -11.390  1.00  0.00     0.276 C 
BRANCH  11  14
HETATM   14  O1  UNL     1     -14.429 -42.210  -9.412  1.00  0.00    -0.389 OA
ATOM     15  H1  UNL     1     -14.865 -41.750  -8.705  1.00  0.00     0.210 HD
ENDBRANCH  11  14
BRANCH  11  16
HETATM   16  C18 UNL     1     -15.893 -43.732 -10.388  1.00  0.00     0.065 C 
BRANCH  16  17
HETATM   17  C19 UNL     1     -15.513 -44.444  -9.171  1.00  0.00    -0.022 C 
HETATM   18  C20 UNL     1     -15.126 -45.721  -9.122  1.00  0.00    -0.091 C 
HETATM   19  C21 UNL     1     -14.758 -46.356  -7.817  1.00  0.00     0.042 C 
HETATM   20  C22 UNL     1     -15.075 -46.512 -10.378  1.00  0.00     0.042 C 
ENDBRANCH  16  17
ENDBRANCH  11  16
ENDBRANCH   7   8
ENDBRANCH   5   7
BRANCH   6  21
HETATM   21  N4  UNL     1     -16.330 -36.627 -14.426  1.00  0.00    -0.377 N 
HETATM   22  C26 UNL     1     -17.530 -36.157 -13.788  1.00  0.00     0.126 C 
HETATM   23  C27 UNL     1     -18.441 -35.729 -14.893  1.00  0.00     0.058 C 
HETATM   24  C28 UNL     1     -18.034 -36.624 -16.027  1.00  0.00     0.189 C 
HETATM   25  F1  UNL     1     -18.879 -37.741 -16.111  1.00  0.00    -0.248 F 
HETATM   26  C29 UNL     1     -16.622 -37.045 -15.752  1.00  0.00     0.160 C 
ENDBRANCH   6  21
BRANCH   3  27
HETATM   27  C8  UNL     1     -11.360 -36.815 -11.564  1.00  0.00    -0.024 C 
HETATM   28  C9  UNL     1     -11.209 -38.152 -10.858  1.00  0.00     0.019 C 
HETATM   29  C10 UNL     1     -10.200 -36.591 -12.489  1.00  0.00     0.019 C 
HETATM   30  C11 UNL     1     -11.442 -35.729 -10.512  1.00  0.00     0.019 C 
ENDBRANCH   3  27
BRANCH   1  31
HETATM   31  C4  UNL     1     -14.515 -34.354 -14.412  1.00  0.00     0.107 A 
HETATM   32  C3  UNL     1     -14.731 -33.100 -13.807  1.00  0.00     0.130 A 
HETATM   33  N2  UNL     1     -14.944 -32.202 -14.767  1.00  0.00    -0.330 N 
HETATM   34  C2  UNL     1     -14.865 -32.878 -15.962  1.00  0.00     0.224 A 
ATOM     35  H2  UNL     1     -15.129 -31.208 -14.641  1.00  0.00     0.168 HD
HETATM   36  N1  UNL     1     -15.022 -32.304 -17.101  1.00  0.00    -0.360 N 
HETATM   37  O2  UNL     1     -14.614 -34.122 -15.664  1.00  0.00    -0.277 OA
HETATM   38  C1  UNL     1     -14.965 -32.870 -18.395  1.00  0.00     0.150 C 
ATOM     39  H1  UNL     1     -15.215 -31.303 -17.067  1.00  0.00     0.162 HD
ENDBRANCH   1  31
TORSDOF 8
ENDMDL
MODEL 3
REMARK VINA RESULT: -8.572498733      1.153      1.581
REMARK  8 active torsions:
REMARK  status: ('A' for Active; 'I' for Inactive)
REMARK    1  A    between atoms: C4_8  and  C5_9 
REMARK    2  A    between atoms: C7_11  and  C8_12 
REMARK    3  A    between atoms: C13_17  and  C14_18 
REMARK    4  A    between atoms: C14_18  and  N3_19 
REMARK    5  A    between atoms: C17_22  and  O1_23 
REMARK    6  A    between atoms: C17_22  and  C18_25 
REMARK    7  A    between atoms: C18_25  and  C19_26 
REMARK    8  A    between atoms: C25_32  and  N4_33 
ROOT
HETATM    1  C5  UNL     1     -14.222 -35.648 -13.750  1.00  0.00     0.027 A 
HETATM    2  C6  UNL     1     -12.967 -35.780 -13.091  1.00  0.00     0.024 A 
HETATM    3  C7  UNL     1     -12.597 -36.922 -12.434  1.00  0.00    -0.049 A 
HETATM    4  C12 UNL     1     -13.488 -37.967 -12.427  1.00  0.00     0.019 A 
HETATM    5  C13 UNL     1     -14.726 -37.857 -13.070  1.00  0.00    -0.002 A 
HETATM    6  C25 UNL     1     -15.082 -36.692 -13.727  1.00  0.00     0.051 A 
ENDROOT
BRANCH   5   7
HETATM    7  C14 UNL     1     -15.621 -39.035 -13.083  1.00  0.00     0.313 C 
BRANCH   7   8
HETATM    8  N3  UNL     1     -15.291 -39.977 -12.008  1.00  0.00     0.092 N 
HETATM    9  C15 UNL     1     -15.034 -41.258 -12.727  1.00  0.00     0.276 C 
HETATM   10  C16 UNL     1     -14.575 -42.246 -11.720  1.00  0.00     0.068 C 
HETATM   11  C17 UNL     1     -15.343 -42.321 -10.442  1.00  0.00     0.064 C 
HETATM   12  C23 UNL     1     -16.439 -41.331 -10.288  1.00  0.00     0.068 C 
HETATM   13  C24 UNL     1     -16.555 -40.295 -11.342  1.00  0.00     0.276 C 
BRANCH  11  14
HETATM   14  O1  UNL     1     -14.446 -42.218  -9.381  1.00  0.00    -0.389 OA
ATOM     15  H1  UNL     1     -13.878 -42.979  -9.392  1.00  0.00     0.210 HD
ENDBRANCH  11  14
BRANCH  11  16
HETATM   16  C18 UNL     1     -15.923 -43.739 -10.338  1.00  0.00     0.065 C 
BRANCH  16  17
HETATM   17  C19 UNL     1     -15.497 -44.464  -9.143  1.00  0.00    -0.022 C 
HETATM   18  C20 UNL     1     -15.118 -45.744  -9.120  1.00  0.00    -0.091 C 
HETATM   19  C21 UNL     1     -14.700 -46.393  -7.837  1.00  0.00     0.042 C 
HETATM   20  C22 UNL     1     -15.125 -46.525 -10.384  1.00  0.00     0.042 C 
ENDBRANCH  16  17
ENDBRANCH  11  16
ENDBRANCH   7   8
ENDBRANCH   5   7
BRANCH   6  21
HETATM   21  N4  UNL     1     -16.377 -36.613 -14.339  1.00  0.00    -0.377 N 
HETATM   22  C26 UNL     1     -16.598 -37.020 -15.700  1.00  0.00     0.126 C 
HETATM   23  C27 UNL     1     -18.053 -37.344 -15.801  1.00  0.00     0.058 C 
HETATM   24  C28 UNL     1     -18.668 -36.439 -14.773  1.00  0.00     0.189 C 
HETATM   25  F1  UNL     1     -19.153 -35.264 -15.366  1.00  0.00    -0.248 F 
HETATM   26  C29 UNL     1     -17.590 -36.129 -13.779  1.00  0.00     0.160 C 
ENDBRANCH   6  21
BRANCH   3  27
HETATM   27  C8  UNL     1     -11.254 -36.980 -11.782  1.00  0.00    -0.024 C 
HETATM   28  C9  UNL     1     -11.086 -35.752 -10.903  1.00  0.00     0.019 C 
HETATM   29  C10 UNL     1     -11.087 -38.224 -10.959  1.00  0.00     0.019 C 
HETATM   30  C11 UNL     1     -10.226 -36.914 -12.892  1.00  0.00     0.019 C 
ENDBRANCH   3  27
BRANCH   1  31
HETATM   31  C4  UNL     1     -14.489 -34.403 -14.431  1.00  0.00     0.107 A 
HETATM   32  C3  UNL     1     -14.675 -33.153 -13.808  1.00  0.00     0.130 A 
HETATM   33  N2  UNL     1     -14.897 -32.242 -14.754  1.00  0.00    -0.330 N 
HETATM   34  C2  UNL     1     -14.854 -32.906 -15.957  1.00  0.00     0.224 A 
ATOM     35  H2  UNL     1     -15.066 -31.246 -14.613  1.00  0.00     0.168 HD
HETATM   36  N1  UNL     1     -15.030 -32.318 -17.086  1.00  0.00    -0.360 N 
HETATM   37  O2  UNL     1     -14.613 -34.156 -15.678  1.00  0.00    -0.277 OA
HETATM   38  C1  UNL     1     -15.009 -32.870 -18.387  1.00  0.00     0.150 C 
ATOM     39  H1  UNL     1     -15.208 -31.315 -17.037  1.00  0.00     0.162 HD
ENDBRANCH   1  31
TORSDOF 8
ENDMDL
MODEL 4
REMARK VINA RESULT: -8.250203814      1.494      1.867
REMARK  8 active torsions:
REMARK  status: ('A' for Active; 'I' for Inactive)
REMARK    1  A    between atoms: C4_8  and  C5_9 
REMARK    2  A    between atoms: C7_11  and  C8_12 
REMARK    3  A    between atoms: C13_17  and  C14_18 
REMARK    4  A    between atoms: C14_18  and  N3_19 
REMARK    5  A    between atoms: C17_22  and  O1_23 
REMARK    6  A    between atoms: C17_22  and  C18_25 
REMARK    7  A    between atoms: C18_25  and  C19_26 
REMARK    8  A    between atoms: C25_32  and  N4_33 
ROOT
HETATM    1  C5  UNL     1     -14.522 -35.507 -14.042  1.00  0.00     0.027 A 
HETATM    2  C6  UNL     1     -13.266 -35.727 -13.408  1.00  0.00     0.024 A 
HETATM    3  C7  UNL     1     -12.994 -36.858 -12.687  1.00  0.00    -0.049 A 
HETATM    4  C12 UNL     1     -13.987 -37.801 -12.587  1.00  0.00     0.019 A 
HETATM    5  C13 UNL     1     -15.227 -37.603 -13.203  1.00  0.00    -0.002 A 
HETATM    6  C25 UNL     1     -15.483 -36.451 -13.927  1.00  0.00     0.051 A 
ENDROOT
BRANCH   5   7
HETATM    7  C14 UNL     1     -16.239 -38.679 -13.114  1.00  0.00     0.313 C 
BRANCH   7   8
HETATM    8  N3  UNL     1     -15.614 -40.004 -13.035  1.00  0.00     0.092 N 
HETATM    9  C15 UNL     1     -16.755 -40.944 -13.227  1.00  0.00     0.276 C 
HETATM   10  C16 UNL     1     -16.193 -42.316 -13.280  1.00  0.00     0.068 C 
HETATM   11  C17 UNL     1     -15.178 -42.675 -12.247  1.00  0.00     0.064 C 
HETATM   12  C23 UNL     1     -14.779 -41.582 -11.325  1.00  0.00     0.068 C 
HETATM   13  C24 UNL     1     -15.317 -40.231 -11.620  1.00  0.00     0.276 C 
BRANCH  11  14
HETATM   14  O1  UNL     1     -14.057 -43.196 -12.891  1.00  0.00    -0.389 OA
ATOM     15  H1  UNL     1     -14.303 -43.435 -13.776  1.00  0.00     0.210 HD
ENDBRANCH  11  14
BRANCH  11  16
HETATM   16  C18 UNL     1     -15.747 -43.844 -11.430  1.00  0.00     0.065 C 
BRANCH  16  17
HETATM   17  C19 UNL     1     -15.550 -43.708  -9.989  1.00  0.00    -0.022 C 
HETATM   18  C20 UNL     1     -15.282 -44.716  -9.155  1.00  0.00    -0.091 C 
HETATM   19  C21 UNL     1     -15.099 -44.466  -7.690  1.00  0.00     0.042 C 
HETATM   20  C22 UNL     1     -15.178 -46.096  -9.697  1.00  0.00     0.042 C 
ENDBRANCH  16  17
ENDBRANCH  11  16
ENDBRANCH   7   8
ENDBRANCH   5   7
BRANCH   6  21
HETATM   21  N4  UNL     1     -16.783 -36.276 -14.509  1.00  0.00    -0.377 N 
HETATM   22  C26 UNL     1     -17.099 -36.773 -15.820  1.00  0.00     0.126 C 
HETATM   23  C27 UNL     1     -18.584 -36.932 -15.852  1.00  0.00     0.058 C 
HETATM   24  C28 UNL     1     -19.053 -35.875 -14.896  1.00  0.00     0.189 C 
HETATM   25  F1  UNL     1     -19.423 -34.708 -15.582  1.00  0.00    -0.248 F 
HETATM   26  C29 UNL     1     -17.911 -35.605 -13.964  1.00  0.00     0.160 C 
ENDBRANCH   6  21
BRANCH   3  27
HETATM   27  C8  UNL     1     -11.643 -37.014 -12.067  1.00  0.00    -0.024 C 
HETATM   28  C9  UNL     1     -11.632 -38.286 -11.237  1.00  0.00     0.019 C 
HETATM   29  C10 UNL     1     -10.558 -37.069 -13.103  1.00  0.00     0.019 C 
HETATM   30  C11 UNL     1     -11.452 -35.836 -11.134  1.00  0.00     0.019 C 
ENDBRANCH   3  27
BRANCH   1  31
HETATM   31  C4  UNL     1     -14.681 -34.287 -14.797  1.00  0.00     0.107 A 
HETATM   32  C3  UNL     1     -14.758 -32.990 -14.251  1.00  0.00     0.130 A 
HETATM   33  N2  UNL     1     -14.902 -32.122 -15.251  1.00  0.00    -0.330 N 
HETATM   34  C2  UNL     1     -14.917 -32.858 -16.412  1.00  0.00     0.224 A 
ATOM     35  H2  UNL     1     -14.985 -31.109 -15.171  1.00  0.00     0.168 HD
HETATM   36  N1  UNL     1     -15.043 -32.326 -17.575  1.00  0.00    -0.360 N 
HETATM   37  O2  UNL     1     -14.784 -34.105 -16.057  1.00  0.00    -0.277 OA
HETATM   38  C1  UNL     1     -15.071 -32.955 -18.840  1.00  0.00     0.150 C 
ATOM     39  H1  UNL     1     -15.134 -31.310 -17.587  1.00  0.00     0.162 HD
ENDBRANCH   1  31
TORSDOF 8
ENDMDL
MODEL 5
REMARK VINA RESULT: -8.245067068      0.861      1.228
REMARK  8 active torsions:
REMARK  status: ('A' for Active; 'I' for Inactive)
REMARK    1  A    between atoms: C4_8  and  C5_9 
REMARK    2  A    between atoms: C7_11  and  C8_12 
REMARK    3  A    between atoms: C13_17  and  C14_18 
REMARK    4  A    between atoms: C14_18  and  N3_19 
REMARK    5  A    between atoms: C17_22  and  O1_23 
REMARK    6  A    between atoms: C17_22  and  C18_25 
REMARK    7  A    between atoms: C18_25  and  C19_26 
REMARK    8  A    between atoms: C25_32  and  N4_33 
ROOT
HETATM    1  C5  UNL     1     -13.567 -36.318 -13.658  1.00  0.00     0.027 A 
HETATM    2  C6  UNL     1     -12.246 -36.404 -13.133  1.00  0.00     0.024 A 
HETATM    3  C7  UNL     1     -11.660 -37.596 -12.806  1.00  0.00    -0.049 A 
HETATM    4  C12 UNL     1     -12.394 -38.740 -13.003  1.00  0.00     0.019 A 
HETATM    5  C13 UNL     1     -13.693 -38.676 -13.518  1.00  0.00    -0.002 A 
HETATM    6  C25 UNL     1     -14.269 -37.459 -13.841  1.00  0.00     0.051 A 
ENDROOT
BRANCH   5   7
HETATM    7  C14 UNL     1     -14.416 -39.943 -13.767  1.00  0.00     0.313 C 
BRANCH   7   8
HETATM    8  N3  UNL     1     -15.177 -40.372 -12.589  1.00  0.00     0.092 N 
HETATM    9  C15 UNL     1     -14.131 -40.572 -11.546  1.00  0.00     0.276 C 
HETATM   10  C16 UNL     1     -14.828 -40.896 -10.277  1.00  0.00     0.068 C 
HETATM   11  C17 UNL     1     -15.927 -41.903 -10.343  1.00  0.00     0.064 C 
HETATM   12  C23 UNL     1     -16.260 -42.409 -11.699  1.00  0.00     0.068 C 
HETATM   13  C24 UNL     1     -15.571 -41.760 -12.840  1.00  0.00     0.276 C 
BRANCH  11  14
HETATM   14  O1  UNL     1     -17.060 -41.359  -9.740  1.00  0.00    -0.389 OA
ATOM     15  H1  UNL     1     -16.948 -41.400  -8.798  1.00  0.00     0.210 HD
ENDBRANCH  11  14
BRANCH  11  16
HETATM   16  C18 UNL     1     -15.526 -43.082  -9.446  1.00  0.00     0.065 C 
BRANCH  16  17
HETATM   17  C19 UNL     1     -15.512 -44.370 -10.136  1.00  0.00    -0.022 C 
HETATM   18  C20 UNL     1     -15.299 -45.550  -9.547  1.00  0.00    -0.091 C 
HETATM   19  C21 UNL     1     -15.305 -46.814 -10.350  1.00  0.00     0.042 C 
HETATM   20  C22 UNL     1     -15.045 -45.595  -8.084  1.00  0.00     0.042 C 
ENDBRANCH  16  17
ENDBRANCH  11  16
ENDBRANCH   7   8
ENDBRANCH   5   7
BRANCH   6  21
HETATM   21  N4  UNL     1     -15.618 -37.442 -14.330  1.00  0.00    -0.377 N 
HETATM   22  C26 UNL     1     -16.737 -37.204 -13.459  1.00  0.00     0.126 C 
HETATM   23  C27 UNL     1     -17.838 -36.698 -14.334  1.00  0.00     0.058 C 
HETATM   24  C28 UNL     1     -17.545 -37.355 -15.652  1.00  0.00     0.189 C 
HETATM   25  F1  UNL     1     -18.306 -38.523 -15.809  1.00  0.00    -0.248 F 
HETATM   26  C29 UNL     1     -16.079 -37.669 -15.655  1.00  0.00     0.160 C 
ENDBRANCH   6  21
BRANCH   3  27
HETATM   27  C8  UNL     1     -10.263 -37.595 -12.275  1.00  0.00    -0.024 C 
HETATM   28  C9  UNL     1      -9.382 -38.395 -13.219  1.00  0.00     0.019 C 
HETATM   29  C10 UNL     1      -9.724 -36.201 -12.130  1.00  0.00     0.019 C 
HETATM   30  C11 UNL     1     -10.303 -38.309 -10.940  1.00  0.00     0.019 C 
ENDBRANCH   3  27
BRANCH   1  31
HETATM   31  C4  UNL     1     -14.068 -35.005 -13.989  1.00  0.00     0.107 A 
HETATM   32  C3  UNL     1     -14.437 -34.012 -13.060  1.00  0.00     0.130 A 
HETATM   33  N2  UNL     1     -14.849 -32.940 -13.735  1.00  0.00    -0.330 N 
HETATM   34  C2  UNL     1     -14.743 -33.251 -15.070  1.00  0.00     0.224 A 
ATOM     35  H2  UNL     1     -15.178 -32.060 -13.339  1.00  0.00     0.168 HD
HETATM   36  N1  UNL     1     -15.062 -32.430 -16.007  1.00  0.00    -0.360 N 
HETATM   37  O2  UNL     1     -14.283 -34.469 -15.128  1.00  0.00    -0.277 OA
HETATM   38  C1  UNL     1     -15.001 -32.613 -17.406  1.00  0.00     0.150 C 
ATOM     39  H1  UNL     1     -15.405 -31.520 -15.697  1.00  0.00     0.162 HD
ENDBRANCH   1  31
TORSDOF 8
ENDMDL
