MODEL 1
REMARK VINA RESULT: -8.315874041      0.000      0.000
REMARK  11 active torsions:
REMARK  status: ('A' for Active; 'I' for Inactive)
REMARK    1  A    between atoms: C2_2  and  C4_4 
REMARK    2  A    between atoms: C4_4  and  C5_5 
REMARK    3  A    between atoms: C10_10  and  O1_11 
REMARK    4  A    between atoms: C11_13  and  C12_14 
REMARK    5  A    between atoms: C13_15  and  C14_16 
REMARK    6  A    between atoms: C14_16  and  O3_18 
REMARK    7  A    between atoms: O3_18  and  C15_19 
REMARK    8  A    between atoms: C15_19  and  C16_20 
REMARK    9  A    between atoms: C16_20  and  C17_21 
REMARK   10  A    between atoms: C18_22  and  C19_23 
REMARK   11  A    between atoms: C26_32  and  O4_33 
ROOT
HETATM    1  C5  UNL     1     -15.575 -42.329 -10.331  1.00  0.00     0.164 C 
HETATM    2  C6  UNL     1     -16.607 -41.242 -10.121  1.00  0.00     0.038 C 
HETATM    3  C7  UNL     1     -16.754 -40.535 -11.476  1.00  0.00     0.047 C 
HETATM    4  C8  UNL     1     -15.361 -40.204 -11.936  1.00  0.00     0.125 C 
HETATM    5  C9  UNL     1     -14.953 -40.956 -13.173  1.00  0.00     0.076 C 
HETATM    6  C10 UNL     1     -13.813 -40.106 -13.684  1.00  0.00     0.131 C 
HETATM    7  C11 UNL     1     -14.398 -38.699 -13.588  1.00  0.00     0.069 C 
HETATM    8  C26 UNL     1     -15.272 -38.772 -12.339  1.00  0.00     0.166 C 
HETATM    9  O5  UNL     1     -14.501 -40.451 -10.865  1.00  0.00    -0.227 OA
HETATM   10  O6  UNL     1     -14.371 -41.743 -10.643  1.00  0.00    -0.234 OA
ENDROOT
BRANCH   7  11
HETATM   11  C12 UNL     1     -15.227 -38.502 -14.772  1.00  0.00    -0.011 C 
HETATM   12  C13 UNL     1     -15.105 -37.645 -15.734  1.00  0.00     0.079 C 
BRANCH  12  13
HETATM   13  C14 UNL     1     -14.049 -36.653 -15.817  1.00  0.00     0.282 C 
HETATM   14  O2  UNL     1     -13.294 -36.723 -16.859  1.00  0.00    -0.260 OA
BRANCH  13  15
HETATM   15  O3  UNL     1     -13.766 -35.687 -14.957  1.00  0.00    -0.317 OA
BRANCH  15  16
HETATM   16  C15 UNL     1     -14.369 -34.722 -14.250  1.00  0.00     0.191 C 
BRANCH  16  17
HETATM   17  C16 UNL     1     -15.053 -35.011 -12.995  1.00  0.00     0.121 C 
BRANCH  17  18
HETATM   18  C17 UNL     1     -14.280 -34.889 -11.796  1.00  0.00    -0.099 C 
HETATM   19  C18 UNL     1     -13.664 -34.757 -10.739  1.00  0.00    -0.063 C 
BRANCH  19  20
HETATM   20  C19 UNL     1     -12.951 -34.580  -9.510  1.00  0.00     0.061 A 
HETATM   21  C20 UNL     1     -11.625 -34.943  -9.480  1.00  0.00     0.054 A 
HETATM   22 CL1  UNL     1     -10.811 -35.606 -10.893  1.00  0.00    -0.083 Cl
HETATM   23  C21 UNL     1     -10.921 -34.778  -8.301  1.00  0.00     0.026 A 
HETATM   24  C22 UNL     1     -11.502 -34.264  -7.163  1.00  0.00     0.010 A 
HETATM   25  C23 UNL     1     -12.817 -33.902  -7.185  1.00  0.00    -0.039 A 
HETATM   26  C24 UNL     1     -13.531 -33.342  -6.014  1.00  0.00     0.050 C 
HETATM   27  C25 UNL     1     -13.512 -34.069  -8.362  1.00  0.00     0.060 A 
HETATM   28 CL2  UNL     1     -15.215 -33.607  -8.416  1.00  0.00    -0.082 Cl
ENDBRANCH  19  20
ENDBRANCH  17  18
ENDBRANCH  16  17
ENDBRANCH  15  16
ENDBRANCH  13  15
ENDBRANCH  12  13
ENDBRANCH   7  11
BRANCH   6  29
HETATM   29  O1  UNL     1     -13.598 -40.430 -15.020  1.00  0.00    -0.395 OA
ATOM     30  H1  UNL     1     -12.660 -40.468 -15.167  1.00  0.00     0.210 HD
ENDBRANCH   6  29
BRANCH   8  31
HETATM   31  O4  UNL     1     -16.507 -38.233 -12.668  1.00  0.00    -0.392 OA
ATOM     32  H4  UNL     1     -16.451 -37.319 -12.919  1.00  0.00     0.210 HD
ENDBRANCH   8  31
BRANCH   1  33
HETATM   33  C4  UNL     1     -15.481 -43.237  -9.121  1.00  0.00     0.068 C 
BRANCH  33  34
HETATM   34  C2  UNL     1     -15.388 -44.662  -9.510  1.00  0.00    -0.091 C 
HETATM   35  C1  UNL     1     -15.542 -44.997 -10.774  1.00  0.00     0.014 C 
HETATM   36  C3  UNL     1     -15.124 -45.702  -8.496  1.00  0.00     0.042 C 
ENDBRANCH  33  34
ENDBRANCH   1  33
TORSDOF 11
ENDMDL
MODEL 2
REMARK VINA RESULT: -7.914660416      4.667      9.570
REMARK  11 active torsions:
REMARK  status: ('A' for Active; 'I' for Inactive)
REMARK    1  A    between atoms: C2_2  and  C4_4 
REMARK    2  A    between atoms: C4_4  and  C5_5 
REMARK    3  A    between atoms: C10_10  and  O1_11 
REMARK    4  A    between atoms: C11_13  and  C12_14 
REMARK    5  A    between atoms: C13_15  and  C14_16 
REMARK    6  A    between atoms: C14_16  and  O3_18 
REMARK    7  A    between atoms: O3_18  and  C15_19 
REMARK    8  A    between atoms: C15_19  and  C16_20 
REMARK    9  A    between atoms: C16_20  and  C17_21 
REMARK   10  A    between atoms: C18_22  and  C19_23 
REMARK   11  A    between atoms: C26_32  and  O4_33 
ROOT
HETATM    1  C5  UNL     1      -8.409 -36.530 -13.096  1.00  0.00     0.164 C 
HETATM    2  C6  UNL     1      -8.715 -37.675 -14.036  1.00  0.00     0.038 C 
HETATM    3  C7  UNL     1     -10.240 -37.850 -14.002  1.00  0.00     0.047 C 
HETATM    4  C8  UNL     1     -10.629 -37.912 -12.551  1.00  0.00     0.125 C 
HETATM    5  C9  UNL     1     -11.465 -36.741 -12.113  1.00  0.00     0.076 C 
HETATM    6  C10 UNL     1     -12.114 -37.282 -10.860  1.00  0.00     0.131 C 
HETATM    7  C11 UNL     1     -12.589 -38.659 -11.317  1.00  0.00     0.069 C 
HETATM    8  C26 UNL     1     -11.502 -39.093 -12.295  1.00  0.00     0.166 C 
HETATM    9  O5  UNL     1      -9.451 -38.022 -11.810  1.00  0.00    -0.227 OA
HETATM   10  O6  UNL     1      -8.772 -36.893 -11.820  1.00  0.00    -0.234 OA
ENDROOT
BRANCH   7  11
HETATM   11  C12 UNL     1     -13.850 -38.460 -12.022  1.00  0.00    -0.011 C 
HETATM   12  C13 UNL     1     -14.806 -39.299 -12.261  1.00  0.00     0.079 C 
BRANCH  12  13
HETATM   13  C14 UNL     1     -14.798 -40.689 -11.844  1.00  0.00     0.282 C 
HETATM   14  O2  UNL     1     -15.435 -40.952 -10.755  1.00  0.00    -0.260 OA
BRANCH  13  15
HETATM   15  O3  UNL     1     -14.218 -41.719 -12.442  1.00  0.00    -0.317 OA
BRANCH  15  16
HETATM   16  C15 UNL     1     -14.470 -42.650 -13.371  1.00  0.00     0.191 C 
BRANCH  16  17
HETATM   17  C16 UNL     1     -15.561 -43.605 -13.217  1.00  0.00     0.121 C 
BRANCH  17  18
HETATM   18  C17 UNL     1     -15.557 -44.406 -12.030  1.00  0.00    -0.099 C 
HETATM   19  C18 UNL     1     -15.496 -45.079 -11.002  1.00  0.00    -0.063 C 
BRANCH  19  20
HETATM   20  C19 UNL     1     -15.407 -45.875  -9.815  1.00  0.00     0.061 A 
HETATM   21  C20 UNL     1     -15.568 -47.235  -9.943  1.00  0.00     0.054 A 
HETATM   22 CL1  UNL     1     -15.875 -47.993 -11.501  1.00  0.00    -0.083 Cl
HETATM   23  C21 UNL     1     -15.484 -48.019  -8.806  1.00  0.00     0.026 A 
HETATM   24  C22 UNL     1     -15.246 -47.486  -7.559  1.00  0.00     0.010 A 
HETATM   25  C23 UNL     1     -15.086 -46.138  -7.425  1.00  0.00    -0.039 A 
HETATM   26  C24 UNL     1     -14.827 -45.469  -6.129  1.00  0.00     0.050 C 
HETATM   27  C25 UNL     1     -15.170 -45.362  -8.561  1.00  0.00     0.060 A 
HETATM   28 CL2  UNL     1     -14.966 -43.615  -8.414  1.00  0.00    -0.082 Cl
ENDBRANCH  19  20
ENDBRANCH  17  18
ENDBRANCH  16  17
ENDBRANCH  15  16
ENDBRANCH  13  15
ENDBRANCH  12  13
ENDBRANCH   7  11
BRANCH   6  29
HETATM   29  O1  UNL     1     -13.215 -36.484 -10.565  1.00  0.00    -0.395 OA
ATOM     30  H1  UNL     1     -13.997 -36.946 -10.842  1.00  0.00     0.210 HD
ENDBRANCH   6  29
BRANCH   8  31
HETATM   31  O4  UNL     1     -12.136 -39.545 -13.444  1.00  0.00    -0.392 OA
ATOM     32  H4  UNL     1     -12.196 -40.493 -13.478  1.00  0.00     0.210 HD
ENDBRANCH   8  31
BRANCH   1  33
HETATM   33  C4  UNL     1      -6.953 -36.118 -13.188  1.00  0.00     0.068 C 
BRANCH  33  34
HETATM   34  C2  UNL     1      -6.486 -36.060 -14.591  1.00  0.00    -0.091 C 
HETATM   35  C1  UNL     1      -5.509 -36.853 -14.979  1.00  0.00     0.014 C 
HETATM   36  C3  UNL     1      -7.106 -35.126 -15.552  1.00  0.00     0.042 C 
ENDBRANCH  33  34
ENDBRANCH   1  33
TORSDOF 11
ENDMDL
MODEL 3
REMARK VINA RESULT: -7.882770357      4.988     10.425
REMARK  11 active torsions:
REMARK  status: ('A' for Active; 'I' for Inactive)
REMARK    1  A    between atoms: C2_2  and  C4_4 
REMARK    2  A    between atoms: C4_4  and  C5_5 
REMARK    3  A    between atoms: C10_10  and  O1_11 
REMARK    4  A    between atoms: C11_13  and  C12_14 
REMARK    5  A    between atoms: C13_15  and  C14_16 
REMARK    6  A    between atoms: C14_16  and  O3_18 
REMARK    7  A    between atoms: O3_18  and  C15_19 
REMARK    8  A    between atoms: C15_19  and  C16_20 
REMARK    9  A    between atoms: C16_20  and  C17_21 
REMARK   10  A    between atoms: C18_22  and  C19_23 
REMARK   11  A    between atoms: C26_32  and  O4_33 
ROOT
HETATM    1  C5  UNL     1      -8.476 -36.444 -13.083  1.00  0.00     0.164 C 
HETATM    2  C6  UNL     1      -8.749 -37.565 -14.062  1.00  0.00     0.038 C 
HETATM    3  C7  UNL     1     -10.265 -37.799 -14.020  1.00  0.00     0.047 C 
HETATM    4  C8  UNL     1     -10.636 -37.929 -12.569  1.00  0.00     0.125 C 
HETATM    5  C9  UNL     1     -11.511 -36.807 -12.080  1.00  0.00     0.076 C 
HETATM    6  C10 UNL     1     -12.126 -37.417 -10.842  1.00  0.00     0.131 C 
HETATM    7  C11 UNL     1     -12.553 -38.794 -11.345  1.00  0.00     0.069 C 
HETATM    8  C26 UNL     1     -11.461 -39.151 -12.348  1.00  0.00     0.166 C 
HETATM    9  O5  UNL     1      -9.447 -38.020 -11.843  1.00  0.00    -0.227 OA
HETATM   10  O6  UNL     1      -8.812 -36.867 -11.819  1.00  0.00    -0.234 OA
ENDROOT
BRANCH   7  11
HETATM   11  C12 UNL     1     -13.829 -38.617 -12.030  1.00  0.00    -0.011 C 
HETATM   12  C13 UNL     1     -14.777 -39.471 -12.245  1.00  0.00     0.079 C 
BRANCH  12  13
HETATM   13  C14 UNL     1     -14.744 -40.857 -11.816  1.00  0.00     0.282 C 
HETATM   14  O2  UNL     1     -14.056 -41.658 -12.556  1.00  0.00    -0.260 OA
BRANCH  13  15
HETATM   15  O3  UNL     1     -15.331 -41.400 -10.760  1.00  0.00    -0.317 OA
BRANCH  15  16
HETATM   16  C15 UNL     1     -15.940 -42.531 -10.384  1.00  0.00     0.191 C 
BRANCH  16  17
HETATM   17  C16 UNL     1     -15.571 -43.223  -9.154  1.00  0.00     0.121 C 
BRANCH  17  18
HETATM   18  C17 UNL     1     -15.295 -44.624  -9.259  1.00  0.00    -0.099 C 
HETATM   19  C18 UNL     1     -15.041 -45.827  -9.292  1.00  0.00    -0.063 C 
BRANCH  19  20
HETATM   20  C19 UNL     1     -14.720 -47.223  -9.324  1.00  0.00     0.061 A 
HETATM   21  C20 UNL     1     -15.248 -48.025  -8.339  1.00  0.00     0.054 A 
HETATM   22 CL1  UNL     1     -16.284 -47.380  -7.071  1.00  0.00    -0.083 Cl
HETATM   23  C21 UNL     1     -14.947 -49.374  -8.356  1.00  0.00     0.026 A 
HETATM   24  C22 UNL     1     -14.143 -49.939  -9.321  1.00  0.00     0.010 A 
HETATM   25  C23 UNL     1     -13.616 -49.150 -10.301  1.00  0.00    -0.039 A 
HETATM   26  C24 UNL     1     -12.741 -49.662 -11.381  1.00  0.00     0.050 C 
HETATM   27  C25 UNL     1     -13.919 -47.806 -10.279  1.00  0.00     0.060 A 
HETATM   28 CL2  UNL     1     -13.249 -46.764 -11.537  1.00  0.00    -0.082 Cl
ENDBRANCH  19  20
ENDBRANCH  17  18
ENDBRANCH  16  17
ENDBRANCH  15  16
ENDBRANCH  13  15
ENDBRANCH  12  13
ENDBRANCH   7  11
BRANCH   6  29
HETATM   29  O1  UNL     1     -13.253 -36.673 -10.507  1.00  0.00    -0.395 OA
ATOM     30  H1  UNL     1     -13.051 -36.166  -9.730  1.00  0.00     0.210 HD
ENDBRANCH   6  29
BRANCH   8  31
HETATM   31  O4  UNL     1     -12.090 -39.584 -13.506  1.00  0.00    -0.392 OA
ATOM     32  H4  UNL     1     -12.887 -40.070 -13.328  1.00  0.00     0.210 HD
ENDBRANCH   8  31
BRANCH   1  33
HETATM   33  C4  UNL     1      -7.038 -35.974 -13.174  1.00  0.00     0.068 C 
BRANCH  33  34
HETATM   34  C2  UNL     1      -6.541 -35.992 -14.568  1.00  0.00    -0.091 C 
HETATM   35  C1  UNL     1      -5.600 -36.850 -14.905  1.00  0.00     0.014 C 
HETATM   36  C3  UNL     1      -7.090 -35.063 -15.574  1.00  0.00     0.042 C 
ENDBRANCH  33  34
ENDBRANCH   1  33
TORSDOF 11
ENDMDL
MODEL 4
REMARK VINA RESULT: -7.824233920      4.969     10.341
REMARK  11 active torsions:
REMARK  status: ('A' for Active; 'I' for Inactive)
REMARK    1  A    between atoms: C2_2  and  C4_4 
REMARK    2  A    between atoms: C4_4  and  C5_5 
REMARK    3  A    between atoms: C10_10  and  O1_11 
REMARK    4  A    between atoms: C11_13  and  C12_14 
REMARK    5  A    between atoms: C13_15  and  C14_16 
REMARK    6  A    between atoms: C14_16  and  O3_18 
REMARK    7  A    between atoms: O3_18  and  C15_19 
REMARK    8  A    between atoms: C15_19  and  C16_20 
REMARK    9  A    between atoms: C16_20  and  C17_21 
REMARK   10  A    between atoms: C18_22  and  C19_23 
REMARK   11  A    between atoms: C26_32  and  O4_33 
ROOT
HETATM    1  C5  UNL     1      -8.498 -36.436 -13.068  1.00  0.00     0.164 C 
HETATM    2  C6  UNL     1      -8.798 -37.525 -14.076  1.00  0.00     0.038 C 
HETATM    3  C7  UNL     1     -10.315 -37.751 -14.011  1.00  0.00     0.047 C 
HETATM    4  C8  UNL     1     -10.658 -37.924 -12.557  1.00  0.00     0.125 C 
HETATM    5  C9  UNL     1     -11.515 -36.812 -12.017  1.00  0.00     0.076 C 
HETATM    6  C10 UNL     1     -12.109 -37.457 -10.786  1.00  0.00     0.131 C 
HETATM    7  C11 UNL     1     -12.556 -38.815 -11.323  1.00  0.00     0.069 C 
HETATM    8  C26 UNL     1     -11.486 -39.147 -12.358  1.00  0.00     0.166 C 
HETATM    9  O5  UNL     1      -9.455 -38.045 -11.859  1.00  0.00    -0.227 OA
HETATM   10  O6  UNL     1      -8.812 -36.897 -11.811  1.00  0.00    -0.234 OA
ENDROOT
BRANCH   7  11
HETATM   11  C12 UNL     1     -13.844 -38.610 -11.977  1.00  0.00    -0.011 C 
HETATM   12  C13 UNL     1     -14.803 -39.450 -12.196  1.00  0.00     0.079 C 
BRANCH  12  13
HETATM   13  C14 UNL     1     -14.773 -40.847 -11.805  1.00  0.00     0.282 C 
HETATM   14  O2  UNL     1     -14.063 -41.624 -12.551  1.00  0.00    -0.260 OA
BRANCH  13  15
HETATM   15  O3  UNL     1     -15.382 -41.423 -10.780  1.00  0.00    -0.317 OA
BRANCH  15  16
HETATM   16  C15 UNL     1     -15.893 -42.604 -10.411  1.00  0.00     0.191 C 
BRANCH  16  17
HETATM   17  C16 UNL     1     -15.505 -43.246  -9.161  1.00  0.00     0.121 C 
BRANCH  17  18
HETATM   18  C17 UNL     1     -15.257 -44.655  -9.207  1.00  0.00    -0.099 C 
HETATM   19  C18 UNL     1     -15.039 -45.866  -9.188  1.00  0.00    -0.063 C 
BRANCH  19  20
HETATM   20  C19 UNL     1     -14.764 -47.271  -9.153  1.00  0.00     0.061 A 
HETATM   21  C20 UNL     1     -13.946 -47.788 -10.130  1.00  0.00     0.054 A 
HETATM   22 CL1  UNL     1     -13.249 -46.777 -11.391  1.00  0.00    -0.083 Cl
HETATM   23  C21 UNL     1     -13.671 -49.143 -10.111  1.00  0.00     0.026 A 
HETATM   24  C22 UNL     1     -14.185 -49.986  -9.152  1.00  0.00     0.010 A 
HETATM   25  C23 UNL     1     -14.998 -49.481  -8.180  1.00  0.00    -0.039 A 
HETATM   26  C24 UNL     1     -15.600 -50.304  -7.106  1.00  0.00     0.050 C 
HETATM   27  C25 UNL     1     -15.268 -48.130  -8.204  1.00  0.00     0.060 A 
HETATM   28 CL2  UNL     1     -16.316 -47.451  -6.956  1.00  0.00    -0.082 Cl
ENDBRANCH  19  20
ENDBRANCH  17  18
ENDBRANCH  16  17
ENDBRANCH  15  16
ENDBRANCH  13  15
ENDBRANCH  12  13
ENDBRANCH   7  11
BRANCH   6  29
HETATM   29  O1  UNL     1     -13.225 -36.717 -10.406  1.00  0.00    -0.395 OA
ATOM     30  H1  UNL     1     -13.205 -36.617  -9.461  1.00  0.00     0.210 HD
ENDBRANCH   6  29
BRANCH   8  31
HETATM   31  O4  UNL     1     -12.141 -39.540 -13.517  1.00  0.00    -0.392 OA
ATOM     32  H4  UNL     1     -12.894 -40.092 -13.340  1.00  0.00     0.210 HD
ENDBRANCH   8  31
BRANCH   1  33
HETATM   33  C4  UNL     1      -7.059 -35.973 -13.173  1.00  0.00     0.068 C 
BRANCH  33  34
HETATM   34  C2  UNL     1      -6.565 -36.027 -14.567  1.00  0.00    -0.091 C 
HETATM   35  C1  UNL     1      -5.663 -36.928 -14.896  1.00  0.00     0.014 C 
HETATM   36  C3  UNL     1      -7.073 -35.083 -15.582  1.00  0.00     0.042 C 
ENDBRANCH  33  34
ENDBRANCH   1  33
TORSDOF 11
ENDMDL
MODEL 5
REMARK VINA RESULT: -7.776204548      5.626     10.125
REMARK  11 active torsions:
REMARK  status: ('A' for Active; 'I' for Inactive)
REMARK    1  A    between atoms: C2_2  and  C4_4 
REMARK    2  A    between atoms: C4_4  and  C5_5 
REMARK    3  A    between atoms: C10_10  and  O1_11 
REMARK    4  A    between atoms: C11_13  and  C12_14 
REMARK    5  A    between atoms: C13_15  and  C14_16 
REMARK    6  A    between atoms: C14_16  and  O3_18 
REMARK    7  A    between atoms: O3_18  and  C15_19 
REMARK    8  A    between atoms: C15_19  and  C16_20 
REMARK    9  A    between atoms: C16_20  and  C17_21 
REMARK   10  A    between atoms: C18_22  and  C19_23 
REMARK   11  A    between atoms: C26_32  and  O4_33 
ROOT
HETATM    1  C5  UNL     1      -6.292 -37.283 -16.146  1.00  0.00     0.164 C 
HETATM    2  C6  UNL     1      -5.845 -36.520 -14.919  1.00  0.00     0.038 C 
HETATM    3  C7  UNL     1      -6.610 -37.137 -13.739  1.00  0.00     0.047 C 
HETATM    4  C8  UNL     1      -8.058 -37.177 -14.144  1.00  0.00     0.125 C 
HETATM    5  C9  UNL     1      -8.589 -38.575 -14.302  1.00  0.00     0.076 C 
HETATM    6  C10 UNL     1     -10.080 -38.348 -14.194  1.00  0.00     0.131 C 
HETATM    7  C11 UNL     1     -10.174 -37.436 -12.973  1.00  0.00     0.069 C 
HETATM    8  C26 UNL     1      -8.914 -36.583 -13.078  1.00  0.00     0.166 C 
HETATM    9  O5  UNL     1      -8.179 -36.435 -15.320  1.00  0.00    -0.227 OA
HETATM   10  O6  UNL     1      -7.635 -37.063 -16.342  1.00  0.00    -0.234 OA
ENDROOT
BRANCH   7  11
HETATM   11  C12 UNL     1     -10.104 -38.295 -11.796  1.00  0.00    -0.011 C 
HETATM   12  C13 UNL     1     -11.042 -38.660 -10.981  1.00  0.00     0.079 C 
BRANCH  12  13
HETATM   13  C14 UNL     1     -12.430 -38.253 -11.096  1.00  0.00     0.282 C 
HETATM   14  O2  UNL     1     -12.725 -37.111 -10.578  1.00  0.00    -0.260 OA
BRANCH  13  15
HETATM   15  O3  UNL     1     -13.429 -38.909 -11.666  1.00  0.00    -0.317 OA
BRANCH  15  16
HETATM   16  C15 UNL     1     -14.038 -40.101 -11.630  1.00  0.00     0.191 C 
BRANCH  16  17
HETATM   17  C16 UNL     1     -14.603 -40.631 -10.394  1.00  0.00     0.121 C 
BRANCH  17  18
HETATM   18  C17 UNL     1     -14.850 -42.041 -10.349  1.00  0.00    -0.099 C 
HETATM   19  C18 UNL     1     -15.078 -43.245 -10.252  1.00  0.00    -0.063 C 
BRANCH  19  20
HETATM   20  C19 UNL     1     -15.328 -44.650 -10.121  1.00  0.00     0.061 A 
HETATM   21  C20 UNL     1     -15.676 -45.347 -11.254  1.00  0.00     0.054 A 
HETATM   22 CL1  UNL     1     -15.817 -44.562 -12.823  1.00  0.00    -0.083 Cl
HETATM   23  C21 UNL     1     -15.921 -46.704 -11.145  1.00  0.00     0.026 A 
HETATM   24  C22 UNL     1     -15.827 -47.375  -9.946  1.00  0.00     0.010 A 
HETATM   25  C23 UNL     1     -15.482 -46.690  -8.818  1.00  0.00    -0.039 A 
HETATM   26  C24 UNL     1     -15.356 -47.321  -7.484  1.00  0.00     0.050 C 
HETATM   27  C25 UNL     1     -15.240 -45.339  -8.933  1.00  0.00     0.060 A 
HETATM   28 CL2  UNL     1     -14.791 -44.429  -7.488  1.00  0.00    -0.082 Cl
ENDBRANCH  19  20
ENDBRANCH  17  18
ENDBRANCH  16  17
ENDBRANCH  15  16
ENDBRANCH  13  15
ENDBRANCH  12  13
ENDBRANCH   7  11
BRANCH   6  29
HETATM   29  O1  UNL     1     -10.683 -39.569 -13.911  1.00  0.00    -0.395 OA
ATOM     30  H1  UNL     1     -11.494 -39.618 -14.402  1.00  0.00     0.210 HD
ENDBRANCH   6  29
BRANCH   8  31
HETATM   31  O4  UNL     1      -8.300 -36.598 -11.834  1.00  0.00    -0.392 OA
ATOM     32  H4  UNL     1      -8.856 -36.242 -11.150  1.00  0.00     0.210 HD
ENDBRANCH   8  31
BRANCH   1  33
HETATM   33  C4  UNL     1      -5.462 -36.908 -17.358  1.00  0.00     0.068 C 
BRANCH  33  34
HETATM   34  C2  UNL     1      -5.008 -38.103 -18.104  1.00  0.00    -0.091 C 
HETATM   35  C1  UNL     1      -4.944 -38.057 -19.418  1.00  0.00     0.014 C 
HETATM   36  C3  UNL     1      -4.628 -39.337 -17.388  1.00  0.00     0.042 C 
ENDBRANCH  33  34
ENDBRANCH   1  33
TORSDOF 11
ENDMDL
