MODEL 1
REMARK VINA RESULT: -6.204752380      0.000      0.000
REMARK  7 active torsions:
REMARK  status: ('A' for Active; 'I' for Inactive)
REMARK    1  A    between atoms: C2_2  and  C3_3 
REMARK    2  A    between atoms: C3_3  and  C11_19 
REMARK    3  A    between atoms: C4_4  and  C5_5 
REMARK    4  A    between atoms: C6_8  and  C7_9 
REMARK    5  A    between atoms: C7_9  and  C8_10 
REMARK    6  A    between atoms: C8_10  and  O1_11 
REMARK    7  A    between atoms: C8_10  and  C9_13 
ROOT
HETATM    1  C5  UNL     1      34.334  -7.075  54.031  1.00  0.00     0.105 A 
HETATM    2  N1  UNL     1      34.237  -5.952  53.341  1.00  0.00    -0.341 N 
ATOM      3  H1  UNL     1      34.281  -5.903  52.324  1.00  0.00     0.167 HD
HETATM    4  C6  UNL     1      34.071  -4.876  54.142  1.00  0.00     0.051 A 
HETATM    5  C10 UNL     1      34.066  -5.399  55.407  1.00  0.00     0.119 A 
HETATM    6  N2  UNL     1      34.228  -6.747  55.342  1.00  0.00    -0.350 N 
ATOM      7  H2  UNL     1      34.263  -7.391  56.133  1.00  0.00     0.166 HD
ENDROOT
BRANCH   1   8
HETATM    8  C4  UNL     1      34.504  -8.464  53.608  1.00  0.00     0.056 C 
HETATM    9  C3  UNL     1      35.605  -9.163  53.742  1.00  0.00    -0.048 C 
BRANCH   9  10
HETATM   10  C2  UNL     1      36.766  -8.556  54.345  1.00  0.00    -0.002 C 
HETATM   11  C1  UNL     1      37.198  -8.801  55.568  1.00  0.00     0.012 C 
ENDBRANCH   9  10
BRANCH   9  12
HETATM   12  C11 UNL     1      35.589 -10.573  53.243  1.00  0.00    -0.024 C 
HETATM   13  C12 UNL     1      35.010 -11.546  54.218  1.00  0.00     0.019 C 
HETATM   14  C13 UNL     1      34.796 -10.685  51.951  1.00  0.00     0.019 C 
HETATM   15  C14 UNL     1      36.997 -11.046  52.900  1.00  0.00     0.019 C 
ENDBRANCH   9  12
ENDBRANCH   1   8
BRANCH   4  16
HETATM   16  C7  UNL     1      33.932  -3.485  53.772  1.00  0.00     0.065 C 
BRANCH  16  17
HETATM   17  C8  UNL     1      33.928  -3.116  52.497  1.00  0.00     0.078 C 
BRANCH  17  18
HETATM   18  O1  UNL     1      32.788  -3.386  51.757  1.00  0.00    -0.362 OA
ATOM     19  H1  UNL     1      32.074  -2.761  51.808  1.00  0.00     0.217 HD
ENDBRANCH  17  18
BRANCH  17  20
HETATM   20  C9  UNL     1      35.090  -2.434  51.864  1.00  0.00     0.234 C 
HETATM   21 CL1  UNL     1      34.737  -1.911  50.205  1.00  0.00    -0.101 Cl
HETATM   22 CL2  UNL     1      36.563  -3.386  51.972  1.00  0.00    -0.101 Cl
ENDBRANCH  17  20
ENDBRANCH  16  17
ENDBRANCH   4  16
TORSDOF 7
ENDMDL
MODEL 2
REMARK VINA RESULT: -5.900431303      3.190      4.587
REMARK  7 active torsions:
REMARK  status: ('A' for Active; 'I' for Inactive)
REMARK    1  A    between atoms: C2_2  and  C3_3 
REMARK    2  A    between atoms: C3_3  and  C11_19 
REMARK    3  A    between atoms: C4_4  and  C5_5 
REMARK    4  A    between atoms: C6_8  and  C7_9 
REMARK    5  A    between atoms: C7_9  and  C8_10 
REMARK    6  A    between atoms: C8_10  and  O1_11 
REMARK    7  A    between atoms: C8_10  and  C9_13 
ROOT
HETATM    1  C5  UNL     1      34.881  -5.983  56.830  1.00  0.00     0.105 A 
HETATM    2  N1  UNL     1      34.073  -5.538  55.884  1.00  0.00    -0.341 N 
ATOM      3  H1  UNL     1      33.075  -5.377  56.017  1.00  0.00     0.167 HD
HETATM    4  C6  UNL     1      34.725  -5.321  54.720  1.00  0.00     0.051 A 
HETATM    5  C10 UNL     1      36.022  -5.660  54.996  1.00  0.00     0.119 A 
HETATM    6  N2  UNL     1      36.121  -6.067  56.289  1.00  0.00    -0.350 N 
ATOM      7  H2  UNL     1      36.970  -6.377  56.763  1.00  0.00     0.166 HD
ENDROOT
BRANCH   1   8
HETATM    8  C4  UNL     1      34.639  -6.338  58.228  1.00  0.00     0.056 C 
HETATM    9  C3  UNL     1      34.549  -7.560  58.690  1.00  0.00    -0.048 C 
BRANCH   9  10
HETATM   10  C2  UNL     1      34.690  -8.676  57.788  1.00  0.00    -0.002 C 
HETATM   11  C1  UNL     1      35.770  -9.429  57.679  1.00  0.00     0.012 C 
ENDBRANCH   9  10
BRANCH   9  12
HETATM   12  C11 UNL     1      34.292  -7.725  60.155  1.00  0.00    -0.024 C 
HETATM   13  C12 UNL     1      35.525  -7.998  60.952  1.00  0.00     0.019 C 
HETATM   14  C13 UNL     1      33.631  -6.484  60.734  1.00  0.00     0.019 C 
HETATM   15  C14 UNL     1      33.314  -8.867  60.412  1.00  0.00     0.019 C 
ENDBRANCH   9  12
ENDBRANCH   1   8
BRANCH   4  16
HETATM   16  C7  UNL     1      34.196  -4.845  53.461  1.00  0.00     0.065 C 
BRANCH  16  17
HETATM   17  C8  UNL     1      33.889  -3.565  53.292  1.00  0.00     0.078 C 
BRANCH  17  18
HETATM   18  O1  UNL     1      32.780  -3.078  53.967  1.00  0.00    -0.362 OA
ATOM     19  H1  UNL     1      32.105  -3.702  54.207  1.00  0.00     0.217 HD
ENDBRANCH  17  18
BRANCH  17  20
HETATM   20  C9  UNL     1      34.690  -2.665  52.418  1.00  0.00     0.234 C 
HETATM   21 CL1  UNL     1      33.792  -2.162  50.972  1.00  0.00    -0.101 Cl
HETATM   22 CL2  UNL     1      36.267  -3.339  52.031  1.00  0.00    -0.101 Cl
ENDBRANCH  17  20
ENDBRANCH  16  17
ENDBRANCH   4  16
TORSDOF 7
ENDMDL
MODEL 3
REMARK VINA RESULT: -5.856321471      2.024      3.068
REMARK  7 active torsions:
REMARK  status: ('A' for Active; 'I' for Inactive)
REMARK    1  A    between atoms: C2_2  and  C3_3 
REMARK    2  A    between atoms: C3_3  and  C11_19 
REMARK    3  A    between atoms: C4_4  and  C5_5 
REMARK    4  A    between atoms: C6_8  and  C7_9 
REMARK    5  A    between atoms: C7_9  and  C8_10 
REMARK    6  A    between atoms: C8_10  and  O1_11 
REMARK    7  A    between atoms: C8_10  and  C9_13 
ROOT
HETATM    1  C5  UNL     1      34.458  -5.472  54.924  1.00  0.00     0.105 A 
HETATM    2  N1  UNL     1      34.916  -5.115  53.737  1.00  0.00    -0.341 N 
ATOM      3  H1  UNL     1      35.636  -5.627  53.227  1.00  0.00     0.167 HD
HETATM    4  C6  UNL     1      34.319  -3.994  53.277  1.00  0.00     0.051 A 
HETATM    5  C10 UNL     1      33.433  -3.658  54.266  1.00  0.00     0.119 A 
HETATM    6  N2  UNL     1      33.518  -4.562  55.277  1.00  0.00    -0.350 N 
ATOM      7  H2  UNL     1      32.974  -4.557  56.141  1.00  0.00     0.166 HD
ENDROOT
BRANCH   1   8
HETATM    8  C4  UNL     1      34.787  -6.600  55.794  1.00  0.00     0.056 C 
HETATM    9  C3  UNL     1      34.510  -7.855  55.538  1.00  0.00    -0.048 C 
BRANCH   9  10
HETATM   10  C2  UNL     1      33.826  -8.199  54.316  1.00  0.00    -0.002 C 
HETATM   11  C1  UNL     1      34.412  -8.644  53.220  1.00  0.00     0.012 C 
ENDBRANCH   9  10
BRANCH   9  12
HETATM   12  C11 UNL     1      34.923  -8.871  56.554  1.00  0.00    -0.024 C 
HETATM   13  C12 UNL     1      36.300  -9.410  56.337  1.00  0.00     0.019 C 
HETATM   14  C13 UNL     1      34.870  -8.291  57.958  1.00  0.00     0.019 C 
HETATM   15  C14 UNL     1      33.961 -10.055  56.564  1.00  0.00     0.019 C 
ENDBRANCH   9  12
ENDBRANCH   1   8
BRANCH   4  16
HETATM   16  C7  UNL     1      34.546  -3.291  52.034  1.00  0.00     0.065 C 
BRANCH  16  17
HETATM   17  C8  UNL     1      35.775  -2.982  51.640  1.00  0.00     0.078 C 
BRANCH  17  18
HETATM   18  O1  UNL     1      36.828  -3.411  52.435  1.00  0.00    -0.362 OA
ATOM     19  H1  UNL     1      37.709  -3.253  52.117  1.00  0.00     0.217 HD
ENDBRANCH  17  18
BRANCH  17  20
HETATM   20  C9  UNL     1      36.041  -2.210  50.396  1.00  0.00     0.234 C 
HETATM   21 CL1  UNL     1      34.548  -1.612  49.647  1.00  0.00    -0.101 Cl
HETATM   22 CL2  UNL     1      37.055  -3.094  49.265  1.00  0.00    -0.101 Cl
ENDBRANCH  17  20
ENDBRANCH  16  17
ENDBRANCH   4  16
TORSDOF 7
ENDMDL
MODEL 4
REMARK VINA RESULT: -5.780605595      1.175      1.199
REMARK  7 active torsions:
REMARK  status: ('A' for Active; 'I' for Inactive)
REMARK    1  A    between atoms: C2_2  and  C3_3 
REMARK    2  A    between atoms: C3_3  and  C11_19 
REMARK    3  A    between atoms: C4_4  and  C5_5 
REMARK    4  A    between atoms: C6_8  and  C7_9 
REMARK    5  A    between atoms: C7_9  and  C8_10 
REMARK    6  A    between atoms: C8_10  and  O1_11 
REMARK    7  A    between atoms: C8_10  and  C9_13 
ROOT
HETATM    1  C5  UNL     1      34.407  -7.159  54.015  1.00  0.00     0.105 A 
HETATM    2  N1  UNL     1      34.497  -6.069  53.273  1.00  0.00    -0.341 N 
ATOM      3  H1  UNL     1      34.636  -6.077  52.263  1.00  0.00     0.167 HD
HETATM    4  C6  UNL     1      34.381  -4.942  54.009  1.00  0.00     0.051 A 
HETATM    5  C10 UNL     1      34.205  -5.396  55.289  1.00  0.00     0.119 A 
HETATM    6  N2  UNL     1      34.222  -6.755  55.295  1.00  0.00    -0.350 N 
ATOM      7  H2  UNL     1      34.115  -7.358  56.111  1.00  0.00     0.166 HD
ENDROOT
BRANCH   1   8
HETATM    8  C4  UNL     1      34.460  -8.578  53.667  1.00  0.00     0.056 C 
HETATM    9  C3  UNL     1      35.484  -9.368  53.876  1.00  0.00    -0.048 C 
BRANCH   9  10
HETATM   10  C2  UNL     1      36.677  -8.840  54.492  1.00  0.00    -0.002 C 
HETATM   11  C1  UNL     1      37.015  -9.012  55.757  1.00  0.00     0.012 C 
ENDBRANCH   9  10
BRANCH   9  12
HETATM   12  C11 UNL     1      35.352 -10.794  53.447  1.00  0.00    -0.024 C 
HETATM   13  C12 UNL     1      34.565 -11.636  54.399  1.00  0.00     0.019 C 
HETATM   14  C13 UNL     1      34.687 -10.893  52.083  1.00  0.00     0.019 C 
HETATM   15  C14 UNL     1      36.722 -11.443  53.282  1.00  0.00     0.019 C 
ENDBRANCH   9  12
ENDBRANCH   1   8
BRANCH   4  16
HETATM   16  C7  UNL     1      34.430  -3.565  53.571  1.00  0.00     0.065 C 
BRANCH  16  17
HETATM   17  C8  UNL     1      35.368  -3.150  52.729  1.00  0.00     0.078 C 
BRANCH  17  18
HETATM   18  O1  UNL     1      36.663  -3.595  52.944  1.00  0.00    -0.362 OA
ATOM     19  H1  UNL     1      37.006  -4.252  52.349  1.00  0.00     0.217 HD
ENDBRANCH  17  18
BRANCH  17  20
HETATM   20  C9  UNL     1      35.066  -2.245  51.586  1.00  0.00     0.234 C 
HETATM   21 CL1  UNL     1      33.354  -2.301  51.121  1.00  0.00    -0.101 Cl
HETATM   22 CL2  UNL     1      36.144  -2.509  50.223  1.00  0.00    -0.101 Cl
ENDBRANCH  17  20
ENDBRANCH  16  17
ENDBRANCH   4  16
TORSDOF 7
ENDMDL
MODEL 5
REMARK VINA RESULT: -5.740896674      3.309      5.115
REMARK  7 active torsions:
REMARK  status: ('A' for Active; 'I' for Inactive)
REMARK    1  A    between atoms: C2_2  and  C3_3 
REMARK    2  A    between atoms: C3_3  and  C11_19 
REMARK    3  A    between atoms: C4_4  and  C5_5 
REMARK    4  A    between atoms: C6_8  and  C7_9 
REMARK    5  A    between atoms: C7_9  and  C8_10 
REMARK    6  A    between atoms: C8_10  and  O1_11 
REMARK    7  A    between atoms: C8_10  and  C9_13 
ROOT
HETATM    1  C5  UNL     1      34.942  -6.356  56.771  1.00  0.00     0.105 A 
HETATM    2  N1  UNL     1      34.076  -5.982  55.845  1.00  0.00    -0.341 N 
ATOM      3  H1  UNL     1      33.067  -6.110  55.924  1.00  0.00     0.167 HD
HETATM    4  C6  UNL     1      34.683  -5.412  54.781  1.00  0.00     0.051 A 
HETATM    5  C10 UNL     1      36.015  -5.445  55.100  1.00  0.00     0.119 A 
HETATM    6  N2  UNL     1      36.176  -6.024  56.319  1.00  0.00    -0.350 N 
ATOM      7  H2  UNL     1      37.061  -6.180  56.803  1.00  0.00     0.166 HD
ENDROOT
BRANCH   1   8
HETATM    8  C4  UNL     1      34.757  -6.991  58.075  1.00  0.00     0.056 C 
HETATM    9  C3  UNL     1      34.307  -6.391  59.149  1.00  0.00    -0.048 C 
BRANCH   9  10
HETATM   10  C2  UNL     1      33.954  -4.993  59.089  1.00  0.00    -0.002 C 
HETATM   11  C1  UNL     1      32.721  -4.527  59.023  1.00  0.00     0.012 C 
ENDBRANCH   9  10
BRANCH   9  12
HETATM   12  C11 UNL     1      34.190  -7.208  60.396  1.00  0.00    -0.024 C 
HETATM   13  C12 UNL     1      32.874  -7.900  60.539  1.00  0.00     0.019 C 
HETATM   14  C13 UNL     1      35.280  -8.267  60.457  1.00  0.00     0.019 C 
HETATM   15  C14 UNL     1      34.392  -6.342  61.635  1.00  0.00     0.019 C 
ENDBRANCH   9  12
ENDBRANCH   1   8
BRANCH   4  16
HETATM   16  C7  UNL     1      34.088  -4.884  53.574  1.00  0.00     0.065 C 
BRANCH  16  17
HETATM   17  C8  UNL     1      33.843  -3.586  53.446  1.00  0.00     0.078 C 
BRANCH  17  18
HETATM   18  O1  UNL     1      32.814  -3.051  54.206  1.00  0.00    -0.362 OA
ATOM     19  H1  UNL     1      31.959  -2.980  53.796  1.00  0.00     0.217 HD
ENDBRANCH  17  18
BRANCH  17  20
HETATM   20  C9  UNL     1      34.631  -2.715  52.532  1.00  0.00     0.234 C 
HETATM   21 CL1  UNL     1      33.706  -2.244  51.093  1.00  0.00    -0.101 Cl
HETATM   22 CL2  UNL     1      36.195  -3.409  52.130  1.00  0.00    -0.101 Cl
ENDBRANCH  17  20
ENDBRANCH  16  17
ENDBRANCH   4  16
TORSDOF 7
ENDMDL
