MODEL 1
REMARK VINA RESULT: -5.312087876      0.000      0.000
REMARK  6 active torsions:
REMARK  status: ('A' for Active; 'I' for Inactive)
REMARK    1  A    between atoms: C4_4  and  C5_5 
REMARK    2  A    between atoms: C8_8  and  C9_9 
REMARK    3  A    between atoms: C9_9  and  O1_10 
REMARK    4  A    between atoms: C9_9  and  C10_12 
REMARK    5  A    between atoms: C10_12  and  N1_13 
REMARK    6  A    between atoms: N1_13  and  C11_16 
ROOT
HETATM    1  C1  UNL     1      35.045  -9.566  59.727  1.00  0.00     0.051 C 
HETATM    2  C2  UNL     1      35.041  -8.671  58.503  1.00  0.00    -0.021 A 
HETATM    3  C3  UNL     1      35.537  -9.161  57.290  1.00  0.00     0.022 A 
HETATM    4  C4  UNL     1      35.604  -8.450  56.131  1.00  0.00    -0.023 A 
HETATM    5  C8  UNL     1      35.109  -7.087  56.187  1.00  0.00     0.007 A 
HETATM    6  C15 UNL     1      34.631  -6.601  57.362  1.00  0.00     0.082 A 
HETATM    7 CL1  UNL     1      34.086  -4.951  57.591  1.00  0.00    -0.080 Cl
HETATM    8  C16 UNL     1      34.589  -7.381  58.527  1.00  0.00     0.144 A 
HETATM    9  F1  UNL     1      34.122  -6.921  59.692  1.00  0.00    -0.204 F 
ENDROOT
BRANCH   5  10
HETATM   10  C9  UNL     1      35.275  -6.335  54.991  1.00  0.00     0.179 C 
BRANCH  10  11
HETATM   11  O1  UNL     1      36.398  -5.423  55.380  1.00  0.00    -0.389 OA
ATOM     12  H1  UNL     1      36.561  -4.974  54.558  1.00  0.00     0.210 HD
ENDBRANCH  10  11
BRANCH  10  13
HETATM   13  C10 UNL     1      34.328  -5.424  54.378  1.00  0.00     0.269 C 
BRANCH  13  14
HETATM   14  N1  UNL     1      34.056  -5.072  53.069  1.00  0.00    -0.065 N 
ATOM     15  H12 UNL     1      34.703  -5.493  52.403  1.00  0.00     0.278 HD
ATOM     16  H11 UNL     1      33.200  -5.497  52.713  1.00  0.00     0.278 HD
BRANCH  14  17
HETATM   17  C11 UNL     1      34.037  -3.562  52.997  1.00  0.00     0.115 C 
HETATM   18  C12 UNL     1      33.320  -3.094  51.774  1.00  0.00     0.045 C 
HETATM   19  C13 UNL     1      33.284  -3.120  54.216  1.00  0.00     0.045 C 
HETATM   20  C14 UNL     1      35.471  -3.082  53.073  1.00  0.00     0.045 C 
ENDBRANCH  14  17
ENDBRANCH  13  14
ENDBRANCH  10  13
ENDBRANCH   5  10
BRANCH   4  21
HETATM   21  C5  UNL     1      36.236  -8.913  54.873  1.00  0.00    -0.077 C 
HETATM   22  C6  UNL     1      37.714  -9.086  54.874  1.00  0.00     0.044 C 
HETATM   23  C7  UNL     1      35.391  -9.628  53.898  1.00  0.00     0.044 C 
ENDBRANCH   4  21
TORSDOF 6
ENDMDL
MODEL 2
REMARK VINA RESULT: -5.231773270      3.078      5.961
REMARK  6 active torsions:
REMARK  status: ('A' for Active; 'I' for Inactive)
REMARK    1  A    between atoms: C4_4  and  C5_5 
REMARK    2  A    between atoms: C8_8  and  C9_9 
REMARK    3  A    between atoms: C9_9  and  O1_10 
REMARK    4  A    between atoms: C9_9  and  C10_12 
REMARK    5  A    between atoms: C10_12  and  N1_13 
REMARK    6  A    between atoms: N1_13  and  C11_16 
ROOT
HETATM    1  C1  UNL     1      32.521  -2.960  53.246  1.00  0.00     0.051 C 
HETATM    2  C2  UNL     1      33.691  -3.802  53.715  1.00  0.00    -0.021 A 
HETATM    3  C3  UNL     1      33.550  -4.603  54.854  1.00  0.00     0.022 A 
HETATM    4  C4  UNL     1      34.530  -5.386  55.383  1.00  0.00    -0.023 A 
HETATM    5  C8  UNL     1      35.803  -5.375  54.688  1.00  0.00     0.007 A 
HETATM    6  C15 UNL     1      35.952  -4.595  53.585  1.00  0.00     0.082 A 
HETATM    7 CL1  UNL     1      37.456  -4.418  52.703  1.00  0.00    -0.080 Cl
HETATM    8  C16 UNL     1      34.904  -3.806  53.086  1.00  0.00     0.144 A 
HETATM    9  F1  UNL     1      35.030  -3.033  52.002  1.00  0.00    -0.204 F 
ENDROOT
BRANCH   5  10
HETATM   10  C9  UNL     1      36.838  -6.124  55.311  1.00  0.00     0.179 C 
BRANCH  10  11
HETATM   11  O1  UNL     1      38.010  -5.212  55.117  1.00  0.00    -0.389 OA
ATOM     12  H1  UNL     1      38.734  -5.809  55.271  1.00  0.00     0.210 HD
ENDBRANCH  10  11
BRANCH  10  13
HETATM   13  C10 UNL     1      37.370  -7.411  54.902  1.00  0.00     0.269 C 
BRANCH  13  14
HETATM   14  N1  UNL     1      37.600  -8.600  55.567  1.00  0.00    -0.065 N 
ATOM     15  H12 UNL     1      38.592  -8.786  55.717  1.00  0.00     0.278 HD
ATOM     16  H11 UNL     1      37.320  -8.568  56.548  1.00  0.00     0.278 HD
BRANCH  14  17
HETATM   17  C11 UNL     1      36.907  -9.698  54.794  1.00  0.00     0.115 C 
HETATM   18  C12 UNL     1      35.981  -9.130  53.771  1.00  0.00     0.045 C 
HETATM   19  C13 UNL     1      38.008 -10.450  54.107  1.00  0.00     0.045 C 
HETATM   20  C14 UNL     1      36.214 -10.597  55.796  1.00  0.00     0.045 C 
ENDBRANCH  14  17
ENDBRANCH  13  14
ENDBRANCH  10  13
ENDBRANCH   5  10
BRANCH   4  21
HETATM   21  C5  UNL     1      34.434  -6.143  56.653  1.00  0.00    -0.077 C 
HETATM   22  C6  UNL     1      34.171  -5.366  57.895  1.00  0.00     0.044 C 
HETATM   23  C7  UNL     1      34.112  -7.581  56.578  1.00  0.00     0.044 C 
ENDBRANCH   4  21
TORSDOF 6
ENDMDL
MODEL 3
REMARK VINA RESULT: -5.046507943      0.631      1.141
REMARK  6 active torsions:
REMARK  status: ('A' for Active; 'I' for Inactive)
REMARK    1  A    between atoms: C4_4  and  C5_5 
REMARK    2  A    between atoms: C8_8  and  C9_9 
REMARK    3  A    between atoms: C9_9  and  O1_10 
REMARK    4  A    between atoms: C9_9  and  C10_12 
REMARK    5  A    between atoms: C10_12  and  N1_13 
REMARK    6  A    between atoms: N1_13  and  C11_16 
ROOT
HETATM    1  C1  UNL     1      35.076 -10.336  59.084  1.00  0.00     0.051 C 
HETATM    2  C2  UNL     1      35.080  -9.334  57.948  1.00  0.00    -0.021 A 
HETATM    3  C3  UNL     1      35.521  -9.730  56.680  1.00  0.00     0.022 A 
HETATM    4  C4  UNL     1      35.588  -8.919  55.589  1.00  0.00    -0.023 A 
HETATM    5  C8  UNL     1      35.157  -7.548  55.783  1.00  0.00     0.007 A 
HETATM    6  C15 UNL     1      34.733  -7.152  57.011  1.00  0.00     0.082 A 
HETATM    7 CL1  UNL     1      34.270  -5.508  57.406  1.00  0.00    -0.080 Cl
HETATM    8  C16 UNL     1      34.687  -8.033  58.102  1.00  0.00     0.144 A 
HETATM    9  F1  UNL     1      34.272  -7.662  59.318  1.00  0.00    -0.204 F 
ENDROOT
BRANCH   5  10
HETATM   10  C9  UNL     1      35.326  -6.697  54.656  1.00  0.00     0.179 C 
BRANCH  10  11
HETATM   11  O1  UNL     1      36.531  -5.910  55.069  1.00  0.00    -0.389 OA
ATOM     12  H1  UNL     1      36.127  -5.116  55.398  1.00  0.00     0.210 HD
ENDBRANCH  10  11
BRANCH  10  13
HETATM   13  C10 UNL     1      34.424  -5.665  54.182  1.00  0.00     0.269 C 
BRANCH  13  14
HETATM   14  N1  UNL     1      34.155  -5.136  52.934  1.00  0.00    -0.065 N 
ATOM     15  H12 UNL     1      34.831  -5.424  52.227  1.00  0.00     0.278 HD
ATOM     16  H11 UNL     1      33.326  -5.543  52.500  1.00  0.00     0.278 HD
BRANCH  14  17
HETATM   17  C11 UNL     1      34.063  -3.634  53.083  1.00  0.00     0.115 C 
HETATM   18  C12 UNL     1      33.311  -3.264  54.318  1.00  0.00     0.045 C 
HETATM   19  C13 UNL     1      35.483  -3.165  53.205  1.00  0.00     0.045 C 
HETATM   20  C14 UNL     1      33.444  -3.085  51.815  1.00  0.00     0.045 C 
ENDBRANCH  14  17
ENDBRANCH  13  14
ENDBRANCH  10  13
ENDBRANCH   5  10
BRANCH   4  21
HETATM   21  C5  UNL     1      36.166  -9.292  54.275  1.00  0.00    -0.077 C 
HETATM   22  C6  UNL     1      37.609  -9.651  54.240  1.00  0.00     0.044 C 
HETATM   23  C7  UNL     1      35.244  -9.759  53.223  1.00  0.00     0.044 C 
ENDBRANCH   4  21
TORSDOF 6
ENDMDL
MODEL 4
REMARK VINA RESULT: -4.875315063      3.363      5.427
REMARK  6 active torsions:
REMARK  status: ('A' for Active; 'I' for Inactive)
REMARK    1  A    between atoms: C4_4  and  C5_5 
REMARK    2  A    between atoms: C8_8  and  C9_9 
REMARK    3  A    between atoms: C9_9  and  O1_10 
REMARK    4  A    between atoms: C9_9  and  C10_12 
REMARK    5  A    between atoms: C10_12  and  N1_13 
REMARK    6  A    between atoms: N1_13  and  C11_16 
ROOT
HETATM    1  C1  UNL     1      38.014 -10.376  63.130  1.00  0.00     0.051 C 
HETATM    2  C2  UNL     1      37.185  -9.801  61.999  1.00  0.00    -0.021 A 
HETATM    3  C3  UNL     1      36.161  -8.891  62.289  1.00  0.00     0.022 A 
HETATM    4  C4  UNL     1      35.339  -8.323  61.365  1.00  0.00    -0.023 A 
HETATM    5  C8  UNL     1      35.570  -8.700  59.983  1.00  0.00     0.007 A 
HETATM    6  C15 UNL     1      36.557  -9.587  59.693  1.00  0.00     0.082 A 
HETATM    7 CL1  UNL     1      36.886 -10.196  58.083  1.00  0.00    -0.080 Cl
HETATM    8  C16 UNL     1      37.374 -10.144  60.689  1.00  0.00     0.144 A 
HETATM    9  F1  UNL     1      38.351 -11.017  60.423  1.00  0.00    -0.204 F 
ENDROOT
BRANCH   5  10
HETATM   10  C9  UNL     1      34.640  -8.168  59.049  1.00  0.00     0.179 C 
BRANCH  10  11
HETATM   11  O1  UNL     1      33.829  -9.385  58.726  1.00  0.00    -0.389 OA
ATOM     12  H1  UNL     1      33.546  -9.652  59.593  1.00  0.00     0.210 HD
ENDBRANCH  10  11
BRANCH  10  13
HETATM   13  C10 UNL     1      34.919  -7.620  57.735  1.00  0.00     0.269 C 
BRANCH  13  14
HETATM   14  N1  UNL     1      34.641  -8.042  56.449  1.00  0.00    -0.065 N 
ATOM     15  H12 UNL     1      35.156  -8.882  56.187  1.00  0.00     0.278 HD
ATOM     16  H11 UNL     1      33.701  -8.425  56.350  1.00  0.00     0.278 HD
BRANCH  14  17
HETATM   17  C11 UNL     1      34.902  -6.879  55.519  1.00  0.00     0.115 C 
HETATM   18  C12 UNL     1      34.264  -7.103  54.188  1.00  0.00     0.045 C 
HETATM   19  C13 UNL     1      34.265  -5.695  56.184  1.00  0.00     0.045 C 
HETATM   20  C14 UNL     1      36.401  -6.683  55.441  1.00  0.00     0.045 C 
ENDBRANCH  14  17
ENDBRANCH  13  14
ENDBRANCH  10  13
ENDBRANCH   5  10
BRANCH   4  21
HETATM   21  C5  UNL     1      34.176  -7.455  61.667  1.00  0.00    -0.077 C 
HETATM   22  C6  UNL     1      32.891  -8.126  62.003  1.00  0.00     0.044 C 
HETATM   23  C7  UNL     1      34.441  -6.070  62.099  1.00  0.00     0.044 C 
ENDBRANCH   4  21
TORSDOF 6
ENDMDL
MODEL 5
REMARK VINA RESULT: -4.862611797      2.763      3.888
REMARK  6 active torsions:
REMARK  status: ('A' for Active; 'I' for Inactive)
REMARK    1  A    between atoms: C4_4  and  C5_5 
REMARK    2  A    between atoms: C8_8  and  C9_9 
REMARK    3  A    between atoms: C9_9  and  O1_10 
REMARK    4  A    between atoms: C9_9  and  C10_12 
REMARK    5  A    between atoms: C10_12  and  N1_13 
REMARK    6  A    between atoms: N1_13  and  C11_16 
ROOT
HETATM    1  C1  UNL     1      33.879 -14.000  55.258  1.00  0.00     0.051 C 
HETATM    2  C2  UNL     1      34.140 -12.544  54.928  1.00  0.00    -0.021 A 
HETATM    3  C3  UNL     1      34.622 -12.201  53.660  1.00  0.00     0.022 A 
HETATM    4  C4  UNL     1      34.912 -10.935  53.252  1.00  0.00    -0.023 A 
HETATM    5  C8  UNL     1      34.687  -9.882  54.225  1.00  0.00     0.007 A 
HETATM    6  C15 UNL     1      34.225 -10.206  55.461  1.00  0.00     0.082 A 
HETATM    7 CL1  UNL     1      33.994  -9.049  56.756  1.00  0.00    -0.080 Cl
HETATM    8  C16 UNL     1      33.946 -11.532  55.826  1.00  0.00     0.144 A 
HETATM    9  F1  UNL     1      33.490 -11.870  57.037  1.00  0.00    -0.204 F 
ENDROOT
BRANCH   5  10
HETATM   10  C9  UNL     1      35.086  -8.582  53.810  1.00  0.00     0.179 C 
BRANCH  10  11
HETATM   11  O1  UNL     1      36.344  -8.401  54.602  1.00  0.00    -0.389 OA
ATOM     12  H1  UNL     1      36.875  -9.113  54.266  1.00  0.00     0.210 HD
ENDBRANCH  10  11
BRANCH  10  13
HETATM   13  C10 UNL     1      34.391  -7.328  54.033  1.00  0.00     0.269 C 
BRANCH  13  14
HETATM   14  N1  UNL     1      34.277  -6.160  53.303  1.00  0.00    -0.065 N 
ATOM     15  H12 UNL     1      34.836  -6.169  52.450  1.00  0.00     0.278 HD
ATOM     16  H11 UNL     1      33.363  -6.054  52.863  1.00  0.00     0.278 HD
BRANCH  14  17
HETATM   17  C11 UNL     1      34.624  -5.012  54.222  1.00  0.00     0.115 C 
HETATM   18  C12 UNL     1      36.069  -4.652  54.109  1.00  0.00     0.045 C 
HETATM   19  C13 UNL     1      33.786  -3.862  53.748  1.00  0.00     0.045 C 
HETATM   20  C14 UNL     1      34.213  -5.407  55.625  1.00  0.00     0.045 C 
ENDBRANCH  14  17
ENDBRANCH  13  14
ENDBRANCH  10  13
ENDBRANCH   5  10
BRANCH   4  21
HETATM   21  C5  UNL     1      35.536 -10.570  51.958  1.00  0.00    -0.077 C 
HETATM   22  C6  UNL     1      36.913 -11.071  51.698  1.00  0.00     0.044 C 
HETATM   23  C7  UNL     1      34.646 -10.190  50.845  1.00  0.00     0.044 C 
ENDBRANCH   4  21
TORSDOF 6
ENDMDL
