MODEL 1
REMARK VINA RESULT: -7.736785902      0.000      0.000
REMARK  17 active torsions:
REMARK  status: ('A' for Active; 'I' for Inactive)
REMARK    1  A    between atoms: O1_2  and  C2_3 
REMARK    2  A    between atoms: C4_5  and  C5_6 
REMARK    3  A    between atoms: C5_6  and  N1_7 
REMARK    4  A    between atoms: C5_6  and  C8_12 
REMARK       I    between atoms: N1_7  and  C6_9 
REMARK    5  A    between atoms: C9_15  and  C10_16 
REMARK    6  A    between atoms: C10_16  and  O4_17 
REMARK    7  A    between atoms: C10_16  and  C11_19 
REMARK       I    between atoms: C11_19  and  N2_21 
REMARK    8  A    between atoms: N2_21  and  C12_23 
REMARK    9  A    between atoms: C12_23  and  C13_24 
REMARK   10  A    between atoms: C12_23  and  C14_27 
REMARK   11  A    between atoms: C14_27  and  O9_29 
REMARK   12  A    between atoms: O9_29  and  C15_30 
REMARK   13  A    between atoms: C15_30  and  C16_31 
REMARK   14  A    between atoms: C16_31  and  O10_32 
REMARK   15  A    between atoms: C16_31  and  O11_34 
REMARK   16  A    between atoms: C17_36  and  O12_37 
REMARK   17  A    between atoms: C18_39  and  O13_40 
ROOT
HETATM    1  C2  UNL     1      17.947  22.662  51.112  1.00  0.00     0.104 A 
HETATM    2  C3  UNL     1      17.100  22.563  50.061  1.00  0.00     0.050 A 
HETATM    3  C4  UNL     1      15.725  22.227  50.219  1.00  0.00    -0.009 A 
HETATM    4  C9  UNL     1      15.228  21.994  51.480  1.00  0.00     0.048 A 
HETATM    5  C17 UNL     1      16.134  22.104  52.533  1.00  0.00     0.115 A 
HETATM    6  C18 UNL     1      17.473  22.430  52.377  1.00  0.00     0.133 A 
ENDROOT
BRANCH   4   7
HETATM    7  C10 UNL     1      13.862  21.683  51.690  1.00  0.00     0.147 C 
BRANCH   7   8
HETATM    8  O4  UNL     1      13.629  20.459  52.098  1.00  0.00    -0.355 OA
ATOM      9  H4  UNL     1      13.108  20.392  52.890  1.00  0.00     0.218 HD
ENDBRANCH   7   8
BRANCH   7  10
HETATM   10  C11 UNL     1      12.640  22.419  51.555  1.00  0.00     0.276 C 
HETATM   11  O5  UNL     1      11.624  22.058  50.984  1.00  0.00    -0.265 OA
HETATM   12  N2  UNL     1      12.528  23.753  52.142  1.00  0.00    -0.333 N 
ATOM     13  H2  UNL     1      13.335  24.129  52.640  1.00  0.00     0.164 HD
BRANCH  12  14
HETATM   14  C12 UNL     1      11.359  24.555  52.059  1.00  0.00     0.286 C 
BRANCH  14  15
HETATM   15  C13 UNL     1      10.998  25.161  53.361  1.00  0.00     0.206 C 
HETATM   16  O6  UNL     1      11.691  24.903  54.369  1.00  0.00    -0.646 OA
HETATM   17  O7  UNL     1       9.914  26.006  53.494  1.00  0.00    -0.646 OA
ENDBRANCH  14  15
BRANCH  14  18
HETATM   18  C14 UNL     1      11.471  25.663  51.077  1.00  0.00     0.292 C 
HETATM   19  O8  UNL     1      12.490  26.398  51.140  1.00  0.00    -0.262 OA
BRANCH  18  20
HETATM   20  O9  UNL     1      10.542  25.934  50.113  1.00  0.00    -0.315 OA
BRANCH  20  21
HETATM   21  C15 UNL     1       9.333  25.260  49.924  1.00  0.00     0.239 C 
BRANCH  21  22
HETATM   22  C16 UNL     1       8.122  26.095  50.215  1.00  0.00     0.278 C 
BRANCH  22  23
HETATM   23  O10 UNL     1       8.062  26.485  51.561  1.00  0.00    -0.369 OA
ATOM     24  H10 UNL     1       7.596  27.305  51.675  1.00  0.00     0.212 HD
ENDBRANCH  22  23
BRANCH  22  25
HETATM   25  O11 UNL     1       8.263  27.292  49.482  1.00  0.00    -0.369 OA
ATOM     26  H11 UNL     1       7.588  27.288  48.813  1.00  0.00     0.212 HD
ENDBRANCH  22  25
ENDBRANCH  21  22
ENDBRANCH  20  21
ENDBRANCH  18  20
ENDBRANCH  14  18
ENDBRANCH  12  14
ENDBRANCH   7  10
ENDBRANCH   4   7
BRANCH   3  27
HETATM   27  C5  UNL     1      15.009  22.120  48.935  1.00  0.00     0.201 C 
BRANCH  27  28
HETATM   28  N1  UNL     1      15.695  22.740  47.851  1.00  0.00    -0.345 N 
HETATM   29  C6  UNL     1      15.093  23.309  46.704  1.00  0.00     0.214 C 
HETATM   30  C7  UNL     1      15.901  23.934  45.626  1.00  0.00     0.117 C 
HETATM   31  O2  UNL     1      13.840  23.322  46.523  1.00  0.00    -0.274 OA
ATOM     32  H1  UNL     1      16.712  22.777  47.907  1.00  0.00     0.163 HD
ENDBRANCH  27  28
BRANCH  27  33
HETATM   33  C8  UNL     1      14.918  20.613  48.582  1.00  0.00     0.224 C 
HETATM   34  O3  UNL     1      15.948  20.032  48.432  1.00  0.00    -0.282 OA
HETATM   35  S1  UNL     1      13.359  19.794  48.407  1.00  0.00    -0.009 SA
ENDBRANCH  27  33
ENDBRANCH   3  27
BRANCH   5  36
HETATM   36  O12 UNL     1      15.761  21.893  53.836  1.00  0.00    -0.357 OA
ATOM     37  H12 UNL     1      15.409  22.590  54.378  1.00  0.00     0.217 HD
ENDBRANCH   5  36
BRANCH   6  38
HETATM   38  O13 UNL     1      18.361  22.539  53.418  1.00  0.00    -0.356 OA
ATOM     39  H13 UNL     1      18.500  21.771  53.959  1.00  0.00     0.218 HD
ENDBRANCH   6  38
BRANCH   1  40
HETATM   40  O1  UNL     1      19.282  22.995  50.903  1.00  0.00    -0.353 OA
HETATM   41  C1  UNL     1      19.858  22.866  49.617  1.00  0.00     0.210 C 
ENDBRANCH   1  40
TORSDOF 17
ENDMDL
MODEL 2
REMARK VINA RESULT: -7.499695320      2.936      8.179
REMARK  17 active torsions:
REMARK  status: ('A' for Active; 'I' for Inactive)
REMARK    1  A    between atoms: O1_2  and  C2_3 
REMARK    2  A    between atoms: C4_5  and  C5_6 
REMARK    3  A    between atoms: C5_6  and  N1_7 
REMARK    4  A    between atoms: C5_6  and  C8_12 
REMARK       I    between atoms: N1_7  and  C6_9 
REMARK    5  A    between atoms: C9_15  and  C10_16 
REMARK    6  A    between atoms: C10_16  and  O4_17 
REMARK    7  A    between atoms: C10_16  and  C11_19 
REMARK       I    between atoms: C11_19  and  N2_21 
REMARK    8  A    between atoms: N2_21  and  C12_23 
REMARK    9  A    between atoms: C12_23  and  C13_24 
REMARK   10  A    between atoms: C12_23  and  C14_27 
REMARK   11  A    between atoms: C14_27  and  O9_29 
REMARK   12  A    between atoms: O9_29  and  C15_30 
REMARK   13  A    between atoms: C15_30  and  C16_31 
REMARK   14  A    between atoms: C16_31  and  O10_32 
REMARK   15  A    between atoms: C16_31  and  O11_34 
REMARK   16  A    between atoms: C17_36  and  O12_37 
REMARK   17  A    between atoms: C18_39  and  O13_40 
ROOT
HETATM    1  C2  UNL     1      10.341  24.155  54.634  1.00  0.00     0.104 A 
HETATM    2  C3  UNL     1      10.723  22.874  54.846  1.00  0.00     0.050 A 
HETATM    3  C4  UNL     1      11.624  22.193  53.978  1.00  0.00    -0.009 A 
HETATM    4  C9  UNL     1      12.132  22.852  52.881  1.00  0.00     0.048 A 
HETATM    5  C17 UNL     1      11.711  24.167  52.700  1.00  0.00     0.115 A 
HETATM    6  C18 UNL     1      10.833  24.828  53.546  1.00  0.00     0.133 A 
ENDROOT
BRANCH   4   7
HETATM    7  C10 UNL     1      13.051  22.226  52.004  1.00  0.00     0.147 C 
BRANCH   7   8
HETATM    8  O4  UNL     1      12.598  22.002  50.794  1.00  0.00    -0.355 OA
ATOM      9  H4  UNL     1      12.736  21.119  50.471  1.00  0.00     0.218 HD
ENDBRANCH   7   8
BRANCH   7  10
HETATM   10  C11 UNL     1      14.402  21.767  52.138  1.00  0.00     0.276 C 
HETATM   11  O5  UNL     1      14.824  20.946  52.935  1.00  0.00    -0.265 OA
HETATM   12  N2  UNL     1      15.439  22.298  51.254  1.00  0.00    -0.333 N 
ATOM     13  H2  UNL     1      15.169  22.991  50.556  1.00  0.00     0.164 HD
BRANCH  12  14
HETATM   14  C12 UNL     1      16.802  21.903  51.312  1.00  0.00     0.286 C 
BRANCH  14  15
HETATM   15  C13 UNL     1      17.392  21.714  49.968  1.00  0.00     0.206 C 
HETATM   16  O6  UNL     1      18.519  21.183  49.863  1.00  0.00    -0.646 OA
HETATM   17  O7  UNL     1      16.730  22.109  48.822  1.00  0.00    -0.646 OA
ENDBRANCH  14  15
BRANCH  14  18
HETATM   18  C14 UNL     1      17.667  22.870  52.037  1.00  0.00     0.292 C 
HETATM   19  O8  UNL     1      17.898  23.975  51.482  1.00  0.00    -0.262 OA
BRANCH  18  20
HETATM   20  O9  UNL     1      18.223  22.636  53.262  1.00  0.00    -0.315 OA
BRANCH  20  21
HETATM   21  C15 UNL     1      18.556  21.385  53.789  1.00  0.00     0.239 C 
BRANCH  21  22
HETATM   22  C16 UNL     1      17.594  20.890  54.827  1.00  0.00     0.278 C 
BRANCH  22  23
HETATM   23  O10 UNL     1      16.599  21.835  55.117  1.00  0.00    -0.369 OA
ATOM     24  H10 UNL     1      15.725  21.473  55.031  1.00  0.00     0.212 HD
ENDBRANCH  22  23
BRANCH  22  25
HETATM   25  O11 UNL     1      16.915  19.788  54.265  1.00  0.00    -0.369 OA
ATOM     26  H11 UNL     1      16.225  20.141  53.715  1.00  0.00     0.212 HD
ENDBRANCH  22  25
ENDBRANCH  21  22
ENDBRANCH  20  21
ENDBRANCH  18  20
ENDBRANCH  14  18
ENDBRANCH  12  14
ENDBRANCH   7  10
ENDBRANCH   4   7
BRANCH   3  27
HETATM   27  C5  UNL     1      11.851  20.791  54.370  1.00  0.00     0.201 C 
BRANCH  27  28
HETATM   28  N1  UNL     1      12.009  20.615  55.776  1.00  0.00    -0.345 N 
HETATM   29  C6  UNL     1      13.176  20.155  56.430  1.00  0.00     0.214 C 
HETATM   30  C7  UNL     1      13.237  20.007  57.906  1.00  0.00     0.117 C 
HETATM   31  O2  UNL     1      14.233  19.843  55.806  1.00  0.00    -0.274 OA
ATOM     32  H1  UNL     1      11.207  20.842  56.363  1.00  0.00     0.163 HD
ENDBRANCH  27  28
BRANCH  27  33
HETATM   33  C8  UNL     1      10.585  19.990  53.975  1.00  0.00     0.224 C 
HETATM   34  O3  UNL     1      10.348  19.897  52.810  1.00  0.00    -0.282 OA
HETATM   35  S1  UNL     1       9.539  19.246  55.194  1.00  0.00    -0.009 SA
ENDBRANCH  27  33
ENDBRANCH   3  27
BRANCH   5  36
HETATM   36  O12 UNL     1      12.144  24.929  51.644  1.00  0.00    -0.357 OA
ATOM     37  H12 UNL     1      12.609  25.748  51.772  1.00  0.00     0.217 HD
ENDBRANCH   5  36
BRANCH   6  38
HETATM   38  O13 UNL     1      10.423  26.125  53.363  1.00  0.00    -0.356 OA
ATOM     39  H13 UNL     1       9.501  26.274  53.187  1.00  0.00     0.218 HD
ENDBRANCH   6  38
BRANCH   1  40
HETATM   40  O1  UNL     1       9.459  24.774  55.514  1.00  0.00    -0.353 OA
HETATM   41  C1  UNL     1       9.925  25.300  56.742  1.00  0.00     0.210 C 
ENDBRANCH   1  40
TORSDOF 17
ENDMDL
MODEL 3
REMARK VINA RESULT: -7.459710464      3.048      7.907
REMARK  17 active torsions:
REMARK  status: ('A' for Active; 'I' for Inactive)
REMARK    1  A    between atoms: O1_2  and  C2_3 
REMARK    2  A    between atoms: C4_5  and  C5_6 
REMARK    3  A    between atoms: C5_6  and  N1_7 
REMARK    4  A    between atoms: C5_6  and  C8_12 
REMARK       I    between atoms: N1_7  and  C6_9 
REMARK    5  A    between atoms: C9_15  and  C10_16 
REMARK    6  A    between atoms: C10_16  and  O4_17 
REMARK    7  A    between atoms: C10_16  and  C11_19 
REMARK       I    between atoms: C11_19  and  N2_21 
REMARK    8  A    between atoms: N2_21  and  C12_23 
REMARK    9  A    between atoms: C12_23  and  C13_24 
REMARK   10  A    between atoms: C12_23  and  C14_27 
REMARK   11  A    between atoms: C14_27  and  O9_29 
REMARK   12  A    between atoms: O9_29  and  C15_30 
REMARK   13  A    between atoms: C15_30  and  C16_31 
REMARK   14  A    between atoms: C16_31  and  O10_32 
REMARK   15  A    between atoms: C16_31  and  O11_34 
REMARK   16  A    between atoms: C17_36  and  O12_37 
REMARK   17  A    between atoms: C18_39  and  O13_40 
ROOT
HETATM    1  C2  UNL     1      10.689  24.227  54.572  1.00  0.00     0.104 A 
HETATM    2  C3  UNL     1      11.112  22.982  54.889  1.00  0.00     0.050 A 
HETATM    3  C4  UNL     1      11.886  22.188  53.996  1.00  0.00    -0.009 A 
HETATM    4  C9  UNL     1      12.225  22.695  52.763  1.00  0.00     0.048 A 
HETATM    5  C17 UNL     1      11.769  23.980  52.476  1.00  0.00     0.115 A 
HETATM    6  C18 UNL     1      11.013  24.751  53.347  1.00  0.00     0.133 A 
ENDROOT
BRANCH   4   7
HETATM    7  C10 UNL     1      13.017  21.955  51.852  1.00  0.00     0.147 C 
BRANCH   7   8
HETATM    8  O4  UNL     1      12.408  20.942  51.285  1.00  0.00    -0.355 OA
ATOM      9  H4  UNL     1      12.731  20.086  51.540  1.00  0.00     0.218 HD
ENDBRANCH   7   8
BRANCH   7  10
HETATM   10  C11 UNL     1      14.370  22.060  51.392  1.00  0.00     0.276 C 
HETATM   11  O5  UNL     1      15.313  21.355  51.714  1.00  0.00    -0.265 OA
HETATM   12  N2  UNL     1      14.732  23.102  50.432  1.00  0.00    -0.333 N 
ATOM     13  H2  UNL     1      13.999  23.735  50.111  1.00  0.00     0.164 HD
BRANCH  12  14
HETATM   14  C12 UNL     1      16.045  23.283  49.922  1.00  0.00     0.286 C 
BRANCH  14  15
HETATM   15  C13 UNL     1      16.054  23.519  48.461  1.00  0.00     0.206 C 
HETATM   16  O6  UNL     1      17.037  23.143  47.786  1.00  0.00    -0.646 OA
HETATM   17  O7  UNL     1      15.004  24.148  47.820  1.00  0.00    -0.646 OA
ENDBRANCH  14  15
BRANCH  14  18
HETATM   18  C14 UNL     1      16.773  24.413  50.553  1.00  0.00     0.292 C 
HETATM   19  O8  UNL     1      16.418  25.580  50.245  1.00  0.00    -0.262 OA
BRANCH  18  20
HETATM   20  O9  UNL     1      17.800  24.266  51.442  1.00  0.00    -0.315 OA
BRANCH  20  21
HETATM   21  C15 UNL     1      18.769  23.259  51.420  1.00  0.00     0.239 C 
BRANCH  21  22
HETATM   22  C16 UNL     1      18.606  22.239  52.506  1.00  0.00     0.278 C 
BRANCH  22  23
HETATM   23  O10 UNL     1      17.583  22.581  53.402  1.00  0.00    -0.369 OA
ATOM     24  H10 UNL     1      17.897  23.126  54.114  1.00  0.00     0.212 HD
ENDBRANCH  22  23
BRANCH  22  25
HETATM   25  O11 UNL     1      18.181  21.044  51.887  1.00  0.00    -0.369 OA
ATOM     26  H11 UNL     1      17.249  21.135  51.723  1.00  0.00     0.212 HD
ENDBRANCH  22  25
ENDBRANCH  21  22
ENDBRANCH  20  21
ENDBRANCH  18  20
ENDBRANCH  14  18
ENDBRANCH  12  14
ENDBRANCH   7  10
ENDBRANCH   4   7
BRANCH   3  27
HETATM   27  C5  UNL     1      12.183  20.846  54.529  1.00  0.00     0.201 C 
BRANCH  27  28
HETATM   28  N1  UNL     1      12.360  20.826  55.943  1.00  0.00    -0.345 N 
HETATM   29  C6  UNL     1      13.229  19.970  56.659  1.00  0.00     0.214 C 
HETATM   30  C7  UNL     1      13.341  20.029  58.138  1.00  0.00     0.117 C 
HETATM   31  O2  UNL     1      13.961  19.106  56.091  1.00  0.00    -0.274 OA
ATOM     32  H1  UNL     1      11.810  21.489  56.488  1.00  0.00     0.163 HD
ENDBRANCH  27  28
BRANCH  27  33
HETATM   33  C8  UNL     1      10.953  19.950  54.236  1.00  0.00     0.224 C 
HETATM   34  O3  UNL     1      10.941  19.376  53.192  1.00  0.00    -0.282 OA
HETATM   35  S1  UNL     1       9.626  19.788  55.397  1.00  0.00    -0.009 SA
ENDBRANCH  27  33
ENDBRANCH   3  27
BRANCH   5  36
HETATM   36  O12 UNL     1      12.038  24.595  51.280  1.00  0.00    -0.357 OA
ATOM     37  H12 UNL     1      12.198  25.530  51.220  1.00  0.00     0.217 HD
ENDBRANCH   5  36
BRANCH   6  38
HETATM   38  O13 UNL     1      10.567  26.016  53.059  1.00  0.00    -0.356 OA
ATOM     39  H13 UNL     1      11.216  26.672  52.835  1.00  0.00     0.218 HD
ENDBRANCH   6  38
BRANCH   1  40
HETATM   40  O1  UNL     1       9.935  24.961  55.482  1.00  0.00    -0.353 OA
HETATM   41  C1  UNL     1       8.892  24.342  56.209  1.00  0.00     0.210 C 
ENDBRANCH   1  40
TORSDOF 17
ENDMDL
MODEL 4
REMARK VINA RESULT: -7.373568080      2.437      7.712
REMARK  17 active torsions:
REMARK  status: ('A' for Active; 'I' for Inactive)
REMARK    1  A    between atoms: O1_2  and  C2_3 
REMARK    2  A    between atoms: C4_5  and  C5_6 
REMARK    3  A    between atoms: C5_6  and  N1_7 
REMARK    4  A    between atoms: C5_6  and  C8_12 
REMARK       I    between atoms: N1_7  and  C6_9 
REMARK    5  A    between atoms: C9_15  and  C10_16 
REMARK    6  A    between atoms: C10_16  and  O4_17 
REMARK    7  A    between atoms: C10_16  and  C11_19 
REMARK       I    between atoms: C11_19  and  N2_21 
REMARK    8  A    between atoms: N2_21  and  C12_23 
REMARK    9  A    between atoms: C12_23  and  C13_24 
REMARK   10  A    between atoms: C12_23  and  C14_27 
REMARK   11  A    between atoms: C14_27  and  O9_29 
REMARK   12  A    between atoms: O9_29  and  C15_30 
REMARK   13  A    between atoms: C15_30  and  C16_31 
REMARK   14  A    between atoms: C16_31  and  O10_32 
REMARK   15  A    between atoms: C16_31  and  O11_34 
REMARK   16  A    between atoms: C17_36  and  O12_37 
REMARK   17  A    between atoms: C18_39  and  O13_40 
ROOT
HETATM    1  C2  UNL     1      11.459  24.845  51.929  1.00  0.00     0.104 A 
HETATM    2  C3  UNL     1      11.493  23.522  52.210  1.00  0.00     0.050 A 
HETATM    3  C4  UNL     1      12.538  22.671  51.750  1.00  0.00    -0.009 A 
HETATM    4  C9  UNL     1      13.557  23.202  50.993  1.00  0.00     0.048 A 
HETATM    5  C17 UNL     1      13.482  24.567  50.725  1.00  0.00     0.115 A 
HETATM    6  C18 UNL     1      12.462  25.394  51.173  1.00  0.00     0.133 A 
ENDROOT
BRANCH   4   7
HETATM    7  C10 UNL     1      14.632  22.402  50.535  1.00  0.00     0.147 C 
BRANCH   7   8
HETATM    8  O4  UNL     1      14.581  22.079  49.265  1.00  0.00    -0.355 OA
ATOM      9  H4  UNL     1      13.970  21.383  49.052  1.00  0.00     0.218 HD
ENDBRANCH   7   8
BRANCH   7  10
HETATM   10  C11 UNL     1      15.797  21.846  51.158  1.00  0.00     0.276 C 
HETATM   11  O5  UNL     1      15.831  20.961  51.997  1.00  0.00    -0.265 OA
HETATM   12  N2  UNL     1      17.122  22.347  50.795  1.00  0.00    -0.333 N 
ATOM     13  H2  UNL     1      17.181  23.090  50.098  1.00  0.00     0.164 HD
BRANCH  12  14
HETATM   14  C12 UNL     1      18.331  21.859  51.359  1.00  0.00     0.286 C 
BRANCH  14  15
HETATM   15  C13 UNL     1      19.459  21.910  50.402  1.00  0.00     0.206 C 
HETATM   16  O6  UNL     1      20.185  20.902  50.257  1.00  0.00    -0.646 OA
HETATM   17  O7  UNL     1      19.734  23.043  49.662  1.00  0.00    -0.646 OA
ENDBRANCH  14  15
BRANCH  14  18
HETATM   18  C14 UNL     1      18.756  22.597  52.575  1.00  0.00     0.292 C 
HETATM   19  O8  UNL     1      18.962  23.832  52.465  1.00  0.00    -0.262 OA
BRANCH  18  20
HETATM   20  O9  UNL     1      18.935  22.020  53.800  1.00  0.00    -0.315 OA
BRANCH  20  21
HETATM   21  C15 UNL     1      18.451  20.773  54.202  1.00  0.00     0.239 C 
BRANCH  21  22
HETATM   22  C16 UNL     1      17.194  20.844  55.015  1.00  0.00     0.278 C 
BRANCH  22  23
HETATM   23  O10 UNL     1      16.483  22.031  54.784  1.00  0.00    -0.369 OA
ATOM     24  H10 UNL     1      16.154  22.413  55.589  1.00  0.00     0.212 HD
ENDBRANCH  22  23
BRANCH  22  25
HETATM   25  O11 UNL     1      16.351  19.807  54.560  1.00  0.00    -0.369 OA
ATOM     26  H11 UNL     1      15.498  20.193  54.403  1.00  0.00     0.212 HD
ENDBRANCH  22  25
ENDBRANCH  21  22
ENDBRANCH  20  21
ENDBRANCH  18  20
ENDBRANCH  14  18
ENDBRANCH  12  14
ENDBRANCH   7  10
ENDBRANCH   4   7
BRANCH   3  27
HETATM   27  C5  UNL     1      12.339  21.260  52.127  1.00  0.00     0.201 C 
BRANCH  27  28
HETATM   28  N1  UNL     1      11.716  21.097  53.398  1.00  0.00    -0.345 N 
HETATM   29  C6  UNL     1      12.383  20.917  54.633  1.00  0.00     0.214 C 
HETATM   30  C7  UNL     1      11.638  20.756  55.907  1.00  0.00     0.117 C 
HETATM   31  O2  UNL     1      13.645  20.882  54.731  1.00  0.00    -0.274 OA
ATOM     32  H1  UNL     1      10.697  21.111  53.419  1.00  0.00     0.163 HD
ENDBRANCH  27  28
BRANCH  27  33
HETATM   33  C8  UNL     1      11.370  20.638  51.089  1.00  0.00     0.224 C 
HETATM   34  O3  UNL     1      11.791  20.481  49.985  1.00  0.00    -0.282 OA
HETATM   35  S1  UNL     1       9.715  20.182  51.522  1.00  0.00    -0.009 SA
ENDBRANCH  27  33
ENDBRANCH   3  27
BRANCH   5  36
HETATM   36  O12 UNL     1      14.434  25.214  49.979  1.00  0.00    -0.357 OA
ATOM     37  H12 UNL     1      14.372  26.141  49.779  1.00  0.00     0.217 HD
ENDBRANCH   5  36
BRANCH   6  38
HETATM   38  O13 UNL     1      12.394  26.738  50.907  1.00  0.00    -0.356 OA
ATOM     39  H13 UNL     1      11.936  27.008  50.120  1.00  0.00     0.218 HD
ENDBRANCH   6  38
BRANCH   1  40
HETATM   40  O1  UNL     1      10.414  25.632  52.404  1.00  0.00    -0.353 OA
HETATM   41  C1  UNL     1       9.898  25.426  53.704  1.00  0.00     0.210 C 
ENDBRANCH   1  40
TORSDOF 17
ENDMDL
MODEL 5
REMARK VINA RESULT: -7.304513882      3.688      7.726
REMARK  17 active torsions:
REMARK  status: ('A' for Active; 'I' for Inactive)
REMARK    1  A    between atoms: O1_2  and  C2_3 
REMARK    2  A    between atoms: C4_5  and  C5_6 
REMARK    3  A    between atoms: C5_6  and  N1_7 
REMARK    4  A    between atoms: C5_6  and  C8_12 
REMARK       I    between atoms: N1_7  and  C6_9 
REMARK    5  A    between atoms: C9_15  and  C10_16 
REMARK    6  A    between atoms: C10_16  and  O4_17 
REMARK    7  A    between atoms: C10_16  and  C11_19 
REMARK       I    between atoms: C11_19  and  N2_21 
REMARK    8  A    between atoms: N2_21  and  C12_23 
REMARK    9  A    between atoms: C12_23  and  C13_24 
REMARK   10  A    between atoms: C12_23  and  C14_27 
REMARK   11  A    between atoms: C14_27  and  O9_29 
REMARK   12  A    between atoms: O9_29  and  C15_30 
REMARK   13  A    between atoms: C15_30  and  C16_31 
REMARK   14  A    between atoms: C16_31  and  O10_32 
REMARK   15  A    between atoms: C16_31  and  O11_34 
REMARK   16  A    between atoms: C17_36  and  O12_37 
REMARK   17  A    between atoms: C18_39  and  O13_40 
ROOT
HETATM    1  C2  UNL     1      11.484  19.639  56.550  1.00  0.00     0.104 A 
HETATM    2  C3  UNL     1      11.091  20.470  55.558  1.00  0.00     0.050 A 
HETATM    3  C4  UNL     1      12.018  21.124  54.698  1.00  0.00    -0.009 A 
HETATM    4  C9  UNL     1      13.366  20.910  54.871  1.00  0.00     0.048 A 
HETATM    5  C17 UNL     1      13.728  20.049  55.905  1.00  0.00     0.115 A 
HETATM    6  C18 UNL     1      12.823  19.414  56.742  1.00  0.00     0.133 A 
ENDROOT
BRANCH   4   7
HETATM    7  C10 UNL     1      14.326  21.516  54.024  1.00  0.00     0.147 C 
BRANCH   7   8
HETATM    8  O4  UNL     1      15.265  22.190  54.644  1.00  0.00    -0.355 OA
ATOM      9  H4  UNL     1      16.093  22.243  54.180  1.00  0.00     0.218 HD
ENDBRANCH   7   8
BRANCH   7  10
HETATM   10  C11 UNL     1      14.513  21.566  52.604  1.00  0.00     0.276 C 
HETATM   11  O5  UNL     1      13.953  20.881  51.764  1.00  0.00    -0.265 OA
HETATM   12  N2  UNL     1      15.463  22.519  52.031  1.00  0.00    -0.333 N 
ATOM     13  H2  UNL     1      15.974  23.131  52.667  1.00  0.00     0.164 HD
BRANCH  12  14
HETATM   14  C12 UNL     1      15.715  22.639  50.638  1.00  0.00     0.286 C 
BRANCH  14  15
HETATM   15  C13 UNL     1      16.073  24.022  50.249  1.00  0.00     0.206 C 
HETATM   16  O6  UNL     1      16.994  24.610  50.858  1.00  0.00    -0.646 OA
HETATM   17  O7  UNL     1      15.417  24.683  49.230  1.00  0.00    -0.646 OA
ENDBRANCH  14  15
BRANCH  14  18
HETATM   18  C14 UNL     1      16.804  21.752  50.156  1.00  0.00     0.292 C 
HETATM   19  O8  UNL     1      16.990  21.682  48.914  1.00  0.00    -0.262 OA
BRANCH  18  20
HETATM   20  O9  UNL     1      17.611  21.012  50.971  1.00  0.00    -0.315 OA
BRANCH  20  21
HETATM   21  C15 UNL     1      18.779  21.457  51.597  1.00  0.00     0.239 C 
BRANCH  21  22
HETATM   22  C16 UNL     1      18.618  21.718  53.064  1.00  0.00     0.278 C 
BRANCH  22  23
HETATM   23  O10 UNL     1      18.028  22.965  53.317  1.00  0.00    -0.369 OA
ATOM     24  H10 UNL     1      17.848  23.095  54.240  1.00  0.00     0.212 HD
ENDBRANCH  22  23
BRANCH  22  25
HETATM   25  O11 UNL     1      17.702  20.762  53.554  1.00  0.00    -0.369 OA
ATOM     26  H11 UNL     1      16.932  21.239  53.839  1.00  0.00     0.212 HD
ENDBRANCH  22  25
ENDBRANCH  21  22
ENDBRANCH  20  21
ENDBRANCH  18  20
ENDBRANCH  14  18
ENDBRANCH  12  14
ENDBRANCH   7  10
ENDBRANCH   4   7
BRANCH   3  27
HETATM   27  C5  UNL     1      11.368  22.026  53.730  1.00  0.00     0.201 C 
BRANCH  27  28
HETATM   28  N1  UNL     1      10.095  21.560  53.290  1.00  0.00    -0.345 N 
HETATM   29  C6  UNL     1       9.550  21.730  51.996  1.00  0.00     0.214 C 
HETATM   30  C7  UNL     1       8.209  21.204  51.637  1.00  0.00     0.117 C 
HETATM   31  O2  UNL     1      10.163  22.337  51.068  1.00  0.00    -0.274 OA
ATOM     32  H1  UNL     1       9.525  21.058  53.971  1.00  0.00     0.163 HD
ENDBRANCH  27  28
BRANCH  27  33
HETATM   33  C8  UNL     1      11.107  23.371  54.454  1.00  0.00     0.224 C 
HETATM   34  O3  UNL     1      11.968  24.193  54.389  1.00  0.00    -0.282 OA
HETATM   35  S1  UNL     1       9.604  23.673  55.338  1.00  0.00    -0.009 SA
ENDBRANCH  27  33
ENDBRANCH   3  27
BRANCH   5  36
HETATM   36  O12 UNL     1      15.040  19.757  56.181  1.00  0.00    -0.357 OA
ATOM     37  H12 UNL     1      15.285  19.150  56.869  1.00  0.00     0.217 HD
ENDBRANCH   5  36
BRANCH   6  38
HETATM   38  O13 UNL     1      13.185  18.566  57.759  1.00  0.00    -0.356 OA
ATOM     39  H13 UNL     1      13.890  17.953  57.590  1.00  0.00     0.218 HD
ENDBRANCH   6  38
BRANCH   1  40
HETATM   40  O1  UNL     1      10.536  19.024  57.362  1.00  0.00    -0.353 OA
HETATM   41  C1  UNL     1       9.188  18.934  56.945  1.00  0.00     0.210 C 
ENDBRANCH   1  40
TORSDOF 17
ENDMDL
