MODEL 1
REMARK VINA RESULT: -7.046163016      0.000      0.000
REMARK  7 active torsions:
REMARK  status: ('A' for Active; 'I' for Inactive)
REMARK    1  A    between atoms: C16_17  and  C17_18 
REMARK    2  A    between atoms: C16_17  and  C23_28 
REMARK    3  A    between atoms: C17_18  and  C18_19 
REMARK    4  A    between atoms: C18_19  and  C19_20 
REMARK    5  A    between atoms: C19_20  and  O2_21 
REMARK    6  A    between atoms: C19_20  and  C20_23 
REMARK    7  A    between atoms: C20_23  and  C22_26 
ROOT
HETATM    1  C1  UNL     1       6.376   0.652 -24.748  1.00  0.00     0.023 C 
HETATM    2  C2  UNL     1       7.276   1.422 -24.179  1.00  0.00    -0.016 C 
HETATM    3  C3  UNL     1       7.611   1.303 -22.732  1.00  0.00     0.155 C 
HETATM    4  O1  UNL     1       6.977   0.666 -21.854  1.00  0.00    -0.293 OA
HETATM    5  C4  UNL     1       8.878   2.096 -22.486  1.00  0.00     0.093 C 
HETATM    6  C5  UNL     1       9.424   2.096 -23.866  1.00  0.00     0.030 C 
HETATM    7  C6  UNL     1      10.556   2.928 -24.187  1.00  0.00    -0.082 C 
HETATM    8  C7  UNL     1      11.774   2.862 -23.346  1.00  0.00     0.043 C 
HETATM    9  C8  UNL     1      10.540   3.750 -25.211  1.00  0.00    -0.018 C 
HETATM   10  C9  UNL     1       9.384   3.869 -26.075  1.00  0.00     0.022 C 
HETATM   11  C10 UNL     1       8.583   2.552 -26.032  1.00  0.00     0.003 C 
HETATM   12  C11 UNL     1       7.600   2.754 -27.110  1.00  0.00     0.012 C 
HETATM   13  C12 UNL     1       8.191   3.746 -28.058  1.00  0.00     0.003 C 
HETATM   14  C13 UNL     1       9.556   4.144 -27.499  1.00  0.00    -0.032 C 
HETATM   15  C14 UNL     1       9.773   5.656 -27.657  1.00  0.00     0.016 C 
HETATM   16  C15 UNL     1      10.528   3.342 -28.275  1.00  0.00     0.026 C 
HETATM   17  C16 UNL     1       9.905   2.975 -29.603  1.00  0.00     0.027 C 
HETATM   18  C24 UNL     1       8.439   3.270 -29.453  1.00  0.00    -0.030 C 
HETATM   19  C25 UNL     1       7.516   2.195 -29.919  1.00  0.00     0.016 C 
HETATM   20  C26 UNL     1       8.053   4.474 -30.344  1.00  0.00     0.016 C 
HETATM   21  C27 UNL     1       8.139   2.497 -24.635  1.00  0.00     0.035 C 
ENDROOT
BRANCH  17  22
HETATM   22  C17 UNL     1      10.488   3.821 -30.712  1.00  0.00     0.018 C 
BRANCH  22  23
HETATM   23  C18 UNL     1      11.950   4.093 -30.602  1.00  0.00     0.034 C 
BRANCH  23  24
HETATM   24  C19 UNL     1      12.233   5.329 -31.476  1.00  0.00     0.142 C 
BRANCH  24  25
HETATM   25  O2  UNL     1      13.196   5.041 -32.411  1.00  0.00    -0.394 OA
ATOM     26  H2  UNL     1      13.030   5.520 -33.214  1.00  0.00     0.210 HD
ENDBRANCH  24  25
BRANCH  24  27
HETATM   27  C20 UNL     1      12.724   6.453 -30.561  1.00  0.00     0.068 C 
HETATM   28  C21 UNL     1      11.588   7.441 -30.368  1.00  0.00     0.036 C 
HETATM   29 CL1  UNL     1      13.197   5.712 -29.015  1.00  0.00    -0.116 Cl
BRANCH  27  30
HETATM   30  C22 UNL     1      13.876   7.156 -31.186  1.00  0.00     0.114 C 
HETATM   31  S1  UNL     1      14.344   8.545 -30.090  1.00  0.00    -0.096 SA
ENDBRANCH  27  30
ENDBRANCH  24  27
ENDBRANCH  23  24
ENDBRANCH  22  23
ENDBRANCH  17  22
BRANCH  17  32
HETATM   32  C23 UNL     1      10.229   1.552 -29.891  1.00  0.00     0.362 C 
HETATM   33  F1  UNL     1      11.390   1.125 -29.273  1.00  0.00    -0.214 F 
HETATM   34  F2  UNL     1      10.213   1.204 -31.231  1.00  0.00    -0.214 F 
ENDBRANCH  17  32
TORSDOF 7
ENDMDL
MODEL 2
REMARK VINA RESULT: -6.680349084      2.604      3.032
REMARK  7 active torsions:
REMARK  status: ('A' for Active; 'I' for Inactive)
REMARK    1  A    between atoms: C16_17  and  C17_18 
REMARK    2  A    between atoms: C16_17  and  C23_28 
REMARK    3  A    between atoms: C17_18  and  C18_19 
REMARK    4  A    between atoms: C18_19  and  C19_20 
REMARK    5  A    between atoms: C19_20  and  O2_21 
REMARK    6  A    between atoms: C19_20  and  C20_23 
REMARK    7  A    between atoms: C20_23  and  C22_26 
ROOT
HETATM    1  C1  UNL     1       6.322  -0.091 -23.664  1.00  0.00     0.023 C 
HETATM    2  C2  UNL     1       7.139   0.924 -23.489  1.00  0.00    -0.016 C 
HETATM    3  C3  UNL     1       7.939   1.084 -22.243  1.00  0.00     0.155 C 
HETATM    4  O1  UNL     1       7.798   0.460 -21.162  1.00  0.00    -0.293 OA
HETATM    5  C4  UNL     1       8.983   2.152 -22.500  1.00  0.00     0.093 C 
HETATM    6  C5  UNL     1       9.039   2.070 -23.981  1.00  0.00     0.030 C 
HETATM    7  C6  UNL     1       9.767   3.067 -24.724  1.00  0.00    -0.082 C 
HETATM    8  C7  UNL     1      11.167   3.377 -24.354  1.00  0.00     0.043 C 
HETATM    9  C8  UNL     1       9.222   3.713 -25.730  1.00  0.00    -0.018 C 
HETATM   10  C9  UNL     1       7.859   3.463 -26.147  1.00  0.00     0.022 C 
HETATM   11  C10 UNL     1       7.463   2.027 -25.747  1.00  0.00     0.003 C 
HETATM   12  C11 UNL     1       6.168   1.863 -26.429  1.00  0.00     0.012 C 
HETATM   13  C12 UNL     1       6.161   2.811 -27.584  1.00  0.00     0.003 C 
HETATM   14  C13 UNL     1       7.491   3.562 -27.556  1.00  0.00    -0.032 C 
HETATM   15  C14 UNL     1       7.268   5.048 -27.875  1.00  0.00     0.016 C 
HETATM   16  C15 UNL     1       8.328   2.879 -28.569  1.00  0.00     0.026 C 
HETATM   17  C16 UNL     1       7.422   2.205 -29.574  1.00  0.00     0.027 C 
HETATM   18  C24 UNL     1       6.056   2.204 -28.945  1.00  0.00    -0.030 C 
HETATM   19  C25 UNL     1       5.326   0.905 -28.996  1.00  0.00     0.016 C 
HETATM   20  C26 UNL     1       5.122   3.161 -29.723  1.00  0.00     0.016 C 
HETATM   21  C27 UNL     1       7.519   2.079 -24.283  1.00  0.00     0.035 C 
ENDROOT
BRANCH  17  22
HETATM   22  C17 UNL     1       7.391   2.987 -30.867  1.00  0.00     0.018 C 
BRANCH  22  23
HETATM   23  C18 UNL     1       8.631   3.758 -31.173  1.00  0.00     0.034 C 
BRANCH  23  24
HETATM   24  C19 UNL     1       9.023   3.402 -32.619  1.00  0.00     0.142 C 
BRANCH  24  25
HETATM   25  O2  UNL     1       8.103   2.539 -33.163  1.00  0.00    -0.394 OA
ATOM     26  H2  UNL     1       8.093   1.721 -32.680  1.00  0.00     0.210 HD
ENDBRANCH  24  25
BRANCH  24  27
HETATM   27  C20 UNL     1      10.399   2.733 -32.585  1.00  0.00     0.068 C 
HETATM   28  C21 UNL     1      11.031   3.012 -31.234  1.00  0.00     0.036 C 
HETATM   29 CL1  UNL     1      10.149   0.988 -32.826  1.00  0.00    -0.116 Cl
BRANCH  27  30
HETATM   30  C22 UNL     1      11.269   3.296 -33.653  1.00  0.00     0.114 C 
HETATM   31  S1  UNL     1      12.397   4.508 -32.873  1.00  0.00    -0.096 SA
ENDBRANCH  27  30
ENDBRANCH  24  27
ENDBRANCH  23  24
ENDBRANCH  22  23
ENDBRANCH  17  22
BRANCH  17  32
HETATM   32  C23 UNL     1       7.975   0.855 -29.866  1.00  0.00     0.362 C 
HETATM   33  F1  UNL     1       9.331   0.759 -29.612  1.00  0.00    -0.214 F 
HETATM   34  F2  UNL     1       7.658   0.347 -31.114  1.00  0.00    -0.214 F 
ENDBRANCH  17  32
TORSDOF 7
ENDMDL
MODEL 3
REMARK VINA RESULT: -6.594601308      4.496      7.811
REMARK  7 active torsions:
REMARK  status: ('A' for Active; 'I' for Inactive)
REMARK    1  A    between atoms: C16_17  and  C17_18 
REMARK    2  A    between atoms: C16_17  and  C23_28 
REMARK    3  A    between atoms: C17_18  and  C18_19 
REMARK    4  A    between atoms: C18_19  and  C19_20 
REMARK    5  A    between atoms: C19_20  and  O2_21 
REMARK    6  A    between atoms: C19_20  and  C20_23 
REMARK    7  A    between atoms: C20_23  and  C22_26 
ROOT
HETATM    1  C1  UNL     1      12.689   3.924 -25.416  1.00  0.00     0.023 C 
HETATM    2  C2  UNL     1      12.280   3.882 -26.664  1.00  0.00    -0.016 C 
HETATM    3  C3  UNL     1      13.234   3.751 -27.800  1.00  0.00     0.155 C 
HETATM    4  O1  UNL     1      14.483   3.885 -27.765  1.00  0.00    -0.293 OA
HETATM    5  C4  UNL     1      12.431   3.417 -29.040  1.00  0.00     0.093 C 
HETATM    6  C5  UNL     1      11.226   2.844 -28.389  1.00  0.00     0.030 C 
HETATM    7  C6  UNL     1      10.055   2.559 -29.179  1.00  0.00    -0.082 C 
HETATM    8  C7  UNL     1      10.184   1.752 -30.414  1.00  0.00     0.043 C 
HETATM    9  C8  UNL     1       8.866   2.997 -28.832  1.00  0.00    -0.018 C 
HETATM   10  C9  UNL     1       8.665   3.793 -27.640  1.00  0.00     0.022 C 
HETATM   11  C10 UNL     1       9.780   3.472 -26.624  1.00  0.00     0.003 C 
HETATM   12  C11 UNL     1       9.308   4.172 -25.417  1.00  0.00     0.012 C 
HETATM   13  C12 UNL     1       7.825   4.302 -25.541  1.00  0.00     0.003 C 
HETATM   14  C13 UNL     1       7.429   3.670 -26.873  1.00  0.00    -0.032 C 
HETATM   15  C14 UNL     1       6.362   4.528 -27.571  1.00  0.00     0.016 C 
HETATM   16  C15 UNL     1       6.933   2.321 -26.517  1.00  0.00     0.026 C 
HETATM   17  C16 UNL     1       6.461   2.341 -25.081  1.00  0.00     0.027 C 
HETATM   18  C24 UNL     1       7.006   3.615 -24.497  1.00  0.00    -0.030 C 
HETATM   19  C25 UNL     1       7.672   3.479 -23.169  1.00  0.00     0.016 C 
HETATM   20  C26 UNL     1       5.847   4.596 -24.209  1.00  0.00     0.016 C 
HETATM   21  C27 UNL     1      10.985   3.937 -27.318  1.00  0.00     0.035 C 
ENDROOT
BRANCH  17  22
HETATM   22  C17 UNL     1       4.950   2.355 -25.022  1.00  0.00     0.018 C 
BRANCH  22  23
HETATM   23  C18 UNL     1       4.262   1.856 -26.247  1.00  0.00     0.034 C 
BRANCH  23  24
HETATM   24  C19 UNL     1       3.110   2.837 -26.533  1.00  0.00     0.142 C 
BRANCH  24  25
HETATM   25  O2  UNL     1       2.587   3.314 -25.356  1.00  0.00    -0.394 OA
ATOM     26  H2  UNL     1       2.898   4.197 -25.191  1.00  0.00     0.210 HD
ENDBRANCH  24  25
BRANCH  24  27
HETATM   27  C20 UNL     1       2.027   2.082 -27.308  1.00  0.00     0.068 C 
HETATM   28  C21 UNL     1       2.694   0.969 -28.096  1.00  0.00     0.036 C 
HETATM   29 CL1  UNL     1       0.881   1.425 -26.118  1.00  0.00    -0.116 Cl
BRANCH  27  30
HETATM   30  C22 UNL     1       1.340   3.000 -28.255  1.00  0.00     0.114 C 
HETATM   31  S1  UNL     1       2.619   4.027 -29.067  1.00  0.00    -0.096 SA
ENDBRANCH  27  30
ENDBRANCH  24  27
ENDBRANCH  23  24
ENDBRANCH  22  23
ENDBRANCH  17  22
BRANCH  17  32
HETATM   32  C23 UNL     1       6.935   1.097 -24.418  1.00  0.00     0.362 C 
HETATM   33  F1  UNL     1       7.861   0.400 -25.173  1.00  0.00    -0.214 F 
HETATM   34  F2  UNL     1       5.935   0.262 -23.949  1.00  0.00    -0.214 F 
ENDBRANCH  17  32
TORSDOF 7
ENDMDL
MODEL 4
REMARK VINA RESULT: -6.593918127      4.726      8.009
REMARK  7 active torsions:
REMARK  status: ('A' for Active; 'I' for Inactive)
REMARK    1  A    between atoms: C16_17  and  C17_18 
REMARK    2  A    between atoms: C16_17  and  C23_28 
REMARK    3  A    between atoms: C17_18  and  C18_19 
REMARK    4  A    between atoms: C18_19  and  C19_20 
REMARK    5  A    between atoms: C19_20  and  O2_21 
REMARK    6  A    between atoms: C19_20  and  C20_23 
REMARK    7  A    between atoms: C20_23  and  C22_26 
ROOT
HETATM    1  C1  UNL     1      12.807   3.934 -25.375  1.00  0.00     0.023 C 
HETATM    2  C2  UNL     1      12.382   3.889 -26.618  1.00  0.00    -0.016 C 
HETATM    3  C3  UNL     1      13.321   3.754 -27.766  1.00  0.00     0.155 C 
HETATM    4  O1  UNL     1      14.570   3.887 -27.747  1.00  0.00    -0.293 OA
HETATM    5  C4  UNL     1      12.502   3.418 -28.995  1.00  0.00     0.093 C 
HETATM    6  C5  UNL     1      11.305   2.847 -28.327  1.00  0.00     0.030 C 
HETATM    7  C6  UNL     1      10.124   2.561 -29.101  1.00  0.00    -0.082 C 
HETATM    8  C7  UNL     1      10.236   1.750 -30.335  1.00  0.00     0.043 C 
HETATM    9  C8  UNL     1       8.940   3.001 -28.740  1.00  0.00    -0.018 C 
HETATM   10  C9  UNL     1       8.755   3.800 -27.547  1.00  0.00     0.022 C 
HETATM   11  C10 UNL     1       9.882   3.481 -26.545  1.00  0.00     0.003 C 
HETATM   12  C11 UNL     1       9.427   4.185 -25.334  1.00  0.00     0.012 C 
HETATM   13  C12 UNL     1       7.942   4.316 -25.439  1.00  0.00     0.003 C 
HETATM   14  C13 UNL     1       7.528   3.680 -26.765  1.00  0.00    -0.032 C 
HETATM   15  C14 UNL     1       6.453   4.537 -27.451  1.00  0.00     0.016 C 
HETATM   16  C15 UNL     1       7.036   2.333 -26.398  1.00  0.00     0.026 C 
HETATM   17  C16 UNL     1       6.582   2.357 -24.956  1.00  0.00     0.027 C 
HETATM   18  C24 UNL     1       7.136   3.631 -24.383  1.00  0.00    -0.030 C 
HETATM   19  C25 UNL     1       7.819   3.499 -23.064  1.00  0.00     0.016 C 
HETATM   20  C26 UNL     1       5.981   4.615 -24.082  1.00  0.00     0.016 C 
HETATM   21  C27 UNL     1      11.079   3.943 -27.256  1.00  0.00     0.035 C 
ENDROOT
BRANCH  17  22
HETATM   22  C17 UNL     1       5.072   2.372 -24.878  1.00  0.00     0.018 C 
BRANCH  22  23
HETATM   23  C18 UNL     1       4.369   1.818 -26.070  1.00  0.00     0.034 C 
BRANCH  23  24
HETATM   24  C19 UNL     1       3.278   2.837 -26.449  1.00  0.00     0.142 C 
BRANCH  24  25
HETATM   25  O2  UNL     1       2.732   3.393 -25.318  1.00  0.00    -0.394 OA
ATOM     26  H2  UNL     1       1.876   3.019 -25.147  1.00  0.00     0.210 HD
ENDBRANCH  24  25
BRANCH  24  27
HETATM   27  C20 UNL     1       2.192   2.097 -27.234  1.00  0.00     0.068 C 
HETATM   28  C21 UNL     1       1.466   3.104 -28.107  1.00  0.00     0.036 C 
HETATM   29 CL1  UNL     1       3.000   0.858 -28.222  1.00  0.00    -0.116 Cl
BRANCH  27  30
HETATM   30  C22 UNL     1       1.217   1.475 -26.298  1.00  0.00     0.114 C 
HETATM   31  S1  UNL     1      -0.091   0.680 -27.301  1.00  0.00    -0.096 SA
ENDBRANCH  27  30
ENDBRANCH  24  27
ENDBRANCH  23  24
ENDBRANCH  22  23
ENDBRANCH  17  22
BRANCH  17  32
HETATM   32  C23 UNL     1       7.064   1.114 -24.296  1.00  0.00     0.362 C 
HETATM   33  F1  UNL     1       7.803   0.304 -25.139  1.00  0.00    -0.214 F 
HETATM   34  F2  UNL     1       6.094   0.391 -23.624  1.00  0.00    -0.214 F 
ENDBRANCH  17  32
TORSDOF 7
ENDMDL
MODEL 5
REMARK VINA RESULT: -6.396943035      3.551      8.125
REMARK  7 active torsions:
REMARK  status: ('A' for Active; 'I' for Inactive)
REMARK    1  A    between atoms: C16_17  and  C17_18 
REMARK    2  A    between atoms: C16_17  and  C23_28 
REMARK    3  A    between atoms: C17_18  and  C18_19 
REMARK    4  A    between atoms: C18_19  and  C19_20 
REMARK    5  A    between atoms: C19_20  and  O2_21 
REMARK    6  A    between atoms: C19_20  and  C20_23 
REMARK    7  A    between atoms: C20_23  and  C22_26 
ROOT
HETATM    1  C1  UNL     1      13.117   4.733 -34.591  1.00  0.00     0.023 C 
HETATM    2  C2  UNL     1      12.053   3.972 -34.478  1.00  0.00    -0.016 C 
HETATM    3  C3  UNL     1      11.609   3.072 -35.579  1.00  0.00     0.155 C 
HETATM    4  O1  UNL     1      12.009   3.072 -36.770  1.00  0.00    -0.293 OA
HETATM    5  C4  UNL     1      10.569   2.128 -35.012  1.00  0.00     0.093 C 
HETATM    6  C5  UNL     1      10.943   2.204 -33.578  1.00  0.00     0.030 C 
HETATM    7  C6  UNL     1      10.085   1.613 -32.583  1.00  0.00    -0.082 C 
HETATM    8  C7  UNL     1       9.643   0.208 -32.739  1.00  0.00     0.043 C 
HETATM    9  C8  UNL     1       9.679   2.290 -31.532  1.00  0.00    -0.018 C 
HETATM   10  C9  UNL     1      10.070   3.667 -31.315  1.00  0.00     0.022 C 
HETATM   11  C10 UNL     1      11.412   3.929 -32.027  1.00  0.00     0.003 C 
HETATM   12  C11 UNL     1      11.768   5.268 -31.527  1.00  0.00     0.012 C 
HETATM   13  C12 UNL     1      11.073   5.444 -30.217  1.00  0.00     0.003 C 
HETATM   14  C13 UNL     1      10.273   4.168 -29.960  1.00  0.00    -0.032 C 
HETATM   15  C14 UNL     1       8.892   4.516 -29.381  1.00  0.00     0.016 C 
HETATM   16  C15 UNL     1      11.106   3.386 -29.019  1.00  0.00     0.026 C 
HETATM   17  C16 UNL     1      12.009   4.335 -28.264  1.00  0.00     0.027 C 
HETATM   18  C24 UNL     1      11.945   5.634 -29.018  1.00  0.00    -0.030 C 
HETATM   19  C25 UNL     1      13.260   6.279 -29.299  1.00  0.00     0.016 C 
HETATM   20  C26 UNL     1      11.207   6.695 -28.170  1.00  0.00     0.016 C 
HETATM   21  C27 UNL     1      11.064   3.742 -33.439  1.00  0.00     0.035 C 
ENDROOT
BRANCH  17  22
HETATM   22  C17 UNL     1      11.504   4.535 -26.853  1.00  0.00     0.018 C 
BRANCH  22  23
HETATM   23  C18 UNL     1      10.655   3.432 -26.320  1.00  0.00     0.034 C 
BRANCH  23  24
HETATM   24  C19 UNL     1      10.456   3.718 -24.820  1.00  0.00     0.142 C 
BRANCH  24  25
HETATM   25  O2  UNL     1      11.433   3.095 -24.083  1.00  0.00    -0.394 OA
ATOM     26  H2  UNL     1      12.146   3.697 -23.904  1.00  0.00     0.210 HD
ENDBRANCH  24  25
BRANCH  24  27
HETATM   27  C20 UNL     1       9.083   3.179 -24.414  1.00  0.00     0.068 C 
HETATM   28  C21 UNL     1       8.155   4.359 -24.191  1.00  0.00     0.036 C 
HETATM   29 CL1  UNL     1       8.501   2.149 -25.742  1.00  0.00    -0.116 Cl
BRANCH  27  30
HETATM   30  C22 UNL     1       9.190   2.402 -23.149  1.00  0.00     0.114 C 
HETATM   31  S1  UNL     1       7.498   2.165 -22.493  1.00  0.00    -0.096 SA
ENDBRANCH  27  30
ENDBRANCH  24  27
ENDBRANCH  23  24
ENDBRANCH  22  23
ENDBRANCH  17  22
BRANCH  17  32
HETATM   32  C23 UNL     1      13.363   3.725 -28.186  1.00  0.00     0.362 C 
HETATM   33  F1  UNL     1      13.458   2.526 -28.871  1.00  0.00    -0.214 F 
HETATM   34  F2  UNL     1      13.888   3.619 -26.910  1.00  0.00    -0.214 F 
ENDBRANCH  17  32
TORSDOF 7
ENDMDL
