MODEL 1
REMARK VINA RESULT: -7.517682619      0.000      0.000
REMARK  8 active torsions:
REMARK  status: ('A' for Active; 'I' for Inactive)
REMARK    1  A    between atoms: C2_2  and  O1_5 
REMARK    2  A    between atoms: O1_5  and  C5_6 
REMARK       I    between atoms: C5_6  and  N1_8 
REMARK    3  A    between atoms: N1_8  and  C6_10 
REMARK    4  A    between atoms: C9_13  and  C10_14 
REMARK    5  A    between atoms: C10_14  and  C11_15 
REMARK    6  A    between atoms: C11_15  and  N2_16 
REMARK    7  A    between atoms: C14_19  and  C15_20 
REMARK    8  A    between atoms: C23_30  and  C24_31 
ROOT
HETATM    1  N2  UNL     1       7.299   1.527 -31.230  1.00  0.00     0.088 N 
HETATM    2  C12 UNL     1       8.577   1.540 -30.488  1.00  0.00     0.273 C 
HETATM    3  C13 UNL     1       8.276   1.063 -29.064  1.00  0.00     0.039 C 
HETATM    4  C14 UNL     1       7.540   2.225 -28.413  1.00  0.00     0.024 C 
HETATM    5  C25 UNL     1       6.268   2.384 -29.249  1.00  0.00     0.039 C 
HETATM    6  C26 UNL     1       6.586   2.695 -30.683  1.00  0.00     0.273 C 
ENDROOT
BRANCH   1   7
HETATM    7  C11 UNL     1       7.566   1.714 -32.647  1.00  0.00     0.272 C 
BRANCH   7   8
HETATM    8  C10 UNL     1       7.197   0.490 -33.403  1.00  0.00     0.034 C 
BRANCH   8   9
HETATM    9  C9  UNL     1       8.338  -0.030 -34.268  1.00  0.00    -0.013 C 
HETATM   10  C8  UNL     1       8.497  -1.486 -33.993  1.00  0.00     0.007 C 
HETATM   11  C7  UNL     1       9.932  -1.952 -34.073  1.00  0.00     0.026 C 
HETATM   12  C6  UNL     1      10.702  -1.213 -35.148  1.00  0.00     0.086 C 
HETATM   13  C28 UNL     1      10.755   0.248 -34.845  1.00  0.00     0.026 C 
HETATM   14  C27 UNL     1       9.595   0.767 -34.054  1.00  0.00     0.007 C 
BRANCH  12  15
HETATM   15  N1  UNL     1      12.060  -1.722 -35.124  1.00  0.00    -0.332 N 
HETATM   16  C5  UNL     1      12.468  -2.779 -35.973  1.00  0.00     0.361 C 
HETATM   17  O2  UNL     1      11.630  -3.280 -36.757  1.00  0.00    -0.238 OA
ATOM     18  H1  UNL     1      12.736  -1.310 -34.481  1.00  0.00     0.165 HD
BRANCH  16  19
HETATM   19  O1  UNL     1      13.777  -3.235 -35.922  1.00  0.00    -0.294 OA
BRANCH  19  20
HETATM   20  C2  UNL     1      14.843  -2.537 -36.521  1.00  0.00     0.061 C 
HETATM   21  C1  UNL     1      15.762  -3.555 -37.185  1.00  0.00     0.046 C 
HETATM   22  C3  UNL     1      14.370  -1.623 -37.632  1.00  0.00     0.046 C 
HETATM   23  C4  UNL     1      15.633  -1.709 -35.539  1.00  0.00     0.046 C 
ENDBRANCH  19  20
ENDBRANCH  16  19
ENDBRANCH  12  15
ENDBRANCH   8   9
ENDBRANCH   7   8
ENDBRANCH   1   7
BRANCH   4  24
HETATM   24  C15 UNL     1       7.106   1.891 -27.035  1.00  0.00    -0.030 A 
HETATM   25  C16 UNL     1       5.890   1.364 -26.601  1.00  0.00     0.096 A 
HETATM   26  N3  UNL     1       5.919   1.230 -25.265  1.00  0.00    -0.368 N 
HETATM   27  C17 UNL     1       7.105   1.644 -24.785  1.00  0.00     0.025 A 
ATOM     28  H3  UNL     1       5.154   0.866 -24.698  1.00  0.00     0.165 HD
HETATM   29  C18 UNL     1       7.853   2.060 -25.886  1.00  0.00    -0.027 A 
HETATM   30  C23 UNL     1       7.463   1.623 -23.336  1.00  0.00     0.101 C 
HETATM   31  C19 UNL     1       9.220   2.581 -25.874  1.00  0.00     0.041 C 
HETATM   32  C20 UNL     1       9.409   3.817 -25.039  1.00  0.00     0.005 C 
HETATM   33  C21 UNL     1       8.727   3.691 -23.704  1.00  0.00     0.001 C 
HETATM   34  C22 UNL     1       8.804   2.304 -23.160  1.00  0.00     0.016 C 
BRANCH  30  35
HETATM   35  C24 UNL     1       7.529   0.221 -22.820  1.00  0.00     0.363 C 
HETATM   36  F1  UNL     1       7.928  -0.674 -23.766  1.00  0.00    -0.214 F 
HETATM   37  F2  UNL     1       8.351   0.219 -21.693  1.00  0.00    -0.214 F 
ENDBRANCH  30  35
ENDBRANCH   4  24
TORSDOF 8
ENDMDL
MODEL 2
REMARK VINA RESULT: -7.462664832      2.757      3.682
REMARK  8 active torsions:
REMARK  status: ('A' for Active; 'I' for Inactive)
REMARK    1  A    between atoms: C2_2  and  O1_5 
REMARK    2  A    between atoms: O1_5  and  C5_6 
REMARK       I    between atoms: C5_6  and  N1_8 
REMARK    3  A    between atoms: N1_8  and  C6_10 
REMARK    4  A    between atoms: C9_13  and  C10_14 
REMARK    5  A    between atoms: C10_14  and  C11_15 
REMARK    6  A    between atoms: C11_15  and  N2_16 
REMARK    7  A    between atoms: C14_19  and  C15_20 
REMARK    8  A    between atoms: C23_30  and  C24_31 
ROOT
HETATM    1  N2  UNL     1       9.360   3.044 -30.751  1.00  0.00     0.088 N 
HETATM    2  C12 UNL     1      10.335   2.847 -29.659  1.00  0.00     0.273 C 
HETATM    3  C13 UNL     1       9.644   2.001 -28.585  1.00  0.00     0.039 C 
HETATM    4  C14 UNL     1       8.647   2.944 -27.930  1.00  0.00     0.024 C 
HETATM    5  C25 UNL     1       7.693   3.333 -29.061  1.00  0.00     0.039 C 
HETATM    6  C26 UNL     1       8.417   4.022 -30.181  1.00  0.00     0.273 C 
ENDROOT
BRANCH   1   7
HETATM    7  C11 UNL     1      10.041   3.610 -31.905  1.00  0.00     0.272 C 
BRANCH   7   8
HETATM    8  C10 UNL     1      10.872   2.572 -32.568  1.00  0.00     0.034 C 
BRANCH   8   9
HETATM    9  C9  UNL     1      10.055   1.656 -33.469  1.00  0.00    -0.013 C 
HETATM   10  C8  UNL     1       9.454   0.590 -32.618  1.00  0.00     0.007 C 
HETATM   11  C7  UNL     1       9.341  -0.741 -33.324  1.00  0.00     0.026 C 
HETATM   12  C6  UNL     1       9.028  -0.568 -34.796  1.00  0.00     0.086 C 
HETATM   13  C28 UNL     1      10.126   0.175 -35.482  1.00  0.00     0.026 C 
HETATM   14  C27 UNL     1      10.881   1.127 -34.608  1.00  0.00     0.007 C 
BRANCH  12  15
HETATM   15  N1  UNL     1       8.961  -1.898 -35.375  1.00  0.00    -0.332 N 
HETATM   16  C5  UNL     1       7.741  -2.611 -35.447  1.00  0.00     0.361 C 
HETATM   17  O2  UNL     1       6.702  -2.075 -34.997  1.00  0.00    -0.238 OA
ATOM     18  H1  UNL     1       9.812  -2.327 -35.737  1.00  0.00     0.165 HD
BRANCH  16  19
HETATM   19  O1  UNL     1       7.718  -3.878 -36.011  1.00  0.00    -0.294 OA
BRANCH  19  20
HETATM   20  C2  UNL     1       7.610  -5.047 -35.233  1.00  0.00     0.061 C 
HETATM   21  C1  UNL     1       8.506  -6.113 -35.851  1.00  0.00     0.046 C 
HETATM   22  C3  UNL     1       8.126  -4.841 -33.824  1.00  0.00     0.046 C 
HETATM   23  C4  UNL     1       6.197  -5.567 -35.141  1.00  0.00     0.046 C 
ENDBRANCH  19  20
ENDBRANCH  16  19
ENDBRANCH  12  15
ENDBRANCH   8   9
ENDBRANCH   7   8
ENDBRANCH   1   7
BRANCH   4  24
HETATM   24  C15 UNL     1       7.833   2.249 -26.904  1.00  0.00    -0.030 A 
HETATM   25  C16 UNL     1       6.657   1.518 -27.064  1.00  0.00     0.096 A 
HETATM   26  N3  UNL     1       6.248   1.071 -25.866  1.00  0.00    -0.368 N 
HETATM   27  C17 UNL     1       7.103   1.470 -24.908  1.00  0.00     0.025 A 
ATOM     28  H3  UNL     1       5.412   0.509 -25.706  1.00  0.00     0.165 HD
HETATM   29  C18 UNL     1       8.097   2.209 -25.549  1.00  0.00    -0.027 A 
HETATM   30  C23 UNL     1       6.939   1.137 -23.462  1.00  0.00     0.101 C 
HETATM   31  C19 UNL     1       9.261   2.842 -24.928  1.00  0.00     0.041 C 
HETATM   32  C20 UNL     1       8.928   3.853 -23.867  1.00  0.00     0.005 C 
HETATM   33  C21 UNL     1       7.863   3.345 -22.934  1.00  0.00     0.001 C 
HETATM   34  C22 UNL     1       7.994   1.882 -22.672  1.00  0.00     0.016 C 
BRANCH  30  35
HETATM   35  C24 UNL     1       7.071  -0.335 -23.232  1.00  0.00     0.363 C 
HETATM   36  F1  UNL     1       8.036  -0.907 -24.006  1.00  0.00    -0.214 F 
HETATM   37  F2  UNL     1       7.283  -0.537 -21.869  1.00  0.00    -0.214 F 
ENDBRANCH  30  35
ENDBRANCH   4  24
TORSDOF 8
ENDMDL
MODEL 3
REMARK VINA RESULT: -7.433965350      2.829      3.642
REMARK  8 active torsions:
REMARK  status: ('A' for Active; 'I' for Inactive)
REMARK    1  A    between atoms: C2_2  and  O1_5 
REMARK    2  A    between atoms: O1_5  and  C5_6 
REMARK       I    between atoms: C5_6  and  N1_8 
REMARK    3  A    between atoms: N1_8  and  C6_10 
REMARK    4  A    between atoms: C9_13  and  C10_14 
REMARK    5  A    between atoms: C10_14  and  C11_15 
REMARK    6  A    between atoms: C11_15  and  N2_16 
REMARK    7  A    between atoms: C14_19  and  C15_20 
REMARK    8  A    between atoms: C23_30  and  C24_31 
ROOT
HETATM    1  N2  UNL     1       9.492   3.708 -30.460  1.00  0.00     0.088 N 
HETATM    2  C12 UNL     1      10.383   2.758 -29.762  1.00  0.00     0.273 C 
HETATM    3  C13 UNL     1       9.502   1.904 -28.846  1.00  0.00     0.039 C 
HETATM    4  C14 UNL     1       9.107   2.834 -27.709  1.00  0.00     0.024 C 
HETATM    5  C25 UNL     1       8.316   3.952 -28.392  1.00  0.00     0.039 C 
HETATM    6  C26 UNL     1       9.151   4.679 -29.405  1.00  0.00     0.273 C 
ENDROOT
BRANCH   1   7
HETATM    7  C11 UNL     1      10.230   4.360 -31.530  1.00  0.00     0.272 C 
BRANCH   7   8
HETATM    8  C10 UNL     1       9.407   4.406 -32.765  1.00  0.00     0.034 C 
BRANCH   8   9
HETATM    9  C9  UNL     1       9.243   3.036 -33.410  1.00  0.00    -0.013 C 
HETATM   10  C8  UNL     1       8.008   2.412 -32.858  1.00  0.00     0.007 C 
HETATM   11  C7  UNL     1       8.113   0.911 -32.717  1.00  0.00     0.026 C 
HETATM   12  C6  UNL     1       8.932   0.300 -33.836  1.00  0.00     0.086 C 
HETATM   13  C28 UNL     1      10.331   0.820 -33.805  1.00  0.00     0.026 C 
HETATM   14  C27 UNL     1      10.477   2.196 -33.234  1.00  0.00     0.007 C 
BRANCH  12  15
HETATM   15  N1  UNL     1       8.983  -1.130 -33.593  1.00  0.00    -0.332 N 
HETATM   16  C5  UNL     1       9.028  -2.058 -34.660  1.00  0.00     0.361 C 
HETATM   17  O2  UNL     1       9.021  -1.627 -35.836  1.00  0.00    -0.238 OA
ATOM     18  H1  UNL     1       8.986  -1.473 -32.633  1.00  0.00     0.165 HD
BRANCH  16  19
HETATM   19  O1  UNL     1       9.079  -3.417 -34.386  1.00  0.00    -0.294 OA
BRANCH  19  20
HETATM   20  C2  UNL     1       8.099  -4.317 -34.848  1.00  0.00     0.061 C 
HETATM   21  C1  UNL     1       7.880  -5.373 -33.772  1.00  0.00     0.046 C 
HETATM   22  C3  UNL     1       6.757  -3.643 -35.042  1.00  0.00     0.046 C 
HETATM   23  C4  UNL     1       8.477  -4.988 -36.145  1.00  0.00     0.046 C 
ENDBRANCH  19  20
ENDBRANCH  16  19
ENDBRANCH  12  15
ENDBRANCH   8   9
ENDBRANCH   7   8
ENDBRANCH   1   7
BRANCH   4  24
HETATM   24  C15 UNL     1       8.179   2.172 -26.760  1.00  0.00    -0.030 A 
HETATM   25  C16 UNL     1       7.006   1.467 -27.028  1.00  0.00     0.096 A 
HETATM   26  N3  UNL     1       6.472   1.045 -25.870  1.00  0.00    -0.368 N 
HETATM   27  C17 UNL     1       7.238   1.437 -24.838  1.00  0.00     0.025 A 
ATOM     28  H3  UNL     1       5.610   0.506 -25.787  1.00  0.00     0.165 HD
HETATM   29  C18 UNL     1       8.308   2.143 -25.386  1.00  0.00    -0.027 A 
HETATM   30  C23 UNL     1       6.925   1.126 -23.412  1.00  0.00     0.101 C 
HETATM   31  C19 UNL     1       9.422   2.756 -24.661  1.00  0.00     0.041 C 
HETATM   32  C20 UNL     1       9.013   3.789 -23.648  1.00  0.00     0.005 C 
HETATM   33  C21 UNL     1       7.849   3.318 -22.819  1.00  0.00     0.001 C 
HETATM   34  C22 UNL     1       7.917   1.856 -22.530  1.00  0.00     0.016 C 
BRANCH  30  35
HETATM   35  C24 UNL     1       6.998  -0.346 -23.154  1.00  0.00     0.363 C 
HETATM   36  F1  UNL     1       7.915  -0.976 -23.941  1.00  0.00    -0.214 F 
HETATM   37  F2  UNL     1       7.237  -0.530 -21.792  1.00  0.00    -0.214 F 
ENDBRANCH  30  35
ENDBRANCH   4  24
TORSDOF 8
ENDMDL
MODEL 4
REMARK VINA RESULT: -7.430480039      5.159     11.043
REMARK  8 active torsions:
REMARK  status: ('A' for Active; 'I' for Inactive)
REMARK    1  A    between atoms: C2_2  and  O1_5 
REMARK    2  A    between atoms: O1_5  and  C5_6 
REMARK       I    between atoms: C5_6  and  N1_8 
REMARK    3  A    between atoms: N1_8  and  C6_10 
REMARK    4  A    between atoms: C9_13  and  C10_14 
REMARK    5  A    between atoms: C10_14  and  C11_15 
REMARK    6  A    between atoms: C11_15  and  N2_16 
REMARK    7  A    between atoms: C14_19  and  C15_20 
REMARK    8  A    between atoms: C23_30  and  C24_31 
ROOT
HETATM    1  N2  UNL     1      10.136   2.555 -31.641  1.00  0.00     0.088 N 
HETATM    2  C12 UNL     1       8.709   2.182 -31.725  1.00  0.00     0.273 C 
HETATM    3  C13 UNL     1       8.651   0.687 -32.051  1.00  0.00     0.039 C 
HETATM    4  C14 UNL     1       9.071   0.592 -33.510  1.00  0.00     0.024 C 
HETATM    5  C25 UNL     1      10.503   1.132 -33.528  1.00  0.00     0.039 C 
HETATM    6  C26 UNL     1      10.562   2.554 -33.051  1.00  0.00     0.273 C 
ENDROOT
BRANCH   1   7
HETATM    7  C11 UNL     1      10.251   3.890 -31.078  1.00  0.00     0.272 C 
BRANCH   7   8
HETATM    8  C10 UNL     1      11.099   3.859 -29.858  1.00  0.00     0.034 C 
BRANCH   8   9
HETATM    9  C9  UNL     1      10.279   3.890 -28.575  1.00  0.00    -0.013 C 
HETATM   10  C8  UNL     1      11.164   4.368 -27.475  1.00  0.00     0.007 C 
HETATM   11  C7  UNL     1      10.852   3.730 -26.142  1.00  0.00     0.026 C 
HETATM   12  C6  UNL     1       9.366   3.482 -25.975  1.00  0.00     0.086 C 
HETATM   13  C28 UNL     1       8.873   2.533 -27.016  1.00  0.00     0.026 C 
HETATM   14  C27 UNL     1       9.639   2.557 -28.302  1.00  0.00     0.007 C 
BRANCH  12  15
HETATM   15  N1  UNL     1       9.183   2.855 -24.679  1.00  0.00    -0.332 N 
HETATM   16  C5  UNL     1       7.931   2.876 -24.018  1.00  0.00     0.361 C 
HETATM   17  O2  UNL     1       6.968   3.455 -24.572  1.00  0.00    -0.238 OA
ATOM     18  H1  UNL     1       9.974   2.389 -24.234  1.00  0.00     0.165 HD
BRANCH  16  19
HETATM   19  O1  UNL     1       7.797   2.263 -22.782  1.00  0.00    -0.294 OA
BRANCH  19  20
HETATM   20  C2  UNL     1       7.183   1.006 -22.627  1.00  0.00     0.061 C 
HETATM   21  C1  UNL     1       7.740   0.358 -21.366  1.00  0.00     0.046 C 
HETATM   22  C3  UNL     1       5.690   1.128 -22.400  1.00  0.00     0.046 C 
HETATM   23  C4  UNL     1       7.403   0.090 -23.805  1.00  0.00     0.046 C 
ENDBRANCH  19  20
ENDBRANCH  16  19
ENDBRANCH  12  15
ENDBRANCH   8   9
ENDBRANCH   7   8
ENDBRANCH   1   7
BRANCH   4  24
HETATM   24  C15 UNL     1       9.140  -0.817 -33.966  1.00  0.00    -0.030 A 
HETATM   25  C16 UNL     1      10.251  -1.654 -34.065  1.00  0.00     0.096 A 
HETATM   26  N3  UNL     1       9.862  -2.850 -34.537  1.00  0.00    -0.368 N 
HETATM   27  C17 UNL     1       8.535  -2.850 -34.757  1.00  0.00     0.025 A 
ATOM     28  H3  UNL     1      10.482  -3.642 -34.704  1.00  0.00     0.165 HD
HETATM   29  C18 UNL     1       8.076  -1.582 -34.403  1.00  0.00    -0.027 A 
HETATM   30  C23 UNL     1       7.784  -4.030 -35.279  1.00  0.00     0.101 C 
HETATM   31  C19 UNL     1       6.695  -1.101 -34.452  1.00  0.00     0.041 C 
HETATM   32  C20 UNL     1       6.064  -1.157 -35.815  1.00  0.00     0.005 C 
HETATM   33  C21 UNL     1       6.344  -2.466 -36.500  1.00  0.00     0.001 C 
HETATM   34  C22 UNL     1       6.353  -3.612 -35.544  1.00  0.00     0.016 C 
BRANCH  30  35
HETATM   35  C24 UNL     1       7.815  -5.161 -34.301  1.00  0.00     0.363 C 
HETATM   36  F1  UNL     1       8.230  -4.779 -33.061  1.00  0.00    -0.214 F 
HETATM   37  F2  UNL     1       6.550  -5.750 -34.289  1.00  0.00    -0.214 F 
ENDBRANCH  30  35
ENDBRANCH   4  24
TORSDOF 8
ENDMDL
MODEL 5
REMARK VINA RESULT: -7.345302884      2.788      3.501
REMARK  8 active torsions:
REMARK  status: ('A' for Active; 'I' for Inactive)
REMARK    1  A    between atoms: C2_2  and  O1_5 
REMARK    2  A    between atoms: O1_5  and  C5_6 
REMARK       I    between atoms: C5_6  and  N1_8 
REMARK    3  A    between atoms: N1_8  and  C6_10 
REMARK    4  A    between atoms: C9_13  and  C10_14 
REMARK    5  A    between atoms: C10_14  and  C11_15 
REMARK    6  A    between atoms: C11_15  and  N2_16 
REMARK    7  A    between atoms: C14_19  and  C15_20 
REMARK    8  A    between atoms: C23_30  and  C24_31 
ROOT
HETATM    1  N2  UNL     1       6.242   2.757 -30.528  1.00  0.00     0.088 N 
HETATM    2  C12 UNL     1       6.468   1.325 -30.245  1.00  0.00     0.273 C 
HETATM    3  C13 UNL     1       6.012   1.073 -28.805  1.00  0.00     0.039 C 
HETATM    4  C14 UNL     1       7.083   1.721 -27.940  1.00  0.00     0.024 C 
HETATM    5  C25 UNL     1       7.025   3.205 -28.313  1.00  0.00     0.039 C 
HETATM    6  C26 UNL     1       7.318   3.419 -29.769  1.00  0.00     0.273 C 
ENDROOT
BRANCH   1   7
HETATM    7  C11 UNL     1       6.407   2.996 -31.953  1.00  0.00     0.272 C 
BRANCH   7   8
HETATM    8  C10 UNL     1       7.850   3.109 -32.290  1.00  0.00     0.034 C 
BRANCH   8   9
HETATM    9  C9  UNL     1       8.339   1.961 -33.162  1.00  0.00    -0.013 C 
HETATM   10  C8  UNL     1       7.144   1.247 -33.696  1.00  0.00     0.007 C 
HETATM   11  C7  UNL     1       7.361  -0.240 -33.849  1.00  0.00     0.026 C 
HETATM   12  C6  UNL     1       8.783  -0.558 -34.265  1.00  0.00     0.086 C 
HETATM   13  C28 UNL     1       9.749  -0.102 -33.222  1.00  0.00     0.026 C 
HETATM   14  C27 UNL     1       9.292   1.072 -32.414  1.00  0.00     0.007 C 
BRANCH  12  15
HETATM   15  N1  UNL     1       8.883  -2.003 -34.364  1.00  0.00    -0.332 N 
HETATM   16  C5  UNL     1       8.648  -2.677 -35.586  1.00  0.00     0.361 C 
HETATM   17  O2  UNL     1       8.344  -2.004 -36.598  1.00  0.00    -0.238 OA
ATOM     18  H1  UNL     1       9.129  -2.543 -33.535  1.00  0.00     0.165 HD
BRANCH  16  19
HETATM   19  O1  UNL     1       8.757  -4.059 -35.640  1.00  0.00    -0.294 OA
BRANCH  19  20
HETATM   20  C2  UNL     1       7.707  -4.914 -35.253  1.00  0.00     0.061 C 
HETATM   21  C1  UNL     1       7.975  -5.377 -33.826  1.00  0.00     0.046 C 
HETATM   22  C3  UNL     1       6.376  -4.193 -35.208  1.00  0.00     0.046 C 
HETATM   23  C4  UNL     1       7.559  -6.114 -36.154  1.00  0.00     0.046 C 
ENDBRANCH  19  20
ENDBRANCH  16  19
ENDBRANCH  12  15
ENDBRANCH   8   9
ENDBRANCH   7   8
ENDBRANCH   1   7
BRANCH   4  24
HETATM   24  C15 UNL     1       6.748   1.630 -26.498  1.00  0.00    -0.030 A 
HETATM   25  C16 UNL     1       5.537   1.288 -25.898  1.00  0.00     0.096 A 
HETATM   26  N3  UNL     1       5.675   1.343 -24.564  1.00  0.00    -0.368 N 
HETATM   27  C17 UNL     1       6.929   1.707 -24.243  1.00  0.00     0.025 A 
ATOM     28  H3  UNL     1       4.936   1.139 -23.891  1.00  0.00     0.165 HD
HETATM   29  C18 UNL     1       7.607   1.889 -25.448  1.00  0.00    -0.027 A 
HETATM   30  C23 UNL     1       7.413   1.858 -22.839  1.00  0.00     0.101 C 
HETATM   31  C19 UNL     1       9.009   2.274 -25.620  1.00  0.00     0.041 C 
HETATM   32  C20 UNL     1       9.373   3.592 -24.996  1.00  0.00     0.005 C 
HETATM   33  C21 UNL     1       8.806   3.723 -23.609  1.00  0.00     0.001 C 
HETATM   34  C22 UNL     1       8.816   2.426 -22.871  1.00  0.00     0.016 C 
BRANCH  30  35
HETATM   35  C24 UNL     1       7.409   0.544 -22.125  1.00  0.00     0.363 C 
HETATM   36  F1  UNL     1       7.847  -0.484 -22.905  1.00  0.00    -0.214 F 
HETATM   37  F2  UNL     1       8.154   0.690 -20.956  1.00  0.00    -0.214 F 
ENDBRANCH  30  35
ENDBRANCH   4  24
TORSDOF 8
ENDMDL
