MODEL 1
REMARK VINA RESULT: -7.828197813      0.000      0.000
REMARK  16 active torsions:
REMARK  status: ('A' for Active; 'I' for Inactive)
REMARK    1  A    between atoms: C2_2  and  C3_3 
REMARK    2  A    between atoms: C3_3  and  C4_4 
REMARK    3  A    between atoms: C4_4  and  C5_5 
REMARK    4  A    between atoms: C5_5  and  C6_6 
REMARK    5  A    between atoms: C6_6  and  C7_7 
REMARK    6  A    between atoms: C7_7  and  C8_8 
REMARK    7  A    between atoms: C8_8  and  O1_9 
REMARK    8  A    between atoms: O1_9  and  C9_10 
REMARK    9  A    between atoms: C22_25  and  C23_26 
REMARK   10  A    between atoms: C23_26  and  C24_27 
REMARK   11  A    between atoms: C24_27  and  N2_28 
REMARK   12  A    between atoms: C24_27  and  C29_36 
REMARK       I    between atoms: N2_28  and  C25_30 
REMARK   13  A    between atoms: C25_30  and  C26_32 
REMARK   14  A    between atoms: C26_32  and  N3_33 
REMARK   15  A    between atoms: C29_36  and  O5_38 
REMARK   16  A    between atoms: O5_38  and  C30_39 
ROOT
HETATM    1  C9  UNL     1      11.175  18.953  11.942  1.00  0.00     0.129 C 
HETATM    2  C10 UNL     1      11.651  17.570  11.406  1.00  0.00     0.032 C 
HETATM    3  C11 UNL     1      10.849  17.129  10.245  1.00  0.00     0.004 C 
HETATM    4  C12 UNL     1      10.107  15.840  10.415  1.00  0.00     0.020 C 
HETATM    5  C13 UNL     1      10.812  14.785  11.190  1.00  0.00     0.125 C 
HETATM    6  N1  UNL     1      10.250  13.459  11.002  1.00  0.00    -0.356 N 
HETATM    7  C14 UNL     1      10.394  12.885   9.671  1.00  0.00     0.152 C 
HETATM    8  C15 UNL     1       9.589  12.717  12.017  1.00  0.00     0.219 C 
HETATM    9  O2  UNL     1       9.822  11.471  12.073  1.00  0.00    -0.273 OA
HETATM   10  C16 UNL     1       8.652  13.264  13.015  1.00  0.00     0.103 C 
HETATM   11  C17 UNL     1       9.287  13.833  14.225  1.00  0.00     0.009 C 
HETATM   12  C18 UNL     1       8.454  13.608  15.493  1.00  0.00     0.000 C 
HETATM   13  C19 UNL     1       9.125  14.230  16.690  1.00  0.00     0.000 C 
HETATM   14  C20 UNL     1       8.829  15.697  16.672  1.00  0.00     0.001 C 
HETATM   15  C21 UNL     1       9.486  16.487  17.755  1.00  0.00     0.014 C 
HETATM   16  C22 UNL     1       9.783  17.860  17.153  1.00  0.00     0.080 C 
HETATM   17  C32 UNL     1      10.851  17.723  16.100  1.00  0.00     0.223 C 
HETATM   18  O6  UNL     1      11.575  16.695  16.186  1.00  0.00    -0.273 OA
HETATM   19  N4  UNL     1      11.088  18.629  15.066  1.00  0.00    -0.334 N 
ATOM     20  H4  UNL     1      12.063  18.867  14.888  1.00  0.00     0.165 HD
HETATM   21  C33 UNL     1      10.111  19.263  14.225  1.00  0.00     0.229 C 
HETATM   22  O7  UNL     1      10.269  20.599  14.080  1.00  0.00    -0.366 OA
HETATM   23  C34 UNL     1       9.181  21.284  13.587  1.00  0.00     0.170 C 
HETATM   24  C35 UNL     1       8.502  20.634  12.423  1.00  0.00     0.027 C 
HETATM   25  C36 UNL     1       8.680  19.159  12.338  1.00  0.00     0.013 C 
HETATM   26  C37 UNL     1      10.006  18.648  12.853  1.00  0.00     0.063 C 
ENDROOT
BRANCH  16  27
HETATM   27  C23 UNL     1      10.184  18.873  18.180  1.00  0.00     0.049 C 
BRANCH  27  28
HETATM   28  C24 UNL     1      11.630  18.752  18.541  1.00  0.00     0.185 C 
BRANCH  28  29
HETATM   29  N2  UNL     1      12.324  20.015  18.189  1.00  0.00    -0.346 N 
HETATM   30  C25 UNL     1      13.523  19.986  17.474  1.00  0.00     0.246 C 
HETATM   31  O3  UNL     1      14.020  18.893  17.125  1.00  0.00    -0.272 OA
ATOM     32  H2  UNL     1      11.923  20.909  18.470  1.00  0.00     0.163 HD
BRANCH  30  33
HETATM   33  C26 UNL     1      14.202  21.255  17.131  1.00  0.00     0.373 C 
BRANCH  33  34
HETATM   34  N3  UNL     1      14.780  21.904  18.291  1.00  0.00     0.088 N 
HETATM   35  C27 UNL     1      14.577  23.344  18.107  1.00  0.00     0.310 C 
HETATM   36  C28 UNL     1      16.213  21.607  18.372  1.00  0.00     0.310 C 
ENDBRANCH  33  34
ENDBRANCH  30  33
ENDBRANCH  28  29
BRANCH  28  37
HETATM   37  C29 UNL     1      11.917  18.404  19.945  1.00  0.00     0.281 C 
HETATM   38  O4  UNL     1      10.914  18.439  20.750  1.00  0.00    -0.263 OA
BRANCH  37  39
HETATM   39  O5  UNL     1      13.104  18.053  20.501  1.00  0.00    -0.320 OA
BRANCH  39  40
HETATM   40  C30 UNL     1      13.704  18.645  21.629  1.00  0.00     0.174 C 
HETATM   41  C31 UNL     1      14.479  19.845  21.134  1.00  0.00     0.034 C 
ENDBRANCH  39  40
ENDBRANCH  37  39
ENDBRANCH  28  37
ENDBRANCH  27  28
ENDBRANCH  16  27
BRANCH   1  42
HETATM   42  O1  UNL     1      12.150  19.618  12.538  1.00  0.00    -0.385 OA
BRANCH  42  43
HETATM   43  C8  UNL     1      13.434  19.385  12.627  1.00  0.00     0.168 C 
BRANCH  43  44
HETATM   44  C7  UNL     1      14.348  20.132  13.546  1.00  0.00     0.026 C 
BRANCH  44  45
HETATM   45  C6  UNL     1      15.166  21.225  13.007  1.00  0.00     0.002 C 
BRANCH  45  46
HETATM   46  C5  UNL     1      15.233  22.353  14.054  1.00  0.00     0.000 C 
BRANCH  46  47
HETATM   47  C4  UNL     1      16.577  22.489  14.693  1.00  0.00     0.000 C 
BRANCH  47  48
HETATM   48  C3  UNL     1      16.687  23.892  15.296  1.00  0.00    -0.000 C 
BRANCH  48  49
HETATM   49  C2  UNL     1      18.119  24.376  15.302  1.00  0.00    -0.005 C 
HETATM   50  C1  UNL     1      18.252  25.711  14.609  1.00  0.00     0.005 C 
ENDBRANCH  48  49
ENDBRANCH  47  48
ENDBRANCH  46  47
ENDBRANCH  45  46
ENDBRANCH  44  45
ENDBRANCH  43  44
ENDBRANCH  42  43
ENDBRANCH   1  42
TORSDOF 16
ENDMDL
MODEL 2
REMARK VINA RESULT: -7.136556023      9.380     15.772
REMARK  16 active torsions:
REMARK  status: ('A' for Active; 'I' for Inactive)
REMARK    1  A    between atoms: C2_2  and  C3_3 
REMARK    2  A    between atoms: C3_3  and  C4_4 
REMARK    3  A    between atoms: C4_4  and  C5_5 
REMARK    4  A    between atoms: C5_5  and  C6_6 
REMARK    5  A    between atoms: C6_6  and  C7_7 
REMARK    6  A    between atoms: C7_7  and  C8_8 
REMARK    7  A    between atoms: C8_8  and  O1_9 
REMARK    8  A    between atoms: O1_9  and  C9_10 
REMARK    9  A    between atoms: C22_25  and  C23_26 
REMARK   10  A    between atoms: C23_26  and  C24_27 
REMARK   11  A    between atoms: C24_27  and  N2_28 
REMARK   12  A    between atoms: C24_27  and  C29_36 
REMARK       I    between atoms: N2_28  and  C25_30 
REMARK   13  A    between atoms: C25_30  and  C26_32 
REMARK   14  A    between atoms: C26_32  and  N3_33 
REMARK   15  A    between atoms: C29_36  and  O5_38 
REMARK   16  A    between atoms: O5_38  and  C30_39 
ROOT
HETATM    1  C9  UNL     1      21.501  25.942  21.108  1.00  0.00     0.129 C 
HETATM    2  C10 UNL     1      20.026  25.500  20.867  1.00  0.00     0.032 C 
HETATM    3  C11 UNL     1      19.839  24.059  21.134  1.00  0.00     0.004 C 
HETATM    4  C12 UNL     1      19.367  23.234  19.977  1.00  0.00     0.020 C 
HETATM    5  C13 UNL     1      18.382  23.890  19.076  1.00  0.00     0.125 C 
HETATM    6  N1  UNL     1      17.671  22.954  18.222  1.00  0.00    -0.356 N 
HETATM    7  C14 UNL     1      16.770  22.029  18.895  1.00  0.00     0.152 C 
HETATM    8  C15 UNL     1      17.806  22.896  16.808  1.00  0.00     0.219 C 
HETATM    9  O2  UNL     1      16.752  22.702  16.130  1.00  0.00    -0.273 OA
HETATM   10  C16 UNL     1      19.064  23.042  16.055  1.00  0.00     0.103 C 
HETATM   11  C17 UNL     1      19.462  24.438  15.763  1.00  0.00     0.009 C 
HETATM   12  C18 UNL     1      20.160  24.584  14.404  1.00  0.00     0.000 C 
HETATM   13  C19 UNL     1      20.571  26.012  14.166  1.00  0.00     0.000 C 
HETATM   14  C20 UNL     1      21.840  26.258  14.922  1.00  0.00     0.001 C 
HETATM   15  C21 UNL     1      22.353  27.658  14.858  1.00  0.00     0.014 C 
HETATM   16  C22 UNL     1      23.028  27.921  16.205  1.00  0.00     0.080 C 
HETATM   17  C32 UNL     1      21.982  27.962  17.288  1.00  0.00     0.223 C 
HETATM   18  O6  UNL     1      20.805  28.202  16.903  1.00  0.00    -0.273 OA
HETATM   19  N4  UNL     1      22.217  27.760  18.647  1.00  0.00    -0.334 N 
ATOM     20  H4  UNL     1      21.761  28.411  19.287  1.00  0.00     0.165 HD
HETATM   21  C33 UNL     1      23.031  26.739  19.247  1.00  0.00     0.229 C 
HETATM   22  O7  UNL     1      23.893  27.181  20.190  1.00  0.00    -0.366 OA
HETATM   23  C34 UNL     1      24.912  26.318  20.527  1.00  0.00     0.170 C 
HETATM   24  C35 UNL     1      24.494  24.895  20.722  1.00  0.00     0.027 C 
HETATM   25  C36 UNL     1      23.259  24.500  19.991  1.00  0.00     0.013 C 
HETATM   26  C37 UNL     1      22.235  25.599  19.830  1.00  0.00     0.063 C 
ENDROOT
BRANCH  16  27
HETATM   27  C23 UNL     1      23.844  29.176  16.213  1.00  0.00     0.049 C 
BRANCH  27  28
HETATM   28  C24 UNL     1      25.310  28.883  16.147  1.00  0.00     0.185 C 
BRANCH  28  29
HETATM   29  N2  UNL     1      26.065  30.141  16.359  1.00  0.00    -0.346 N 
HETATM   30  C25 UNL     1      27.254  30.377  15.666  1.00  0.00     0.246 C 
HETATM   31  O3  UNL     1      27.690  29.525  14.860  1.00  0.00    -0.272 OA
ATOM     32  H2  UNL     1      25.713  30.839  17.014  1.00  0.00     0.163 HD
BRANCH  30  33
HETATM   33  C26 UNL     1      27.994  31.638  15.888  1.00  0.00     0.373 C 
BRANCH  33  34
HETATM   34  N3  UNL     1      27.124  32.727  16.286  1.00  0.00     0.088 N 
HETATM   35  C27 UNL     1      26.795  33.465  15.064  1.00  0.00     0.310 C 
HETATM   36  C28 UNL     1      27.818  33.606  17.231  1.00  0.00     0.310 C 
ENDBRANCH  33  34
ENDBRANCH  30  33
ENDBRANCH  28  29
BRANCH  28  37
HETATM   37  C29 UNL     1      25.801  27.848  17.074  1.00  0.00     0.281 C 
HETATM   38  O4  UNL     1      26.298  28.273  18.182  1.00  0.00    -0.263 OA
BRANCH  37  39
HETATM   39  O5  UNL     1      25.800  26.500  16.911  1.00  0.00    -0.320 OA
BRANCH  39  40
HETATM   40  C30 UNL     1      26.903  25.640  17.073  1.00  0.00     0.174 C 
HETATM   41  C31 UNL     1      26.396  24.405  17.784  1.00  0.00     0.034 C 
ENDBRANCH  39  40
ENDBRANCH  37  39
ENDBRANCH  28  37
ENDBRANCH  27  28
ENDBRANCH  16  27
BRANCH   1  42
HETATM   42  O1  UNL     1      21.589  27.218  21.442  1.00  0.00    -0.385 OA
BRANCH  42  43
HETATM   43  C8  UNL     1      21.155  27.877  22.486  1.00  0.00     0.168 C 
BRANCH  43  44
HETATM   44  C7  UNL     1      21.441  27.469  23.897  1.00  0.00     0.026 C 
BRANCH  44  45
HETATM   45  C6  UNL     1      22.822  27.156  24.284  1.00  0.00     0.002 C 
BRANCH  45  46
HETATM   46  C5  UNL     1      23.084  27.737  25.687  1.00  0.00     0.000 C 
BRANCH  46  47
HETATM   47  C4  UNL     1      24.311  27.185  26.336  1.00  0.00     0.000 C 
BRANCH  47  48
HETATM   48  C3  UNL     1      24.969  26.197  25.369  1.00  0.00    -0.000 C 
BRANCH  48  49
HETATM   49  C2  UNL     1      25.661  25.077  26.113  1.00  0.00    -0.005 C 
HETATM   50  C1  UNL     1      24.855  24.630  27.308  1.00  0.00     0.005 C 
ENDBRANCH  48  49
ENDBRANCH  47  48
ENDBRANCH  46  47
ENDBRANCH  45  46
ENDBRANCH  44  45
ENDBRANCH  43  44
ENDBRANCH  42  43
ENDBRANCH   1  42
TORSDOF 16
ENDMDL
MODEL 3
REMARK VINA RESULT: -7.129216931      2.256      8.349
REMARK  16 active torsions:
REMARK  status: ('A' for Active; 'I' for Inactive)
REMARK    1  A    between atoms: C2_2  and  C3_3 
REMARK    2  A    between atoms: C3_3  and  C4_4 
REMARK    3  A    between atoms: C4_4  and  C5_5 
REMARK    4  A    between atoms: C5_5  and  C6_6 
REMARK    5  A    between atoms: C6_6  and  C7_7 
REMARK    6  A    between atoms: C7_7  and  C8_8 
REMARK    7  A    between atoms: C8_8  and  O1_9 
REMARK    8  A    between atoms: O1_9  and  C9_10 
REMARK    9  A    between atoms: C22_25  and  C23_26 
REMARK   10  A    between atoms: C23_26  and  C24_27 
REMARK   11  A    between atoms: C24_27  and  N2_28 
REMARK   12  A    between atoms: C24_27  and  C29_36 
REMARK       I    between atoms: N2_28  and  C25_30 
REMARK   13  A    between atoms: C25_30  and  C26_32 
REMARK   14  A    between atoms: C26_32  and  N3_33 
REMARK   15  A    between atoms: C29_36  and  O5_38 
REMARK   16  A    between atoms: O5_38  and  C30_39 
ROOT
HETATM    1  C9  UNL     1      11.484  21.195  13.943  1.00  0.00     0.129 C 
HETATM    2  C10 UNL     1      12.170  22.306  14.795  1.00  0.00     0.032 C 
HETATM    3  C11 UNL     1      13.527  22.613  14.298  1.00  0.00     0.004 C 
HETATM    4  C12 UNL     1      14.646  22.385  15.267  1.00  0.00     0.020 C 
HETATM    5  C13 UNL     1      14.350  22.722  16.685  1.00  0.00     0.125 C 
HETATM    6  N1  UNL     1      15.542  22.861  17.504  1.00  0.00    -0.356 N 
HETATM    7  C14 UNL     1      16.410  23.986  17.188  1.00  0.00     0.152 C 
HETATM    8  C15 UNL     1      15.893  21.982  18.564  1.00  0.00     0.219 C 
HETATM    9  O2  UNL     1      16.378  22.501  19.614  1.00  0.00    -0.273 OA
HETATM   10  C16 UNL     1      15.745  20.515  18.554  1.00  0.00     0.103 C 
HETATM   11  C17 UNL     1      14.408  20.017  18.948  1.00  0.00     0.009 C 
HETATM   12  C18 UNL     1      14.473  18.694  19.722  1.00  0.00     0.000 C 
HETATM   13  C19 UNL     1      13.090  18.214  20.074  1.00  0.00     0.000 C 
HETATM   14  C20 UNL     1      12.508  17.557  18.861  1.00  0.00     0.001 C 
HETATM   15  C21 UNL     1      11.100  17.085  19.011  1.00  0.00     0.014 C 
HETATM   16  C22 UNL     1      10.453  17.247  17.636  1.00  0.00     0.080 C 
HETATM   17  C32 UNL     1      10.318  18.713  17.317  1.00  0.00     0.223 C 
HETATM   18  O6  UNL     1      10.335  19.492  18.308  1.00  0.00    -0.273 OA
HETATM   19  N4  UNL     1      10.177  19.253  16.039  1.00  0.00    -0.334 N 
ATOM     20  H4  UNL     1       9.471  19.980  15.929  1.00  0.00     0.165 HD
HETATM   21  C33 UNL     1      10.917  18.898  14.859  1.00  0.00     0.229 C 
HETATM   22  O7  UNL     1      10.160  18.683  13.758  1.00  0.00    -0.366 OA
HETATM   23  C34 UNL     1      10.776  18.012  12.725  1.00  0.00     0.170 C 
HETATM   24  C35 UNL     1      12.164  18.475  12.414  1.00  0.00     0.027 C 
HETATM   25  C36 UNL     1      12.880  19.118  13.549  1.00  0.00     0.013 C 
HETATM   26  C37 UNL     1      11.997  19.887  14.504  1.00  0.00     0.063 C 
ENDROOT
BRANCH  16  27
HETATM   27  C23 UNL     1       9.127  16.561  17.531  1.00  0.00     0.049 C 
BRANCH  27  28
HETATM   28  C24 UNL     1       9.129  15.512  16.464  1.00  0.00     0.185 C 
BRANCH  28  29
HETATM   29  N2  UNL     1       8.805  16.143  15.163  1.00  0.00    -0.346 N 
HETATM   30  C25 UNL     1       7.956  15.503  14.258  1.00  0.00     0.246 C 
HETATM   31  O3  UNL     1       7.462  14.389  14.542  1.00  0.00    -0.272 OA
ATOM     32  H2  UNL     1       9.204  17.052  14.927  1.00  0.00     0.163 HD
BRANCH  30  33
HETATM   33  C26 UNL     1       7.642  16.147  12.965  1.00  0.00     0.373 C 
BRANCH  33  34
HETATM   34  N3  UNL     1       7.585  15.196  11.873  1.00  0.00     0.088 N 
HETATM   35  C27 UNL     1       8.519  15.677  10.851  1.00  0.00     0.310 C 
HETATM   36  C28 UNL     1       6.227  15.141  11.323  1.00  0.00     0.310 C 
ENDBRANCH  33  34
ENDBRANCH  30  33
ENDBRANCH  28  29
BRANCH  28  37
HETATM   37  C29 UNL     1      10.370  14.725  16.338  1.00  0.00     0.281 C 
HETATM   38  O4  UNL     1      10.680  13.996  17.351  1.00  0.00    -0.263 OA
BRANCH  37  39
HETATM   39  O5  UNL     1      11.232  14.672  15.291  1.00  0.00    -0.320 OA
BRANCH  39  40
HETATM   40  C30 UNL     1      11.145  13.809  14.183  1.00  0.00     0.174 C 
HETATM   41  C31 UNL     1      11.517  14.622  12.963  1.00  0.00     0.034 C 
ENDBRANCH  39  40
ENDBRANCH  37  39
ENDBRANCH  28  37
ENDBRANCH  27  28
ENDBRANCH  16  27
BRANCH   1  42
HETATM   42  O1  UNL     1      10.166  21.297  13.961  1.00  0.00    -0.385 OA
BRANCH  42  43
HETATM   43  C8  UNL     1       9.313  21.720  13.063  1.00  0.00     0.168 C 
BRANCH  43  44
HETATM   44  C7  UNL     1       7.960  22.262  13.400  1.00  0.00     0.026 C 
BRANCH  44  45
HETATM   45  C6  UNL     1       7.231  23.039  12.390  1.00  0.00     0.002 C 
BRANCH  45  46
HETATM   46  C5  UNL     1       6.444  22.066  11.492  1.00  0.00     0.000 C 
BRANCH  46  47
HETATM   47  C4  UNL     1       6.421  22.473  10.055  1.00  0.00     0.000 C 
BRANCH  47  48
HETATM   48  C3  UNL     1       7.192  21.428   9.243  1.00  0.00    -0.000 C 
BRANCH  48  49
HETATM   49  C2  UNL     1       7.496  20.201  10.072  1.00  0.00    -0.005 C 
HETATM   50  C1  UNL     1       8.925  19.752   9.887  1.00  0.00     0.005 C 
ENDBRANCH  48  49
ENDBRANCH  47  48
ENDBRANCH  46  47
ENDBRANCH  45  46
ENDBRANCH  44  45
ENDBRANCH  43  44
ENDBRANCH  42  43
ENDBRANCH   1  42
TORSDOF 16
ENDMDL
MODEL 4
REMARK VINA RESULT: -7.037157836      3.056      4.566
REMARK  16 active torsions:
REMARK  status: ('A' for Active; 'I' for Inactive)
REMARK    1  A    between atoms: C2_2  and  C3_3 
REMARK    2  A    between atoms: C3_3  and  C4_4 
REMARK    3  A    between atoms: C4_4  and  C5_5 
REMARK    4  A    between atoms: C5_5  and  C6_6 
REMARK    5  A    between atoms: C6_6  and  C7_7 
REMARK    6  A    between atoms: C7_7  and  C8_8 
REMARK    7  A    between atoms: C8_8  and  O1_9 
REMARK    8  A    between atoms: O1_9  and  C9_10 
REMARK    9  A    between atoms: C22_25  and  C23_26 
REMARK   10  A    between atoms: C23_26  and  C24_27 
REMARK   11  A    between atoms: C24_27  and  N2_28 
REMARK   12  A    between atoms: C24_27  and  C29_36 
REMARK       I    between atoms: N2_28  and  C25_30 
REMARK   13  A    between atoms: C25_30  and  C26_32 
REMARK   14  A    between atoms: C26_32  and  N3_33 
REMARK   15  A    between atoms: C29_36  and  O5_38 
REMARK   16  A    between atoms: O5_38  and  C30_39 
ROOT
HETATM    1  C9  UNL     1      10.481  16.837  11.297  1.00  0.00     0.129 C 
HETATM    2  C10 UNL     1       9.691  15.554  10.898  1.00  0.00     0.032 C 
HETATM    3  C11 UNL     1       8.435  15.884  10.193  1.00  0.00     0.004 C 
HETATM    4  C12 UNL     1       7.174  15.412  10.848  1.00  0.00     0.020 C 
HETATM    5  C13 UNL     1       7.250  14.083  11.512  1.00  0.00     0.125 C 
HETATM    6  N1  UNL     1       5.947  13.500  11.783  1.00  0.00    -0.356 N 
HETATM    7  C14 UNL     1       5.162  13.117  10.618  1.00  0.00     0.152 C 
HETATM    8  C15 UNL     1       5.417  13.290  13.085  1.00  0.00     0.219 C 
HETATM    9  O2  UNL     1       4.783  12.211  13.288  1.00  0.00    -0.273 OA
HETATM   10  C16 UNL     1       5.536  14.217  14.225  1.00  0.00     0.103 C 
HETATM   11  C17 UNL     1       6.785  14.088  15.009  1.00  0.00     0.009 C 
HETATM   12  C18 UNL     1       6.574  14.349  16.507  1.00  0.00     0.000 C 
HETATM   13  C19 UNL     1       7.875  14.236  17.256  1.00  0.00     0.000 C 
HETATM   14  C20 UNL     1       8.627  15.517  17.068  1.00  0.00     0.001 C 
HETATM   15  C21 UNL     1       9.985  15.550  17.687  1.00  0.00     0.014 C 
HETATM   16  C22 UNL     1      10.843  16.426  16.774  1.00  0.00     0.080 C 
HETATM   17  C32 UNL     1      11.055  15.720  15.460  1.00  0.00     0.223 C 
HETATM   18  O6  UNL     1      10.897  14.469  15.480  1.00  0.00    -0.273 OA
HETATM   19  N4  UNL     1      11.404  16.335  14.258  1.00  0.00    -0.334 N 
ATOM     20  H4  UNL     1      12.133  15.878  13.711  1.00  0.00     0.165 HD
HETATM   21  C33 UNL     1      10.853  17.541  13.706  1.00  0.00     0.229 C 
HETATM   22  O7  UNL     1      11.768  18.436  13.269  1.00  0.00    -0.366 OA
HETATM   23  C34 UNL     1      11.309  19.718  13.066  1.00  0.00     0.170 C 
HETATM   24  C35 UNL     1       9.996  19.812  12.355  1.00  0.00     0.027 C 
HETATM   25  C36 UNL     1       9.124  18.613  12.490  1.00  0.00     0.013 C 
HETATM   26  C37 UNL     1       9.861  17.299  12.598  1.00  0.00     0.063 C 
ENDROOT
BRANCH  16  27
HETATM   27  C23 UNL     1      12.155  16.799  17.388  1.00  0.00     0.049 C 
BRANCH  27  28
HETATM   28  C24 UNL     1      12.272  18.277  17.588  1.00  0.00     0.185 C 
BRANCH  28  29
HETATM   29  N2  UNL     1      12.725  18.903  16.322  1.00  0.00    -0.346 N 
HETATM   30  C25 UNL     1      13.866  19.706  16.299  1.00  0.00     0.246 C 
HETATM   31  O3  UNL     1      14.516  19.904  17.349  1.00  0.00    -0.272 OA
ATOM     32  H2  UNL     1      12.199  18.744  15.462  1.00  0.00     0.163 HD
BRANCH  30  33
HETATM   33  C26 UNL     1      14.303  20.322  15.027  1.00  0.00     0.373 C 
BRANCH  33  34
HETATM   34  N3  UNL     1      14.675  21.714  15.186  1.00  0.00     0.088 N 
HETATM   35  C27 UNL     1      13.498  22.504  14.812  1.00  0.00     0.310 C 
HETATM   36  C28 UNL     1      15.798  22.040  14.302  1.00  0.00     0.310 C 
ENDBRANCH  33  34
ENDBRANCH  30  33
ENDBRANCH  28  29
BRANCH  28  37
HETATM   37  C29 UNL     1      11.058  18.960  18.071  1.00  0.00     0.281 C 
HETATM   38  O4  UNL     1      10.675  18.652  19.260  1.00  0.00    -0.263 OA
BRANCH  37  39
HETATM   39  O5  UNL     1      10.288  19.871  17.423  1.00  0.00    -0.320 OA
BRANCH  39  40
HETATM   40  C30 UNL     1       9.310  19.593  16.449  1.00  0.00     0.174 C 
HETATM   41  C31 UNL     1       8.964  20.910  15.788  1.00  0.00     0.034 C 
ENDBRANCH  39  40
ENDBRANCH  37  39
ENDBRANCH  28  37
ENDBRANCH  27  28
ENDBRANCH  16  27
BRANCH   1  42
HETATM   42  O1  UNL     1      11.781  16.615  11.381  1.00  0.00    -0.385 OA
BRANCH  42  43
HETATM   43  C8  UNL     1      12.531  15.647  10.918  1.00  0.00     0.168 C 
BRANCH  43  44
HETATM   44  C7  UNL     1      14.007  15.567  11.142  1.00  0.00     0.026 C 
BRANCH  44  45
HETATM   45  C6  UNL     1      14.877  15.154  10.034  1.00  0.00     0.002 C 
BRANCH  45  46
HETATM   46  C5  UNL     1      16.291  14.895  10.586  1.00  0.00     0.000 C 
BRANCH  46  47
HETATM   47  C4  UNL     1      17.344  14.867   9.528  1.00  0.00     0.000 C 
BRANCH  47  48
HETATM   48  C3  UNL     1      18.006  16.246   9.464  1.00  0.00    -0.000 C 
BRANCH  48  49
HETATM   49  C2  UNL     1      18.208  16.694   8.035  1.00  0.00    -0.005 C 
HETATM   50  C1  UNL     1      16.892  16.805   7.302  1.00  0.00     0.005 C 
ENDBRANCH  48  49
ENDBRANCH  47  48
ENDBRANCH  46  47
ENDBRANCH  45  46
ENDBRANCH  44  45
ENDBRANCH  43  44
ENDBRANCH  42  43
ENDBRANCH   1  42
TORSDOF 16
ENDMDL
MODEL 5
REMARK VINA RESULT: -6.957509978      2.655      8.513
REMARK  16 active torsions:
REMARK  status: ('A' for Active; 'I' for Inactive)
REMARK    1  A    between atoms: C2_2  and  C3_3 
REMARK    2  A    between atoms: C3_3  and  C4_4 
REMARK    3  A    between atoms: C4_4  and  C5_5 
REMARK    4  A    between atoms: C5_5  and  C6_6 
REMARK    5  A    between atoms: C6_6  and  C7_7 
REMARK    6  A    between atoms: C7_7  and  C8_8 
REMARK    7  A    between atoms: C8_8  and  O1_9 
REMARK    8  A    between atoms: O1_9  and  C9_10 
REMARK    9  A    between atoms: C22_25  and  C23_26 
REMARK   10  A    between atoms: C23_26  and  C24_27 
REMARK   11  A    between atoms: C24_27  and  N2_28 
REMARK   12  A    between atoms: C24_27  and  C29_36 
REMARK       I    between atoms: N2_28  and  C25_30 
REMARK   13  A    between atoms: C25_30  and  C26_32 
REMARK   14  A    between atoms: C26_32  and  N3_33 
REMARK   15  A    between atoms: C29_36  and  O5_38 
REMARK   16  A    between atoms: O5_38  and  C30_39 
ROOT
HETATM    1  C9  UNL     1      11.493  21.136  13.899  1.00  0.00     0.129 C 
HETATM    2  C10 UNL     1      12.211  22.282  14.675  1.00  0.00     0.032 C 
HETATM    3  C11 UNL     1      13.556  22.551  14.129  1.00  0.00     0.004 C 
HETATM    4  C12 UNL     1      14.698  22.362  15.079  1.00  0.00     0.020 C 
HETATM    5  C13 UNL     1      14.443  22.774  16.485  1.00  0.00     0.125 C 
HETATM    6  N1  UNL     1      15.657  22.943  17.265  1.00  0.00    -0.356 N 
HETATM    7  C14 UNL     1      16.525  24.043  16.869  1.00  0.00     0.152 C 
HETATM    8  C15 UNL     1      16.028  22.117  18.360  1.00  0.00     0.219 C 
HETATM    9  O2  UNL     1      16.544  22.685  19.370  1.00  0.00    -0.273 OA
HETATM   10  C16 UNL     1      15.867  20.653  18.429  1.00  0.00     0.103 C 
HETATM   11  C17 UNL     1      14.537  20.189  18.883  1.00  0.00     0.009 C 
HETATM   12  C18 UNL     1      14.611  18.907  19.723  1.00  0.00     0.000 C 
HETATM   13  C19 UNL     1      13.233  18.459  20.134  1.00  0.00     0.000 C 
HETATM   14  C20 UNL     1      12.615  17.746  18.972  1.00  0.00     0.001 C 
HETATM   15  C21 UNL     1      11.207  17.296  19.182  1.00  0.00     0.014 C 
HETATM   16  C22 UNL     1      10.527  17.393  17.817  1.00  0.00     0.080 C 
HETATM   17  C32 UNL     1      10.395  18.841  17.426  1.00  0.00     0.223 C 
HETATM   18  O6  UNL     1      10.445  19.670  18.375  1.00  0.00    -0.273 OA
HETATM   19  N4  UNL     1      10.226  19.316  16.126  1.00  0.00    -0.334 N 
ATOM     20  H4  UNL     1       9.523  20.043  15.997  1.00  0.00     0.165 HD
HETATM   21  C33 UNL     1      10.932  18.894  14.947  1.00  0.00     0.229 C 
HETATM   22  O7  UNL     1      10.145  18.629  13.879  1.00  0.00    -0.366 OA
HETATM   23  C34 UNL     1      10.729  17.901  12.867  1.00  0.00     0.170 C 
HETATM   24  C35 UNL     1      12.112  18.333  12.496  1.00  0.00     0.027 C 
HETATM   25  C36 UNL     1      12.862  19.027  13.578  1.00  0.00     0.013 C 
HETATM   26  C37 UNL     1      12.010  19.853  14.515  1.00  0.00     0.063 C 
ENDROOT
BRANCH  16  27
HETATM   27  C23 UNL     1       9.192  16.715  17.781  1.00  0.00     0.049 C 
BRANCH  27  28
HETATM   28  C24 UNL     1       9.310  15.283  17.363  1.00  0.00     0.185 C 
BRANCH  28  29
HETATM   29  N2  UNL     1       7.985  14.802  16.903  1.00  0.00    -0.346 N 
HETATM   30  C25 UNL     1       7.109  14.184  17.797  1.00  0.00     0.246 C 
HETATM   31  O3  UNL     1       7.438  14.031  18.994  1.00  0.00    -0.272 OA
ATOM     32  H2  UNL     1       7.712  14.924  15.928  1.00  0.00     0.163 HD
BRANCH  30  33
HETATM   33  C26 UNL     1       5.791  13.710  17.322  1.00  0.00     0.373 C 
BRANCH  33  34
HETATM   34  N3  UNL     1       4.995  14.777  16.748  1.00  0.00     0.088 N 
HETATM   35  C27 UNL     1       4.009  15.155  17.765  1.00  0.00     0.310 C 
HETATM   36  C28 UNL     1       4.311  14.302  15.542  1.00  0.00     0.310 C 
ENDBRANCH  33  34
ENDBRANCH  30  33
ENDBRANCH  28  29
BRANCH  28  37
HETATM   37  C29 UNL     1      10.326  14.995  16.334  1.00  0.00     0.281 C 
HETATM   38  O4  UNL     1      11.393  14.407  16.745  1.00  0.00    -0.263 OA
BRANCH  37  39
HETATM   39  O5  UNL     1      10.284  15.273  15.006  1.00  0.00    -0.320 OA
BRANCH  39  40
HETATM   40  C30 UNL     1      10.162  14.336  13.962  1.00  0.00     0.174 C 
HETATM   41  C31 UNL     1      11.442  14.407  13.159  1.00  0.00     0.034 C 
ENDBRANCH  39  40
ENDBRANCH  37  39
ENDBRANCH  28  37
ENDBRANCH  27  28
ENDBRANCH  16  27
BRANCH   1  42
HETATM   42  O1  UNL     1      10.178  21.251  13.946  1.00  0.00    -0.385 OA
BRANCH  42  43
HETATM   43  C8  UNL     1       9.303  21.613  13.042  1.00  0.00     0.168 C 
BRANCH  43  44
HETATM   44  C7  UNL     1       8.006  22.282  13.370  1.00  0.00     0.026 C 
BRANCH  44  45
HETATM   45  C6  UNL     1       7.304  23.032  12.321  1.00  0.00     0.002 C 
BRANCH  45  46
HETATM   46  C5  UNL     1       6.480  22.043  11.475  1.00  0.00     0.000 C 
BRANCH  46  47
HETATM   47  C4  UNL     1       6.448  22.390  10.022  1.00  0.00     0.000 C 
BRANCH  47  48
HETATM   48  C3  UNL     1       7.317  21.385   9.263  1.00  0.00    -0.000 C 
BRANCH  48  49
HETATM   49  C2  UNL     1       7.530  20.123  10.068  1.00  0.00    -0.005 C 
HETATM   50  C1  UNL     1       8.964  19.656   9.992  1.00  0.00     0.005 C 
ENDBRANCH  48  49
ENDBRANCH  47  48
ENDBRANCH  46  47
ENDBRANCH  45  46
ENDBRANCH  44  45
ENDBRANCH  43  44
ENDBRANCH  42  43
ENDBRANCH   1  42
TORSDOF 16
ENDMDL
