MODEL 1
REMARK VINA RESULT: -8.637872667      0.000      0.000
REMARK  17 active torsions:
REMARK  status: ('A' for Active; 'I' for Inactive)
REMARK    1  A    between atoms: C2_2  and  C3_3 
REMARK    2  A    between atoms: C4_6  and  N2_7 
REMARK    3  A    between atoms: N2_7  and  C5_9 
REMARK    4  A    between atoms: C5_9  and  O1_10 
REMARK    5  A    between atoms: C5_9  and  C6_12 
REMARK    6  A    between atoms: C6_12  and  C7_13 
REMARK    7  A    between atoms: C6_12  and  N3_20 
REMARK    8  A    between atoms: C7_13  and  O2_14 
REMARK    9  A    between atoms: O2_14  and  C8_15 
REMARK       I    between atoms: N3_20  and  C13_22 
REMARK   10  A    between atoms: C13_22  and  C14_24 
REMARK   11  A    between atoms: C14_24  and  C15_25 
REMARK   12  A    between atoms: C15_25  and  N4_26 
REMARK   13  A    between atoms: N4_26  and  C16_27 
REMARK   14  A    between atoms: N4_26  and  C18_29 
REMARK       I    between atoms: N5_32  and  C21_33 
REMARK   15  A    between atoms: C21_33  and  C22_35 
REMARK       I    between atoms: C22_35  and  N6_37 
REMARK   16  A    between atoms: N7_40  and  C25_41 
REMARK   17  A    between atoms: C25_41  and  C26_42 
ROOT
HETATM    1  C3  UNL     1      18.137  24.975  16.134  1.00  0.00     0.091 A 
HETATM    2  N1  UNL     1      18.831  25.668  17.056  1.00  0.00    -0.330 N 
ATOM      3  H1  UNL     1      19.087  26.649  16.950  1.00  0.00     0.168 HD
HETATM    4  C4  UNL     1      19.146  24.934  18.121  1.00  0.00     0.124 A 
HETATM    5  C20 UNL     1      18.597  23.671  17.840  1.00  0.00     0.150 A 
HETATM    6  N5  UNL     1      18.011  23.715  16.671  1.00  0.00    -0.270 N 
HETATM    7  C21 UNL     1      17.285  22.692  15.988  1.00  0.00     0.321 C 
HETATM    8  O4  UNL     1      16.830  22.927  14.809  1.00  0.00    -0.261 OA
ENDROOT
BRANCH   4   9
HETATM    9  N2  UNL     1      19.865  25.207  19.294  1.00  0.00    -0.324 N 
ATOM     10  H2  UNL     1      19.331  25.370  20.148  1.00  0.00     0.169 HD
BRANCH   9  11
HETATM   11  C5  UNL     1      21.258  25.272  19.380  1.00  0.00     0.142 C 
BRANCH  11  12
HETATM   12  O1  UNL     1      21.931  24.148  19.343  1.00  0.00    -0.348 OA
ATOM     13  H1  UNL     1      21.954  23.667  18.525  1.00  0.00     0.219 HD
ENDBRANCH  11  12
BRANCH  11  14
HETATM   14  C6  UNL     1      22.081  26.450  19.507  1.00  0.00     0.183 C 
BRANCH  14  15
HETATM   15  C7  UNL     1      23.362  26.073  20.330  1.00  0.00     0.201 C 
BRANCH  15  16
HETATM   16  O2  UNL     1      24.373  25.813  19.441  1.00  0.00    -0.383 OA
BRANCH  16  17
HETATM   17  C8  UNL     1      25.287  24.896  19.990  1.00  0.00     0.121 C 
HETATM   18  C9  UNL     1      26.676  25.541  20.069  1.00  0.00     0.032 C 
HETATM   19  C10 UNL     1      27.030  25.599  18.597  1.00  0.00     0.002 C 
HETATM   20  C11 UNL     1      26.396  24.380  17.972  1.00  0.00     0.002 C 
HETATM   21  C12 UNL     1      25.493  23.773  19.031  1.00  0.00     0.032 C 
ENDBRANCH  16  17
ENDBRANCH  15  16
ENDBRANCH  14  15
BRANCH  14  22
HETATM   22  N3  UNL     1      22.611  26.784  18.156  1.00  0.00    -0.347 N 
HETATM   23  C13 UNL     1      21.905  27.514  17.209  1.00  0.00     0.220 C 
HETATM   24  O3  UNL     1      20.739  27.955  17.435  1.00  0.00    -0.274 OA
ATOM     25  H3  UNL     1      23.546  26.458  17.912  1.00  0.00     0.163 HD
BRANCH  23  26
HETATM   26  C14 UNL     1      22.491  27.817  15.893  1.00  0.00     0.133 C 
BRANCH  26  27
HETATM   27  C15 UNL     1      23.532  28.926  15.984  1.00  0.00     0.281 C 
BRANCH  27  28
HETATM   28  N4  UNL     1      24.714  28.575  15.238  1.00  0.00     0.088 N 
BRANCH  28  29
HETATM   29  C16 UNL     1      25.724  29.592  15.245  1.00  0.00     0.268 C 
HETATM   30  C17 UNL     1      25.324  30.821  15.996  1.00  0.00     0.037 C 
ENDBRANCH  28  29
BRANCH  28  31
HETATM   31  C18 UNL     1      25.315  27.347  15.639  1.00  0.00     0.268 C 
HETATM   32  C19 UNL     1      26.748  27.165  15.274  1.00  0.00     0.037 C 
ENDBRANCH  28  31
ENDBRANCH  27  28
ENDBRANCH  26  27
ENDBRANCH  23  26
ENDBRANCH  14  22
ENDBRANCH  11  14
ENDBRANCH   9  11
ENDBRANCH   4   9
BRANCH   1  33
HETATM   33  C2  UNL     1      17.593  25.449  14.843  1.00  0.00     0.073 C 
HETATM   34  C1  UNL     1      18.648  26.384  14.245  1.00  0.00     0.013 C 
ENDBRANCH   1  33
BRANCH   7  35
HETATM   35  C22 UNL     1      17.054  21.410  16.597  1.00  0.00     0.312 C 
HETATM   36  O5  UNL     1      18.004  20.557  16.624  1.00  0.00    -0.262 OA
HETATM   37  N6  UNL     1      15.828  21.061  17.163  1.00  0.00    -0.338 N 
HETATM   38  C23 UNL     1      15.705  19.756  17.853  1.00  0.00     0.146 C 
HETATM   39  C38 UNL     1      14.592  21.805  17.137  1.00  0.00     0.170 C 
HETATM   40  C24 UNL     1      14.530  19.103  17.103  1.00  0.00     0.143 C 
HETATM   41  N7  UNL     1      13.353  19.726  17.504  1.00  0.00    -0.381 N 
HETATM   42  C37 UNL     1      13.439  21.076  17.799  1.00  0.00     0.079 C 
BRANCH  41  43
HETATM   43  C25 UNL     1      12.090  19.112  17.219  1.00  0.00     0.035 C 
HETATM   44  C32 UNL     1      11.281  19.144  18.482  1.00  0.00     0.031 C 
HETATM   45  C33 UNL     1      11.303  17.917  19.297  1.00  0.00     0.002 C 
HETATM   46  C34 UNL     1      10.960  16.678  18.513  1.00  0.00     0.000 C 
HETATM   47  C35 UNL     1      11.728  16.571  17.252  1.00  0.00     0.002 C 
HETATM   48  C36 UNL     1      12.334  17.766  16.658  1.00  0.00     0.031 C 
BRANCH  43  49
HETATM   49  C26 UNL     1      11.412  20.044  16.165  1.00  0.00     0.014 C 
HETATM   50  C27 UNL     1      11.978  19.866  14.816  1.00  0.00     0.007 C 
HETATM   51  C28 UNL     1      11.132  19.348  13.721  1.00  0.00     0.000 C 
HETATM   52  C29 UNL     1       9.732  19.804  13.851  1.00  0.00     0.000 C 
HETATM   53  C30 UNL     1       9.122  19.556  15.202  1.00  0.00     0.000 C 
HETATM   54  C31 UNL     1       9.949  20.056  16.332  1.00  0.00     0.007 C 
ENDBRANCH  43  49
ENDBRANCH  41  43
ENDBRANCH   7  35
TORSDOF 17
ENDMDL
MODEL 2
REMARK VINA RESULT: -8.543081361      3.277     13.621
REMARK  17 active torsions:
REMARK  status: ('A' for Active; 'I' for Inactive)
REMARK    1  A    between atoms: C2_2  and  C3_3 
REMARK    2  A    between atoms: C4_6  and  N2_7 
REMARK    3  A    between atoms: N2_7  and  C5_9 
REMARK    4  A    between atoms: C5_9  and  O1_10 
REMARK    5  A    between atoms: C5_9  and  C6_12 
REMARK    6  A    between atoms: C6_12  and  C7_13 
REMARK    7  A    between atoms: C6_12  and  N3_20 
REMARK    8  A    between atoms: C7_13  and  O2_14 
REMARK    9  A    between atoms: O2_14  and  C8_15 
REMARK       I    between atoms: N3_20  and  C13_22 
REMARK   10  A    between atoms: C13_22  and  C14_24 
REMARK   11  A    between atoms: C14_24  and  C15_25 
REMARK   12  A    between atoms: C15_25  and  N4_26 
REMARK   13  A    between atoms: N4_26  and  C16_27 
REMARK   14  A    between atoms: N4_26  and  C18_29 
REMARK       I    between atoms: N5_32  and  C21_33 
REMARK   15  A    between atoms: C21_33  and  C22_35 
REMARK       I    between atoms: C22_35  and  N6_37 
REMARK   16  A    between atoms: N7_40  and  C25_41 
REMARK   17  A    between atoms: C25_41  and  C26_42 
ROOT
HETATM    1  C3  UNL     1      13.851  20.332  18.515  1.00  0.00     0.091 A 
HETATM    2  N1  UNL     1      12.587  20.074  18.135  1.00  0.00    -0.330 N 
ATOM      3  H1  UNL     1      11.875  19.697  18.761  1.00  0.00     0.168 HD
HETATM    4  C4  UNL     1      12.364  20.364  16.855  1.00  0.00     0.124 A 
HETATM    5  C20 UNL     1      13.601  20.850  16.396  1.00  0.00     0.150 A 
HETATM    6  N5  UNL     1      14.459  20.822  17.383  1.00  0.00    -0.270 N 
HETATM    7  C21 UNL     1      15.821  21.253  17.405  1.00  0.00     0.321 C 
HETATM    8  O4  UNL     1      16.514  21.085  18.475  1.00  0.00    -0.261 OA
ENDROOT
BRANCH   4   9
HETATM    9  N2  UNL     1      11.239  20.244  16.027  1.00  0.00    -0.324 N 
ATOM     10  H2  UNL     1      11.378  20.357  15.022  1.00  0.00     0.169 HD
BRANCH   9  11
HETATM   11  C5  UNL     1       9.942  19.981  16.475  1.00  0.00     0.142 C 
BRANCH  11  12
HETATM   12  O1  UNL     1       9.421  20.790  17.364  1.00  0.00    -0.348 OA
ATOM     13  H1  UNL     1       9.427  20.518  18.273  1.00  0.00     0.219 HD
ENDBRANCH  11  12
BRANCH  11  14
HETATM   14  C6  UNL     1       9.072  18.902  16.076  1.00  0.00     0.183 C 
BRANCH  14  15
HETATM   15  C7  UNL     1       9.064  18.826  14.509  1.00  0.00     0.201 C 
BRANCH  15  16
HETATM   16  O2  UNL     1      10.179  18.131  14.115  1.00  0.00    -0.383 OA
BRANCH  16  17
HETATM   17  C8  UNL     1      10.194  17.978  12.718  1.00  0.00     0.121 C 
HETATM   18  C9  UNL     1      11.493  17.283  12.292  1.00  0.00     0.032 C 
HETATM   19  C10 UNL     1      12.493  18.388  12.567  1.00  0.00     0.002 C 
HETATM   20  C11 UNL     1      11.768  19.681  12.277  1.00  0.00     0.002 C 
HETATM   21  C12 UNL     1      10.306  19.320  12.077  1.00  0.00     0.032 C 
ENDBRANCH  16  17
ENDBRANCH  15  16
ENDBRANCH  14  15
BRANCH  14  22
HETATM   22  N3  UNL     1       9.711  17.623  16.493  1.00  0.00    -0.347 N 
HETATM   23  C13 UNL     1      10.130  17.356  17.788  1.00  0.00     0.220 C 
HETATM   24  O3  UNL     1       9.994  18.200  18.724  1.00  0.00    -0.274 OA
ATOM     25  H3  UNL     1       9.847  16.902  15.785  1.00  0.00     0.163 HD
BRANCH  23  26
HETATM   26  C14 UNL     1      10.748  16.066  18.135  1.00  0.00     0.133 C 
BRANCH  26  27
HETATM   27  C15 UNL     1      11.158  15.287  16.891  1.00  0.00     0.281 C 
BRANCH  27  28
HETATM   28  N4  UNL     1      10.189  14.264  16.590  1.00  0.00     0.088 N 
BRANCH  28  29
HETATM   29  C16 UNL     1      10.685  13.236  15.724  1.00  0.00     0.268 C 
HETATM   30  C17 UNL     1      10.827  13.674  14.303  1.00  0.00     0.037 C 
ENDBRANCH  28  29
BRANCH  28  31
HETATM   31  C18 UNL     1       9.620  13.643  17.740  1.00  0.00     0.268 C 
HETATM   32  C19 UNL     1       8.143  13.445  17.717  1.00  0.00     0.037 C 
ENDBRANCH  28  31
ENDBRANCH  27  28
ENDBRANCH  26  27
ENDBRANCH  23  26
ENDBRANCH  14  22
ENDBRANCH  11  14
ENDBRANCH   9  11
ENDBRANCH   4   9
BRANCH   1  33
HETATM   33  C2  UNL     1      14.465  20.167  19.851  1.00  0.00     0.073 C 
HETATM   34  C1  UNL     1      13.839  18.909  20.462  1.00  0.00     0.013 C 
ENDBRANCH   1  33
BRANCH   7  35
HETATM   35  C22 UNL     1      16.426  21.871  16.255  1.00  0.00     0.312 C 
HETATM   36  O5  UNL     1      16.517  21.204  15.170  1.00  0.00    -0.262 OA
HETATM   37  N6  UNL     1      16.915  23.177  16.279  1.00  0.00    -0.338 N 
HETATM   38  C23 UNL     1      17.435  23.767  15.024  1.00  0.00     0.146 C 
HETATM   39  C38 UNL     1      17.032  24.062  17.412  1.00  0.00     0.170 C 
HETATM   40  C24 UNL     1      18.864  24.177  15.428  1.00  0.00     0.143 C 
HETATM   41  N7  UNL     1      18.785  25.304  16.238  1.00  0.00    -0.381 N 
HETATM   42  C37 UNL     1      17.683  25.389  17.071  1.00  0.00     0.079 C 
BRANCH  41  43
HETATM   43  C25 UNL     1      19.960  26.085  16.488  1.00  0.00     0.035 C 
HETATM   44  C32 UNL     1      19.701  27.466  15.964  1.00  0.00     0.031 C 
HETATM   45  C33 UNL     1      20.216  27.754  14.614  1.00  0.00     0.002 C 
HETATM   46  C34 UNL     1      21.676  27.423  14.453  1.00  0.00     0.000 C 
HETATM   47  C35 UNL     1      22.009  26.066  14.942  1.00  0.00     0.002 C 
HETATM   48  C36 UNL     1      21.123  25.391  15.895  1.00  0.00     0.031 C 
BRANCH  43  49
HETATM   49  C26 UNL     1      20.082  26.154  18.044  1.00  0.00     0.014 C 
HETATM   50  C27 UNL     1      20.486  24.863  18.630  1.00  0.00     0.007 C 
HETATM   51  C28 UNL     1      21.780  24.744  19.335  1.00  0.00     0.000 C 
HETATM   52  C29 UNL     1      22.128  25.991  20.048  1.00  0.00     0.000 C 
HETATM   53  C30 UNL     1      22.059  27.231  19.200  1.00  0.00     0.000 C 
HETATM   54  C31 UNL     1      20.774  27.382  18.467  1.00  0.00     0.007 C 
ENDBRANCH  43  49
ENDBRANCH  41  43
ENDBRANCH   7  35
TORSDOF 17
ENDMDL
MODEL 3
REMARK VINA RESULT: -8.524975798      1.317      3.308
REMARK  17 active torsions:
REMARK  status: ('A' for Active; 'I' for Inactive)
REMARK    1  A    between atoms: C2_2  and  C3_3 
REMARK    2  A    between atoms: C4_6  and  N2_7 
REMARK    3  A    between atoms: N2_7  and  C5_9 
REMARK    4  A    between atoms: C5_9  and  O1_10 
REMARK    5  A    between atoms: C5_9  and  C6_12 
REMARK    6  A    between atoms: C6_12  and  C7_13 
REMARK    7  A    between atoms: C6_12  and  N3_20 
REMARK    8  A    between atoms: C7_13  and  O2_14 
REMARK    9  A    between atoms: O2_14  and  C8_15 
REMARK       I    between atoms: N3_20  and  C13_22 
REMARK   10  A    between atoms: C13_22  and  C14_24 
REMARK   11  A    between atoms: C14_24  and  C15_25 
REMARK   12  A    between atoms: C15_25  and  N4_26 
REMARK   13  A    between atoms: N4_26  and  C16_27 
REMARK   14  A    between atoms: N4_26  and  C18_29 
REMARK       I    between atoms: N5_32  and  C21_33 
REMARK   15  A    between atoms: C21_33  and  C22_35 
REMARK       I    between atoms: C22_35  and  N6_37 
REMARK   16  A    between atoms: N7_40  and  C25_41 
REMARK   17  A    between atoms: C25_41  and  C26_42 
ROOT
HETATM    1  C3  UNL     1      17.970  24.832  16.449  1.00  0.00     0.091 A 
HETATM    2  N1  UNL     1      18.566  25.523  17.438  1.00  0.00    -0.330 N 
ATOM      3  H1  UNL     1      18.794  26.515  17.376  1.00  0.00     0.168 HD
HETATM    4  C4  UNL     1      18.825  24.773  18.508  1.00  0.00     0.124 A 
HETATM    5  C20 UNL     1      18.344  23.500  18.154  1.00  0.00     0.150 A 
HETATM    6  N5  UNL     1      17.849  23.554  16.945  1.00  0.00    -0.270 N 
HETATM    7  C21 UNL     1      17.214  22.525  16.184  1.00  0.00     0.321 C 
HETATM    8  O4  UNL     1      16.843  22.776  14.979  1.00  0.00    -0.261 OA
ENDROOT
BRANCH   4   9
HETATM    9  N2  UNL     1      19.441  25.039  19.739  1.00  0.00    -0.324 N 
ATOM     10  H2  UNL     1      19.069  24.568  20.564  1.00  0.00     0.169 HD
BRANCH   9  11
HETATM   11  C5  UNL     1      20.526  25.901  19.918  1.00  0.00     0.142 C 
BRANCH  11  12
HETATM   12  O1  UNL     1      20.620  26.544  21.055  1.00  0.00    -0.348 OA
ATOM     13  H1  UNL     1      21.126  26.147  21.753  1.00  0.00     0.219 HD
ENDBRANCH  11  12
BRANCH  11  14
HETATM   14  C6  UNL     1      21.591  26.185  18.988  1.00  0.00     0.183 C 
BRANCH  14  15
HETATM   15  C7  UNL     1      21.309  27.576  18.322  1.00  0.00     0.201 C 
BRANCH  15  16
HETATM   16  O2  UNL     1      21.104  27.369  16.982  1.00  0.00    -0.383 OA
BRANCH  16  17
HETATM   17  C8  UNL     1      22.312  27.031  16.347  1.00  0.00     0.121 C 
HETATM   18  C9  UNL     1      23.194  28.279  16.224  1.00  0.00     0.032 C 
HETATM   19  C10 UNL     1      22.417  29.057  15.180  1.00  0.00     0.002 C 
HETATM   20  C11 UNL     1      21.809  28.022  14.265  1.00  0.00     0.002 C 
HETATM   21  C12 UNL     1      22.037  26.674  14.925  1.00  0.00     0.032 C 
ENDBRANCH  16  17
ENDBRANCH  15  16
ENDBRANCH  14  15
BRANCH  14  22
HETATM   22  N3  UNL     1      22.835  26.412  19.774  1.00  0.00    -0.347 N 
HETATM   23  C13 UNL     1      23.801  25.438  19.990  1.00  0.00     0.220 C 
HETATM   24  O3  UNL     1      23.686  24.266  19.521  1.00  0.00    -0.274 OA
ATOM     25  H3  UNL     1      22.986  27.336  20.178  1.00  0.00     0.163 HD
BRANCH  23  26
HETATM   26  C14 UNL     1      25.013  25.731  20.771  1.00  0.00     0.133 C 
BRANCH  26  27
HETATM   27  C15 UNL     1      26.131  26.276  19.890  1.00  0.00     0.281 C 
BRANCH  27  28
HETATM   28  N4  UNL     1      27.084  25.240  19.580  1.00  0.00     0.088 N 
BRANCH  28  29
HETATM   29  C16 UNL     1      27.144  24.199  20.563  1.00  0.00     0.268 C 
HETATM   30  C17 UNL     1      27.101  22.825  19.976  1.00  0.00     0.037 C 
ENDBRANCH  28  29
BRANCH  28  31
HETATM   31  C18 UNL     1      26.897  24.637  18.303  1.00  0.00     0.268 C 
HETATM   32  C19 UNL     1      26.480  25.548  17.199  1.00  0.00     0.037 C 
ENDBRANCH  28  31
ENDBRANCH  27  28
ENDBRANCH  26  27
ENDBRANCH  23  26
ENDBRANCH  14  22
ENDBRANCH  11  14
ENDBRANCH   9  11
ENDBRANCH   4   9
BRANCH   1  33
HETATM   33  C2  UNL     1      17.510  25.320  15.131  1.00  0.00     0.073 C 
HETATM   34  C1  UNL     1      18.520  26.383  14.687  1.00  0.00     0.013 C 
ENDBRANCH   1  33
BRANCH   7  35
HETATM   35  C22 UNL     1      16.983  21.220  16.742  1.00  0.00     0.312 C 
HETATM   36  O5  UNL     1      17.927  20.360  16.717  1.00  0.00    -0.262 OA
HETATM   37  N6  UNL     1      15.765  20.858  17.316  1.00  0.00    -0.338 N 
HETATM   38  C23 UNL     1      15.644  19.526  17.953  1.00  0.00     0.146 C 
HETATM   39  C38 UNL     1      14.535  21.612  17.344  1.00  0.00     0.170 C 
HETATM   40  C24 UNL     1      14.449  18.913  17.198  1.00  0.00     0.143 C 
HETATM   41  N7  UNL     1      13.285  19.528  17.646  1.00  0.00    -0.381 N 
HETATM   42  C37 UNL     1      13.388  20.864  17.996  1.00  0.00     0.079 C 
BRANCH  41  43
HETATM   43  C25 UNL     1      12.013  18.937  17.359  1.00  0.00     0.035 C 
HETATM   44  C32 UNL     1      11.242  18.883  18.645  1.00  0.00     0.031 C 
HETATM   45  C33 UNL     1      11.285  17.604  19.373  1.00  0.00     0.002 C 
HETATM   46  C34 UNL     1      10.914  16.421  18.518  1.00  0.00     0.000 C 
HETATM   47  C35 UNL     1      11.643  16.400  17.230  1.00  0.00     0.002 C 
HETATM   48  C36 UNL     1      12.235  17.632  16.700  1.00  0.00     0.031 C 
BRANCH  43  49
HETATM   49  C26 UNL     1      11.305  19.939  16.392  1.00  0.00     0.014 C 
HETATM   50  C27 UNL     1      11.667  19.705  14.982  1.00  0.00     0.007 C 
HETATM   51  C28 UNL     1      10.634  19.284  14.013  1.00  0.00     0.000 C 
HETATM   52  C29 UNL     1       9.321  19.887  14.320  1.00  0.00     0.000 C 
HETATM   53  C30 UNL     1       8.870  19.703  15.742  1.00  0.00     0.000 C 
HETATM   54  C31 UNL     1       9.887  20.108  16.749  1.00  0.00     0.007 C 
ENDBRANCH  43  49
ENDBRANCH  41  43
ENDBRANCH   7  35
TORSDOF 17
ENDMDL
MODEL 4
REMARK VINA RESULT: -8.506606449      3.509      8.248
REMARK  17 active torsions:
REMARK  status: ('A' for Active; 'I' for Inactive)
REMARK    1  A    between atoms: C2_2  and  C3_3 
REMARK    2  A    between atoms: C4_6  and  N2_7 
REMARK    3  A    between atoms: N2_7  and  C5_9 
REMARK    4  A    between atoms: C5_9  and  O1_10 
REMARK    5  A    between atoms: C5_9  and  C6_12 
REMARK    6  A    between atoms: C6_12  and  C7_13 
REMARK    7  A    between atoms: C6_12  and  N3_20 
REMARK    8  A    between atoms: C7_13  and  O2_14 
REMARK    9  A    between atoms: O2_14  and  C8_15 
REMARK       I    between atoms: N3_20  and  C13_22 
REMARK   10  A    between atoms: C13_22  and  C14_24 
REMARK   11  A    between atoms: C14_24  and  C15_25 
REMARK   12  A    between atoms: C15_25  and  N4_26 
REMARK   13  A    between atoms: N4_26  and  C16_27 
REMARK   14  A    between atoms: N4_26  and  C18_29 
REMARK       I    between atoms: N5_32  and  C21_33 
REMARK   15  A    between atoms: C21_33  and  C22_35 
REMARK       I    between atoms: C22_35  and  N6_37 
REMARK   16  A    between atoms: N7_40  and  C25_41 
REMARK   17  A    between atoms: C25_41  and  C26_42 
ROOT
HETATM    1  C3  UNL     1      12.622  18.447  19.354  1.00  0.00     0.091 A 
HETATM    2  N1  UNL     1      13.922  18.791  19.341  1.00  0.00    -0.330 N 
ATOM      3  H1  UNL     1      14.618  18.395  19.973  1.00  0.00     0.168 HD
HETATM    4  C4  UNL     1      14.204  19.704  18.414  1.00  0.00     0.124 A 
HETATM    5  C20 UNL     1      12.968  19.948  17.790  1.00  0.00     0.150 A 
HETATM    6  N5  UNL     1      12.054  19.203  18.356  1.00  0.00    -0.270 N 
HETATM    7  C21 UNL     1      10.667  19.080  18.035  1.00  0.00     0.321 C 
HETATM    8  O4  UNL     1       9.922  18.323  18.759  1.00  0.00    -0.261 OA
ENDROOT
BRANCH   4   9
HETATM    9  N2  UNL     1      15.384  20.369  18.051  1.00  0.00    -0.324 N 
ATOM     10  H2  UNL     1      15.962  19.944  17.325  1.00  0.00     0.169 HD
BRANCH   9  11
HETATM   11  C5  UNL     1      15.827  21.571  18.610  1.00  0.00     0.142 C 
BRANCH  11  12
HETATM   12  O1  UNL     1      15.314  21.944  19.756  1.00  0.00    -0.348 OA
ATOM     13  H1  UNL     1      15.422  22.849  20.020  1.00  0.00     0.219 HD
ENDBRANCH  11  12
BRANCH  11  14
HETATM   14  C6  UNL     1      16.807  22.484  18.075  1.00  0.00     0.183 C 
BRANCH  14  15
HETATM   15  C7  UNL     1      16.052  23.650  17.347  1.00  0.00     0.201 C 
BRANCH  15  16
HETATM   16  O2  UNL     1      14.943  23.120  16.739  1.00  0.00    -0.383 OA
BRANCH  16  17
HETATM   17  C8  UNL     1      14.931  23.443  15.371  1.00  0.00     0.121 C 
HETATM   18  C9  UNL     1      13.488  23.421  14.852  1.00  0.00     0.032 C 
HETATM   19  C10 UNL     1      13.208  21.932  14.896  1.00  0.00     0.002 C 
HETATM   20  C11 UNL     1      14.522  21.256  14.582  1.00  0.00     0.002 C 
HETATM   21  C12 UNL     1      15.581  22.344  14.600  1.00  0.00     0.032 C 
ENDBRANCH  16  17
ENDBRANCH  15  16
ENDBRANCH  14  15
BRANCH  14  22
HETATM   22  N3  UNL     1      17.478  23.156  19.223  1.00  0.00    -0.347 N 
HETATM   23  C13 UNL     1      18.658  22.706  19.798  1.00  0.00     0.220 C 
HETATM   24  O3  UNL     1      19.257  21.671  19.377  1.00  0.00    -0.274 OA
ATOM     25  H3  UNL     1      17.045  23.995  19.608  1.00  0.00     0.163 HD
BRANCH  23  26
HETATM   26  C14 UNL     1      19.274  23.422  20.927  1.00  0.00     0.133 C 
BRANCH  26  27
HETATM   27  C15 UNL     1      19.708  24.828  20.530  1.00  0.00     0.281 C 
BRANCH  27  28
HETATM   28  N4  UNL     1      20.702  24.776  19.487  1.00  0.00     0.088 N 
BRANCH  28  29
HETATM   29  C16 UNL     1      20.531  25.778  18.477  1.00  0.00     0.268 C 
HETATM   30  C17 UNL     1      19.651  25.342  17.351  1.00  0.00     0.037 C 
ENDBRANCH  28  29
BRANCH  28  31
HETATM   31  C18 UNL     1      22.046  24.841  19.957  1.00  0.00     0.268 C 
HETATM   32  C19 UNL     1      22.259  25.560  21.245  1.00  0.00     0.037 C 
ENDBRANCH  28  31
ENDBRANCH  27  28
ENDBRANCH  26  27
ENDBRANCH  23  26
ENDBRANCH  14  22
ENDBRANCH  11  14
ENDBRANCH   9  11
ENDBRANCH   4   9
BRANCH   1  33
HETATM   33  C2  UNL     1      11.939  17.456  20.215  1.00  0.00     0.073 C 
HETATM   34  C1  UNL     1      12.690  17.452  21.550  1.00  0.00     0.013 C 
ENDBRANCH   1  33
BRANCH   7  35
HETATM   35  C22 UNL     1      10.095  19.784  16.919  1.00  0.00     0.312 C 
HETATM   36  O5  UNL     1       9.234  20.701  17.141  1.00  0.00    -0.262 OA
HETATM   37  N6  UNL     1      10.448  19.504  15.599  1.00  0.00    -0.338 N 
HETATM   38  C23 UNL     1       9.882  20.342  14.516  1.00  0.00     0.146 C 
HETATM   39  C38 UNL     1      11.292  18.442  15.109  1.00  0.00     0.170 C 
HETATM   40  C24 UNL     1       9.205  19.291  13.615  1.00  0.00     0.143 C 
HETATM   41  N7  UNL     1      10.196  18.601  12.926  1.00  0.00    -0.381 N 
HETATM   42  C37 UNL     1      11.391  18.403  13.596  1.00  0.00     0.079 C 
BRANCH  41  43
HETATM   43  C25 UNL     1       9.847  17.802  11.789  1.00  0.00     0.035 C 
HETATM   44  C32 UNL     1      10.255  18.563  10.563  1.00  0.00     0.031 C 
HETATM   45  C33 UNL     1       9.195  19.346   9.904  1.00  0.00     0.002 C 
HETATM   46  C34 UNL     1       7.960  18.538   9.604  1.00  0.00     0.000 C 
HETATM   47  C35 UNL     1       7.489  17.763  10.774  1.00  0.00     0.002 C 
HETATM   48  C36 UNL     1       8.411  17.461  11.874  1.00  0.00     0.031 C 
BRANCH  43  49
HETATM   49  C26 UNL     1      10.735  16.521  11.903  1.00  0.00     0.014 C 
HETATM   50  C27 UNL     1       9.992  15.375  12.457  1.00  0.00     0.007 C 
HETATM   51  C28 UNL     1       9.765  14.171  11.630  1.00  0.00     0.000 C 
HETATM   52  C29 UNL     1      10.901  13.912  10.721  1.00  0.00     0.000 C 
HETATM   53  C30 UNL     1      11.316  15.096   9.893  1.00  0.00     0.000 C 
HETATM   54  C31 UNL     1      11.546  16.330  10.690  1.00  0.00     0.007 C 
ENDBRANCH  43  49
ENDBRANCH  41  43
ENDBRANCH   7  35
TORSDOF 17
ENDMDL
MODEL 5
REMARK VINA RESULT: -8.480724431      3.267     13.860
REMARK  17 active torsions:
REMARK  status: ('A' for Active; 'I' for Inactive)
REMARK    1  A    between atoms: C2_2  and  C3_3 
REMARK    2  A    between atoms: C4_6  and  N2_7 
REMARK    3  A    between atoms: N2_7  and  C5_9 
REMARK    4  A    between atoms: C5_9  and  O1_10 
REMARK    5  A    between atoms: C5_9  and  C6_12 
REMARK    6  A    between atoms: C6_12  and  C7_13 
REMARK    7  A    between atoms: C6_12  and  N3_20 
REMARK    8  A    between atoms: C7_13  and  O2_14 
REMARK    9  A    between atoms: O2_14  and  C8_15 
REMARK       I    between atoms: N3_20  and  C13_22 
REMARK   10  A    between atoms: C13_22  and  C14_24 
REMARK   11  A    between atoms: C14_24  and  C15_25 
REMARK   12  A    between atoms: C15_25  and  N4_26 
REMARK   13  A    between atoms: N4_26  and  C16_27 
REMARK   14  A    between atoms: N4_26  and  C18_29 
REMARK       I    between atoms: N5_32  and  C21_33 
REMARK   15  A    between atoms: C21_33  and  C22_35 
REMARK       I    between atoms: C22_35  and  N6_37 
REMARK   16  A    between atoms: N7_40  and  C25_41 
REMARK   17  A    between atoms: C25_41  and  C26_42 
ROOT
HETATM    1  C3  UNL     1      13.833  20.220  18.573  1.00  0.00     0.091 A 
HETATM    2  N1  UNL     1      12.573  19.985  18.165  1.00  0.00    -0.330 N 
ATOM      3  H1  UNL     1      11.845  19.606  18.771  1.00  0.00     0.168 HD
HETATM    4  C4  UNL     1      12.377  20.301  16.886  1.00  0.00     0.124 A 
HETATM    5  C20 UNL     1      13.629  20.779  16.459  1.00  0.00     0.150 A 
HETATM    6  N5  UNL     1      14.468  20.722  17.460  1.00  0.00    -0.270 N 
HETATM    7  C21 UNL     1      15.834  21.136  17.515  1.00  0.00     0.321 C 
HETATM    8  O4  UNL     1      16.505  20.941  18.594  1.00  0.00    -0.261 OA
ENDROOT
BRANCH   4   9
HETATM    9  N2  UNL     1      11.267  20.209  16.035  1.00  0.00    -0.324 N 
ATOM     10  H2  UNL     1      11.421  20.365  15.039  1.00  0.00     0.169 HD
BRANCH   9  11
HETATM   11  C5  UNL     1       9.965  19.920  16.451  1.00  0.00     0.142 C 
BRANCH  11  12
HETATM   12  O1  UNL     1       9.397  20.731  17.310  1.00  0.00    -0.348 OA
ATOM     13  H1  UNL     1       9.691  20.703  18.212  1.00  0.00     0.219 HD
ENDBRANCH  11  12
BRANCH  11  14
HETATM   14  C6  UNL     1       9.134  18.812  16.047  1.00  0.00     0.183 C 
BRANCH  14  15
HETATM   15  C7  UNL     1       9.197  18.688  14.485  1.00  0.00     0.201 C 
BRANCH  15  16
HETATM   16  O2  UNL     1       8.428  19.690  13.951  1.00  0.00    -0.383 OA
BRANCH  16  17
HETATM   17  C8  UNL     1       9.117  20.336  12.909  1.00  0.00     0.121 C 
HETATM   18  C9  UNL     1       9.412  21.786  13.312  1.00  0.00     0.032 C 
HETATM   19  C10 UNL     1       8.014  22.369  13.265  1.00  0.00     0.002 C 
HETATM   20  C11 UNL     1       7.300  21.639  12.153  1.00  0.00     0.002 C 
HETATM   21  C12 UNL     1       8.205  20.492  11.740  1.00  0.00     0.032 C 
ENDBRANCH  16  17
ENDBRANCH  15  16
ENDBRANCH  14  15
BRANCH  14  22
HETATM   22  N3  UNL     1       9.779  17.559  16.530  1.00  0.00    -0.347 N 
HETATM   23  C13 UNL     1      10.151  17.341  17.850  1.00  0.00     0.220 C 
HETATM   24  O3  UNL     1       9.961  18.211  18.752  1.00  0.00    -0.274 OA
ATOM     25  H3  UNL     1       9.958  16.819  15.852  1.00  0.00     0.163 HD
BRANCH  23  26
HETATM   26  C14 UNL     1      10.778  16.075  18.262  1.00  0.00     0.133 C 
BRANCH  26  27
HETATM   27  C15 UNL     1      10.864  15.088  17.105  1.00  0.00     0.281 C 
BRANCH  27  28
HETATM   28  N4  UNL     1       9.573  14.505  16.838  1.00  0.00     0.088 N 
BRANCH  28  29
HETATM   29  C16 UNL     1       9.535  13.705  15.650  1.00  0.00     0.268 C 
HETATM   30  C17 UNL     1      10.766  13.829  14.812  1.00  0.00     0.037 C 
ENDBRANCH  28  29
BRANCH  28  31
HETATM   31  C18 UNL     1       9.046  13.732  17.913  1.00  0.00     0.268 C 
HETATM   32  C19 UNL     1       7.563  13.721  18.052  1.00  0.00     0.037 C 
ENDBRANCH  28  31
ENDBRANCH  27  28
ENDBRANCH  26  27
ENDBRANCH  23  26
ENDBRANCH  14  22
ENDBRANCH  11  14
ENDBRANCH   9  11
ENDBRANCH   4   9
BRANCH   1  33
HETATM   33  C2  UNL     1      14.420  20.024  19.917  1.00  0.00     0.073 C 
HETATM   34  C1  UNL     1      13.714  18.806  20.522  1.00  0.00     0.013 C 
ENDBRANCH   1  33
BRANCH   7  35
HETATM   35  C22 UNL     1      16.467  21.767  16.388  1.00  0.00     0.312 C 
HETATM   36  O5  UNL     1      16.523  21.138  15.278  1.00  0.00    -0.262 OA
HETATM   37  N6  UNL     1      17.022  23.044  16.460  1.00  0.00    -0.338 N 
HETATM   38  C23 UNL     1      17.570  23.656  15.227  1.00  0.00     0.146 C 
HETATM   39  C38 UNL     1      17.185  23.879  17.626  1.00  0.00     0.170 C 
HETATM   40  C24 UNL     1      19.018  23.977  15.641  1.00  0.00     0.143 C 
HETATM   41  N7  UNL     1      18.997  25.075  16.494  1.00  0.00    -0.381 N 
HETATM   42  C37 UNL     1      17.901  25.183  17.334  1.00  0.00     0.079 C 
BRANCH  41  43
HETATM   43  C25 UNL     1      20.210  25.785  16.770  1.00  0.00     0.035 C 
HETATM   44  C32 UNL     1      21.129  24.843  17.489  1.00  0.00     0.031 C 
HETATM   45  C33 UNL     1      21.141  24.945  18.959  1.00  0.00     0.002 C 
HETATM   46  C34 UNL     1      21.376  26.348  19.454  1.00  0.00     0.000 C 
HETATM   47  C35 UNL     1      20.495  27.338  18.794  1.00  0.00     0.002 C 
HETATM   48  C36 UNL     1      19.876  27.025  17.503  1.00  0.00     0.031 C 
BRANCH  43  49
HETATM   49  C26 UNL     1      20.821  26.110  15.369  1.00  0.00     0.014 C 
HETATM   50  C27 UNL     1      19.940  26.974  14.563  1.00  0.00     0.007 C 
HETATM   51  C28 UNL     1      20.383  28.331  14.181  1.00  0.00     0.000 C 
HETATM   52  C29 UNL     1      21.841  28.382  13.945  1.00  0.00     0.000 C 
HETATM   53  C30 UNL     1      22.671  27.810  15.060  1.00  0.00     0.000 C 
HETATM   54  C31 UNL     1      22.249  26.447  15.479  1.00  0.00     0.007 C 
ENDBRANCH  43  49
ENDBRANCH  41  43
ENDBRANCH   7  35
TORSDOF 17
ENDMDL
