MODEL 1
REMARK VINA RESULT: -8.977809365      0.000      0.000
REMARK  16 active torsions:
REMARK  status: ('A' for Active; 'I' for Inactive)
REMARK    1  A    between atoms: C2_2  and  C3_3 
REMARK    2  A    between atoms: N1_8  and  C7_9 
REMARK    3  A    between atoms: C7_9  and  C8_10 
REMARK    4  A    between atoms: C8_10  and  C9_11 
REMARK    5  A    between atoms: C9_11  and  N2_12 
REMARK    6  A    between atoms: N2_12  and  C10_13 
REMARK       I    between atoms: N2_12  and  C15_19 
REMARK    7  A    between atoms: C10_13  and  C11_14 
REMARK    8  A    between atoms: C11_14  and  C12_15 
REMARK    9  A    between atoms: C12_15  and  N3_16 
REMARK   10  A    between atoms: C15_19  and  C16_21 
REMARK   11  A    between atoms: C17_22  and  C18_23 
REMARK   12  A    between atoms: C18_23  and  C19_24 
REMARK   13  A    between atoms: C19_24  and  N4_25 
REMARK       I    between atoms: N4_25  and  C20_27 
REMARK   14  A    between atoms: C20_27  and  O4_29 
REMARK   15  A    between atoms: O4_29  and  C21_30 
REMARK   16  A    between atoms: C33_43  and  O6_44 
ROOT
HETATM    1  N4  UNL     1      17.704  23.421  20.077  1.00  0.00    -0.337 N 
ATOM      2  H4  UNL     1      17.723  22.536  20.583  1.00  0.00     0.164 HD
HETATM    3  C20 UNL     1      16.879  23.496  18.915  1.00  0.00     0.360 C 
HETATM    4  O3  UNL     1      16.755  24.504  18.190  1.00  0.00    -0.239 OA
ENDROOT
BRANCH   1   5
HETATM    5  C19 UNL     1      18.502  24.486  20.587  1.00  0.00     0.128 C 
BRANCH   5   6
HETATM    6  C18 UNL     1      19.861  24.647  19.935  1.00  0.00     0.047 C 
BRANCH   6   7
HETATM    7  C17 UNL     1      20.722  25.488  20.773  1.00  0.00    -0.020 C 
HETATM    8  C16 UNL     1      21.379  26.534  20.427  1.00  0.00     0.070 C 
BRANCH   8   9
HETATM    9  C15 UNL     1      21.457  27.158  19.148  1.00  0.00     0.243 C 
HETATM   10  N2  UNL     1      22.649  26.968  18.294  1.00  0.00    -0.345 N 
HETATM   11  O2  UNL     1      20.554  27.871  18.693  1.00  0.00    -0.268 OA
BRANCH  10  12
HETATM   12  C9  UNL     1      22.619  27.629  17.044  1.00  0.00     0.154 C 
BRANCH  12  13
HETATM   13  C8  UNL     1      22.874  26.914  15.783  1.00  0.00     0.010 C 
BRANCH  13  14
HETATM   14  C7  UNL     1      21.902  26.032  15.160  1.00  0.00     0.083 C 
BRANCH  14  15
HETATM   15  N1  UNL     1      20.587  26.417  14.930  1.00  0.00    -0.382 N 
HETATM   16  C3  UNL     1      19.589  25.924  15.830  1.00  0.00     0.107 C 
HETATM   17  C4  UNL     1      18.286  25.823  15.109  1.00  0.00     0.193 C 
HETATM   18  O1  UNL     1      18.310  26.525  13.908  1.00  0.00    -0.388 OA
HETATM   19  C5  UNL     1      18.842  27.800  14.062  1.00  0.00     0.187 C 
HETATM   20  C6  UNL     1      20.291  27.745  14.545  1.00  0.00     0.149 C 
BRANCH  16  21
HETATM   21  C2  UNL     1      19.975  24.733  16.639  1.00  0.00     0.023 C 
HETATM   22  C1  UNL     1      19.329  23.482  16.046  1.00  0.00     0.007 C 
ENDBRANCH  16  21
ENDBRANCH  14  15
ENDBRANCH  13  14
ENDBRANCH  12  13
ENDBRANCH  10  12
BRANCH  10  23
HETATM   23  C10 UNL     1      23.732  26.262  18.880  1.00  0.00     0.128 C 
BRANCH  23  24
HETATM   24  C11 UNL     1      25.017  27.009  18.878  1.00  0.00     0.050 C 
BRANCH  24  25
HETATM   25  C12 UNL     1      26.057  26.304  18.005  1.00  0.00     0.273 C 
BRANCH  25  26
HETATM   26  N3  UNL     1      26.668  27.266  17.148  1.00  0.00     0.080 N 
HETATM   27  C13 UNL     1      26.189  28.602  17.232  1.00  0.00     0.309 C 
HETATM   28  C14 UNL     1      26.560  26.856  15.748  1.00  0.00     0.309 C 
ENDBRANCH  25  26
ENDBRANCH  24  25
ENDBRANCH  23  24
ENDBRANCH  10  23
ENDBRANCH   8   9
ENDBRANCH   6   7
ENDBRANCH   5   6
ENDBRANCH   1   5
BRANCH   3  29
HETATM   29  O4  UNL     1      16.141  22.370  18.530  1.00  0.00    -0.298 OA
BRANCH  29  30
HETATM   30  C21 UNL     1      16.683  21.136  18.175  1.00  0.00     0.141 C 
HETATM   31  C22 UNL     1      17.054  21.113  16.730  1.00  0.00     0.111 C 
HETATM   32  C23 UNL     1      15.832  21.531  15.945  1.00  0.00     0.134 C 
HETATM   33  O5  UNL     1      16.026  22.315  15.058  1.00  0.00    -0.297 OA
HETATM   34  C24 UNL     1      14.542  20.934  16.348  1.00  0.00     0.068 C 
HETATM   35  C25 UNL     1      14.863  19.703  17.166  1.00  0.00    -0.000 C 
HETATM   36  C38 UNL     1      13.650  20.618  15.157  1.00  0.00    -0.029 C 
HETATM   37  C26 UNL     1      13.621  18.984  17.598  1.00  0.00     0.006 C 
HETATM   38  C40 UNL     1      15.612  20.097  18.396  1.00  0.00     0.038 C 
HETATM   39  C27 UNL     1      12.381  19.647  16.969  1.00  0.00     0.006 C 
HETATM   40  C28 UNL     1      12.585  19.620  15.480  1.00  0.00     0.003 C 
HETATM   41  C29 UNL     1      11.362  19.684  14.638  1.00  0.00    -0.036 C 
HETATM   42  C30 UNL     1      11.716  18.883  13.355  1.00  0.00     0.016 C 
HETATM   43  C31 UNL     1      10.185  18.953  15.196  1.00  0.00     0.012 C 
HETATM   44  C35 UNL     1      11.010  21.055  14.108  1.00  0.00    -0.004 C 
HETATM   45  C32 UNL     1       9.171  19.759  15.921  1.00  0.00     0.032 C 
HETATM   46  C33 UNL     1       8.779  21.042  15.266  1.00  0.00     0.118 C 
HETATM   47  C34 UNL     1       9.544  21.301  14.011  1.00  0.00     0.037 C 
HETATM   48  C36 UNL     1      11.666  22.155  14.905  1.00  0.00     0.006 C 
HETATM   49  C37 UNL     1      13.151  21.955  14.683  1.00  0.00     0.011 C 
HETATM   50  C39 UNL     1      14.576  20.017  14.088  1.00  0.00     0.016 C 
BRANCH  46  51
HETATM   51  O6  UNL     1       8.906  22.140  16.153  1.00  0.00    -0.396 OA
ATOM     52  H6  UNL     1       8.253  22.111  16.843  1.00  0.00     0.210 HD
ENDBRANCH  46  51
ENDBRANCH  29  30
ENDBRANCH   3  29
TORSDOF 16
ENDMDL
MODEL 2
REMARK VINA RESULT: -8.857368537      1.504      4.066
REMARK  16 active torsions:
REMARK  status: ('A' for Active; 'I' for Inactive)
REMARK    1  A    between atoms: C2_2  and  C3_3 
REMARK    2  A    between atoms: N1_8  and  C7_9 
REMARK    3  A    between atoms: C7_9  and  C8_10 
REMARK    4  A    between atoms: C8_10  and  C9_11 
REMARK    5  A    between atoms: C9_11  and  N2_12 
REMARK    6  A    between atoms: N2_12  and  C10_13 
REMARK       I    between atoms: N2_12  and  C15_19 
REMARK    7  A    between atoms: C10_13  and  C11_14 
REMARK    8  A    between atoms: C11_14  and  C12_15 
REMARK    9  A    between atoms: C12_15  and  N3_16 
REMARK   10  A    between atoms: C15_19  and  C16_21 
REMARK   11  A    between atoms: C17_22  and  C18_23 
REMARK   12  A    between atoms: C18_23  and  C19_24 
REMARK   13  A    between atoms: C19_24  and  N4_25 
REMARK       I    between atoms: N4_25  and  C20_27 
REMARK   14  A    between atoms: C20_27  and  O4_29 
REMARK   15  A    between atoms: O4_29  and  C21_30 
REMARK   16  A    between atoms: C33_43  and  O6_44 
ROOT
HETATM    1  N4  UNL     1      16.459  24.224  17.343  1.00  0.00    -0.337 N 
ATOM      2  H4  UNL     1      15.742  23.917  16.685  1.00  0.00     0.164 HD
HETATM    3  C20 UNL     1      16.775  23.347  18.424  1.00  0.00     0.360 C 
HETATM    4  O3  UNL     1      17.621  23.583  19.310  1.00  0.00    -0.239 OA
ENDROOT
BRANCH   1   5
HETATM    5  C19 UNL     1      17.063  25.493  17.111  1.00  0.00     0.128 C 
BRANCH   5   6
HETATM    6  C18 UNL     1      17.424  25.785  15.668  1.00  0.00     0.047 C 
BRANCH   6   7
HETATM    7  C17 UNL     1      18.567  24.962  15.261  1.00  0.00    -0.020 C 
HETATM    8  C16 UNL     1      19.733  25.356  14.899  1.00  0.00     0.070 C 
BRANCH   8   9
HETATM    9  C15 UNL     1      20.233  26.686  14.791  1.00  0.00     0.243 C 
HETATM   10  N2  UNL     1      21.179  27.214  15.797  1.00  0.00    -0.345 N 
HETATM   11  O2  UNL     1      19.914  27.451  13.872  1.00  0.00    -0.268 OA
BRANCH  10  12
HETATM   12  C9  UNL     1      21.615  28.543  15.591  1.00  0.00     0.154 C 
BRANCH  12  13
HETATM   13  C8  UNL     1      22.957  28.847  15.068  1.00  0.00     0.010 C 
BRANCH  13  14
HETATM   14  C7  UNL     1      24.126  28.993  15.919  1.00  0.00     0.083 C 
BRANCH  14  15
HETATM   15  N1  UNL     1      24.836  27.901  16.402  1.00  0.00    -0.382 N 
HETATM   16  C3  UNL     1      26.205  27.776  16.002  1.00  0.00     0.107 C 
HETATM   17  C4  UNL     1      26.584  26.332  15.992  1.00  0.00     0.193 C 
HETATM   18  O1  UNL     1      25.651  25.554  16.670  1.00  0.00    -0.388 OA
HETATM   19  C5  UNL     1      25.313  26.103  17.902  1.00  0.00     0.187 C 
HETATM   20  C6  UNL     1      24.673  27.482  17.742  1.00  0.00     0.149 C 
BRANCH  16  21
HETATM   21  C2  UNL     1      26.606  28.559  14.799  1.00  0.00     0.023 C 
HETATM   22  C1  UNL     1      28.129  28.567  14.680  1.00  0.00     0.007 C 
ENDBRANCH  16  21
ENDBRANCH  14  15
ENDBRANCH  13  14
ENDBRANCH  12  13
ENDBRANCH  10  12
BRANCH  10  23
HETATM   23  C10 UNL     1      21.431  26.378  16.917  1.00  0.00     0.128 C 
BRANCH  23  24
HETATM   24  C11 UNL     1      20.847  26.875  18.190  1.00  0.00     0.050 C 
BRANCH  24  25
HETATM   25  C12 UNL     1      20.731  25.745  19.215  1.00  0.00     0.273 C 
BRANCH  25  26
HETATM   26  N3  UNL     1      21.424  26.123  20.402  1.00  0.00     0.080 N 
HETATM   27  C13 UNL     1      21.862  27.473  20.490  1.00  0.00     0.309 C 
HETATM   28  C14 UNL     1      22.596  25.275  20.611  1.00  0.00     0.309 C 
ENDBRANCH  25  26
ENDBRANCH  24  25
ENDBRANCH  23  24
ENDBRANCH  10  23
ENDBRANCH   8   9
ENDBRANCH   6   7
ENDBRANCH   5   6
ENDBRANCH   1   5
BRANCH   3  29
HETATM   29  O4  UNL     1      16.104  22.123  18.528  1.00  0.00    -0.298 OA
BRANCH  29  30
HETATM   30  C21 UNL     1      16.619  20.889  18.137  1.00  0.00     0.141 C 
HETATM   31  C22 UNL     1      17.001  20.903  16.695  1.00  0.00     0.111 C 
HETATM   32  C23 UNL     1      15.794  21.375  15.915  1.00  0.00     0.134 C 
HETATM   33  O5  UNL     1      16.014  22.182  15.055  1.00  0.00    -0.297 OA
HETATM   34  C24 UNL     1      14.488  20.796  16.291  1.00  0.00     0.068 C 
HETATM   35  C25 UNL     1      14.774  19.532  17.070  1.00  0.00    -0.000 C 
HETATM   36  C38 UNL     1      13.597  20.540  15.084  1.00  0.00    -0.029 C 
HETATM   37  C26 UNL     1      13.512  18.829  17.471  1.00  0.00     0.006 C 
HETATM   38  C40 UNL     1      15.523  19.868  18.317  1.00  0.00     0.038 C 
HETATM   39  C27 UNL     1      12.292  19.542  16.856  1.00  0.00     0.006 C 
HETATM   40  C28 UNL     1      12.507  19.558  15.368  1.00  0.00     0.003 C 
HETATM   41  C29 UNL     1      11.292  19.678  14.520  1.00  0.00    -0.036 C 
HETATM   42  C30 UNL     1      11.636  18.911  13.214  1.00  0.00     0.016 C 
HETATM   43  C31 UNL     1      10.094  18.958  15.046  1.00  0.00     0.012 C 
HETATM   44  C35 UNL     1      10.977  21.074  14.033  1.00  0.00    -0.004 C 
HETATM   45  C32 UNL     1       9.094  19.765  15.790  1.00  0.00     0.032 C 
HETATM   46  C33 UNL     1       8.738  21.077  15.175  1.00  0.00     0.118 C 
HETATM   47  C34 UNL     1       9.517  21.357  13.934  1.00  0.00     0.037 C 
HETATM   48  C36 UNL     1      11.653  22.131  14.869  1.00  0.00     0.006 C 
HETATM   49  C37 UNL     1      13.134  21.903  14.650  1.00  0.00     0.011 C 
HETATM   50  C39 UNL     1      14.517  19.952  14.002  1.00  0.00     0.016 C 
BRANCH  46  51
HETATM   51  O6  UNL     1       8.884  22.143  16.098  1.00  0.00    -0.396 OA
ATOM     52  H6  UNL     1       8.055  22.575  16.267  1.00  0.00     0.210 HD
ENDBRANCH  46  51
ENDBRANCH  29  30
ENDBRANCH   3  29
TORSDOF 16
ENDMDL
MODEL 3
REMARK VINA RESULT: -8.838858212      1.352      2.101
REMARK  16 active torsions:
REMARK  status: ('A' for Active; 'I' for Inactive)
REMARK    1  A    between atoms: C2_2  and  C3_3 
REMARK    2  A    between atoms: N1_8  and  C7_9 
REMARK    3  A    between atoms: C7_9  and  C8_10 
REMARK    4  A    between atoms: C8_10  and  C9_11 
REMARK    5  A    between atoms: C9_11  and  N2_12 
REMARK    6  A    between atoms: N2_12  and  C10_13 
REMARK       I    between atoms: N2_12  and  C15_19 
REMARK    7  A    between atoms: C10_13  and  C11_14 
REMARK    8  A    between atoms: C11_14  and  C12_15 
REMARK    9  A    between atoms: C12_15  and  N3_16 
REMARK   10  A    between atoms: C15_19  and  C16_21 
REMARK   11  A    between atoms: C17_22  and  C18_23 
REMARK   12  A    between atoms: C18_23  and  C19_24 
REMARK   13  A    between atoms: C19_24  and  N4_25 
REMARK       I    between atoms: N4_25  and  C20_27 
REMARK   14  A    between atoms: C20_27  and  O4_29 
REMARK   15  A    between atoms: O4_29  and  C21_30 
REMARK   16  A    between atoms: C33_43  and  O6_44 
ROOT
HETATM    1  N4  UNL     1      17.715  23.282  20.050  1.00  0.00    -0.337 N 
ATOM      2  H4  UNL     1      17.830  22.292  20.268  1.00  0.00     0.164 HD
HETATM    3  C20 UNL     1      16.874  23.618  18.947  1.00  0.00     0.360 C 
HETATM    4  O3  UNL     1      16.640  24.779  18.555  1.00  0.00    -0.239 OA
ENDROOT
BRANCH   1   5
HETATM    5  C19 UNL     1      18.407  24.219  20.870  1.00  0.00     0.128 C 
BRANCH   5   6
HETATM    6  C18 UNL     1      19.720  24.729  20.309  1.00  0.00     0.047 C 
BRANCH   6   7
HETATM    7  C17 UNL     1      20.680  24.944  21.396  1.00  0.00    -0.020 C 
HETATM    8  C16 UNL     1      21.659  25.772  21.429  1.00  0.00     0.070 C 
BRANCH   8   9
HETATM    9  C15 UNL     1      22.082  26.697  20.430  1.00  0.00     0.243 C 
HETATM   10  N2  UNL     1      22.967  26.258  19.331  1.00  0.00    -0.345 N 
HETATM   11  O2  UNL     1      21.738  27.886  20.428  1.00  0.00    -0.268 OA
BRANCH  10  12
HETATM   12  C9  UNL     1      23.322  27.256  18.394  1.00  0.00     0.154 C 
BRANCH  12  13
HETATM   13  C8  UNL     1      22.606  27.409  17.116  1.00  0.00     0.010 C 
BRANCH  13  14
HETATM   14  C7  UNL     1      21.169  27.609  17.030  1.00  0.00     0.083 C 
BRANCH  14  15
HETATM   15  N1  UNL     1      20.328  26.704  16.396  1.00  0.00    -0.382 N 
HETATM   16  C3  UNL     1      20.010  26.951  15.022  1.00  0.00     0.107 C 
HETATM   17  C4  UNL     1      18.664  26.380  14.720  1.00  0.00     0.193 C 
HETATM   18  O1  UNL     1      18.246  25.503  15.716  1.00  0.00    -0.388 OA
HETATM   19  C5  UNL     1      19.243  24.600  16.067  1.00  0.00     0.187 C 
HETATM   20  C6  UNL     1      20.472  25.316  16.627  1.00  0.00     0.149 C 
BRANCH  16  21
HETATM   21  C2  UNL     1      20.247  28.341  14.540  1.00  0.00     0.023 C 
HETATM   22  C1  UNL     1      21.469  28.360  13.623  1.00  0.00     0.007 C 
ENDBRANCH  16  21
ENDBRANCH  14  15
ENDBRANCH  13  14
ENDBRANCH  12  13
ENDBRANCH  10  12
BRANCH  10  23
HETATM   23  C10 UNL     1      23.464  24.931  19.420  1.00  0.00     0.128 C 
BRANCH  23  24
HETATM   24  C11 UNL     1      24.898  24.842  19.801  1.00  0.00     0.050 C 
BRANCH  24  25
HETATM   25  C12 UNL     1      25.755  24.417  18.608  1.00  0.00     0.273 C 
BRANCH  25  26
HETATM   26  N3  UNL     1      26.553  23.297  18.988  1.00  0.00     0.080 N 
HETATM   27  C13 UNL     1      25.967  22.010  18.844  1.00  0.00     0.309 C 
HETATM   28  C14 UNL     1      26.991  23.419  20.378  1.00  0.00     0.309 C 
ENDBRANCH  25  26
ENDBRANCH  24  25
ENDBRANCH  23  24
ENDBRANCH  10  23
ENDBRANCH   8   9
ENDBRANCH   6   7
ENDBRANCH   5   6
ENDBRANCH   1   5
BRANCH   3  29
HETATM   29  O4  UNL     1      16.250  22.592  18.228  1.00  0.00    -0.298 OA
BRANCH  29  30
HETATM   30  C21 UNL     1      16.864  21.411  17.815  1.00  0.00     0.141 C 
HETATM   31  C22 UNL     1      17.159  21.447  16.353  1.00  0.00     0.111 C 
HETATM   32  C23 UNL     1      15.867  21.785  15.642  1.00  0.00     0.134 C 
HETATM   33  O5  UNL     1      15.954  22.600  14.767  1.00  0.00    -0.297 OA
HETATM   34  C24 UNL     1      14.650  21.082  16.098  1.00  0.00     0.068 C 
HETATM   35  C25 UNL     1      15.107  19.862  16.866  1.00  0.00    -0.000 C 
HETATM   36  C38 UNL     1      13.722  20.723  14.946  1.00  0.00    -0.029 C 
HETATM   37  C26 UNL     1      13.949  19.041  17.344  1.00  0.00     0.006 C 
HETATM   38  C40 UNL     1      15.890  20.287  18.066  1.00  0.00     0.038 C 
HETATM   39  C27 UNL     1      12.630  19.619  16.797  1.00  0.00     0.006 C 
HETATM   40  C28 UNL     1      12.755  19.639  15.300  1.00  0.00     0.003 C 
HETATM   41  C29 UNL     1      11.488  19.626  14.523  1.00  0.00    -0.036 C 
HETATM   42  C30 UNL     1      11.832  18.883  13.204  1.00  0.00     0.016 C 
HETATM   43  C31 UNL     1      10.401  18.795  15.123  1.00  0.00     0.012 C 
HETATM   44  C35 UNL     1      11.005  20.977  14.047  1.00  0.00    -0.004 C 
HETATM   45  C32 UNL     1       9.369  19.505  15.920  1.00  0.00     0.032 C 
HETATM   46  C33 UNL     1       8.847  20.768  15.319  1.00  0.00     0.118 C 
HETATM   47  C34 UNL     1       9.521  21.110  14.033  1.00  0.00     0.037 C 
HETATM   48  C36 UNL     1      11.617  22.107  14.836  1.00  0.00     0.006 C 
HETATM   49  C37 UNL     1      13.099  22.027  14.533  1.00  0.00     0.011 C 
HETATM   50  C39 UNL     1      14.633  20.218  13.816  1.00  0.00     0.016 C 
BRANCH  46  51
HETATM   51  O6  UNL     1       8.937  21.853  16.225  1.00  0.00    -0.396 OA
ATOM     52  H6  UNL     1       9.104  22.673  15.775  1.00  0.00     0.210 HD
ENDBRANCH  46  51
ENDBRANCH  29  30
ENDBRANCH   3  29
TORSDOF 16
ENDMDL
MODEL 4
REMARK VINA RESULT: -8.697683010      1.716      4.095
REMARK  16 active torsions:
REMARK  status: ('A' for Active; 'I' for Inactive)
REMARK    1  A    between atoms: C2_2  and  C3_3 
REMARK    2  A    between atoms: N1_8  and  C7_9 
REMARK    3  A    between atoms: C7_9  and  C8_10 
REMARK    4  A    between atoms: C8_10  and  C9_11 
REMARK    5  A    between atoms: C9_11  and  N2_12 
REMARK    6  A    between atoms: N2_12  and  C10_13 
REMARK       I    between atoms: N2_12  and  C15_19 
REMARK    7  A    between atoms: C10_13  and  C11_14 
REMARK    8  A    between atoms: C11_14  and  C12_15 
REMARK    9  A    between atoms: C12_15  and  N3_16 
REMARK   10  A    between atoms: C15_19  and  C16_21 
REMARK   11  A    between atoms: C17_22  and  C18_23 
REMARK   12  A    between atoms: C18_23  and  C19_24 
REMARK   13  A    between atoms: C19_24  and  N4_25 
REMARK       I    between atoms: N4_25  and  C20_27 
REMARK   14  A    between atoms: C20_27  and  O4_29 
REMARK   15  A    between atoms: O4_29  and  C21_30 
REMARK   16  A    between atoms: C33_43  and  O6_44 
ROOT
HETATM    1  N4  UNL     1      16.473  24.273  17.212  1.00  0.00    -0.337 N 
ATOM      2  H4  UNL     1      15.813  23.903  16.527  1.00  0.00     0.164 HD
HETATM    3  C20 UNL     1      16.709  23.494  18.383  1.00  0.00     0.360 C 
HETATM    4  O3  UNL     1      17.480  23.814  19.311  1.00  0.00    -0.239 OA
ENDROOT
BRANCH   1   5
HETATM    5  C19 UNL     1      17.084  25.527  16.922  1.00  0.00     0.128 C 
BRANCH   5   6
HETATM    6  C18 UNL     1      17.647  25.667  15.522  1.00  0.00     0.047 C 
BRANCH   6   7
HETATM    7  C17 UNL     1      18.707  24.677  15.307  1.00  0.00    -0.020 C 
HETATM    8  C16 UNL     1      19.969  24.824  15.483  1.00  0.00     0.070 C 
BRANCH   8   9
HETATM    9  C15 UNL     1      20.682  25.976  15.927  1.00  0.00     0.243 C 
HETATM   10  N2  UNL     1      21.018  26.142  17.357  1.00  0.00    -0.345 N 
HETATM   11  O2  UNL     1      21.051  26.874  15.160  1.00  0.00    -0.268 OA
BRANCH  10  12
HETATM   12  C9  UNL     1      21.729  27.319  17.686  1.00  0.00     0.154 C 
BRANCH  12  13
HETATM   13  C8  UNL     1      23.185  27.425  17.494  1.00  0.00     0.010 C 
BRANCH  13  14
HETATM   14  C7  UNL     1      24.124  26.426  17.977  1.00  0.00     0.083 C 
BRANCH  14  15
HETATM   15  N1  UNL     1      25.372  26.235  17.397  1.00  0.00    -0.382 N 
HETATM   16  C3  UNL     1      26.083  25.041  17.741  1.00  0.00     0.107 C 
HETATM   17  C4  UNL     1      27.550  25.298  17.640  1.00  0.00     0.193 C 
HETATM   18  O1  UNL     1      27.817  26.471  16.941  1.00  0.00    -0.388 OA
HETATM   19  C5  UNL     1      27.085  26.551  15.762  1.00  0.00     0.187 C 
HETATM   20  C6  UNL     1      25.582  26.560  16.037  1.00  0.00     0.149 C 
BRANCH  16  21
HETATM   21  C2  UNL     1      25.630  24.349  18.982  1.00  0.00     0.023 C 
HETATM   22  C1  UNL     1      25.996  22.868  18.901  1.00  0.00     0.007 C 
ENDBRANCH  16  21
ENDBRANCH  14  15
ENDBRANCH  13  14
ENDBRANCH  12  13
ENDBRANCH  10  12
BRANCH  10  23
HETATM   23  C10 UNL     1      20.473  25.177  18.244  1.00  0.00     0.128 C 
BRANCH  23  24
HETATM   24  C11 UNL     1      21.280  24.954  19.471  1.00  0.00     0.050 C 
BRANCH  24  25
HETATM   25  C12 UNL     1      20.494  25.351  20.722  1.00  0.00     0.273 C 
BRANCH  25  26
HETATM   26  N3  UNL     1      21.297  26.222  21.516  1.00  0.00     0.080 N 
HETATM   27  C13 UNL     1      21.276  27.603  21.181  1.00  0.00     0.309 C 
HETATM   28  C14 UNL     1      22.696  25.796  21.501  1.00  0.00     0.309 C 
ENDBRANCH  25  26
ENDBRANCH  24  25
ENDBRANCH  23  24
ENDBRANCH  10  23
ENDBRANCH   8   9
ENDBRANCH   6   7
ENDBRANCH   5   6
ENDBRANCH   1   5
BRANCH   3  29
HETATM   29  O4  UNL     1      16.042  22.273  18.536  1.00  0.00    -0.298 OA
BRANCH  29  30
HETATM   30  C21 UNL     1      16.566  21.024  18.210  1.00  0.00     0.141 C 
HETATM   31  C22 UNL     1      16.965  20.973  16.773  1.00  0.00     0.111 C 
HETATM   32  C23 UNL     1      15.767  21.403  15.958  1.00  0.00     0.134 C 
HETATM   33  O5  UNL     1      15.994  22.170  15.064  1.00  0.00    -0.297 OA
HETATM   34  C24 UNL     1      14.458  20.837  16.344  1.00  0.00     0.068 C 
HETATM   35  C25 UNL     1      14.739  19.611  17.185  1.00  0.00    -0.000 C 
HETATM   36  C38 UNL     1      13.583  20.521  15.140  1.00  0.00    -0.029 C 
HETATM   37  C26 UNL     1      13.475  18.923  17.602  1.00  0.00     0.006 C 
HETATM   38  C40 UNL     1      15.471  20.008  18.424  1.00  0.00     0.038 C 
HETATM   39  C27 UNL     1      12.260  19.601  16.940  1.00  0.00     0.006 C 
HETATM   40  C28 UNL     1      12.493  19.549  15.456  1.00  0.00     0.003 C 
HETATM   41  C29 UNL     1      11.288  19.624  14.588  1.00  0.00    -0.036 C 
HETATM   42  C30 UNL     1      11.651  18.799  13.324  1.00  0.00     0.016 C 
HETATM   43  C31 UNL     1      10.086  18.924  15.133  1.00  0.00     0.012 C 
HETATM   44  C35 UNL     1      10.973  20.994  14.033  1.00  0.00    -0.004 C 
HETATM   45  C32 UNL     1       9.074  19.761  15.827  1.00  0.00     0.032 C 
HETATM   46  C33 UNL     1       8.721  21.042  15.147  1.00  0.00     0.118 C 
HETATM   47  C34 UNL     1       9.515  21.267  13.904  1.00  0.00     0.037 C 
HETATM   48  C36 UNL     1      11.635  22.092  14.827  1.00  0.00     0.006 C 
HETATM   49  C37 UNL     1      13.120  21.861  14.638  1.00  0.00     0.011 C 
HETATM   50  C39 UNL     1      14.518  19.887  14.098  1.00  0.00     0.016 C 
BRANCH  46  51
HETATM   51  O6  UNL     1       8.851  22.150  16.021  1.00  0.00    -0.396 OA
ATOM     52  H6  UNL     1       8.620  22.964  15.591  1.00  0.00     0.210 HD
ENDBRANCH  46  51
ENDBRANCH  29  30
ENDBRANCH   3  29
TORSDOF 16
ENDMDL
MODEL 5
REMARK VINA RESULT: -8.662408459      1.444      4.068
REMARK  16 active torsions:
REMARK  status: ('A' for Active; 'I' for Inactive)
REMARK    1  A    between atoms: C2_2  and  C3_3 
REMARK    2  A    between atoms: N1_8  and  C7_9 
REMARK    3  A    between atoms: C7_9  and  C8_10 
REMARK    4  A    between atoms: C8_10  and  C9_11 
REMARK    5  A    between atoms: C9_11  and  N2_12 
REMARK    6  A    between atoms: N2_12  and  C10_13 
REMARK       I    between atoms: N2_12  and  C15_19 
REMARK    7  A    between atoms: C10_13  and  C11_14 
REMARK    8  A    between atoms: C11_14  and  C12_15 
REMARK    9  A    between atoms: C12_15  and  N3_16 
REMARK   10  A    between atoms: C15_19  and  C16_21 
REMARK   11  A    between atoms: C17_22  and  C18_23 
REMARK   12  A    between atoms: C18_23  and  C19_24 
REMARK   13  A    between atoms: C19_24  and  N4_25 
REMARK       I    between atoms: N4_25  and  C20_27 
REMARK   14  A    between atoms: C20_27  and  O4_29 
REMARK   15  A    between atoms: O4_29  and  C21_30 
REMARK   16  A    between atoms: C33_43  and  O6_44 
ROOT
HETATM    1  N4  UNL     1      16.542  24.258  17.220  1.00  0.00    -0.337 N 
ATOM      2  H4  UNL     1      15.884  23.921  16.517  1.00  0.00     0.164 HD
HETATM    3  C20 UNL     1      16.761  23.433  18.364  1.00  0.00     0.360 C 
HETATM    4  O3  UNL     1      17.528  23.710  19.308  1.00  0.00    -0.239 OA
ENDROOT
BRANCH   1   5
HETATM    5  C19 UNL     1      17.170  25.515  16.982  1.00  0.00     0.128 C 
BRANCH   5   6
HETATM    6  C18 UNL     1      17.727  25.708  15.585  1.00  0.00     0.047 C 
BRANCH   6   7
HETATM    7  C17 UNL     1      18.928  24.887  15.407  1.00  0.00    -0.020 C 
HETATM    8  C16 UNL     1      20.117  25.280  15.128  1.00  0.00     0.070 C 
BRANCH   8   9
HETATM    9  C15 UNL     1      20.592  26.606  14.912  1.00  0.00     0.243 C 
HETATM   10  N2  UNL     1      21.342  27.314  15.972  1.00  0.00    -0.345 N 
HETATM   11  O2  UNL     1      20.411  27.220  13.853  1.00  0.00    -0.268 OA
BRANCH  10  12
HETATM   12  C9  UNL     1      21.770  28.623  15.651  1.00  0.00     0.154 C 
BRANCH  12  13
HETATM   13  C8  UNL     1      23.177  28.923  15.337  1.00  0.00     0.010 C 
BRANCH  13  14
HETATM   14  C7  UNL     1      24.274  28.035  15.683  1.00  0.00     0.083 C 
BRANCH  14  15
HETATM   15  N1  UNL     1      25.221  28.362  16.645  1.00  0.00    -0.382 N 
HETATM   16  C3  UNL     1      25.910  27.283  17.285  1.00  0.00     0.107 C 
HETATM   17  C4  UNL     1      26.311  27.703  18.660  1.00  0.00     0.193 C 
HETATM   18  O1  UNL     1      26.214  29.081  18.823  1.00  0.00    -0.388 OA
HETATM   19  C5  UNL     1      26.793  29.772  17.764  1.00  0.00     0.187 C 
HETATM   20  C6  UNL     1      26.095  29.454  16.442  1.00  0.00     0.149 C 
BRANCH  16  21
HETATM   21  C2  UNL     1      25.262  25.944  17.180  1.00  0.00     0.023 C 
HETATM   22  C1  UNL     1      26.224  24.872  17.687  1.00  0.00     0.007 C 
ENDBRANCH  16  21
ENDBRANCH  14  15
ENDBRANCH  13  14
ENDBRANCH  12  13
ENDBRANCH  10  12
BRANCH  10  23
HETATM   23  C10 UNL     1      21.425  26.654  17.226  1.00  0.00     0.128 C 
BRANCH  23  24
HETATM   24  C11 UNL     1      21.172  27.536  18.396  1.00  0.00     0.050 C 
BRANCH  24  25
HETATM   25  C12 UNL     1      22.009  27.099  19.599  1.00  0.00     0.273 C 
BRANCH  25  26
HETATM   26  N3  UNL     1      21.143  26.884  20.711  1.00  0.00     0.080 N 
HETATM   27  C13 UNL     1      21.649  27.218  21.997  1.00  0.00     0.309 C 
HETATM   28  C14 UNL     1      20.707  25.489  20.768  1.00  0.00     0.309 C 
ENDBRANCH  25  26
ENDBRANCH  24  25
ENDBRANCH  23  24
ENDBRANCH  10  23
ENDBRANCH   8   9
ENDBRANCH   6   7
ENDBRANCH   5   6
ENDBRANCH   1   5
BRANCH   3  29
HETATM   29  O4  UNL     1      16.079  22.216  18.466  1.00  0.00    -0.298 OA
BRANCH  29  30
HETATM   30  C21 UNL     1      16.599  20.971  18.116  1.00  0.00     0.141 C 
HETATM   31  C22 UNL     1      16.977  20.939  16.673  1.00  0.00     0.111 C 
HETATM   32  C23 UNL     1      15.766  21.379  15.880  1.00  0.00     0.134 C 
HETATM   33  O5  UNL     1      15.980  22.158  14.994  1.00  0.00    -0.297 OA
HETATM   34  C24 UNL     1      14.463  20.807  16.278  1.00  0.00     0.068 C 
HETATM   35  C25 UNL     1      14.757  19.571  17.099  1.00  0.00    -0.000 C 
HETATM   36  C38 UNL     1      13.571  20.507  15.083  1.00  0.00    -0.029 C 
HETATM   37  C26 UNL     1      13.500  18.876  17.525  1.00  0.00     0.006 C 
HETATM   38  C40 UNL     1      15.507  19.952  18.332  1.00  0.00     0.038 C 
HETATM   39  C27 UNL     1      12.275  19.563  16.890  1.00  0.00     0.006 C 
HETATM   40  C28 UNL     1      12.486  19.530  15.402  1.00  0.00     0.003 C 
HETATM   41  C29 UNL     1      11.269  19.616  14.553  1.00  0.00    -0.036 C 
HETATM   42  C30 UNL     1      11.614  18.808  13.273  1.00  0.00     0.016 C 
HETATM   43  C31 UNL     1      10.075  18.908  15.106  1.00  0.00     0.012 C 
HETATM   44  C35 UNL     1      10.946  20.993  14.020  1.00  0.00    -0.004 C 
HETATM   45  C32 UNL     1       9.073  19.735  15.825  1.00  0.00     0.032 C 
HETATM   46  C33 UNL     1       8.710  21.025  15.167  1.00  0.00     0.118 C 
HETATM   47  C34 UNL     1       9.485  21.267  13.916  1.00  0.00     0.037 C 
HETATM   48  C36 UNL     1      11.619  22.081  14.819  1.00  0.00     0.006 C 
HETATM   49  C37 UNL     1      13.101  21.853  14.605  1.00  0.00     0.011 C 
HETATM   50  C39 UNL     1      14.492  19.887  14.019  1.00  0.00     0.016 C 
BRANCH  46  51
HETATM   51  O6  UNL     1       8.853  22.121  16.054  1.00  0.00    -0.396 OA
ATOM     52  H6  UNL     1       9.625  22.636  15.852  1.00  0.00     0.210 HD
ENDBRANCH  46  51
ENDBRANCH  29  30
ENDBRANCH   3  29
TORSDOF 16
ENDMDL
