MODEL 1
REMARK VINA RESULT: -7.851620716      0.000      0.000
REMARK  2 active torsions:
REMARK  status: ('A' for Active; 'I' for Inactive)
REMARK    1  A    between atoms: C2_2  and  C3_4 
REMARK    2  A    between atoms: C8_10  and  O3_11 
ROOT
HETATM    1  C3  UNL     1      12.269  45.082  44.794  1.00  0.00     0.048 C 
HETATM    2  C4  UNL     1      13.521  44.836  45.602  1.00  0.00     0.025 C 
HETATM    3  C5  UNL     1      13.960  43.419  45.284  1.00  0.00     0.034 C 
HETATM    4  C6  UNL     1      14.192  43.186  43.835  1.00  0.00     0.126 C 
HETATM    5  O2  UNL     1      14.541  41.887  43.592  1.00  0.00    -0.383 OA
HETATM    6  C7  UNL     1      15.094  41.845  42.292  1.00  0.00     0.199 C 
HETATM    7  C8  UNL     1      13.973  42.098  41.330  1.00  0.00     0.142 C 
HETATM    8  C9  UNL     1      13.557  43.565  41.513  1.00  0.00     0.041 C 
HETATM    9  C10 UNL     1      13.012  43.634  42.948  1.00  0.00     0.023 C 
HETATM   10  C11 UNL     1      12.697  44.977  43.371  1.00  0.00     0.013 C 
HETATM   11  C12 UNL     1      11.750  45.841  42.599  1.00  0.00     0.017 C 
HETATM   12  C13 UNL     1      12.010  47.107  43.434  1.00  0.00     0.033 C 
HETATM   13  C14 UNL     1      11.834  46.523  44.831  1.00  0.00    -0.059 C 
HETATM   14  C15 UNL     1      11.366  47.434  45.631  1.00  0.00     0.015 C 
HETATM   15  C16 UNL     1      11.183  48.692  44.856  1.00  0.00     0.208 C 
HETATM   16  F1  UNL     1      10.114  49.434  45.261  1.00  0.00    -0.244 F 
HETATM   17  C17 UNL     1      10.931  48.110  43.440  1.00  0.00     0.103 C 
HETATM   18 BR1  UNL     1      11.184  49.487  42.135  1.00  0.00    -0.087 Br
ENDROOT
BRANCH   1  19
HETATM   19  C2  UNL     1      11.180  44.196  45.224  1.00  0.00     0.136 C 
HETATM   20  C1  UNL     1      11.079  43.889  46.680  1.00  0.00     0.092 C 
HETATM   21  O1  UNL     1      10.344  43.678  44.526  1.00  0.00    -0.297 OA
ENDBRANCH   1  19
BRANCH   7  22
HETATM   22  O3  UNL     1      14.273  41.807  40.022  1.00  0.00    -0.393 OA
ATOM     23  H3  UNL     1      13.909  40.988  39.709  1.00  0.00     0.210 HD
ENDBRANCH   7  22
TORSDOF 2
ENDMDL
MODEL 2
REMARK VINA RESULT: -7.754304969      3.716      5.847
REMARK  2 active torsions:
REMARK  status: ('A' for Active; 'I' for Inactive)
REMARK    1  A    between atoms: C2_2  and  C3_4 
REMARK    2  A    between atoms: C8_10  and  O3_11 
ROOT
HETATM    1  C3  UNL     1      12.251  45.683  43.062  1.00  0.00     0.048 C 
HETATM    2  C4  UNL     1      12.629  46.787  44.021  1.00  0.00     0.025 C 
HETATM    3  C5  UNL     1      11.348  47.194  44.725  1.00  0.00     0.034 C 
HETATM    4  C6  UNL     1      10.679  46.068  45.428  1.00  0.00     0.126 C 
HETATM    5  O2  UNL     1       9.509  46.472  46.007  1.00  0.00    -0.383 OA
HETATM    6  C7  UNL     1       9.145  45.473  46.939  1.00  0.00     0.199 C 
HETATM    7  C8  UNL     1       8.752  44.260  46.151  1.00  0.00     0.142 C 
HETATM    8  C9  UNL     1      10.035  43.719  45.504  1.00  0.00     0.041 C 
HETATM    9  C10 UNL     1      10.473  44.828  44.534  1.00  0.00     0.023 C 
HETATM   10  C11 UNL     1      11.756  44.572  43.923  1.00  0.00     0.013 C 
HETATM   11  C12 UNL     1      12.024  43.316  43.157  1.00  0.00     0.017 C 
HETATM   12  C13 UNL     1      13.526  43.589  42.968  1.00  0.00     0.033 C 
HETATM   13  C14 UNL     1      13.454  45.019  42.446  1.00  0.00    -0.059 C 
HETATM   14  C15 UNL     1      14.444  45.239  41.633  1.00  0.00     0.015 C 
HETATM   15  C16 UNL     1      15.255  43.995  41.532  1.00  0.00     0.208 C 
HETATM   16  F1  UNL     1      15.803  43.796  40.300  1.00  0.00    -0.244 F 
HETATM   17  C17 UNL     1      14.163  42.929  41.817  1.00  0.00     0.103 C 
HETATM   18 BR1  UNL     1      15.001  41.270  42.274  1.00  0.00    -0.087 Br
ENDROOT
BRANCH   1  19
HETATM   19  C2  UNL     1      11.336  46.174  42.025  1.00  0.00     0.136 C 
HETATM   20  C1  UNL     1      11.100  45.292  40.845  1.00  0.00     0.092 C 
HETATM   21  O1  UNL     1      10.742  47.223  42.015  1.00  0.00    -0.297 OA
ENDBRANCH   1  19
BRANCH   7  22
HETATM   22  O3  UNL     1       8.098  43.297  46.881  1.00  0.00    -0.393 OA
ATOM     23  H3  UNL     1       7.735  42.590  46.361  1.00  0.00     0.210 HD
ENDBRANCH   7  22
TORSDOF 2
ENDMDL
MODEL 3
REMARK VINA RESULT: -7.151229972      2.668      3.836
REMARK  2 active torsions:
REMARK  status: ('A' for Active; 'I' for Inactive)
REMARK    1  A    between atoms: C2_2  and  C3_4 
REMARK    2  A    between atoms: C8_10  and  O3_11 
ROOT
HETATM    1  C3  UNL     1      11.855  45.087  42.907  1.00  0.00     0.048 C 
HETATM    2  C4  UNL     1      11.498  44.272  41.686  1.00  0.00     0.025 C 
HETATM    3  C5  UNL     1      12.759  44.192  40.847  1.00  0.00     0.034 C 
HETATM    4  C6  UNL     1      13.914  43.604  41.575  1.00  0.00     0.126 C 
HETATM    5  O2  UNL     1      15.036  43.593  40.795  1.00  0.00    -0.383 OA
HETATM    6  C7  UNL     1      15.952  42.705  41.404  1.00  0.00     0.199 C 
HETATM    7  C8  UNL     1      16.409  43.351  42.677  1.00  0.00     0.142 C 
HETATM    8  C9  UNL     1      15.203  43.356  43.627  1.00  0.00     0.041 C 
HETATM    9  C10 UNL     1      14.176  44.270  42.941  1.00  0.00     0.023 C 
HETATM   10  C11 UNL     1      12.899  44.293  43.613  1.00  0.00     0.013 C 
HETATM   11  C12 UNL     1      12.779  44.661  45.058  1.00  0.00     0.017 C 
HETATM   12  C13 UNL     1      11.285  44.313  45.164  1.00  0.00     0.033 C 
HETATM   13  C14 UNL     1      10.767  45.071  43.948  1.00  0.00    -0.059 C 
HETATM   14  C15 UNL     1       9.551  45.475  44.168  1.00  0.00     0.015 C 
HETATM   15  C16 UNL     1       9.149  45.036  45.533  1.00  0.00     0.208 C 
HETATM   16  F1  UNL     1       8.321  45.911  46.169  1.00  0.00    -0.244 F 
HETATM   17  C17 UNL     1      10.535  44.999  46.230  1.00  0.00     0.103 C 
HETATM   18 BR1  UNL     1      10.408  43.967  47.838  1.00  0.00    -0.087 Br
ENDROOT
BRANCH   1  19
HETATM   19  C2  UNL     1      12.207  46.464  42.539  1.00  0.00     0.136 C 
HETATM   20  C1  UNL     1      11.127  47.320  41.969  1.00  0.00     0.092 C 
HETATM   21  O1  UNL     1      13.286  46.993  42.647  1.00  0.00    -0.297 OA
ENDBRANCH   1  19
BRANCH   7  22
HETATM   22  O3  UNL     1      17.511  42.763  43.247  1.00  0.00    -0.393 OA
ATOM     23  H3  UNL     1      17.357  41.892  43.593  1.00  0.00     0.210 HD
ENDBRANCH   7  22
TORSDOF 2
ENDMDL
MODEL 4
REMARK VINA RESULT: -6.916948926      1.412      1.463
REMARK  2 active torsions:
REMARK  status: ('A' for Active; 'I' for Inactive)
REMARK    1  A    between atoms: C2_2  and  C3_4 
REMARK    2  A    between atoms: C8_10  and  O3_11 
ROOT
HETATM    1  C3  UNL     1      13.232  44.434  44.512  1.00  0.00     0.048 C 
HETATM    2  C4  UNL     1      14.524  44.419  45.295  1.00  0.00     0.025 C 
HETATM    3  C5  UNL     1      15.335  43.258  44.752  1.00  0.00     0.034 C 
HETATM    4  C6  UNL     1      15.586  43.348  43.289  1.00  0.00     0.126 C 
HETATM    5  O2  UNL     1      16.279  42.260  42.839  1.00  0.00    -0.383 OA
HETATM    6  C7  UNL     1      16.788  42.595  41.563  1.00  0.00     0.199 C 
HETATM    7  C8  UNL     1      15.616  42.681  40.632  1.00  0.00     0.142 C 
HETATM    8  C9  UNL     1      14.809  43.918  41.051  1.00  0.00     0.041 C 
HETATM    9  C10 UNL     1      14.304  43.587  42.465  1.00  0.00     0.023 C 
HETATM   10  C11 UNL     1      13.635  44.696  43.102  1.00  0.00     0.013 C 
HETATM   11  C12 UNL     1      12.463  45.375  42.466  1.00  0.00     0.017 C 
HETATM   12  C13 UNL     1      12.377  46.503  43.509  1.00  0.00     0.033 C 
HETATM   13  C14 UNL     1      12.410  45.666  44.782  1.00  0.00    -0.059 C 
HETATM   14  C15 UNL     1      11.726  46.260  45.714  1.00  0.00     0.015 C 
HETATM   15  C16 UNL     1      11.175  47.527  45.159  1.00  0.00     0.208 C 
HETATM   16  F1  UNL     1       9.951  47.859  45.659  1.00  0.00    -0.244 F 
HETATM   17  C17 UNL     1      11.061  47.145  43.659  1.00  0.00     0.103 C 
HETATM   18 BR1  UNL     1      10.881  48.737  42.612  1.00  0.00    -0.087 Br
ENDROOT
BRANCH   1  19
HETATM   19  C2  UNL     1      12.448  43.217  44.761  1.00  0.00     0.136 C 
HETATM   20  C1  UNL     1      12.028  42.948  46.166  1.00  0.00     0.092 C 
HETATM   21  O1  UNL     1      12.100  42.397  43.949  1.00  0.00    -0.297 OA
ENDBRANCH   1  19
BRANCH   7  22
HETATM   22  O3  UNL     1      15.951  42.712  39.301  1.00  0.00    -0.393 OA
ATOM     23  H3  UNL     1      15.619  41.979  38.796  1.00  0.00     0.210 HD
ENDBRANCH   7  22
TORSDOF 2
ENDMDL
MODEL 5
REMARK VINA RESULT: -6.886697281      3.768      6.153
REMARK  2 active torsions:
REMARK  status: ('A' for Active; 'I' for Inactive)
REMARK    1  A    between atoms: C2_2  and  C3_4 
REMARK    2  A    between atoms: C8_10  and  O3_11 
ROOT
HETATM    1  C3  UNL     1      13.561  42.893  43.236  1.00  0.00     0.048 C 
HETATM    2  C4  UNL     1      12.219  42.538  43.833  1.00  0.00     0.025 C 
HETATM    3  C5  UNL     1      11.790  43.739  44.654  1.00  0.00     0.034 C 
HETATM    4  C6  UNL     1      11.718  44.997  43.866  1.00  0.00     0.126 C 
HETATM    5  O2  UNL     1      11.371  46.056  44.655  1.00  0.00    -0.383 OA
HETATM    6  C7  UNL     1      10.969  47.100  43.791  1.00  0.00     0.199 C 
HETATM    7  C8  UNL     1      12.197  47.576  43.075  1.00  0.00     0.142 C 
HETATM    8  C9  UNL     1      12.621  46.445  42.127  1.00  0.00     0.041 C 
HETATM    9  C10 UNL     1      13.001  45.283  43.059  1.00  0.00     0.023 C 
HETATM   10  C11 UNL     1      13.295  44.061  42.350  1.00  0.00     0.013 C 
HETATM   11  C12 UNL     1      14.342  44.005  41.283  1.00  0.00     0.017 C 
HETATM   12  C13 UNL     1      14.017  42.566  40.849  1.00  0.00     0.033 C 
HETATM   13  C14 UNL     1      14.020  41.888  42.214  1.00  0.00    -0.059 C 
HETATM   14  C15 UNL     1      14.413  40.656  42.090  1.00  0.00     0.015 C 
HETATM   15  C16 UNL     1      14.711  40.398  40.654  1.00  0.00     0.208 C 
HETATM   16  F1  UNL     1      15.743  39.530  40.455  1.00  0.00    -0.244 F 
HETATM   17  C17 UNL     1      15.109  41.826  40.194  1.00  0.00     0.103 C 
HETATM   18 BR1  UNL     1      15.037  41.919  38.284  1.00  0.00    -0.087 Br
ENDROOT
BRANCH   1  19
HETATM   19  C2  UNL     1      14.574  43.075  44.283  1.00  0.00     0.136 C 
HETATM   20  C1  UNL     1      15.987  43.263  43.845  1.00  0.00     0.092 C 
HETATM   21  O1  UNL     1      14.394  43.090  45.476  1.00  0.00    -0.297 OA
ENDBRANCH   1  19
BRANCH   7  22
HETATM   22  O3  UNL     1      12.042  48.770  42.416  1.00  0.00    -0.393 OA
ATOM     23  H3  UNL     1      12.558  49.484  42.771  1.00  0.00     0.210 HD
ENDBRANCH   7  22
TORSDOF 2
ENDMDL
