MODEL 1
REMARK VINA RESULT: -6.886643664      0.000      0.000
REMARK  12 active torsions:
REMARK  status: ('A' for Active; 'I' for Inactive)
REMARK    1  A    between atoms: N1_3  and  C3_5 
REMARK    2  A    between atoms: C4_8  and  N3_9 
REMARK    3  A    between atoms: C5_14  and  C6_15 
REMARK    4  A    between atoms: C7_16  and  C8_17 
REMARK    5  A    between atoms: C8_17  and  O1_18 
REMARK    6  A    between atoms: O1_18  and  C9_19 
REMARK    7  A    between atoms: C9_19  and  C10_20 
REMARK    8  A    between atoms: C12_22  and  C13_23 
REMARK    9  A    between atoms: C13_23  and  O2_24 
REMARK   10  A    between atoms: O2_24  and  C14_25 
REMARK   11  A    between atoms: C14_25  and  C15_26 
REMARK   12  A    between atoms: C15_26  and  C16_27 
ROOT
HETATM    1  C1  UNL     1       4.673  19.788 -29.062  1.00  0.00     0.123 C 
HETATM    2  C2  UNL     1       4.959  18.608 -29.182  1.00  0.00    -0.074 C 
HETATM    3  N1  UNL     1       5.268  17.253 -29.334  1.00  0.00    -0.311 N 
ATOM      4  H1  UNL     1       4.836  16.575 -28.707  1.00  0.00     0.177 HD
ENDROOT
BRANCH   3   5
HETATM    5  C3  UNL     1       6.079  16.834 -30.237  1.00  0.00     0.139 A 
HETATM    6  N2  UNL     1       5.871  17.075 -31.526  1.00  0.00    -0.176 N 
HETATM    7  C4  UNL     1       6.752  16.613 -32.430  1.00  0.00     0.678 A 
ATOM      8  H2  UNL     1       5.052  17.603 -31.827  1.00  0.00     0.186 HD
HETATM    9  N4  UNL     1       7.834  15.915 -32.057  1.00  0.00    -0.183 N 
HETATM   10  C5  UNL     1       8.111  15.630 -30.740  1.00  0.00     0.115 A 
ATOM     11  H4  UNL     1       8.477  15.582 -32.777  1.00  0.00     0.185 HD
HETATM   12  C12 UNL     1       7.215  16.101 -29.821  1.00  0.00     0.047 A 
BRANCH   7  13
HETATM   13  N3  UNL     1       6.543  16.851 -33.678  1.00  0.00    -0.234 N 
ATOM     14  H32 UNL     1       7.242  17.355 -34.222  1.00  0.00     0.174 HD
ATOM     15  H31 UNL     1       5.673  16.527 -34.101  1.00  0.00     0.174 HD
ENDBRANCH   7  13
BRANCH  10  16
HETATM   16  C6  UNL     1       9.271  14.855 -30.422  1.00  0.00    -0.045 C 
HETATM   17  C7  UNL     1      10.254  14.202 -30.193  1.00  0.00    -0.073 C 
BRANCH  17  18
HETATM   18  C8  UNL     1      11.468  13.390 -29.938  1.00  0.00     0.261 C 
BRANCH  18  19
HETATM   19  O1  UNL     1      12.518  14.170 -29.491  1.00  0.00    -0.376 OA
BRANCH  19  20
HETATM   20  C9  UNL     1      12.948  15.017 -30.491  1.00  0.00     0.195 C 
BRANCH  20  21
HETATM   21  C10 UNL     1      13.253  16.392 -30.060  1.00  0.00    -0.011 C 
HETATM   22  C11 UNL     1      12.431  17.101 -29.300  1.00  0.00     0.009 C 
ENDBRANCH  20  21
ENDBRANCH  19  20
ENDBRANCH  18  19
ENDBRANCH  17  18
ENDBRANCH  10  16
BRANCH  12  23
HETATM   23  C13 UNL     1       7.366  15.869 -28.392  1.00  0.00     0.213 C 
BRANCH  23  24
HETATM   24  O2  UNL     1       7.499  17.001 -27.629  1.00  0.00    -0.386 OA
BRANCH  24  25
HETATM   25  C14 UNL     1       8.875  17.315 -27.532  1.00  0.00     0.168 C 
BRANCH  25  26
HETATM   26  C15 UNL     1       9.643  16.153 -26.989  1.00  0.00     0.026 C 
BRANCH  26  27
HETATM   27  C16 UNL     1      10.083  16.356 -25.561  1.00  0.00    -0.002 C 
HETATM   28  C17 UNL     1       9.872  17.848 -25.271  1.00  0.00     0.005 C 
ENDBRANCH  26  27
ENDBRANCH  25  26
ENDBRANCH  24  25
ENDBRANCH  23  24
ENDBRANCH  12  23
ENDBRANCH   3   5
TORSDOF 12
ENDMDL
MODEL 2
REMARK VINA RESULT: -6.706697347      1.821      5.895
REMARK  12 active torsions:
REMARK  status: ('A' for Active; 'I' for Inactive)
REMARK    1  A    between atoms: N1_3  and  C3_5 
REMARK    2  A    between atoms: C4_8  and  N3_9 
REMARK    3  A    between atoms: C5_14  and  C6_15 
REMARK    4  A    between atoms: C7_16  and  C8_17 
REMARK    5  A    between atoms: C8_17  and  O1_18 
REMARK    6  A    between atoms: O1_18  and  C9_19 
REMARK    7  A    between atoms: C9_19  and  C10_20 
REMARK    8  A    between atoms: C12_22  and  C13_23 
REMARK    9  A    between atoms: C13_23  and  O2_24 
REMARK   10  A    between atoms: O2_24  and  C14_25 
REMARK   11  A    between atoms: C14_25  and  C15_26 
REMARK   12  A    between atoms: C15_26  and  C16_27 
ROOT
HETATM    1  C1  UNL     1      10.782  13.880 -30.477  1.00  0.00     0.123 C 
HETATM    2  C2  UNL     1       9.611  14.134 -30.247  1.00  0.00    -0.074 C 
HETATM    3  N1  UNL     1       8.277  14.444 -29.969  1.00  0.00    -0.311 N 
ATOM      4  H1  UNL     1       7.807  13.959 -29.205  1.00  0.00     0.177 HD
ENDROOT
BRANCH   3   5
HETATM    5  C3  UNL     1       7.622  15.318 -30.645  1.00  0.00     0.139 A 
HETATM    6  N2  UNL     1       7.590  15.291 -31.972  1.00  0.00    -0.176 N 
HETATM    7  C4  UNL     1       6.890  16.230 -32.631  1.00  0.00     0.678 A 
ATOM      8  H2  UNL     1       8.092  14.567 -32.486  1.00  0.00     0.186 HD
HETATM    9  N4  UNL     1       6.224  17.192 -31.975  1.00  0.00    -0.183 N 
HETATM   10  C5  UNL     1       6.214  17.279 -30.602  1.00  0.00     0.115 A 
ATOM     11  H4  UNL     1       5.705  17.885 -32.515  1.00  0.00     0.185 HD
HETATM   12  C12 UNL     1       6.926  16.323 -29.934  1.00  0.00     0.047 A 
BRANCH   7  13
HETATM   13  N3  UNL     1       6.863  16.197 -33.917  1.00  0.00    -0.234 N 
ATOM     14  H32 UNL     1       7.720  16.012 -34.437  1.00  0.00     0.174 HD
ATOM     15  H31 UNL     1       5.977  16.357 -34.395  1.00  0.00     0.174 HD
ENDBRANCH   7  13
BRANCH  10  16
HETATM   16  C6  UNL     1       5.504  18.352 -29.976  1.00  0.00    -0.045 C 
HETATM   17  C7  UNL     1       4.939  19.262 -29.430  1.00  0.00    -0.073 C 
BRANCH  17  18
HETATM   18  C8  UNL     1       4.265  20.385 -28.738  1.00  0.00     0.261 C 
BRANCH  18  19
HETATM   19  O1  UNL     1       5.145  21.100 -27.948  1.00  0.00    -0.376 OA
BRANCH  19  20
HETATM   20  C9  UNL     1       5.231  20.538 -26.692  1.00  0.00     0.195 C 
BRANCH  20  21
HETATM   21  C10 UNL     1       3.948  20.376 -25.988  1.00  0.00    -0.011 C 
HETATM   22  C11 UNL     1       3.813  19.613 -24.913  1.00  0.00     0.009 C 
ENDBRANCH  20  21
ENDBRANCH  19  20
ENDBRANCH  18  19
ENDBRANCH  17  18
ENDBRANCH  10  16
BRANCH  12  23
HETATM   23  C13 UNL     1       7.021  16.291 -28.481  1.00  0.00     0.213 C 
BRANCH  23  24
HETATM   24  O2  UNL     1       8.290  16.420 -27.977  1.00  0.00    -0.386 OA
BRANCH  24  25
HETATM   25  C14 UNL     1       8.522  17.787 -27.697  1.00  0.00     0.168 C 
BRANCH  25  26
HETATM   26  C15 UNL     1       9.988  18.078 -27.668  1.00  0.00     0.026 C 
BRANCH  26  27
HETATM   27  C16 UNL     1      10.834  16.855 -27.923  1.00  0.00    -0.002 C 
HETATM   28  C17 UNL     1      11.800  17.247 -29.049  1.00  0.00     0.005 C 
ENDBRANCH  26  27
ENDBRANCH  25  26
ENDBRANCH  24  25
ENDBRANCH  23  24
ENDBRANCH  12  23
ENDBRANCH   3   5
TORSDOF 12
ENDMDL
MODEL 3
REMARK VINA RESULT: -6.630329636      2.955      7.154
REMARK  12 active torsions:
REMARK  status: ('A' for Active; 'I' for Inactive)
REMARK    1  A    between atoms: N1_3  and  C3_5 
REMARK    2  A    between atoms: C4_8  and  N3_9 
REMARK    3  A    between atoms: C5_14  and  C6_15 
REMARK    4  A    between atoms: C7_16  and  C8_17 
REMARK    5  A    between atoms: C8_17  and  O1_18 
REMARK    6  A    between atoms: O1_18  and  C9_19 
REMARK    7  A    between atoms: C9_19  and  C10_20 
REMARK    8  A    between atoms: C12_22  and  C13_23 
REMARK    9  A    between atoms: C13_23  and  O2_24 
REMARK   10  A    between atoms: O2_24  and  C14_25 
REMARK   11  A    between atoms: C14_25  and  C15_26 
REMARK   12  A    between atoms: C15_26  and  C16_27 
ROOT
HETATM    1  C1  UNL     1      10.890  12.259 -29.573  1.00  0.00     0.123 C 
HETATM    2  C2  UNL     1       9.956  13.044 -29.558  1.00  0.00    -0.074 C 
HETATM    3  N1  UNL     1       8.877  13.932 -29.523  1.00  0.00    -0.311 N 
ATOM      4  H1  UNL     1       8.073  13.755 -30.124  1.00  0.00     0.177 HD
ENDROOT
BRANCH   3   5
HETATM    5  C3  UNL     1       8.864  14.964 -28.758  1.00  0.00     0.139 A 
HETATM    6  N2  UNL     1       9.712  15.090 -27.744  1.00  0.00    -0.176 N 
HETATM    7  C4  UNL     1       9.656  16.191 -26.975  1.00  0.00     0.678 A 
ATOM      8  H2  UNL     1      10.399  14.361 -27.552  1.00  0.00     0.186 HD
HETATM    9  N4  UNL     1       8.760  17.161 -27.210  1.00  0.00    -0.183 N 
HETATM   10  C5  UNL     1       7.853  17.095 -28.241  1.00  0.00     0.115 A 
ATOM     11  H4  UNL     1       8.752  17.979 -26.600  1.00  0.00     0.185 HD
HETATM   12  C12 UNL     1       7.912  15.976 -29.024  1.00  0.00     0.047 A 
BRANCH   7  13
HETATM   13  N3  UNL     1      10.482  16.306 -25.995  1.00  0.00    -0.234 N 
ATOM     14  H32 UNL     1      10.401  15.688 -25.188  1.00  0.00     0.174 HD
ATOM     15  H31 UNL     1      11.209  17.019 -26.046  1.00  0.00     0.174 HD
ENDBRANCH   7  13
BRANCH  10  16
HETATM   16  C6  UNL     1       6.909  18.157 -28.410  1.00  0.00    -0.045 C 
HETATM   17  C7  UNL     1       6.109  19.036 -28.587  1.00  0.00    -0.073 C 
BRANCH  17  18
HETATM   18  C8  UNL     1       5.122  20.114 -28.834  1.00  0.00     0.261 C 
BRANCH  18  19
HETATM   19  O1  UNL     1       5.223  21.122 -27.895  1.00  0.00    -0.376 OA
BRANCH  19  20
HETATM   20  C9  UNL     1       4.747  20.692 -26.674  1.00  0.00     0.195 C 
BRANCH  20  21
HETATM   21  C10 UNL     1       5.558  21.085 -25.510  1.00  0.00    -0.011 C 
HETATM   22  C11 UNL     1       6.701  20.492 -25.202  1.00  0.00     0.009 C 
ENDBRANCH  20  21
ENDBRANCH  19  20
ENDBRANCH  18  19
ENDBRANCH  17  18
ENDBRANCH  10  16
BRANCH  12  23
HETATM   23  C13 UNL     1       7.009  15.757 -30.144  1.00  0.00     0.213 C 
BRANCH  23  24
HETATM   24  O2  UNL     1       7.555  15.976 -31.383  1.00  0.00    -0.386 OA
BRANCH  24  25
HETATM   25  C14 UNL     1       6.594  16.636 -32.185  1.00  0.00     0.168 C 
BRANCH  25  26
HETATM   26  C15 UNL     1       6.944  16.517 -33.633  1.00  0.00     0.026 C 
BRANCH  26  27
HETATM   27  C16 UNL     1       7.947  15.424 -33.907  1.00  0.00    -0.002 C 
HETATM   28  C17 UNL     1       7.120  14.191 -34.294  1.00  0.00     0.005 C 
ENDBRANCH  26  27
ENDBRANCH  25  26
ENDBRANCH  24  25
ENDBRANCH  23  24
ENDBRANCH  12  23
ENDBRANCH   3   5
TORSDOF 12
ENDMDL
MODEL 4
REMARK VINA RESULT: -6.542781276      1.930      5.614
REMARK  12 active torsions:
REMARK  status: ('A' for Active; 'I' for Inactive)
REMARK    1  A    between atoms: N1_3  and  C3_5 
REMARK    2  A    between atoms: C4_8  and  N3_9 
REMARK    3  A    between atoms: C5_14  and  C6_15 
REMARK    4  A    between atoms: C7_16  and  C8_17 
REMARK    5  A    between atoms: C8_17  and  O1_18 
REMARK    6  A    between atoms: O1_18  and  C9_19 
REMARK    7  A    between atoms: C9_19  and  C10_20 
REMARK    8  A    between atoms: C12_22  and  C13_23 
REMARK    9  A    between atoms: C13_23  and  O2_24 
REMARK   10  A    between atoms: O2_24  and  C14_25 
REMARK   11  A    between atoms: C14_25  and  C15_26 
REMARK   12  A    between atoms: C15_26  and  C16_27 
ROOT
HETATM    1  C1  UNL     1      10.907  13.985 -30.536  1.00  0.00     0.123 C 
HETATM    2  C2  UNL     1       9.720  14.179 -30.327  1.00  0.00    -0.074 C 
HETATM    3  N1  UNL     1       8.367  14.419 -30.072  1.00  0.00    -0.311 N 
ATOM      4  H1  UNL     1       7.900  13.882 -29.342  1.00  0.00     0.177 HD
ENDROOT
BRANCH   3   5
HETATM    5  C3  UNL     1       7.691  15.292 -30.728  1.00  0.00     0.139 A 
HETATM    6  N2  UNL     1       7.642  15.282 -32.055  1.00  0.00    -0.176 N 
HETATM    7  C4  UNL     1       6.919  16.219 -32.692  1.00  0.00     0.678 A 
ATOM      8  H2  UNL     1       8.146  14.571 -32.585  1.00  0.00     0.186 HD
HETATM    9  N4  UNL     1       6.250  17.164 -32.015  1.00  0.00    -0.183 N 
HETATM   10  C5  UNL     1       6.258  17.233 -30.641  1.00  0.00     0.115 A 
ATOM     11  H4  UNL     1       5.715  17.857 -32.538  1.00  0.00     0.185 HD
HETATM   12  C12 UNL     1       6.992  16.278 -29.994  1.00  0.00     0.047 A 
BRANCH   7  13
HETATM   13  N3  UNL     1       6.876  16.202 -33.978  1.00  0.00    -0.234 N 
ATOM     14  H32 UNL     1       6.545  15.368 -34.463  1.00  0.00     0.174 HD
ATOM     15  H31 UNL     1       7.177  17.030 -34.491  1.00  0.00     0.174 HD
ENDBRANCH   7  13
BRANCH  10  16
HETATM   16  C6  UNL     1       5.542  18.288 -29.991  1.00  0.00    -0.045 C 
HETATM   17  C7  UNL     1       4.974  19.188 -29.433  1.00  0.00    -0.073 C 
BRANCH  17  18
HETATM   18  C8  UNL     1       4.298  20.305 -28.730  1.00  0.00     0.261 C 
BRANCH  18  19
HETATM   19  O1  UNL     1       5.176  21.008 -27.929  1.00  0.00    -0.376 OA
BRANCH  19  20
HETATM   20  C9  UNL     1       4.992  20.674 -26.603  1.00  0.00     0.195 C 
BRANCH  20  21
HETATM   21  C10 UNL     1       6.227  20.402 -25.848  1.00  0.00    -0.011 C 
HETATM   22  C11 UNL     1       6.275  19.536 -24.846  1.00  0.00     0.009 C 
ENDBRANCH  20  21
ENDBRANCH  19  20
ENDBRANCH  18  19
ENDBRANCH  17  18
ENDBRANCH  10  16
BRANCH  12  23
HETATM   23  C13 UNL     1       7.106  16.230 -28.544  1.00  0.00     0.213 C 
BRANCH  23  24
HETATM   24  O2  UNL     1       8.346  16.542 -28.047  1.00  0.00    -0.386 OA
BRANCH  24  25
HETATM   25  C14 UNL     1       8.292  17.846 -27.500  1.00  0.00     0.168 C 
BRANCH  25  26
HETATM   26  C15 UNL     1       9.580  18.186 -26.822  1.00  0.00     0.026 C 
BRANCH  26  27
HETATM   27  C16 UNL     1      10.019  19.607 -27.075  1.00  0.00    -0.002 C 
HETATM   28  C17 UNL     1      10.018  20.292 -25.702  1.00  0.00     0.005 C 
ENDBRANCH  26  27
ENDBRANCH  25  26
ENDBRANCH  24  25
ENDBRANCH  23  24
ENDBRANCH  12  23
ENDBRANCH   3   5
TORSDOF 12
ENDMDL
MODEL 5
REMARK VINA RESULT: -6.439798824      2.009      4.907
REMARK  12 active torsions:
REMARK  status: ('A' for Active; 'I' for Inactive)
REMARK    1  A    between atoms: N1_3  and  C3_5 
REMARK    2  A    between atoms: C4_8  and  N3_9 
REMARK    3  A    between atoms: C5_14  and  C6_15 
REMARK    4  A    between atoms: C7_16  and  C8_17 
REMARK    5  A    between atoms: C8_17  and  O1_18 
REMARK    6  A    between atoms: O1_18  and  C9_19 
REMARK    7  A    between atoms: C9_19  and  C10_20 
REMARK    8  A    between atoms: C12_22  and  C13_23 
REMARK    9  A    between atoms: C13_23  and  O2_24 
REMARK   10  A    between atoms: O2_24  and  C14_25 
REMARK   11  A    between atoms: C14_25  and  C15_26 
REMARK   12  A    between atoms: C15_26  and  C16_27 
ROOT
HETATM    1  C1  UNL     1       7.584  15.640 -34.039  1.00  0.00     0.123 C 
HETATM    2  C2  UNL     1       7.055  15.542 -32.943  1.00  0.00    -0.074 C 
HETATM    3  N1  UNL     1       6.470  15.424 -31.680  1.00  0.00    -0.311 N 
ATOM      4  H1  UNL     1       6.069  14.528 -31.404  1.00  0.00     0.177 HD
ENDROOT
BRANCH   3   5
HETATM    5  C3  UNL     1       6.421  16.406 -30.854  1.00  0.00     0.139 A 
HETATM    6  N2  UNL     1       5.599  17.432 -31.040  1.00  0.00    -0.176 N 
HETATM    7  C4  UNL     1       5.587  18.434 -30.145  1.00  0.00     0.678 A 
ATOM      8  H2  UNL     1       4.983  17.459 -31.852  1.00  0.00     0.186 HD
HETATM    9  N4  UNL     1       6.389  18.419 -29.070  1.00  0.00    -0.183 N 
HETATM   10  C5  UNL     1       7.264  17.389 -28.816  1.00  0.00     0.115 A 
ATOM     11  H4  UNL     1       6.349  19.201 -28.416  1.00  0.00     0.185 HD
HETATM   12  C12 UNL     1       7.275  16.370 -29.727  1.00  0.00     0.047 A 
BRANCH   7  13
HETATM   13  N3  UNL     1       4.787  19.425 -30.332  1.00  0.00    -0.234 N 
ATOM     14  H32 UNL     1       4.896  20.016 -31.155  1.00  0.00     0.174 HD
ATOM     15  H31 UNL     1       4.052  19.599 -29.646  1.00  0.00     0.174 HD
ENDBRANCH   7  13
BRANCH  10  16
HETATM   16  C6  UNL     1       8.109  17.458 -27.663  1.00  0.00    -0.045 C 
HETATM   17  C7  UNL     1       8.845  17.535 -26.716  1.00  0.00    -0.073 C 
BRANCH  17  18
HETATM   18  C8  UNL     1       9.774  17.636 -25.565  1.00  0.00     0.261 C 
BRANCH  18  19
HETATM   19  O1  UNL     1       9.617  18.829 -24.886  1.00  0.00    -0.376 OA
BRANCH  19  20
HETATM   20  C9  UNL     1       9.926  19.894 -25.705  1.00  0.00     0.195 C 
BRANCH  20  21
HETATM   21  C10 UNL     1      10.473  21.076 -25.018  1.00  0.00    -0.011 C 
HETATM   22  C11 UNL     1      10.474  22.283 -25.563  1.00  0.00     0.009 C 
ENDBRANCH  20  21
ENDBRANCH  19  20
ENDBRANCH  18  19
ENDBRANCH  17  18
ENDBRANCH  10  16
BRANCH  12  23
HETATM   23  C13 UNL     1       8.155  15.217 -29.601  1.00  0.00     0.213 C 
BRANCH  23  24
HETATM   24  O2  UNL     1       9.383  15.355 -30.198  1.00  0.00    -0.386 OA
BRANCH  24  25
HETATM   25  C14 UNL     1      10.369  14.867 -29.309  1.00  0.00     0.168 C 
BRANCH  25  26
HETATM   26  C15 UNL     1      10.007  13.503 -28.818  1.00  0.00     0.026 C 
BRANCH  26  27
HETATM   27  C16 UNL     1      10.721  12.402 -29.562  1.00  0.00    -0.002 C 
HETATM   28  C17 UNL     1      12.004  13.040 -30.113  1.00  0.00     0.005 C 
ENDBRANCH  26  27
ENDBRANCH  25  26
ENDBRANCH  24  25
ENDBRANCH  23  24
ENDBRANCH  12  23
ENDBRANCH   3   5
TORSDOF 12
ENDMDL
