MODEL 1
REMARK VINA RESULT: -5.816585515      0.000      0.000
REMARK  6 active torsions:
REMARK  status: ('A' for Active; 'I' for Inactive)
REMARK    1  A    between atoms: N1_2  and  C3_4 
REMARK    2  A    between atoms: C4_7  and  N3_8 
REMARK    3  A    between atoms: N3_8  and  N4_10 
REMARK    4  A    between atoms: C5_13  and  N5_14 
REMARK    5  A    between atoms: N5_14  and  N6_16 
REMARK    6  A    between atoms: C8_22  and  N8_23 
ROOT
HETATM    1  C3  UNL     1      16.543  -8.805   8.669  1.00  0.00     0.682 C 
HETATM    2  N2  UNL     1      17.045  -7.547   8.448  1.00  0.00    -0.173 N 
ATOM      3  H2  UNL     1      16.641  -6.774   8.975  1.00  0.00     0.186 HD
HETATM    4  C4  UNL     1      18.077  -7.257   7.543  1.00  0.00     0.165 C 
HETATM    5  C5  UNL     1      18.086  -7.744   6.267  1.00  0.00     0.118 C 
HETATM    6  C6  UNL     1      17.972  -9.112   5.898  1.00  0.00     0.122 C 
HETATM    7  C7  UNL     1      18.579  -9.489   4.679  1.00  0.00     0.106 C 
HETATM    8  N7  UNL     1      19.066  -9.777   3.677  1.00  0.00    -0.191 NA
HETATM    9  C8  UNL     1      17.290 -10.059   6.665  1.00  0.00     0.159 C 
HETATM   10  N11 UNL     1      16.610  -9.856   7.834  1.00  0.00    -0.174 N 
ATOM     11  H11 UNL     1      16.047 -10.654   8.128  1.00  0.00     0.186 HD
ENDROOT
BRANCH   5  12
HETATM   12  N5  UNL     1      18.136  -6.952   5.305  1.00  0.00    -0.302 N 
ATOM     13  H5  UNL     1      18.930  -7.121   4.687  1.00  0.00     0.186 HD
BRANCH  12  14
HETATM   14  N6  UNL     1      17.362  -5.917   4.904  1.00  0.00    -0.345 N 
ATOM     15  H62 UNL     1      17.911  -5.071   4.750  1.00  0.00     0.176 HD
ATOM     16  H61 UNL     1      16.363  -5.810   4.728  1.00  0.00     0.176 HD
ENDBRANCH  12  14
ENDBRANCH   5  12
BRANCH   9  17
HETATM   17  N8  UNL     1      17.338 -11.361   6.126  1.00  0.00    -0.275 N 
HETATM   18  N9  UNL     1      16.216 -11.922   5.875  1.00  0.00    -0.235 N 
HETATM   19  C9  UNL     1      16.259 -13.202   5.346  1.00  0.00     0.197 C 
ATOM     20  H9  UNL     1      15.330 -11.449   6.056  1.00  0.00     0.199 HD
HETATM   21  N10 UNL     1      16.298 -14.271   4.889  1.00  0.00    -0.170 NA
ATOM     22  H8  UNL     1      18.224 -11.833   5.945  1.00  0.00     0.189 HD
ENDBRANCH   9  17
BRANCH   4  23
HETATM   23  N3  UNL     1      19.008  -6.526   7.948  1.00  0.00    -0.290 N 
ATOM     24  H3  UNL     1      18.736  -5.670   8.431  1.00  0.00     0.188 HD
BRANCH  23  25
HETATM   25  N4  UNL     1      20.341  -6.747   7.817  1.00  0.00    -0.344 N 
ATOM     26  H42 UNL     1      20.896  -5.928   7.570  1.00  0.00     0.176 HD
ATOM     27  H41 UNL     1      20.834  -7.632   7.938  1.00  0.00     0.176 HD
ENDBRANCH  23  25
ENDBRANCH   4  23
BRANCH   1  28
HETATM   28  N1  UNL     1      15.879  -9.040   9.899  1.00  0.00    -0.226 N 
HETATM   29  C1  UNL     1      14.604  -9.698  10.020  1.00  0.00     0.168 C 
HETATM   30  C2  UNL     1      16.522  -8.591  11.119  1.00  0.00     0.168 C 
ENDBRANCH   1  28
TORSDOF 6
ENDMDL
MODEL 2
REMARK VINA RESULT: -5.802519201      1.605      4.340
REMARK  6 active torsions:
REMARK  status: ('A' for Active; 'I' for Inactive)
REMARK    1  A    between atoms: N1_2  and  C3_4 
REMARK    2  A    between atoms: C4_7  and  N3_8 
REMARK    3  A    between atoms: N3_8  and  N4_10 
REMARK    4  A    between atoms: C5_13  and  N5_14 
REMARK    5  A    between atoms: N5_14  and  N6_16 
REMARK    6  A    between atoms: C8_22  and  N8_23 
ROOT
HETATM    1  C3  UNL     1      18.435  -9.859   5.516  1.00  0.00     0.682 C 
HETATM    2  N2  UNL     1      18.886  -8.602   5.835  1.00  0.00    -0.173 N 
ATOM      3  H2  UNL     1      19.860  -8.380   5.634  1.00  0.00     0.186 HD
HETATM    4  C4  UNL     1      18.092  -7.604   6.420  1.00  0.00     0.165 C 
HETATM    5  C5  UNL     1      17.289  -7.848   7.496  1.00  0.00     0.118 C 
HETATM    6  C6  UNL     1      16.300  -8.866   7.583  1.00  0.00     0.122 C 
HETATM    7  C7  UNL     1      15.212  -8.615   8.448  1.00  0.00     0.106 C 
HETATM    8  N7  UNL     1      14.338  -8.402   9.166  1.00  0.00    -0.191 NA
HETATM    9  C8  UNL     1      16.376 -10.070   6.879  1.00  0.00     0.159 C 
HETATM   10  N11 UNL     1      17.375 -10.491   6.046  1.00  0.00    -0.174 N 
ATOM     11  H11 UNL     1      17.302 -11.472   5.777  1.00  0.00     0.186 HD
ENDROOT
BRANCH   5  12
HETATM   12  N5  UNL     1      17.442  -7.187   8.543  1.00  0.00    -0.302 N 
ATOM     13  H5  UNL     1      16.559  -6.923   8.982  1.00  0.00     0.186 HD
BRANCH  12  14
HETATM   14  N6  UNL     1      18.526  -6.743   9.220  1.00  0.00    -0.345 N 
ATOM     15  H62 UNL     1      18.460  -5.747   9.429  1.00  0.00     0.176 HD
ATOM     16  H61 UNL     1      19.378  -7.190   9.558  1.00  0.00     0.176 HD
ENDBRANCH  12  14
ENDBRANCH   5  12
BRANCH   9  17
HETATM   17  N8  UNL     1      15.265 -10.915   7.087  1.00  0.00    -0.275 N 
HETATM   18  N9  UNL     1      15.126 -11.893   6.274  1.00  0.00    -0.235 N 
HETATM   19  C9  UNL     1      14.036 -12.724   6.475  1.00  0.00     0.197 C 
ATOM     20  H9  UNL     1      15.787 -12.053   5.514  1.00  0.00     0.199 HD
HETATM   21  N10 UNL     1      13.128 -13.429   6.654  1.00  0.00    -0.170 NA
ATOM     22  H8  UNL     1      14.606 -10.753   7.848  1.00  0.00     0.189 HD
ENDBRANCH   9  17
BRANCH   4  23
HETATM   23  N3  UNL     1      18.141  -6.460   5.913  1.00  0.00    -0.290 N 
ATOM     24  H3  UNL     1      18.852  -5.830   6.284  1.00  0.00     0.188 HD
BRANCH  23  25
HETATM   25  N4  UNL     1      17.353  -5.966   4.925  1.00  0.00    -0.344 N 
ATOM     26  H42 UNL     1      17.703  -6.106   3.978  1.00  0.00     0.176 HD
ATOM     27  H41 UNL     1      16.463  -5.479   5.032  1.00  0.00     0.176 HD
ENDBRANCH  23  25
ENDBRANCH   4  23
BRANCH   1  28
HETATM   28  N1  UNL     1      19.150 -10.581   4.528  1.00  0.00    -0.226 N 
HETATM   29  C1  UNL     1      19.890  -9.972   3.454  1.00  0.00     0.168 C 
HETATM   30  C2  UNL     1      19.139 -12.030   4.600  1.00  0.00     0.168 C 
ENDBRANCH   1  28
TORSDOF 6
ENDMDL
MODEL 3
REMARK VINA RESULT: -5.538708347      2.159      4.902
REMARK  6 active torsions:
REMARK  status: ('A' for Active; 'I' for Inactive)
REMARK    1  A    between atoms: N1_2  and  C3_4 
REMARK    2  A    between atoms: C4_7  and  N3_8 
REMARK    3  A    between atoms: N3_8  and  N4_10 
REMARK    4  A    between atoms: C5_13  and  N5_14 
REMARK    5  A    between atoms: N5_14  and  N6_16 
REMARK    6  A    between atoms: C8_22  and  N8_23 
ROOT
HETATM    1  C3  UNL     1      15.941  -8.921   7.996  1.00  0.00     0.682 C 
HETATM    2  N2  UNL     1      14.792  -9.548   8.408  1.00  0.00    -0.173 N 
ATOM      3  H2  UNL     1      14.370  -9.242   9.284  1.00  0.00     0.186 HD
HETATM    4  C4  UNL     1      14.160 -10.583   7.701  1.00  0.00     0.165 C 
HETATM    5  C5  UNL     1      14.849 -11.652   7.203  1.00  0.00     0.118 C 
HETATM    6  C6  UNL     1      15.984 -11.586   6.349  1.00  0.00     0.122 C 
HETATM    7  C7  UNL     1      16.186 -12.685   5.484  1.00  0.00     0.106 C 
HETATM    8  N7  UNL     1      16.344 -13.593   4.796  1.00  0.00    -0.191 NA
HETATM    9  C8  UNL     1      16.882 -10.517   6.349  1.00  0.00     0.159 C 
HETATM   10  N11 UNL     1      16.863  -9.408   7.149  1.00  0.00    -0.174 N 
ATOM     11  H11 UNL     1      17.711  -8.844   7.091  1.00  0.00     0.186 HD
ENDROOT
BRANCH   5  12
HETATM   12  N5  UNL     1      14.529 -12.806   7.550  1.00  0.00    -0.302 N 
ATOM     13  H5  UNL     1      14.120 -13.354   6.791  1.00  0.00     0.186 HD
BRANCH  12  14
HETATM   14  N6  UNL     1      14.609 -13.490   8.715  1.00  0.00    -0.345 N 
ATOM     15  H62 UNL     1      14.488 -12.878   9.522  1.00  0.00     0.176 HD
ATOM     16  H61 UNL     1      14.763 -14.470   8.948  1.00  0.00     0.176 HD
ENDBRANCH  12  14
ENDBRANCH   5  12
BRANCH   9  17
HETATM   17  N8  UNL     1      17.911 -10.646   5.393  1.00  0.00    -0.275 N 
HETATM   18  N9  UNL     1      18.453  -9.563   4.981  1.00  0.00    -0.235 N 
HETATM   19  C9  UNL     1      19.464  -9.686   4.041  1.00  0.00     0.197 C 
ATOM     20  H9  UNL     1      18.155  -8.652   5.328  1.00  0.00     0.199 HD
HETATM   21  N10 UNL     1      20.321  -9.793   3.262  1.00  0.00    -0.170 NA
ATOM     22  H8  UNL     1      18.208 -11.559   5.047  1.00  0.00     0.189 HD
ENDBRANCH   9  17
BRANCH   4  23
HETATM   23  N3  UNL     1      12.923 -10.493   7.535  1.00  0.00    -0.290 N 
ATOM     24  H3  UNL     1      12.425 -11.366   7.360  1.00  0.00     0.188 HD
BRANCH  23  25
HETATM   25  N4  UNL     1      12.172  -9.364   7.561  1.00  0.00    -0.344 N 
ATOM     26  H42 UNL     1      11.234  -9.473   7.949  1.00  0.00     0.176 HD
ATOM     27  H41 UNL     1      12.443  -8.435   7.238  1.00  0.00     0.176 HD
ENDBRANCH  23  25
ENDBRANCH   4  23
BRANCH   1  28
HETATM   28  N1  UNL     1      16.202  -7.625   8.507  1.00  0.00    -0.226 N 
HETATM   29  C1  UNL     1      17.504  -7.155   8.901  1.00  0.00     0.168 C 
HETATM   30  C2  UNL     1      15.086  -6.708   8.645  1.00  0.00     0.168 C 
ENDBRANCH   1  28
TORSDOF 6
ENDMDL
MODEL 4
REMARK VINA RESULT: -5.536993469      6.607     11.692
REMARK  6 active torsions:
REMARK  status: ('A' for Active; 'I' for Inactive)
REMARK    1  A    between atoms: N1_2  and  C3_4 
REMARK    2  A    between atoms: C4_7  and  N3_8 
REMARK    3  A    between atoms: N3_8  and  N4_10 
REMARK    4  A    between atoms: C5_13  and  N5_14 
REMARK    5  A    between atoms: N5_14  and  N6_16 
REMARK    6  A    between atoms: C8_22  and  N8_23 
ROOT
HETATM    1  C3  UNL     1      12.487 -18.663   2.590  1.00  0.00     0.682 C 
HETATM    2  N2  UNL     1      12.530 -19.441   1.460  1.00  0.00    -0.173 N 
ATOM      3  H2  UNL     1      12.079 -20.355   1.493  1.00  0.00     0.186 HD
HETATM    4  C4  UNL     1      13.155 -19.060   0.263  1.00  0.00     0.165 C 
HETATM    5  C5  UNL     1      14.412 -18.529   0.233  1.00  0.00     0.118 C 
HETATM    6  C6  UNL     1      14.856 -17.400   0.975  1.00  0.00     0.122 C 
HETATM    7  C7  UNL     1      15.914 -16.652   0.412  1.00  0.00     0.106 C 
HETATM    8  N7  UNL     1      16.785 -16.061  -0.053  1.00  0.00    -0.191 NA
HETATM    9  C8  UNL     1      14.312 -17.030   2.207  1.00  0.00     0.159 C 
HETATM   10  N11 UNL     1      13.327 -17.666   2.912  1.00  0.00    -0.174 N 
ATOM     11  H11 UNL     1      13.209 -17.315   3.862  1.00  0.00     0.186 HD
ENDROOT
BRANCH   5  12
HETATM   12  N5  UNL     1      15.301 -19.085  -0.442  1.00  0.00    -0.302 N 
ATOM     13  H5  UNL     1      16.098 -19.389   0.118  1.00  0.00     0.186 HD
BRANCH  12  14
HETATM   14  N6  UNL     1      15.436 -19.371  -1.758  1.00  0.00    -0.345 N 
ATOM     15  H62 UNL     1      15.639 -20.359  -1.911  1.00  0.00     0.176 HD
ATOM     16  H61 UNL     1      15.378 -18.815  -2.610  1.00  0.00     0.176 HD
ENDBRANCH  12  14
ENDBRANCH   5  12
BRANCH   9  17
HETATM   17  N8  UNL     1      14.880 -15.856   2.744  1.00  0.00    -0.275 N 
HETATM   18  N9  UNL     1      14.680 -15.636   3.988  1.00  0.00    -0.235 N 
HETATM   19  C9  UNL     1      15.236 -14.484   4.519  1.00  0.00     0.197 C 
ATOM     20  H9  UNL     1      14.137 -16.281   4.563  1.00  0.00     0.199 HD
HETATM   21  N10 UNL     1      15.715 -13.522   4.966  1.00  0.00    -0.170 NA
ATOM     22  H8  UNL     1      15.424 -15.213   2.168  1.00  0.00     0.189 HD
ENDBRANCH   9  17
BRANCH   4  23
HETATM   23  N3  UNL     1      12.511 -19.222  -0.798  1.00  0.00    -0.290 N 
ATOM     24  H3  UNL     1      12.359 -18.390  -1.368  1.00  0.00     0.188 HD
BRANCH  23  25
HETATM   25  N4  UNL     1      11.992 -20.382  -1.274  1.00  0.00    -0.344 N 
ATOM     26  H42 UNL     1      11.137 -20.697  -0.816  1.00  0.00     0.176 HD
ATOM     27  H41 UNL     1      12.364 -20.960  -2.028  1.00  0.00     0.176 HD
ENDBRANCH  23  25
ENDBRANCH   4  23
BRANCH   1  28
HETATM   28  N1  UNL     1      11.458 -18.926   3.529  1.00  0.00    -0.226 N 
HETATM   29  C1  UNL     1      10.192 -19.525   3.198  1.00  0.00     0.168 C 
HETATM   30  C2  UNL     1      11.692 -18.570   4.916  1.00  0.00     0.168 C 
ENDBRANCH   1  28
TORSDOF 6
ENDMDL
MODEL 5
REMARK VINA RESULT: -5.502562759      1.971      4.999
REMARK  6 active torsions:
REMARK  status: ('A' for Active; 'I' for Inactive)
REMARK    1  A    between atoms: N1_2  and  C3_4 
REMARK    2  A    between atoms: C4_7  and  N3_8 
REMARK    3  A    between atoms: N3_8  and  N4_10 
REMARK    4  A    between atoms: C5_13  and  N5_14 
REMARK    5  A    between atoms: N5_14  and  N6_16 
REMARK    6  A    between atoms: C8_22  and  N8_23 
ROOT
HETATM    1  C3  UNL     1      17.024 -12.738   5.726  1.00  0.00     0.682 C 
HETATM    2  N2  UNL     1      18.125 -12.422   4.971  1.00  0.00    -0.173 N 
ATOM      3  H2  UNL     1      18.747 -13.181   4.694  1.00  0.00     0.186 HD
HETATM    4  C4  UNL     1      18.452 -11.121   4.556  1.00  0.00     0.165 C 
HETATM    5  C5  UNL     1      18.437 -10.058   5.412  1.00  0.00     0.118 C 
HETATM    6  C6  UNL     1      17.343  -9.662   6.229  1.00  0.00     0.122 C 
HETATM    7  C7  UNL     1      17.268  -8.291   6.562  1.00  0.00     0.106 C 
HETATM    8  N7  UNL     1      17.229  -7.174   6.836  1.00  0.00    -0.191 NA
HETATM    9  C8  UNL     1      16.383 -10.555   6.710  1.00  0.00     0.159 C 
HETATM   10  N11 UNL     1      16.333 -11.909   6.527  1.00  0.00    -0.174 N 
ATOM     11  H11 UNL     1      15.640 -12.379   7.109  1.00  0.00     0.186 HD
ENDROOT
BRANCH   5  12
HETATM   12  N5  UNL     1      19.472  -9.381   5.572  1.00  0.00    -0.302 N 
ATOM     13  H5  UNL     1      20.108  -9.778   6.265  1.00  0.00     0.186 HD
BRANCH  12  14
HETATM   14  N6  UNL     1      19.934  -8.232   5.025  1.00  0.00    -0.345 N 
ATOM     15  H62 UNL     1      20.896  -8.040   5.303  1.00  0.00     0.176 HD
ATOM     16  H61 UNL     1      19.526  -7.534   4.404  1.00  0.00     0.176 HD
ENDBRANCH  12  14
ENDBRANCH   5  12
BRANCH   9  17
HETATM   17  N8  UNL     1      15.367  -9.936   7.468  1.00  0.00    -0.275 N 
HETATM   18  N9  UNL     1      14.213 -10.487   7.443  1.00  0.00    -0.235 N 
HETATM   19  C9  UNL     1      13.212  -9.881   8.186  1.00  0.00     0.197 C 
ATOM     20  H9  UNL     1      14.037 -11.333   6.901  1.00  0.00     0.199 HD
HETATM   21  N10 UNL     1      12.377  -9.378   8.821  1.00  0.00    -0.170 NA
ATOM     22  H8  UNL     1      15.544  -9.090   8.010  1.00  0.00     0.189 HD
ENDBRANCH   9  17
BRANCH   4  23
HETATM   23  N3  UNL     1      18.759 -10.962   3.354  1.00  0.00    -0.290 N 
ATOM     24  H3  UNL     1      18.047 -10.546   2.755  1.00  0.00     0.188 HD
BRANCH  23  25
HETATM   25  N4  UNL     1      19.937 -11.282   2.759  1.00  0.00    -0.344 N 
ATOM     26  H42 UNL     1      20.092 -12.279   2.609  1.00  0.00     0.176 HD
ATOM     27  H41 UNL     1      20.667 -10.639   2.453  1.00  0.00     0.176 HD
ENDBRANCH  23  25
ENDBRANCH   4  23
BRANCH   1  28
HETATM   28  N1  UNL     1      16.551 -14.073   5.670  1.00  0.00    -0.226 N 
HETATM   29  C1  UNL     1      17.085 -15.156   6.452  1.00  0.00     0.168 C 
HETATM   30  C2  UNL     1      15.456 -14.372   4.767  1.00  0.00     0.168 C 
ENDBRANCH   1  28
TORSDOF 6
ENDMDL
