MODEL 1
REMARK VINA RESULT: -6.693005710      0.000      0.000
REMARK  3 active torsions:
REMARK  status: ('A' for Active; 'I' for Inactive)
REMARK    1  A    between atoms: C2_3  and  N2_4 
REMARK    2  A    between atoms: N2_4  and  C3_6 
REMARK    3  A    between atoms: C7_14  and  C8_15 
ROOT
HETATM    1  N1  UNL     1      18.426  -6.468   9.879  1.00  0.00    -0.196 NA
HETATM    2  C1  UNL     1      17.639  -7.215   9.552  1.00  0.00     0.078 C 
HETATM    3  C2  UNL     1      16.633  -8.147   9.117  1.00  0.00     0.245 C 
ENDROOT
BRANCH   3   4
HETATM    4  N2  UNL     1      16.414  -8.013   7.641  1.00  0.00    -0.363 N 
ATOM      5  H2  UNL     1      16.043  -7.174   7.196  1.00  0.00     0.162 HD
BRANCH   4   6
HETATM    6  C3  UNL     1      16.782  -9.186   6.933  1.00  0.00     0.118 A 
HETATM    7  N3  UNL     1      16.031 -10.217   7.207  1.00  0.00    -0.338 N 
HETATM    8  C4  UNL     1      16.111 -11.510   6.697  1.00  0.00     0.182 A 
ATOM      9  H3  UNL     1      15.286 -10.055   7.884  1.00  0.00     0.168 HD
HETATM   10  N4  UNL     1      17.223 -11.717   5.812  1.00  0.00    -0.347 N 
HETATM   11  C5  UNL     1      18.053 -10.617   5.489  1.00  0.00     0.119 A 
ATOM     12  H4  UNL     1      17.411 -12.641   5.422  1.00  0.00     0.167 HD
HETATM   13  C6  UNL     1      17.866  -9.314   6.035  1.00  0.00     0.072 A 
HETATM   14  C9  UNL     1      19.090 -10.820   4.612  1.00  0.00     0.287 A 
HETATM   15  C7  UNL     1      18.700  -8.299   5.687  1.00  0.00     0.111 A 
HETATM   16  N9  UNL     1      19.699  -8.621   4.803  1.00  0.00    -0.293 N 
HETATM   17  N10 UNL     1      19.888  -9.800   4.297  1.00  0.00    -0.264 N 
ATOM     18  H9  UNL     1      20.341  -7.878   4.525  1.00  0.00     0.187 HD
ATOM     19  H10 UNL     1      20.659  -9.949   3.646  1.00  0.00     0.190 HD
HETATM   20  O1  UNL     1      19.296 -11.958   4.102  1.00  0.00    -0.264 OA
BRANCH  15  21
HETATM   21  C8  UNL     1      18.608  -6.933   6.145  1.00  0.00     0.166 A 
HETATM   22  N5  UNL     1      19.767  -6.532   6.871  1.00  0.00    -0.267 N 
HETATM   23  N6  UNL     1      19.660  -5.302   7.260  1.00  0.00    -0.227 N 
ATOM     24  H5  UNL     1      20.570  -7.133   7.060  1.00  0.00     0.190 HD
HETATM   25  N7  UNL     1      18.508  -4.827   6.851  1.00  0.00    -0.227 N 
ATOM     26  H6  UNL     1      20.359  -4.787   7.797  1.00  0.00     0.210 HD
HETATM   27  N8  UNL     1      17.966  -5.824   6.220  1.00  0.00    -0.267 N 
ATOM     28  H7  UNL     1      18.127  -3.892   6.994  1.00  0.00     0.210 HD
ATOM     29  H8  UNL     1      17.045  -5.728   5.791  1.00  0.00     0.190 HD
ENDBRANCH  15  21
ENDBRANCH   4   6
ENDBRANCH   3   4
TORSDOF 3
ENDMDL
MODEL 2
REMARK VINA RESULT: -6.602665050      2.447      5.436
REMARK  3 active torsions:
REMARK  status: ('A' for Active; 'I' for Inactive)
REMARK    1  A    between atoms: C2_3  and  N2_4 
REMARK    2  A    between atoms: N2_4  and  C3_6 
REMARK    3  A    between atoms: C7_14  and  C8_15 
ROOT
HETATM    1  N1  UNL     1      13.718 -12.457   6.750  1.00  0.00    -0.196 NA
HETATM    2  C1  UNL     1      14.385 -11.550   6.880  1.00  0.00     0.078 C 
HETATM    3  C2  UNL     1      15.248 -10.413   7.063  1.00  0.00     0.245 C 
ENDROOT
BRANCH   3   4
HETATM    4  N2  UNL     1      16.662 -10.870   7.259  1.00  0.00    -0.363 N 
ATOM      5  H2  UNL     1      16.940 -11.582   7.934  1.00  0.00     0.162 HD
BRANCH   4   6
HETATM    6  C3  UNL     1      17.569 -10.197   6.401  1.00  0.00     0.118 A 
HETATM    7  N3  UNL     1      17.693  -8.926   6.666  1.00  0.00    -0.338 N 
HETATM    8  C4  UNL     1      18.491  -7.980   6.028  1.00  0.00     0.182 A 
ATOM      9  H3  UNL     1      17.132  -8.579   7.444  1.00  0.00     0.168 HD
HETATM   10  N4  UNL     1      19.200  -8.491   4.888  1.00  0.00    -0.347 N 
HETATM   11  C5  UNL     1      19.091  -9.867   4.578  1.00  0.00     0.119 A 
ATOM     12  H4  UNL     1      19.771  -7.873   4.313  1.00  0.00     0.167 HD
HETATM   13  C6  UNL     1      18.275 -10.771   5.318  1.00  0.00     0.072 A 
HETATM   14  C9  UNL     1      19.804 -10.352   3.508  1.00  0.00     0.287 A 
HETATM   15  C7  UNL     1      18.212 -12.082   4.968  1.00  0.00     0.111 A 
HETATM   16  N9  UNL     1      18.966 -12.449   3.883  1.00  0.00    -0.293 N 
HETATM   17  N10 UNL     1      19.714 -11.643   3.194  1.00  0.00    -0.264 N 
ATOM     18  H9  UNL     1      18.937 -13.428   3.596  1.00  0.00     0.187 HD
ATOM     19  H10 UNL     1      20.242 -12.004   2.399  1.00  0.00     0.190 HD
HETATM   20  O1  UNL     1      20.541  -9.588   2.821  1.00  0.00    -0.264 OA
BRANCH  15  21
HETATM   21  C8  UNL     1      17.448 -13.103   5.644  1.00  0.00     0.166 A 
HETATM   22  N5  UNL     1      16.319 -13.522   4.881  1.00  0.00    -0.267 N 
HETATM   23  N6  UNL     1      15.660 -14.444   5.506  1.00  0.00    -0.227 N 
ATOM     24  H5  UNL     1      16.066 -13.147   3.966  1.00  0.00     0.190 HD
HETATM   25  N7  UNL     1      16.257 -14.689   6.649  1.00  0.00    -0.227 N 
ATOM     26  H6  UNL     1      14.815 -14.903   5.167  1.00  0.00     0.210 HD
HETATM   27  N8  UNL     1      17.272 -13.880   6.650  1.00  0.00    -0.267 N 
ATOM     28  H7  UNL     1      15.986 -15.360   7.368  1.00  0.00     0.210 HD
ATOM     29  H8  UNL     1      17.919 -13.861   7.439  1.00  0.00     0.190 HD
ENDBRANCH  15  21
ENDBRANCH   4   6
ENDBRANCH   3   4
TORSDOF 3
ENDMDL
MODEL 3
REMARK VINA RESULT: -6.591455928      2.229      5.124
REMARK  3 active torsions:
REMARK  status: ('A' for Active; 'I' for Inactive)
REMARK    1  A    between atoms: C2_3  and  N2_4 
REMARK    2  A    between atoms: N2_4  and  C3_6 
REMARK    3  A    between atoms: C7_14  and  C8_15 
ROOT
HETATM    1  N1  UNL     1      16.315 -14.979   5.336  1.00  0.00    -0.196 NA
HETATM    2  C1  UNL     1      16.594 -14.043   5.910  1.00  0.00     0.078 C 
HETATM    3  C2  UNL     1      16.958 -12.843   6.616  1.00  0.00     0.245 C 
ENDROOT
BRANCH   3   4
HETATM    4  N2  UNL     1      16.776 -11.651   5.727  1.00  0.00    -0.363 N 
ATOM      5  H2  UNL     1      16.727 -11.703   4.710  1.00  0.00     0.162 HD
BRANCH   4   6
HETATM    6  C3  UNL     1      16.680 -10.441   6.462  1.00  0.00     0.118 A 
HETATM    7  N3  UNL     1      15.647 -10.395   7.258  1.00  0.00    -0.338 N 
HETATM    8  C4  UNL     1      15.255  -9.370   8.113  1.00  0.00     0.182 A 
ATOM      9  H3  UNL     1      15.047 -11.220   7.253  1.00  0.00     0.168 HD
HETATM   10  N4  UNL     1      16.078  -8.195   8.028  1.00  0.00    -0.347 N 
HETATM   11  C5  UNL     1      17.210  -8.215   7.178  1.00  0.00     0.119 A 
ATOM     12  H4  UNL     1      15.851  -7.362   8.570  1.00  0.00     0.167 HD
HETATM   13  C6  UNL     1      17.554  -9.333   6.366  1.00  0.00     0.072 A 
HETATM   14  C9  UNL     1      18.010  -7.100   7.135  1.00  0.00     0.287 A 
HETATM   15  C7  UNL     1      18.654  -9.290   5.569  1.00  0.00     0.111 A 
HETATM   16  N9  UNL     1      19.376  -8.124   5.608  1.00  0.00    -0.293 N 
HETATM   17  N10 UNL     1      19.079  -7.094   6.339  1.00  0.00    -0.264 N 
ATOM     18  H9  UNL     1      20.206  -8.062   5.019  1.00  0.00     0.187 HD
ATOM     19  H10 UNL     1      19.674  -6.266   6.305  1.00  0.00     0.190 HD
HETATM   20  O1  UNL     1      17.745  -6.083   7.837  1.00  0.00    -0.264 OA
BRANCH  15  21
HETATM   21  C8  UNL     1      19.127 -10.357   4.719  1.00  0.00     0.166 A 
HETATM   22  N5  UNL     1      18.919 -10.073   3.337  1.00  0.00    -0.267 N 
HETATM   23  N6  UNL     1      19.361 -11.040   2.600  1.00  0.00    -0.227 N 
ATOM     24  H5  UNL     1      18.481  -9.223   2.979  1.00  0.00     0.190 HD
HETATM   25  N7  UNL     1      19.859 -11.971   3.378  1.00  0.00    -0.227 N 
ATOM     26  H6  UNL     1      19.327 -11.073   1.581  1.00  0.00     0.210 HD
HETATM   27  N8  UNL     1      19.686 -11.502   4.576  1.00  0.00    -0.267 N 
ATOM     28  H7  UNL     1      20.284 -12.858   3.105  1.00  0.00     0.210 HD
ATOM     29  H8  UNL     1      19.990 -12.036   5.391  1.00  0.00     0.190 HD
ENDBRANCH  15  21
ENDBRANCH   4   6
ENDBRANCH   3   4
TORSDOF 3
ENDMDL
MODEL 4
REMARK VINA RESULT: -6.472557539      1.222      1.496
REMARK  3 active torsions:
REMARK  status: ('A' for Active; 'I' for Inactive)
REMARK    1  A    between atoms: C2_3  and  N2_4 
REMARK    2  A    between atoms: N2_4  and  C3_6 
REMARK    3  A    between atoms: C7_14  and  C8_15 
ROOT
HETATM    1  N1  UNL     1      15.633  -5.697   8.079  1.00  0.00    -0.196 NA
HETATM    2  C1  UNL     1      15.605  -6.825   8.183  1.00  0.00     0.078 C 
HETATM    3  C2  UNL     1      15.591  -8.259   8.298  1.00  0.00     0.245 C 
ENDROOT
BRANCH   3   4
HETATM    4  N2  UNL     1      16.977  -8.800   8.123  1.00  0.00    -0.363 N 
ATOM      5  H2  UNL     1      17.799  -8.418   8.589  1.00  0.00     0.162 HD
BRANCH   4   6
HETATM    6  C3  UNL     1      17.015  -9.905   7.235  1.00  0.00     0.118 A 
HETATM    7  N3  UNL     1      16.330 -10.934   7.652  1.00  0.00    -0.338 N 
HETATM    8  C4  UNL     1      16.154 -12.169   7.035  1.00  0.00     0.182 A 
ATOM      9  H3  UNL     1      15.860 -10.818   8.550  1.00  0.00     0.168 HD
HETATM   10  N4  UNL     1      16.899 -12.320   5.816  1.00  0.00    -0.347 N 
HETATM   11  C5  UNL     1      17.648 -11.221   5.332  1.00  0.00     0.119 A 
ATOM     12  H4  UNL     1      16.889 -13.205   5.307  1.00  0.00     0.167 HD
HETATM   13  C6  UNL     1      17.735  -9.976   6.019  1.00  0.00     0.072 A 
HETATM   14  C9  UNL     1      18.325 -11.366   4.146  1.00  0.00     0.287 A 
HETATM   15  C7  UNL     1      18.473  -8.958   5.503  1.00  0.00     0.111 A 
HETATM   16  N9  UNL     1      19.104  -9.219   4.314  1.00  0.00    -0.293 N 
HETATM   17  N10 UNL     1      19.039 -10.346   3.673  1.00  0.00    -0.264 N 
ATOM     18  H9  UNL     1      19.667  -8.474   3.903  1.00  0.00     0.187 HD
ATOM     19  H10 UNL     1      19.544 -10.452   2.793  1.00  0.00     0.190 HD
HETATM   20  O1  UNL     1      18.278 -12.452   3.501  1.00  0.00    -0.264 OA
BRANCH  15  21
HETATM   21  C8  UNL     1      18.625  -7.644   6.082  1.00  0.00     0.166 A 
HETATM   22  N5  UNL     1      17.774  -6.684   5.461  1.00  0.00    -0.267 N 
HETATM   23  N6  UNL     1      17.924  -5.519   6.006  1.00  0.00    -0.227 N 
ATOM     24  H5  UNL     1      17.134  -6.887   4.692  1.00  0.00     0.190 HD
HETATM   25  N7  UNL     1      18.819  -5.611   6.961  1.00  0.00    -0.227 N 
ATOM     26  H6  UNL     1      17.427  -4.670   5.737  1.00  0.00     0.210 HD
HETATM   27  N8  UNL     1      19.171  -6.861   6.939  1.00  0.00    -0.267 N 
ATOM     28  H7  UNL     1      19.159  -4.873   7.577  1.00  0.00     0.210 HD
ATOM     29  H8  UNL     1      19.870  -7.214   7.592  1.00  0.00     0.190 HD
ENDBRANCH  15  21
ENDBRANCH   4   6
ENDBRANCH   3   4
TORSDOF 3
ENDMDL
MODEL 5
REMARK VINA RESULT: -6.117263937      9.050     11.782
REMARK  3 active torsions:
REMARK  status: ('A' for Active; 'I' for Inactive)
REMARK    1  A    between atoms: C2_3  and  N2_4 
REMARK    2  A    between atoms: N2_4  and  C3_6 
REMARK    3  A    between atoms: C7_14  and  C8_15 
ROOT
HETATM    1  N1  UNL     1      15.299 -14.275   4.333  1.00  0.00    -0.196 NA
HETATM    2  C1  UNL     1      15.091 -14.664   3.289  1.00  0.00     0.078 C 
HETATM    3  C2  UNL     1      14.849 -15.174   1.965  1.00  0.00     0.245 C 
ENDROOT
BRANCH   3   4
HETATM    4  N2  UNL     1      15.379 -16.570   1.849  1.00  0.00    -0.363 N 
ATOM      5  H2  UNL     1      16.362 -16.817   1.971  1.00  0.00     0.162 HD
BRANCH   4   6
HETATM    6  C3  UNL     1      14.360 -17.510   1.551  1.00  0.00     0.118 A 
HETATM    7  N3  UNL     1      13.383 -17.512   2.416  1.00  0.00    -0.338 N 
HETATM    8  C4  UNL     1      12.235 -18.298   2.427  1.00  0.00     0.182 A 
ATOM      9  H3  UNL     1      13.472 -16.848   3.185  1.00  0.00     0.168 HD
HETATM   10  N4  UNL     1      12.189 -19.275   1.375  1.00  0.00    -0.347 N 
HETATM   11  C5  UNL     1      13.231 -19.296   0.417  1.00  0.00     0.119 A 
ATOM     12  H4  UNL     1      11.419 -19.942   1.319  1.00  0.00     0.167 HD
HETATM   13  C6  UNL     1      14.352 -18.418   0.467  1.00  0.00     0.072 A 
HETATM   14  C9  UNL     1      13.156 -20.209  -0.606  1.00  0.00     0.287 A 
HETATM   15  C7  UNL     1      15.321 -18.489  -0.483  1.00  0.00     0.111 A 
HETATM   16  N9  UNL     1      15.139 -19.441  -1.454  1.00  0.00    -0.293 N 
HETATM   17  N10 UNL     1      14.127 -20.250  -1.517  1.00  0.00    -0.264 N 
ATOM     18  H9  UNL     1      15.852 -19.518  -2.180  1.00  0.00     0.187 HD
ATOM     19  H10 UNL     1      14.073 -20.929  -2.277  1.00  0.00     0.190 HD
HETATM   20  O1  UNL     1      12.180 -21.008  -0.692  1.00  0.00    -0.264 OA
BRANCH  15  21
HETATM   21  C8  UNL     1      16.491 -17.648  -0.563  1.00  0.00     0.166 A 
HETATM   22  N5  UNL     1      17.699 -18.401  -0.479  1.00  0.00    -0.267 N 
HETATM   23  N6  UNL     1      18.730 -17.622  -0.563  1.00  0.00    -0.227 N 
ATOM     24  H5  UNL     1      17.745 -19.414  -0.367  1.00  0.00     0.190 HD
HETATM   25  N7  UNL     1      18.316 -16.385  -0.701  1.00  0.00    -0.227 N 
ATOM     26  H6  UNL     1      19.704 -17.922  -0.529  1.00  0.00     0.210 HD
HETATM   27  N8  UNL     1      17.021 -16.486  -0.691  1.00  0.00    -0.267 N 
ATOM     28  H7  UNL     1      18.879 -15.540  -0.794  1.00  0.00     0.210 HD
ATOM     29  H8  UNL     1      16.435 -15.656  -0.783  1.00  0.00     0.190 HD
ENDBRANCH  15  21
ENDBRANCH   4   6
ENDBRANCH   3   4
TORSDOF 3
ENDMDL
