MODEL 1
REMARK VINA RESULT: -8.946450029      0.000      0.000
REMARK  8 active torsions:
REMARK  status: ('A' for Active; 'I' for Inactive)
REMARK    1  A    between atoms: O1_2  and  C2_3 
REMARK    2  A    between atoms: C6_7  and  C7_8 
REMARK    3  A    between atoms: C7_8  and  C8_10 
REMARK    4  A    between atoms: C8_10  and  O4_12 
REMARK    5  A    between atoms: O4_12  and  C9_13 
REMARK    6  A    between atoms: C11_15  and  C12_16 
REMARK    7  A    between atoms: C12_16  and  O5_17 
REMARK    8  A    between atoms: O5_17  and  C13_18 
ROOT
HETATM    1  C9  UNL     1     -11.983   1.609  20.402  1.00  0.00     0.141 C 
HETATM    2  C10 UNL     1     -12.206   1.066  19.058  1.00  0.00     0.041 C 
HETATM    3  C11 UNL     1     -10.850   0.324  18.846  1.00  0.00     0.021 C 
HETATM    4  C17 UNL     1     -10.840  -0.511  20.105  1.00  0.00    -0.025 C 
HETATM    5  C18 UNL     1     -11.674  -1.763  19.915  1.00  0.00     0.017 C 
HETATM    6  C19 UNL     1      -9.490  -0.864  20.621  1.00  0.00    -0.001 C 
HETATM    7  C20 UNL     1      -8.796  -2.003  19.936  1.00  0.00     0.006 C 
HETATM    8  C21 UNL     1      -7.998  -2.747  21.021  1.00  0.00     0.005 C 
HETATM    9  C22 UNL     1      -8.176  -1.892  22.247  1.00  0.00    -0.014 C 
HETATM   10  C23 UNL     1      -8.177  -2.688  23.518  1.00  0.00     0.010 C 
HETATM   11  C24 UNL     1      -9.588  -1.352  22.042  1.00  0.00    -0.006 C 
HETATM   12  C25 UNL     1      -9.862  -0.195  22.947  1.00  0.00     0.006 C 
HETATM   13  C26 UNL     1     -10.544   0.890  22.195  1.00  0.00     0.013 C 
HETATM   14  C27 UNL     1     -11.514   0.371  21.158  1.00  0.00    -0.009 C 
HETATM   15  C28 UNL     1     -12.683  -0.263  21.822  1.00  0.00     0.018 C 
ENDROOT
BRANCH   1  16
HETATM   16  O4  UNL     1     -12.991   2.313  21.013  1.00  0.00    -0.309 OA
BRANCH  16  17
HETATM   17  C8  UNL     1     -12.924   3.609  21.487  1.00  0.00     0.330 C 
HETATM   18  O3  UNL     1     -13.324   4.496  20.711  1.00  0.00    -0.256 OA
BRANCH  17  19
HETATM   19  C7  UNL     1     -12.419   3.941  22.817  1.00  0.00     0.234 C 
HETATM   20  O2  UNL     1     -11.298   4.486  22.981  1.00  0.00    -0.286 OA
BRANCH  19  21
HETATM   21  C6  UNL     1     -13.226   3.637  23.984  1.00  0.00     0.117 C 
HETATM   22  C2  UNL     1     -12.473   3.180  25.211  1.00  0.00     0.139 C 
HETATM   23  C3  UNL     1     -13.659   2.697  26.038  1.00  0.00     0.060 C 
HETATM   24  C4  UNL     1     -14.423   1.971  24.995  1.00  0.00    -0.027 C 
HETATM   25  C5  UNL     1     -14.177   2.509  23.806  1.00  0.00    -0.015 C 
BRANCH  22  26
HETATM   26  O1  UNL     1     -11.533   2.227  25.015  1.00  0.00    -0.389 OA
HETATM   27  C1  UNL     1     -11.060   1.550  26.092  1.00  0.00     0.202 C 
ENDBRANCH  22  26
ENDBRANCH  19  21
ENDBRANCH  17  19
ENDBRANCH  16  17
ENDBRANCH   1  16
BRANCH   3  28
HETATM   28  C12 UNL     1     -10.976  -0.403  17.560  1.00  0.00     0.176 C 
BRANCH  28  29
HETATM   29  O5  UNL     1      -9.872  -0.413  16.759  1.00  0.00    -0.359 OA
BRANCH  29  30
HETATM   30  C13 UNL     1      -9.381  -1.663  16.477  1.00  0.00     0.283 C 
HETATM   31  C14 UNL     1      -7.869  -1.704  16.422  1.00  0.00     0.228 C 
HETATM   32  O6  UNL     1      -7.483  -3.035  16.460  1.00  0.00    -0.384 OA
HETATM   33  C15 UNL     1      -8.277  -3.780  15.616  1.00  0.00     0.194 C 
HETATM   34  C16 UNL     1      -9.020  -2.949  14.599  1.00  0.00     0.197 C 
HETATM   35  O7  UNL     1      -9.824  -1.989  15.176  1.00  0.00    -0.357 OA
ENDBRANCH  29  30
ENDBRANCH  28  29
ENDBRANCH   3  28
TORSDOF 8
ENDMDL
MODEL 2
REMARK VINA RESULT: -8.557244945      1.373      2.066
REMARK  8 active torsions:
REMARK  status: ('A' for Active; 'I' for Inactive)
REMARK    1  A    between atoms: O1_2  and  C2_3 
REMARK    2  A    between atoms: C6_7  and  C7_8 
REMARK    3  A    between atoms: C7_8  and  C8_10 
REMARK    4  A    between atoms: C8_10  and  O4_12 
REMARK    5  A    between atoms: O4_12  and  C9_13 
REMARK    6  A    between atoms: C11_15  and  C12_16 
REMARK    7  A    between atoms: C12_16  and  O5_17 
REMARK    8  A    between atoms: O5_17  and  C13_18 
ROOT
HETATM    1  C9  UNL     1     -11.700   0.657  19.236  1.00  0.00     0.141 C 
HETATM    2  C10 UNL     1     -11.518   0.081  17.900  1.00  0.00     0.041 C 
HETATM    3  C11 UNL     1     -10.047  -0.424  18.030  1.00  0.00     0.021 C 
HETATM    4  C17 UNL     1     -10.191  -1.242  19.292  1.00  0.00    -0.025 C 
HETATM    5  C18 UNL     1     -10.745  -2.616  18.970  1.00  0.00     0.017 C 
HETATM    6  C19 UNL     1      -8.957  -1.362  20.114  1.00  0.00    -0.001 C 
HETATM    7  C20 UNL     1      -7.948  -2.371  19.651  1.00  0.00     0.006 C 
HETATM    8  C21 UNL     1      -7.311  -2.968  20.918  1.00  0.00     0.005 C 
HETATM    9  C22 UNL     1      -7.903  -2.151  22.036  1.00  0.00    -0.014 C 
HETATM   10  C23 UNL     1      -8.065  -2.933  23.305  1.00  0.00     0.010 C 
HETATM   11  C24 UNL     1      -9.298  -1.856  21.495  1.00  0.00    -0.006 C 
HETATM   12  C25 UNL     1      -9.956  -0.758  22.266  1.00  0.00     0.006 C 
HETATM   13  C26 UNL     1     -10.614   0.195  21.335  1.00  0.00     0.013 C 
HETATM   14  C27 UNL     1     -11.223  -0.482  20.129  1.00  0.00    -0.009 C 
HETATM   15  C28 UNL     1     -12.395  -1.301  20.537  1.00  0.00     0.018 C 
ENDROOT
BRANCH   1  16
HETATM   16  O4  UNL     1     -12.923   1.184  19.574  1.00  0.00    -0.309 OA
BRANCH  16  17
HETATM   17  C8  UNL     1     -13.240   2.524  19.694  1.00  0.00     0.330 C 
HETATM   18  O3  UNL     1     -13.786   3.047  18.706  1.00  0.00    -0.256 OA
BRANCH  17  19
HETATM   19  C7  UNL     1     -12.962   3.298  20.902  1.00  0.00     0.234 C 
HETATM   20  O2  UNL     1     -13.325   4.495  21.018  1.00  0.00    -0.286 OA
BRANCH  19  21
HETATM   21  C6  UNL     1     -12.248   2.675  22.001  1.00  0.00     0.117 C 
HETATM   22  C2  UNL     1     -13.091   2.229  23.172  1.00  0.00     0.139 C 
HETATM   23  C3  UNL     1     -11.968   1.942  24.162  1.00  0.00     0.060 C 
HETATM   24  C4  UNL     1     -11.108   3.129  23.932  1.00  0.00    -0.027 C 
HETATM   25  C5  UNL     1     -11.266   3.557  22.684  1.00  0.00    -0.015 C 
BRANCH  22  26
HETATM   26  O1  UNL     1     -13.995   3.125  23.633  1.00  0.00    -0.389 OA
HETATM   27  C1  UNL     1     -14.531   2.932  24.865  1.00  0.00     0.202 C 
ENDBRANCH  22  26
ENDBRANCH  19  21
ENDBRANCH  17  19
ENDBRANCH  16  17
ENDBRANCH   1  16
BRANCH   3  28
HETATM   28  C12 UNL     1      -9.754  -1.165  16.780  1.00  0.00     0.176 C 
BRANCH  28  29
HETATM   29  O5  UNL     1      -8.651  -0.768  16.083  1.00  0.00    -0.359 OA
BRANCH  29  30
HETATM   30  C13 UNL     1      -7.580  -1.620  16.174  1.00  0.00     0.283 C 
HETATM   31  C14 UNL     1      -6.737  -1.643  14.917  1.00  0.00     0.228 C 
HETATM   32  O6  UNL     1      -5.536  -2.262  15.228  1.00  0.00    -0.384 OA
HETATM   33  C15 UNL     1      -5.769  -3.388  15.987  1.00  0.00     0.194 C 
HETATM   34  C16 UNL     1      -7.195  -3.878  15.915  1.00  0.00     0.197 C 
HETATM   35  O7  UNL     1      -8.109  -2.923  16.308  1.00  0.00    -0.357 OA
ENDBRANCH  29  30
ENDBRANCH  28  29
ENDBRANCH   3  28
TORSDOF 8
ENDMDL
MODEL 3
REMARK VINA RESULT: -8.509097752      1.495      2.102
REMARK  8 active torsions:
REMARK  status: ('A' for Active; 'I' for Inactive)
REMARK    1  A    between atoms: O1_2  and  C2_3 
REMARK    2  A    between atoms: C6_7  and  C7_8 
REMARK    3  A    between atoms: C7_8  and  C8_10 
REMARK    4  A    between atoms: C8_10  and  O4_12 
REMARK    5  A    between atoms: O4_12  and  C9_13 
REMARK    6  A    between atoms: C11_15  and  C12_16 
REMARK    7  A    between atoms: C12_16  and  O5_17 
REMARK    8  A    between atoms: O5_17  and  C13_18 
ROOT
HETATM    1  C9  UNL     1     -11.864   0.544  18.876  1.00  0.00     0.141 C 
HETATM    2  C10 UNL     1     -11.525  -0.017  17.564  1.00  0.00     0.041 C 
HETATM    3  C11 UNL     1     -10.045  -0.436  17.832  1.00  0.00     0.021 C 
HETATM    4  C17 UNL     1     -10.260  -1.265  19.076  1.00  0.00    -0.025 C 
HETATM    5  C18 UNL     1     -10.700  -2.668  18.706  1.00  0.00     0.017 C 
HETATM    6  C19 UNL     1      -9.102  -1.317  20.010  1.00  0.00    -0.001 C 
HETATM    7  C20 UNL     1      -7.999  -2.265  19.645  1.00  0.00     0.006 C 
HETATM    8  C21 UNL     1      -7.449  -2.829  20.967  1.00  0.00     0.005 C 
HETATM    9  C22 UNL     1      -8.189  -2.051  22.024  1.00  0.00    -0.014 C 
HETATM   10  C23 UNL     1      -8.424  -2.845  23.273  1.00  0.00     0.010 C 
HETATM   11  C24 UNL     1      -9.542  -1.835  21.354  1.00  0.00    -0.006 C 
HETATM   12  C25 UNL     1     -10.331  -0.780  22.058  1.00  0.00     0.006 C 
HETATM   13  C26 UNL     1     -10.954   0.137  21.068  1.00  0.00     0.013 C 
HETATM   14  C27 UNL     1     -11.407  -0.570  19.812  1.00  0.00    -0.009 C 
HETATM   15  C28 UNL     1     -12.563  -1.456  20.110  1.00  0.00     0.018 C 
ENDROOT
BRANCH   1  16
HETATM   16  O4  UNL     1     -13.141   0.998  19.097  1.00  0.00    -0.309 OA
BRANCH  16  17
HETATM   17  C8  UNL     1     -13.503   2.158  19.756  1.00  0.00     0.330 C 
HETATM   18  O3  UNL     1     -13.691   3.157  19.039  1.00  0.00    -0.256 OA
BRANCH  17  19
HETATM   19  C7  UNL     1     -13.661   2.229  21.206  1.00  0.00     0.234 C 
HETATM   20  O2  UNL     1     -14.222   1.310  21.855  1.00  0.00    -0.286 OA
BRANCH  19  21
HETATM   21  C6  UNL     1     -13.160   3.386  21.924  1.00  0.00     0.117 C 
HETATM   22  C2  UNL     1     -11.858   3.195  22.666  1.00  0.00     0.139 C 
HETATM   23  C3  UNL     1     -11.872   4.481  23.482  1.00  0.00     0.060 C 
HETATM   24  C4  UNL     1     -13.289   4.496  23.920  1.00  0.00    -0.027 C 
HETATM   25  C5  UNL     1     -14.039   3.864  23.024  1.00  0.00    -0.015 C 
BRANCH  22  26
HETATM   26  O1  UNL     1     -11.761   2.079  23.425  1.00  0.00    -0.389 OA
HETATM   27  C1  UNL     1     -10.827   2.042  24.409  1.00  0.00     0.202 C 
ENDBRANCH  22  26
ENDBRANCH  19  21
ENDBRANCH  17  19
ENDBRANCH  16  17
ENDBRANCH   1  16
BRANCH   3  28
HETATM   28  C12 UNL     1      -9.596  -1.155  16.615  1.00  0.00     0.176 C 
BRANCH  28  29
HETATM   29  O5  UNL     1      -8.393  -0.775  16.097  1.00  0.00    -0.359 OA
BRANCH  29  30
HETATM   30  C13 UNL     1      -7.667  -1.792  15.529  1.00  0.00     0.283 C 
HETATM   31  C14 UNL     1      -6.932  -2.633  16.551  1.00  0.00     0.228 C 
HETATM   32  O6  UNL     1      -6.514  -3.793  15.917  1.00  0.00    -0.384 OA
HETATM   33  C15 UNL     1      -5.982  -3.490  14.683  1.00  0.00     0.194 C 
HETATM   34  C16 UNL     1      -5.605  -2.037  14.530  1.00  0.00     0.197 C 
HETATM   35  O7  UNL     1      -6.668  -1.183  14.738  1.00  0.00    -0.357 OA
ENDBRANCH  29  30
ENDBRANCH  28  29
ENDBRANCH   3  28
TORSDOF 8
ENDMDL
MODEL 4
REMARK VINA RESULT: -8.359145738      2.550      7.452
REMARK  8 active torsions:
REMARK  status: ('A' for Active; 'I' for Inactive)
REMARK    1  A    between atoms: O1_2  and  C2_3 
REMARK    2  A    between atoms: C6_7  and  C7_8 
REMARK    3  A    between atoms: C7_8  and  C8_10 
REMARK    4  A    between atoms: C8_10  and  O4_12 
REMARK    5  A    between atoms: O4_12  and  C9_13 
REMARK    6  A    between atoms: C11_15  and  C12_16 
REMARK    7  A    between atoms: C12_16  and  O5_17 
REMARK    8  A    between atoms: O5_17  and  C13_18 
ROOT
HETATM    1  C9  UNL     1     -10.087  -0.854  19.865  1.00  0.00     0.141 C 
HETATM    2  C10 UNL     1      -9.505  -1.934  20.668  1.00  0.00     0.041 C 
HETATM    3  C11 UNL     1      -8.911  -1.097  21.844  1.00  0.00     0.021 C 
HETATM    4  C17 UNL     1     -10.152  -0.328  22.233  1.00  0.00    -0.025 C 
HETATM    5  C18 UNL     1     -11.033  -1.168  23.137  1.00  0.00     0.017 C 
HETATM    6  C19 UNL     1      -9.905   1.005  22.846  1.00  0.00    -0.001 C 
HETATM    7  C20 UNL     1      -9.526   1.006  24.298  1.00  0.00     0.006 C 
HETATM    8  C21 UNL     1     -10.160   2.265  24.916  1.00  0.00     0.005 C 
HETATM    9  C22 UNL     1     -10.751   2.986  23.733  1.00  0.00    -0.014 C 
HETATM   10  C23 UNL     1     -11.988   3.759  24.081  1.00  0.00     0.010 C 
HETATM   11  C24 UNL     1     -11.170   1.822  22.841  1.00  0.00    -0.006 C 
HETATM   12  C25 UNL     1     -11.457   2.283  21.449  1.00  0.00     0.006 C 
HETATM   13  C26 UNL     1     -10.844   1.352  20.468  1.00  0.00     0.013 C 
HETATM   14  C27 UNL     1     -10.890  -0.092  20.913  1.00  0.00    -0.009 C 
HETATM   15  C28 UNL     1     -12.291  -0.587  20.904  1.00  0.00     0.018 C 
ENDROOT
BRANCH   1  16
HETATM   16  O4  UNL     1     -10.780  -1.170  18.722  1.00  0.00    -0.309 OA
BRANCH  16  17
HETATM   17  C8  UNL     1     -10.493  -0.748  17.438  1.00  0.00     0.330 C 
HETATM   18  O3  UNL     1     -10.812   0.423  17.164  1.00  0.00    -0.256 OA
BRANCH  17  19
HETATM   19  C7  UNL     1      -9.853  -1.608  16.447  1.00  0.00     0.234 C 
HETATM   20  O2  UNL     1     -10.320  -1.743  15.288  1.00  0.00    -0.286 OA
BRANCH  19  21
HETATM   21  C6  UNL     1      -8.644  -2.329  16.801  1.00  0.00     0.117 C 
HETATM   22  C2  UNL     1      -7.340  -1.646  16.463  1.00  0.00     0.139 C 
HETATM   23  C3  UNL     1      -6.400  -2.822  16.703  1.00  0.00     0.060 C 
HETATM   24  C4  UNL     1      -7.170  -3.907  16.047  1.00  0.00    -0.027 C 
HETATM   25  C5  UNL     1      -8.467  -3.628  16.100  1.00  0.00    -0.015 C 
BRANCH  22  26
HETATM   26  O1  UNL     1      -7.242  -1.127  15.217  1.00  0.00    -0.389 OA
HETATM   27  C1  UNL     1      -6.021  -1.079  14.627  1.00  0.00     0.202 C 
ENDBRANCH  22  26
ENDBRANCH  19  21
ENDBRANCH  17  19
ENDBRANCH  16  17
ENDBRANCH   1  16
BRANCH   3  28
HETATM   28  C12 UNL     1      -8.396  -2.080  22.828  1.00  0.00     0.176 C 
BRANCH  28  29
HETATM   29  O5  UNL     1      -8.015  -3.291  22.331  1.00  0.00    -0.359 OA
BRANCH  29  30
HETATM   30  C13 UNL     1      -6.669  -3.546  22.414  1.00  0.00     0.283 C 
HETATM   31  C14 UNL     1      -6.023  -3.749  21.061  1.00  0.00     0.228 C 
HETATM   32  O6  UNL     1      -4.650  -3.672  21.235  1.00  0.00    -0.384 OA
HETATM   33  C15 UNL     1      -4.276  -4.387  22.351  1.00  0.00     0.194 C 
HETATM   34  C16 UNL     1      -5.322  -5.373  22.813  1.00  0.00     0.197 C 
HETATM   35  O7  UNL     1      -6.532  -4.776  23.096  1.00  0.00    -0.357 OA
ENDBRANCH  29  30
ENDBRANCH  28  29
ENDBRANCH   3  28
TORSDOF 8
ENDMDL
MODEL 5
REMARK VINA RESULT: -8.353345558      2.806      8.245
REMARK  8 active torsions:
REMARK  status: ('A' for Active; 'I' for Inactive)
REMARK    1  A    between atoms: O1_2  and  C2_3 
REMARK    2  A    between atoms: C6_7  and  C7_8 
REMARK    3  A    between atoms: C7_8  and  C8_10 
REMARK    4  A    between atoms: C8_10  and  O4_12 
REMARK    5  A    between atoms: O4_12  and  C9_13 
REMARK    6  A    between atoms: C11_15  and  C12_16 
REMARK    7  A    between atoms: C12_16  and  O5_17 
REMARK    8  A    between atoms: O5_17  and  C13_18 
ROOT
HETATM    1  C9  UNL     1     -12.193   1.513  23.725  1.00  0.00     0.141 C 
HETATM    2  C10 UNL     1     -13.009   1.775  24.915  1.00  0.00     0.041 C 
HETATM    3  C11 UNL     1     -13.268   0.309  25.383  1.00  0.00     0.021 C 
HETATM    4  C17 UNL     1     -11.839  -0.179  25.428  1.00  0.00    -0.025 C 
HETATM    5  C18 UNL     1     -11.181   0.232  26.731  1.00  0.00     0.017 C 
HETATM    6  C19 UNL     1     -11.659  -1.638  25.196  1.00  0.00    -0.001 C 
HETATM    7  C20 UNL     1     -11.934  -2.533  26.368  1.00  0.00     0.006 C 
HETATM    8  C21 UNL     1     -10.933  -3.698  26.275  1.00  0.00     0.005 C 
HETATM    9  C22 UNL     1     -10.233  -3.465  24.962  1.00  0.00    -0.014 C 
HETATM   10  C23 UNL     1      -8.809  -3.933  24.970  1.00  0.00     0.010 C 
HETATM   11  C24 UNL     1     -10.217  -1.941  24.889  1.00  0.00    -0.006 C 
HETATM   12  C25 UNL     1      -9.895  -1.470  23.508  1.00  0.00     0.006 C 
HETATM   13  C26 UNL     1     -10.805  -0.361  23.123  1.00  0.00     0.013 C 
HETATM   14  C27 UNL     1     -11.145   0.553  24.277  1.00  0.00    -0.009 C 
HETATM   15  C28 UNL     1      -9.946   1.330  24.687  1.00  0.00     0.018 C 
ENDROOT
BRANCH   1  16
HETATM   16  O4  UNL     1     -11.689   2.575  23.015  1.00  0.00    -0.309 OA
BRANCH  16  17
HETATM   17  C8  UNL     1     -12.309   3.246  21.978  1.00  0.00     0.330 C 
HETATM   18  O3  UNL     1     -12.286   4.488  22.040  1.00  0.00    -0.256 OA
BRANCH  17  19
HETATM   19  C7  UNL     1     -12.958   2.556  20.866  1.00  0.00     0.234 C 
HETATM   20  O2  UNL     1     -13.634   3.178  20.007  1.00  0.00    -0.286 OA
BRANCH  19  21
HETATM   21  C6  UNL     1     -12.824   1.117  20.742  1.00  0.00     0.117 C 
HETATM   22  C2  UNL     1     -11.857   0.629  19.689  1.00  0.00     0.139 C 
HETATM   23  C3  UNL     1     -12.248  -0.845  19.690  1.00  0.00     0.060 C 
HETATM   24  C4  UNL     1     -13.726  -0.722  19.722  1.00  0.00    -0.027 C 
HETATM   25  C5  UNL     1     -14.065   0.410  20.329  1.00  0.00    -0.015 C 
BRANCH  22  26
HETATM   26  O1  UNL     1     -11.957   1.209  18.471  1.00  0.00    -0.389 OA
HETATM   27  C1  UNL     1     -11.474   0.542  17.392  1.00  0.00     0.202 C 
ENDBRANCH  22  26
ENDBRANCH  19  21
ENDBRANCH  17  19
ENDBRANCH  16  17
ENDBRANCH   1  16
BRANCH   3  28
HETATM   28  C12 UNL     1     -13.982   0.411  26.679  1.00  0.00     0.176 C 
BRANCH  28  29
HETATM   29  O5  UNL     1     -14.416   1.654  27.034  1.00  0.00    -0.359 OA
BRANCH  29  30
HETATM   30  C13 UNL     1     -14.399   1.903  28.384  1.00  0.00     0.283 C 
HETATM   31  C14 UNL     1     -13.897   0.726  29.193  1.00  0.00     0.228 C 
HETATM   32  O6  UNL     1     -13.615   1.185  30.471  1.00  0.00    -0.384 OA
HETATM   33  C15 UNL     1     -14.627   2.010  30.909  1.00  0.00     0.194 C 
HETATM   34  C16 UNL     1     -15.909   1.860  30.125  1.00  0.00     0.197 C 
HETATM   35  O7  UNL     1     -15.742   2.097  28.777  1.00  0.00    -0.357 OA
ENDBRANCH  29  30
ENDBRANCH  28  29
ENDBRANCH   3  28
TORSDOF 8
ENDMDL
