MODEL 1
REMARK VINA RESULT: -9.269284972      0.000      0.000
REMARK  7 active torsions:
REMARK  status: ('A' for Active; 'I' for Inactive)
REMARK    1  A    between atoms: C1_2  and  C2_3 
REMARK       I    between atoms: C1_2  and  N1_8 
REMARK    2  A    between atoms: N2_11  and  C9_12 
REMARK    3  A    between atoms: C9_12  and  C10_13 
REMARK    4  A    between atoms: N3_15  and  C12_16 
REMARK    5  A    between atoms: N4_18  and  C14_19 
REMARK    6  A    between atoms: C14_19  and  C15_20 
REMARK    7  A    between atoms: C19_25  and  C20_26 
ROOT
HETATM    1  C10 UNL     1      -4.273  -5.094  22.837  1.00  0.00     0.073 A 
HETATM    2  C11 UNL     1      -4.141  -5.888  23.996  1.00  0.00     0.146 A 
HETATM    3  N3  UNL     1      -2.918  -5.726  24.524  1.00  0.00    -0.254 N 
HETATM    4  N5  UNL     1      -2.306  -4.868  23.734  1.00  0.00    -0.236 N 
ATOM      5  H5  UNL     1      -1.351  -4.538  23.872  1.00  0.00     0.209 HD
HETATM    6  N6  UNL     1      -3.082  -4.492  22.749  1.00  0.00    -0.287 N 
ATOM      7  H6  UNL     1      -2.816  -3.833  22.017  1.00  0.00     0.188 HD
ENDROOT
BRANCH   3   8
HETATM    8  C12 UNL     1      -2.365  -6.336  25.683  1.00  0.00     0.052 C 
HETATM    9  C13 UNL     1      -2.443  -7.603  26.063  1.00  0.00     0.113 C 
HETATM   10  N4  UNL     1      -1.768  -7.846  27.277  1.00  0.00    -0.378 N 
HETATM   11  C19 UNL     1      -1.564  -6.560  27.892  1.00  0.00     0.094 C 
HETATM   12  C25 UNL     1      -1.572  -5.606  26.710  1.00  0.00     0.086 C 
BRANCH  10  13
HETATM   13  C14 UNL     1      -1.337  -9.139  27.828  1.00  0.00     0.168 C 
BRANCH  13  14
HETATM   14  C15 UNL     1       0.106  -9.366  27.443  1.00  0.00     0.000 A 
HETATM   15  C16 UNL     1       0.661  -9.318  26.199  1.00  0.00     0.017 A 
HETATM   16  C17 UNL     1       1.987  -9.559  26.106  1.00  0.00     0.008 A 
HETATM   17  C18 UNL     1       2.653  -9.830  27.273  1.00  0.00     0.050 A 
HETATM   18  S1  UNL     1       1.424  -9.741  28.448  1.00  0.00    -0.105 SA
ENDBRANCH  13  14
ENDBRANCH  10  13
BRANCH  11  19
HETATM   19  C20 UNL     1      -2.562  -6.181  28.929  1.00  0.00     0.009 C 
HETATM   20  C21 UNL     1      -2.183  -6.538  30.341  1.00  0.00     0.007 C 
HETATM   21  C22 UNL     1      -3.093  -5.666  31.204  1.00  0.00     0.000 C 
HETATM   22  C23 UNL     1      -3.730  -4.656  30.269  1.00  0.00     0.000 C 
HETATM   23  C24 UNL     1      -2.825  -4.703  29.045  1.00  0.00     0.007 C 
ENDBRANCH  11  19
ENDBRANCH   3   8
BRANCH   1  24
HETATM   24  C9  UNL     1      -5.446  -4.992  21.972  1.00  0.00     0.332 C 
BRANCH  24  25
HETATM   25  N2  UNL     1      -5.778  -3.627  21.701  1.00  0.00     0.097 N 
HETATM   26  C8  UNL     1      -5.140  -3.171  20.469  1.00  0.00     0.292 C 
HETATM   27  C7  UNL     1      -5.999  -3.552  19.264  1.00  0.00     0.156 C 
HETATM   28  N1  UNL     1      -7.201  -2.768  19.338  1.00  0.00    -0.348 N 
HETATM   29  C1  UNL     1      -8.044  -2.394  18.284  1.00  0.00     0.224 C 
HETATM   30  C27 UNL     1      -7.547  -2.315  20.695  1.00  0.00     0.156 C 
HETATM   31  O1  UNL     1      -9.084  -1.697  18.630  1.00  0.00    -0.273 OA
HETATM   32  C26 UNL     1      -7.165  -3.308  21.747  1.00  0.00     0.292 C 
BRANCH  29  33
HETATM   33  C2  UNL     1      -7.928  -2.666  16.861  1.00  0.00     0.078 C 
HETATM   34  C3  UNL     1      -7.421  -1.538  16.026  1.00  0.00     0.014 C 
HETATM   35  C4  UNL     1      -8.022  -1.854  14.656  1.00  0.00     0.001 C 
HETATM   36  C5  UNL     1      -9.415  -2.306  14.982  1.00  0.00     0.001 C 
HETATM   37  C6  UNL     1      -9.257  -3.076  16.278  1.00  0.00     0.014 C 
ENDBRANCH  29  33
ENDBRANCH  24  25
ENDBRANCH   1  24
TORSDOF 7
ENDMDL
MODEL 2
REMARK VINA RESULT: -9.071493563      6.217     11.325
REMARK  7 active torsions:
REMARK  status: ('A' for Active; 'I' for Inactive)
REMARK    1  A    between atoms: C1_2  and  C2_3 
REMARK       I    between atoms: C1_2  and  N1_8 
REMARK    2  A    between atoms: N2_11  and  C9_12 
REMARK    3  A    between atoms: C9_12  and  C10_13 
REMARK    4  A    between atoms: N3_15  and  C12_16 
REMARK    5  A    between atoms: N4_18  and  C14_19 
REMARK    6  A    between atoms: C14_19  and  C15_20 
REMARK    7  A    between atoms: C19_25  and  C20_26 
ROOT
HETATM    1  C10 UNL     1     -11.630  -0.378  18.376  1.00  0.00     0.073 A 
HETATM    2  C11 UNL     1     -10.560  -1.131  18.906  1.00  0.00     0.146 A 
HETATM    3  N3  UNL     1      -9.646  -1.360  17.950  1.00  0.00    -0.254 N 
HETATM    4  N5  UNL     1     -10.117  -0.779  16.867  1.00  0.00    -0.236 N 
ATOM      5  H5  UNL     1      -9.646  -0.777  15.963  1.00  0.00     0.209 HD
HETATM    6  N6  UNL     1     -11.271  -0.204  17.100  1.00  0.00    -0.287 N 
ATOM      7  H6  UNL     1     -11.818   0.305  16.406  1.00  0.00     0.188 HD
ENDROOT
BRANCH   3   8
HETATM    8  C12 UNL     1      -8.422  -2.078  18.049  1.00  0.00     0.052 C 
HETATM    9  C13 UNL     1      -7.373  -1.814  18.815  1.00  0.00     0.113 C 
HETATM   10  N4  UNL     1      -6.332  -2.750  18.646  1.00  0.00    -0.378 N 
HETATM   11  C19 UNL     1      -6.605  -3.442  17.413  1.00  0.00     0.094 C 
HETATM   12  C25 UNL     1      -8.110  -3.302  17.263  1.00  0.00     0.086 C 
BRANCH  10  13
HETATM   13  C14 UNL     1      -5.191  -3.001  19.536  1.00  0.00     0.168 C 
BRANCH  13  14
HETATM   14  C15 UNL     1      -5.709  -3.587  20.828  1.00  0.00     0.000 A 
HETATM   15  C16 UNL     1      -6.790  -3.187  21.556  1.00  0.00     0.017 A 
HETATM   16  C17 UNL     1      -7.058  -3.874  22.689  1.00  0.00     0.008 A 
HETATM   17  C18 UNL     1      -6.217  -4.910  23.001  1.00  0.00     0.050 A 
HETATM   18  S1  UNL     1      -5.093  -4.895  21.722  1.00  0.00    -0.105 SA
ENDBRANCH  13  14
ENDBRANCH  10  13
BRANCH  11  19
HETATM   19  C20 UNL     1      -5.870  -2.939  16.221  1.00  0.00     0.009 C 
HETATM   20  C21 UNL     1      -5.427  -3.998  15.248  1.00  0.00     0.007 C 
HETATM   21  C22 UNL     1      -5.140  -3.228  13.961  1.00  0.00     0.000 C 
HETATM   22  C23 UNL     1      -5.703  -1.834  14.162  1.00  0.00     0.000 C 
HETATM   23  C24 UNL     1      -6.662  -2.016  15.332  1.00  0.00     0.007 C 
ENDBRANCH  11  19
ENDBRANCH   3   8
BRANCH   1  24
HETATM   24  C9  UNL     1     -12.823   0.074  19.089  1.00  0.00     0.332 C 
BRANCH  24  25
HETATM   25  N2  UNL     1     -12.626   1.366  19.671  1.00  0.00     0.097 N 
HETATM   26  C8  UNL     1     -13.846   1.833  20.323  1.00  0.00     0.292 C 
HETATM   27  C7  UNL     1     -13.925   1.277  21.744  1.00  0.00     0.156 C 
HETATM   28  N1  UNL     1     -12.872   1.898  22.500  1.00  0.00    -0.348 N 
HETATM   29  C1  UNL     1     -12.818   2.097  23.885  1.00  0.00     0.224 C 
HETATM   30  C27 UNL     1     -11.743   2.374  21.687  1.00  0.00     0.156 C 
HETATM   31  O1  UNL     1     -11.734   2.669  24.317  1.00  0.00    -0.273 OA
HETATM   32  C26 UNL     1     -11.478   1.500  20.502  1.00  0.00     0.292 C 
BRANCH  29  33
HETATM   33  C2  UNL     1     -13.792   1.765  24.910  1.00  0.00     0.078 C 
HETATM   34  C3  UNL     1     -13.728   2.587  26.154  1.00  0.00     0.014 C 
HETATM   35  C4  UNL     1     -14.326   1.642  27.197  1.00  0.00     0.001 C 
HETATM   36  C5  UNL     1     -13.725   0.312  26.848  1.00  0.00     0.001 C 
HETATM   37  C6  UNL     1     -13.664   0.323  25.333  1.00  0.00     0.014 C 
ENDBRANCH  29  33
ENDBRANCH  24  25
ENDBRANCH   1  24
TORSDOF 7
ENDMDL
MODEL 3
REMARK VINA RESULT: -9.036199753      6.955     11.954
REMARK  7 active torsions:
REMARK  status: ('A' for Active; 'I' for Inactive)
REMARK    1  A    between atoms: C1_2  and  C2_3 
REMARK       I    between atoms: C1_2  and  N1_8 
REMARK    2  A    between atoms: N2_11  and  C9_12 
REMARK    3  A    between atoms: C9_12  and  C10_13 
REMARK    4  A    between atoms: N3_15  and  C12_16 
REMARK    5  A    between atoms: N4_18  and  C14_19 
REMARK    6  A    between atoms: C14_19  and  C15_20 
REMARK    7  A    between atoms: C19_25  and  C20_26 
ROOT
HETATM    1  C10 UNL     1     -12.171   0.247  18.401  1.00  0.00     0.073 A 
HETATM    2  C11 UNL     1     -11.165  -0.693  18.711  1.00  0.00     0.146 A 
HETATM    3  N3  UNL     1     -10.471  -0.998  17.604  1.00  0.00    -0.254 N 
HETATM    4  N5  UNL     1     -11.012  -0.283  16.640  1.00  0.00    -0.236 N 
ATOM      5  H5  UNL     1     -10.701  -0.295  15.669  1.00  0.00     0.209 HD
HETATM    6  N6  UNL     1     -12.003   0.446  17.089  1.00  0.00    -0.287 N 
ATOM      7  H6  UNL     1     -12.567   1.077  16.519  1.00  0.00     0.188 HD
ENDROOT
BRANCH   3   8
HETATM    8  C12 UNL     1      -9.380  -1.900  17.464  1.00  0.00     0.052 C 
HETATM    9  C13 UNL     1      -8.233  -1.913  18.128  1.00  0.00     0.113 C 
HETATM   10  N4  UNL     1      -7.384  -2.962  17.718  1.00  0.00    -0.378 N 
HETATM   11  C19 UNL     1      -7.885  -3.416  16.446  1.00  0.00     0.094 C 
HETATM   12  C25 UNL     1      -9.352  -3.029  16.494  1.00  0.00     0.086 C 
BRANCH  10  13
HETATM   13  C14 UNL     1      -6.220  -3.512  18.428  1.00  0.00     0.168 C 
BRANCH  13  14
HETATM   14  C15 UNL     1      -6.493  -3.455  19.912  1.00  0.00     0.000 A 
HETATM   15  C16 UNL     1      -7.469  -2.758  20.560  1.00  0.00     0.017 A 
HETATM   16  C17 UNL     1      -7.513  -2.866  21.906  1.00  0.00     0.008 A 
HETATM   17  C18 UNL     1      -6.572  -3.667  22.497  1.00  0.00     0.050 A 
HETATM   18  S1  UNL     1      -5.665  -4.239  21.173  1.00  0.00    -0.105 SA
ENDBRANCH  13  14
ENDBRANCH  10  13
BRANCH  11  19
HETATM   19  C20 UNL     1      -7.193  -2.860  15.252  1.00  0.00     0.009 C 
HETATM   20  C21 UNL     1      -6.893  -1.387  15.313  1.00  0.00     0.007 C 
HETATM   21  C22 UNL     1      -5.821  -1.179  14.246  1.00  0.00     0.000 C 
HETATM   22  C23 UNL     1      -5.352  -2.561  13.834  1.00  0.00     0.000 C 
HETATM   23  C24 UNL     1      -5.830  -3.442  14.982  1.00  0.00     0.007 C 
ENDBRANCH  11  19
ENDBRANCH   3   8
BRANCH   1  24
HETATM   24  C9  UNL     1     -13.143   0.830  19.325  1.00  0.00     0.332 C 
BRANCH  24  25
HETATM   25  N2  UNL     1     -12.559   1.877  20.106  1.00  0.00     0.097 N 
HETATM   26  C8  UNL     1     -13.581   2.593  20.863  1.00  0.00     0.292 C 
HETATM   27  C7  UNL     1     -13.866   1.862  22.174  1.00  0.00     0.156 C 
HETATM   28  N1  UNL     1     -12.689   1.982  22.989  1.00  0.00    -0.348 N 
HETATM   29  C1  UNL     1     -12.606   1.921  24.386  1.00  0.00     0.224 C 
HETATM   30  C27 UNL     1     -11.447   2.203  22.231  1.00  0.00     0.156 C 
HETATM   31  O1  UNL     1     -11.407   2.038  24.873  1.00  0.00    -0.273 OA
HETATM   32  C26 UNL     1     -11.447   1.500  20.911  1.00  0.00     0.292 C 
BRANCH  29  33
HETATM   33  C2  UNL     1     -13.659   1.750  25.372  1.00  0.00     0.078 C 
HETATM   34  C3  UNL     1     -13.374   2.307  26.727  1.00  0.00     0.014 C 
HETATM   35  C4  UNL     1     -14.259   1.442  27.625  1.00  0.00     0.001 C 
HETATM   36  C5  UNL     1     -14.090   0.064  27.058  1.00  0.00     0.001 C 
HETATM   37  C6  UNL     1     -13.993   0.292  25.562  1.00  0.00     0.014 C 
ENDBRANCH  29  33
ENDBRANCH  24  25
ENDBRANCH   1  24
TORSDOF 7
ENDMDL
MODEL 4
REMARK VINA RESULT: -8.895918092      1.209      1.433
REMARK  7 active torsions:
REMARK  status: ('A' for Active; 'I' for Inactive)
REMARK    1  A    between atoms: C1_2  and  C2_3 
REMARK       I    between atoms: C1_2  and  N1_8 
REMARK    2  A    between atoms: N2_11  and  C9_12 
REMARK    3  A    between atoms: C9_12  and  C10_13 
REMARK    4  A    between atoms: N3_15  and  C12_16 
REMARK    5  A    between atoms: N4_18  and  C14_19 
REMARK    6  A    between atoms: C14_19  and  C15_20 
REMARK    7  A    between atoms: C19_25  and  C20_26 
ROOT
HETATM    1  C10 UNL     1      -4.219  -5.200  22.859  1.00  0.00     0.073 A 
HETATM    2  C11 UNL     1      -4.163  -5.925  24.068  1.00  0.00     0.146 A 
HETATM    3  N3  UNL     1      -2.942  -5.810  24.613  1.00  0.00    -0.254 N 
HETATM    4  N5  UNL     1      -2.259  -5.046  23.786  1.00  0.00    -0.236 N 
ATOM      5  H5  UNL     1      -1.287  -4.772  23.926  1.00  0.00     0.209 HD
HETATM    6  N6  UNL     1      -2.989  -4.684  22.761  1.00  0.00    -0.287 N 
ATOM      7  H6  UNL     1      -2.666  -4.093  21.996  1.00  0.00     0.188 HD
ENDROOT
BRANCH   3   8
HETATM    8  C12 UNL     1      -2.454  -6.380  25.821  1.00  0.00     0.052 C 
HETATM    9  C13 UNL     1      -2.602  -7.620  26.264  1.00  0.00     0.113 C 
HETATM   10  N4  UNL     1      -1.976  -7.826  27.512  1.00  0.00    -0.378 N 
HETATM   11  C19 UNL     1      -1.734  -6.518  28.064  1.00  0.00     0.094 C 
HETATM   12  C25 UNL     1      -1.662  -5.631  26.834  1.00  0.00     0.086 C 
BRANCH  10  13
HETATM   13  C14 UNL     1      -1.622  -9.104  28.144  1.00  0.00     0.168 C 
BRANCH  13  14
HETATM   14  C15 UNL     1      -1.560 -10.167  27.074  1.00  0.00     0.000 A 
HETATM   15  C16 UNL     1      -0.514 -10.477  26.257  1.00  0.00     0.017 A 
HETATM   16  C17 UNL     1      -0.700 -11.478  25.369  1.00  0.00     0.008 A 
HETATM   17  C18 UNL     1      -1.926 -12.091  25.371  1.00  0.00     0.050 A 
HETATM   18  S1  UNL     1      -2.770 -11.262  26.596  1.00  0.00    -0.105 SA
ENDBRANCH  13  14
ENDBRANCH  10  13
BRANCH  11  19
HETATM   19  C20 UNL     1      -2.745  -6.041  29.046  1.00  0.00     0.009 C 
HETATM   20  C21 UNL     1      -2.446  -6.369  30.483  1.00  0.00     0.007 C 
HETATM   21  C22 UNL     1      -3.331  -5.412  31.278  1.00  0.00     0.000 C 
HETATM   22  C23 UNL     1      -3.864  -4.398  30.285  1.00  0.00     0.000 C 
HETATM   23  C24 UNL     1      -2.917  -4.546  29.101  1.00  0.00     0.007 C 
ENDBRANCH  11  19
ENDBRANCH   3   8
BRANCH   1  24
HETATM   24  C9  UNL     1      -5.366  -5.077  21.961  1.00  0.00     0.332 C 
BRANCH  24  25
HETATM   25  N2  UNL     1      -5.693  -3.705  21.717  1.00  0.00     0.097 N 
HETATM   26  C8  UNL     1      -5.059  -3.230  20.491  1.00  0.00     0.292 C 
HETATM   27  C7  UNL     1      -5.927  -3.584  19.284  1.00  0.00     0.156 C 
HETATM   28  N1  UNL     1      -7.125  -2.796  19.379  1.00  0.00    -0.348 N 
HETATM   29  C1  UNL     1      -7.972  -2.400  18.337  1.00  0.00     0.224 C 
HETATM   30  C27 UNL     1      -7.461  -2.367  20.746  1.00  0.00     0.156 C 
HETATM   31  O1  UNL     1      -9.007  -1.704  18.702  1.00  0.00    -0.273 OA
HETATM   32  C26 UNL     1      -7.078  -3.380  21.777  1.00  0.00     0.292 C 
BRANCH  29  33
HETATM   33  C2  UNL     1      -7.866  -2.646  16.909  1.00  0.00     0.078 C 
HETATM   34  C3  UNL     1      -7.353  -1.507  16.092  1.00  0.00     0.014 C 
HETATM   35  C4  UNL     1      -7.963  -1.792  14.720  1.00  0.00     0.001 C 
HETATM   36  C5  UNL     1      -9.359  -2.238  15.044  1.00  0.00     0.001 C 
HETATM   37  C6  UNL     1      -9.201  -3.034  16.325  1.00  0.00     0.014 C 
ENDBRANCH  29  33
ENDBRANCH  24  25
ENDBRANCH   1  24
TORSDOF 7
ENDMDL
MODEL 5
REMARK VINA RESULT: -8.834952147      1.396      3.938
REMARK  7 active torsions:
REMARK  status: ('A' for Active; 'I' for Inactive)
REMARK    1  A    between atoms: C1_2  and  C2_3 
REMARK       I    between atoms: C1_2  and  N1_8 
REMARK    2  A    between atoms: N2_11  and  C9_12 
REMARK    3  A    between atoms: C9_12  and  C10_13 
REMARK    4  A    between atoms: N3_15  and  C12_16 
REMARK    5  A    between atoms: N4_18  and  C14_19 
REMARK    6  A    between atoms: C14_19  and  C15_20 
REMARK    7  A    between atoms: C19_25  and  C20_26 
ROOT
HETATM    1  C10 UNL     1      -4.128  -5.152  22.775  1.00  0.00     0.073 A 
HETATM    2  C11 UNL     1      -4.157  -5.923  23.957  1.00  0.00     0.146 A 
HETATM    3  N3  UNL     1      -3.011  -5.759  24.636  1.00  0.00    -0.254 N 
HETATM    4  N5  UNL     1      -2.292  -4.923  23.916  1.00  0.00    -0.236 N 
ATOM      5  H5  UNL     1      -1.359  -4.599  24.171  1.00  0.00     0.209 HD
HETATM    6  N6  UNL     1      -2.929  -4.561  22.831  1.00  0.00    -0.287 N 
ATOM      7  H6  UNL     1      -2.563  -3.920  22.128  1.00  0.00     0.188 HD
ENDROOT
BRANCH   3   8
HETATM    8  C12 UNL     1      -2.620  -6.350  25.869  1.00  0.00     0.052 C 
HETATM    9  C13 UNL     1      -2.322  -5.749  27.012  1.00  0.00     0.113 C 
HETATM   10  N4  UNL     1      -1.977  -6.664  28.029  1.00  0.00    -0.378 N 
HETATM   11  C19 UNL     1      -1.680  -7.910  27.370  1.00  0.00     0.094 C 
HETATM   12  C25 UNL     1      -2.475  -7.817  26.079  1.00  0.00     0.086 C 
BRANCH  10  13
HETATM   13  C14 UNL     1      -1.929  -6.426  29.478  1.00  0.00     0.168 C 
BRANCH  13  14
HETATM   14  C15 UNL     1      -3.262  -5.867  29.916  1.00  0.00     0.000 A 
HETATM   15  C16 UNL     1      -3.549  -4.596  30.313  1.00  0.00     0.017 A 
HETATM   16  C17 UNL     1      -4.828  -4.332  30.662  1.00  0.00     0.008 A 
HETATM   17  C18 UNL     1      -5.719  -5.370  30.584  1.00  0.00     0.050 A 
HETATM   18  S1  UNL     1      -4.759  -6.665  30.034  1.00  0.00    -0.105 SA
ENDBRANCH  13  14
ENDBRANCH  10  13
BRANCH  11  19
HETATM   19  C20 UNL     1      -0.237  -8.177  27.126  1.00  0.00     0.009 C 
HETATM   20  C21 UNL     1       0.457  -8.974  28.198  1.00  0.00     0.007 C 
HETATM   21  C22 UNL     1       1.724  -9.490  27.520  1.00  0.00     0.000 C 
HETATM   22  C23 UNL     1       1.557  -9.218  26.038  1.00  0.00     0.000 C 
HETATM   23  C24 UNL     1       0.057  -8.994  25.896  1.00  0.00     0.007 C 
ENDBRANCH  11  19
ENDBRANCH   3   8
BRANCH   1  24
HETATM   24  C9  UNL     1      -5.178  -5.057  21.762  1.00  0.00     0.332 C 
BRANCH  24  25
HETATM   25  N2  UNL     1      -5.584  -3.701  21.555  1.00  0.00     0.097 N 
HETATM   26  C8  UNL     1      -5.008  -3.169  20.323  1.00  0.00     0.292 C 
HETATM   27  C7  UNL     1      -5.886  -3.545  19.132  1.00  0.00     0.156 C 
HETATM   28  N1  UNL     1      -7.121  -2.824  19.273  1.00  0.00    -0.348 N 
HETATM   29  C1  UNL     1      -8.015  -2.454  18.260  1.00  0.00     0.224 C 
HETATM   30  C27 UNL     1      -7.444  -2.441  20.655  1.00  0.00     0.156 C 
HETATM   31  O1  UNL     1      -9.075  -1.822  18.665  1.00  0.00    -0.273 OA
HETATM   32  C26 UNL     1      -6.982  -3.452  21.656  1.00  0.00     0.292 C 
BRANCH  29  33
HETATM   33  C2  UNL     1      -7.932  -2.666  16.825  1.00  0.00     0.078 C 
HETATM   34  C3  UNL     1      -7.484  -1.491  16.022  1.00  0.00     0.014 C 
HETATM   35  C4  UNL     1      -8.115  -1.773  14.658  1.00  0.00     0.001 C 
HETATM   36  C5  UNL     1      -9.484  -2.281  15.004  1.00  0.00     0.001 C 
HETATM   37  C6  UNL     1      -9.265  -3.096  16.263  1.00  0.00     0.014 C 
ENDBRANCH  29  33
ENDBRANCH  24  25
ENDBRANCH   1  24
TORSDOF 7
ENDMDL
