MODEL 1
REMARK VINA RESULT: -7.022906226      0.000      0.000
REMARK  7 active torsions:
REMARK  status: ('A' for Active; 'I' for Inactive)
REMARK    1  A    between atoms: O1_2  and  C2_3 
REMARK    2  A    between atoms: C3_4  and  C4_5 
REMARK    3  A    between atoms: N3_18  and  C11_20 
REMARK    4  A    between atoms: C11_20  and  C12_21 
REMARK    5  A    between atoms: C12_21  and  C13_22 
REMARK    6  A    between atoms: C13_22  and  O2_23 
REMARK    7  A    between atoms: O2_23  and  N4_24 
ROOT
HETATM    1  C2  UNL     1     -16.048  12.363  26.594  1.00  0.00     0.118 A 
HETATM    2  C3  UNL     1     -16.806  12.584  25.505  1.00  0.00     0.001 A 
HETATM    3  C9  UNL     1     -16.689  13.882  24.969  1.00  0.00     0.100 A 
HETATM    4  N2  UNL     1     -15.889  14.815  25.508  1.00  0.00    -0.349 N 
ATOM      5  H2  UNL     1     -15.852  15.736  25.072  1.00  0.00     0.167 HD
HETATM    6  C10 UNL     1     -15.123  14.586  26.615  1.00  0.00     0.143 A 
HETATM    7  N3  UNL     1     -14.381  15.496  27.094  1.00  0.00    -0.374 N 
ATOM      8  H3  UNL     1     -14.396  16.392  26.605  1.00  0.00     0.161 HD
HETATM    9  C14 UNL     1     -15.204  13.347  27.165  1.00  0.00     0.193 A 
HETATM   10  F2  UNL     1     -14.496  12.990  28.265  1.00  0.00    -0.199 F 
ENDROOT
BRANCH   2  11
HETATM   11  C4  UNL     1     -17.725  11.687  24.905  1.00  0.00     0.060 C 
HETATM   12  C5  UNL     1     -19.070  11.627  25.674  1.00  0.00     0.040 C 
HETATM   13  C6  UNL     1     -19.950  12.774  25.336  1.00  0.00     0.233 C 
HETATM   14  N1  UNL     1     -20.276  12.714  23.924  1.00  0.00    -0.072 N 
HETATM   15  C7  UNL     1     -19.085  12.768  23.098  1.00  0.00     0.270 C 
ATOM     16  H12 UNL     1     -20.844  11.895  23.706  1.00  0.00     0.277 HD
ATOM     17  H11 UNL     1     -20.942  13.441  23.664  1.00  0.00     0.277 HD
HETATM   18  C8  UNL     1     -18.130  11.663  23.507  1.00  0.00     0.204 C 
HETATM   19  F1  UNL     1     -19.014  10.530  23.418  1.00  0.00    -0.247 F 
ENDBRANCH   2  11
BRANCH   1  20
HETATM   20  O1  UNL     1     -16.040  11.154  27.222  1.00  0.00    -0.352 OA
HETATM   21  C1  UNL     1     -15.031  10.225  26.766  1.00  0.00     0.210 C 
ENDBRANCH   1  20
BRANCH   7  22
HETATM   22  C11 UNL     1     -13.541  15.417  28.219  1.00  0.00     0.123 C 
BRANCH  22  23
HETATM   23  C12 UNL     1     -12.123  15.843  27.804  1.00  0.00     0.048 C 
BRANCH  23  24
HETATM   24  C13 UNL     1     -11.212  14.700  28.210  1.00  0.00     0.202 C 
BRANCH  24  25
HETATM   25  O2  UNL     1     -10.373  15.156  29.243  1.00  0.00    -0.287 OA
BRANCH  25  26
HETATM   26  N4  UNL     1     -10.224  14.150  30.148  1.00  0.00    -0.311 N 
ATOM     27  H42 UNL     1     -10.805  14.017  30.976  1.00  0.00     0.184 HD
ATOM     28  H41 UNL     1      -9.442  13.566  29.852  1.00  0.00     0.184 HD
ENDBRANCH  25  26
ENDBRANCH  24  25
ENDBRANCH  23  24
ENDBRANCH  22  23
ENDBRANCH   7  22
TORSDOF 7
ENDMDL
MODEL 2
REMARK VINA RESULT: -6.687071176      1.392      1.573
REMARK  7 active torsions:
REMARK  status: ('A' for Active; 'I' for Inactive)
REMARK    1  A    between atoms: O1_2  and  C2_3 
REMARK    2  A    between atoms: C3_4  and  C4_5 
REMARK    3  A    between atoms: N3_18  and  C11_20 
REMARK    4  A    between atoms: C11_20  and  C12_21 
REMARK    5  A    between atoms: C12_21  and  C13_22 
REMARK    6  A    between atoms: C13_22  and  O2_23 
REMARK    7  A    between atoms: O2_23  and  N4_24 
ROOT
HETATM    1  C2  UNL     1     -15.881  10.911  25.874  1.00  0.00     0.118 A 
HETATM    2  C3  UNL     1     -17.039  11.529  25.581  1.00  0.00     0.001 A 
HETATM    3  C9  UNL     1     -17.058  12.905  25.884  1.00  0.00     0.100 A 
HETATM    4  N2  UNL     1     -16.003  13.538  26.422  1.00  0.00    -0.349 N 
ATOM      5  H2  UNL     1     -16.082  14.535  26.619  1.00  0.00     0.167 HD
HETATM    6  C10 UNL     1     -14.830  12.906  26.719  1.00  0.00     0.143 A 
HETATM    7  N3  UNL     1     -13.857  13.541  27.228  1.00  0.00    -0.374 N 
ATOM      8  H3  UNL     1     -14.009  14.535  27.397  1.00  0.00     0.161 HD
HETATM    9  C14 UNL     1     -14.767  11.577  26.442  1.00  0.00     0.193 A 
HETATM   10  F2  UNL     1     -13.661  10.832  26.688  1.00  0.00    -0.199 F 
ENDROOT
BRANCH   2  11
HETATM   11  C4  UNL     1     -18.222  10.934  25.075  1.00  0.00     0.060 C 
HETATM   12  C5  UNL     1     -19.492  11.449  25.802  1.00  0.00     0.040 C 
HETATM   13  C6  UNL     1     -19.924  12.774  25.288  1.00  0.00     0.233 C 
HETATM   14  N1  UNL     1     -20.272  12.642  23.885  1.00  0.00    -0.072 N 
HETATM   15  C7  UNL     1     -19.150  12.168  23.099  1.00  0.00     0.270 C 
ATOM     16  H12 UNL     1     -21.093  12.049  23.759  1.00  0.00     0.277 HD
ATOM     17  H11 UNL     1     -20.647  13.513  23.512  1.00  0.00     0.277 HD
HETATM   18  C8  UNL     1     -18.633  10.866  23.680  1.00  0.00     0.204 C 
HETATM   19  F1  UNL     1     -19.857  10.109  23.711  1.00  0.00    -0.247 F 
ENDBRANCH   2  11
BRANCH   1  20
HETATM   20  O1  UNL     1     -15.702   9.583  25.628  1.00  0.00    -0.352 OA
HETATM   21  C1  UNL     1     -15.185   9.258  24.318  1.00  0.00     0.210 C 
ENDBRANCH   1  20
BRANCH   7  22
HETATM   22  C11 UNL     1     -12.594  13.036  27.587  1.00  0.00     0.123 C 
BRANCH  22  23
HETATM   23  C12 UNL     1     -12.070  13.836  28.791  1.00  0.00     0.048 C 
BRANCH  23  24
HETATM   24  C13 UNL     1     -11.061  14.819  28.227  1.00  0.00     0.202 C 
BRANCH  24  25
HETATM   25  O2  UNL     1     -10.186  15.190  29.264  1.00  0.00    -0.287 OA
BRANCH  25  26
HETATM   26  N4  UNL     1     -10.118  14.162  30.154  1.00  0.00    -0.311 N 
ATOM     27  H42 UNL     1      -9.916  13.192  29.914  1.00  0.00     0.184 HD
ATOM     28  H41 UNL     1     -10.304  14.533  31.085  1.00  0.00     0.184 HD
ENDBRANCH  25  26
ENDBRANCH  24  25
ENDBRANCH  23  24
ENDBRANCH  22  23
ENDBRANCH   7  22
TORSDOF 7
ENDMDL
MODEL 3
REMARK VINA RESULT: -6.677224766      4.246      5.852
REMARK  7 active torsions:
REMARK  status: ('A' for Active; 'I' for Inactive)
REMARK    1  A    between atoms: O1_2  and  C2_3 
REMARK    2  A    between atoms: C3_4  and  C4_5 
REMARK    3  A    between atoms: N3_18  and  C11_20 
REMARK    4  A    between atoms: C11_20  and  C12_21 
REMARK    5  A    between atoms: C12_21  and  C13_22 
REMARK    6  A    between atoms: C13_22  and  O2_23 
REMARK    7  A    between atoms: O2_23  and  N4_24 
ROOT
HETATM    1  C2  UNL     1     -15.547  12.138  23.804  1.00  0.00     0.118 A 
HETATM    2  C3  UNL     1     -16.891  12.159  23.757  1.00  0.00     0.001 A 
HETATM    3  C9  UNL     1     -17.499  10.897  23.914  1.00  0.00     0.100 A 
HETATM    4  N2  UNL     1     -16.788   9.773  24.091  1.00  0.00    -0.349 N 
ATOM      5  H2  UNL     1     -17.290   8.891  24.196  1.00  0.00     0.167 HD
HETATM    6  C10 UNL     1     -15.424   9.756  24.135  1.00  0.00     0.143 A 
HETATM    7  N3  UNL     1     -14.790   8.670  24.303  1.00  0.00    -0.374 N 
ATOM      8  H3  UNL     1     -15.358   7.829  24.400  1.00  0.00     0.161 HD
HETATM    9  C14 UNL     1     -14.795  10.952  23.989  1.00  0.00     0.193 A 
HETATM   10  F2  UNL     1     -13.445  11.073  24.014  1.00  0.00    -0.199 F 
ENDROOT
BRANCH   2  11
HETATM   11  C4  UNL     1     -17.721  13.282  23.511  1.00  0.00     0.060 C 
HETATM   12  C5  UNL     1     -19.164  12.868  23.124  1.00  0.00     0.040 C 
HETATM   13  C6  UNL     1     -19.976  12.513  24.316  1.00  0.00     0.233 C 
HETATM   14  N1  UNL     1     -20.094  13.682  25.167  1.00  0.00    -0.072 N 
HETATM   15  C7  UNL     1     -18.795  14.161  25.600  1.00  0.00     0.270 C 
ATOM     16  H12 UNL     1     -20.631  14.421  24.714  1.00  0.00     0.277 HD
ATOM     17  H11 UNL     1     -20.708  13.504  25.961  1.00  0.00     0.277 HD
HETATM   18  C8  UNL     1     -17.919  14.426  24.390  1.00  0.00     0.204 C 
HETATM   19  F1  UNL     1     -18.791  15.294  23.643  1.00  0.00    -0.247 F 
ENDBRANCH   2  11
BRANCH   1  20
HETATM   20  O1  UNL     1     -14.813  13.279  23.680  1.00  0.00    -0.352 OA
HETATM   21  C1  UNL     1     -14.375  13.872  24.923  1.00  0.00     0.210 C 
ENDBRANCH   1  20
BRANCH   7  22
HETATM   22  C11 UNL     1     -13.396   8.490  24.370  1.00  0.00     0.123 C 
BRANCH  22  23
HETATM   23  C12 UNL     1     -13.022   7.243  23.552  1.00  0.00     0.048 C 
BRANCH  23  24
HETATM   24  C13 UNL     1     -11.767   6.686  24.197  1.00  0.00     0.202 C 
BRANCH  24  25
HETATM   25  O2  UNL     1     -12.084   5.437  24.761  1.00  0.00    -0.287 OA
BRANCH  25  26
HETATM   26  N4  UNL     1     -12.822   4.735  23.858  1.00  0.00    -0.311 N 
ATOM     27  H42 UNL     1     -12.779   4.856  22.846  1.00  0.00     0.184 HD
ATOM     28  H41 UNL     1     -13.413   4.079  24.368  1.00  0.00     0.184 HD
ENDBRANCH  25  26
ENDBRANCH  24  25
ENDBRANCH  23  24
ENDBRANCH  22  23
ENDBRANCH   7  22
TORSDOF 7
ENDMDL
MODEL 4
REMARK VINA RESULT: -6.634952653      3.923      5.654
REMARK  7 active torsions:
REMARK  status: ('A' for Active; 'I' for Inactive)
REMARK    1  A    between atoms: O1_2  and  C2_3 
REMARK    2  A    between atoms: C3_4  and  C4_5 
REMARK    3  A    between atoms: N3_18  and  C11_20 
REMARK    4  A    between atoms: C11_20  and  C12_21 
REMARK    5  A    between atoms: C12_21  and  C13_22 
REMARK    6  A    between atoms: C13_22  and  O2_23 
REMARK    7  A    between atoms: O2_23  and  N4_24 
ROOT
HETATM    1  C2  UNL     1     -15.477  12.300  23.849  1.00  0.00     0.118 A 
HETATM    2  C3  UNL     1     -16.814  12.233  23.725  1.00  0.00     0.001 A 
HETATM    3  C9  UNL     1     -17.356  10.950  23.939  1.00  0.00     0.100 A 
HETATM    4  N2  UNL     1     -16.592   9.887  24.239  1.00  0.00    -0.349 N 
ATOM      5  H2  UNL     1     -17.047   8.986  24.381  1.00  0.00     0.167 HD
HETATM    6  C10 UNL     1     -15.234   9.960  24.363  1.00  0.00     0.143 A 
HETATM    7  N3  UNL     1     -14.549   8.931  24.647  1.00  0.00    -0.374 N 
ATOM      8  H3  UNL     1     -15.072   8.064  24.773  1.00  0.00     0.161 HD
HETATM    9  C14 UNL     1     -14.669  11.179  24.165  1.00  0.00     0.193 A 
HETATM   10  F2  UNL     1     -13.333  11.387  24.258  1.00  0.00    -0.199 F 
ENDROOT
BRANCH   2  11
HETATM   11  C4  UNL     1     -17.692  13.281  23.349  1.00  0.00     0.060 C 
HETATM   12  C5  UNL     1     -19.150  12.786  23.171  1.00  0.00     0.040 C 
HETATM   13  C6  UNL     1     -19.851  12.650  24.474  1.00  0.00     0.233 C 
HETATM   14  N1  UNL     1     -19.929  13.956  25.102  1.00  0.00    -0.072 N 
HETATM   15  C7  UNL     1     -18.612  14.521  25.325  1.00  0.00     0.270 C 
ATOM     16  H12 UNL     1     -20.522  14.592  24.568  1.00  0.00     0.277 HD
ATOM     17  H11 UNL     1     -20.470  13.921  25.965  1.00  0.00     0.277 HD
HETATM   18  C8  UNL     1     -17.847  14.566  24.016  1.00  0.00     0.204 C 
HETATM   19  F1  UNL     1     -18.801  15.271  23.200  1.00  0.00    -0.247 F 
ENDBRANCH   2  11
BRANCH   1  20
HETATM   20  O1  UNL     1     -14.805  13.473  23.684  1.00  0.00    -0.352 OA
HETATM   21  C1  UNL     1     -14.440  14.156  24.904  1.00  0.00     0.210 C 
ENDBRANCH   1  20
BRANCH   7  22
HETATM   22  C11 UNL     1     -13.155   8.844  24.807  1.00  0.00     0.123 C 
BRANCH  22  23
HETATM   23  C12 UNL     1     -12.640   7.648  23.989  1.00  0.00     0.048 C 
BRANCH  23  24
HETATM   24  C13 UNL     1     -12.101   8.232  22.696  1.00  0.00     0.202 C 
BRANCH  24  25
HETATM   25  O2  UNL     1     -13.196   8.556  21.874  1.00  0.00    -0.287 OA
BRANCH  25  26
HETATM   26  N4  UNL     1     -13.653   7.409  21.300  1.00  0.00    -0.311 N 
ATOM     27  H42 UNL     1     -13.154   6.520  21.289  1.00  0.00     0.184 HD
ATOM     28  H41 UNL     1     -14.568   7.599  20.890  1.00  0.00     0.184 HD
ENDBRANCH  25  26
ENDBRANCH  24  25
ENDBRANCH  23  24
ENDBRANCH  22  23
ENDBRANCH   7  22
TORSDOF 7
ENDMDL
MODEL 5
REMARK VINA RESULT: -6.525319782      3.370      3.820
REMARK  7 active torsions:
REMARK  status: ('A' for Active; 'I' for Inactive)
REMARK    1  A    between atoms: O1_2  and  C2_3 
REMARK    2  A    between atoms: C3_4  and  C4_5 
REMARK    3  A    between atoms: N3_18  and  C11_20 
REMARK    4  A    between atoms: C11_20  and  C12_21 
REMARK    5  A    between atoms: C12_21  and  C13_22 
REMARK    6  A    between atoms: C13_22  and  O2_23 
REMARK    7  A    between atoms: O2_23  and  N4_24 
ROOT
HETATM    1  C2  UNL     1     -15.061  15.449  26.192  1.00  0.00     0.118 A 
HETATM    2  C3  UNL     1     -15.692  15.280  25.016  1.00  0.00     0.001 A 
HETATM    3  C9  UNL     1     -15.500  16.331  24.097  1.00  0.00     0.100 A 
HETATM    4  N2  UNL     1     -14.751  17.408  24.381  1.00  0.00    -0.349 N 
ATOM      5  H2  UNL     1     -14.653  18.134  23.671  1.00  0.00     0.167 HD
HETATM    6  C10 UNL     1     -14.113  17.575  25.577  1.00  0.00     0.143 A 
HETATM    7  N3  UNL     1     -13.415  18.609  25.805  1.00  0.00    -0.374 N 
ATOM      8  H3  UNL     1     -13.364  19.293  25.049  1.00  0.00     0.161 HD
HETATM    9  C14 UNL     1     -14.270  16.585  26.494  1.00  0.00     0.193 A 
HETATM   10  F2  UNL     1     -13.692  16.628  27.719  1.00  0.00    -0.199 F 
ENDROOT
BRANCH   2  11
HETATM   11  C4  UNL     1     -16.552  14.215  24.652  1.00  0.00     0.060 C 
HETATM   12  C5  UNL     1     -17.864  14.213  25.479  1.00  0.00     0.040 C 
HETATM   13  C6  UNL     1     -18.845  15.199  24.959  1.00  0.00     0.233 C 
HETATM   14  N1  UNL     1     -19.208  14.830  23.603  1.00  0.00    -0.072 N 
HETATM   15  C7  UNL     1     -18.051  14.802  22.730  1.00  0.00     0.270 C 
ATOM     16  H12 UNL     1     -19.713  13.944  23.581  1.00  0.00     0.277 HD
ATOM     17  H11 UNL     1     -19.939  15.438  23.235  1.00  0.00     0.277 HD
HETATM   18  C8  UNL     1     -16.997  13.877  23.307  1.00  0.00     0.204 C 
HETATM   19  F1  UNL     1     -17.788  12.688  23.487  1.00  0.00    -0.247 F 
ENDBRANCH   2  11
BRANCH   1  20
HETATM   20  O1  UNL     1     -15.138  14.515  27.181  1.00  0.00    -0.352 OA
HETATM   21  C1  UNL     1     -14.108  13.502  27.159  1.00  0.00     0.210 C 
ENDBRANCH   1  20
BRANCH   7  22
HETATM   22  C11 UNL     1     -12.704  18.925  26.977  1.00  0.00     0.123 C 
BRANCH  22  23
HETATM   23  C12 UNL     1     -11.201  18.758  26.699  1.00  0.00     0.048 C 
BRANCH  23  24
HETATM   24  C13 UNL     1     -10.875  19.737  25.586  1.00  0.00     0.202 C 
BRANCH  24  25
HETATM   25  O2  UNL     1     -10.438  20.938  26.175  1.00  0.00    -0.287 OA
BRANCH  25  26
HETATM   26  N4  UNL     1      -9.078  20.966  26.129  1.00  0.00    -0.311 N 
ATOM     27  H42 UNL     1      -8.514  20.707  25.320  1.00  0.00     0.184 HD
ATOM     28  H41 UNL     1      -8.734  21.287  27.034  1.00  0.00     0.184 HD
ENDBRANCH  25  26
ENDBRANCH  24  25
ENDBRANCH  23  24
ENDBRANCH  22  23
ENDBRANCH   7  22
TORSDOF 7
ENDMDL
