MODEL 1
REMARK VINA RESULT: -8.261311884      0.000      0.000
REMARK  7 active torsions:
REMARK  status: ('A' for Active; 'I' for Inactive)
REMARK    1  A    between atoms: N1_2  and  C2_4 
REMARK    2  A    between atoms: C7_10  and  C8_11 
REMARK    3  A    between atoms: C8_11  and  C11_15 
REMARK    4  A    between atoms: C13_17  and  O1_18 
REMARK    5  A    between atoms: C16_21  and  O2_22 
REMARK    6  A    between atoms: N3_26  and  C20_27 
REMARK    7  A    between atoms: C23_30  and  O3_31 
ROOT
HETATM    1  C8  UNL     1      25.300   7.062  -5.270  1.00  0.00    -0.003 C 
HETATM    2  C9  UNL     1      25.091   6.407  -6.377  1.00  0.00     0.106 C 
HETATM    3  C10 UNL     1      25.567   5.063  -6.591  1.00  0.00     0.088 C 
HETATM    4  N2  UNL     1      25.934   3.964  -6.776  1.00  0.00    -0.192 NA
ENDROOT
BRANCH   1   5
HETATM    5  C7  UNL     1      26.043   6.490  -4.165  1.00  0.00     0.006 A 
HETATM    6  C6  UNL     1      27.381   6.341  -3.904  1.00  0.00     0.039 A 
HETATM    7  C5  UNL     1      27.554   5.520  -2.793  1.00  0.00     0.051 A 
HETATM    8  C23 UNL     1      28.496   6.875  -4.511  1.00  0.00     0.108 A 
HETATM    9  C4  UNL     1      28.821   5.260  -2.336  1.00  0.00     0.075 A 
HETATM   10  N3  UNL     1      26.310   5.173  -2.370  1.00  0.00    -0.350 N 
HETATM   11  C3  UNL     1      29.959   5.769  -2.916  1.00  0.00     0.147 A 
HETATM   12  C2  UNL     1      29.771   6.582  -4.011  1.00  0.00     0.101 A 
HETATM   13  F1  UNL     1      31.210   5.497  -2.447  1.00  0.00    -0.204 F 
HETATM   14  C19 UNL     1      25.404   5.730  -3.158  1.00  0.00     0.105 A 
BRANCH  12  15
HETATM   15  N1  UNL     1      30.922   7.128  -4.637  1.00  0.00    -0.390 N 
HETATM   16  C1  UNL     1      31.636   8.278  -4.130  1.00  0.00     0.146 C 
ATOM     17  H1  UNL     1      31.264   6.686  -5.490  1.00  0.00     0.159 HD
ENDBRANCH  12  15
BRANCH  10  18
HETATM   18  C20 UNL     1      26.117   4.310  -1.211  1.00  0.00     0.090 A 
HETATM   19  C21 UNL     1      25.731   5.047   0.037  1.00  0.00     0.028 A 
HETATM   20  C22 UNL     1      24.775   4.124  -0.631  1.00  0.00     0.028 A 
ENDBRANCH  10  18
BRANCH   8  21
HETATM   21  O3  UNL     1      28.384   7.705  -5.601  1.00  0.00    -0.357 OA
ATOM     22  H3  UNL     1      27.527   7.846  -5.985  1.00  0.00     0.217 HD
ENDBRANCH   8  21
ENDBRANCH   1   5
BRANCH   1  23
HETATM   23  C11 UNL     1      24.781   8.407  -5.112  1.00  0.00    -0.019 A 
HETATM   24  C12 UNL     1      25.537   9.457  -4.677  1.00  0.00     0.049 A 
HETATM   25  C13 UNL     1      25.043  10.735  -4.514  1.00  0.00     0.071 A 
HETATM   26  C15 UNL     1      23.716  10.962  -4.806  1.00  0.00     0.073 A 
HETATM   27  C16 UNL     1      22.892   9.943  -5.253  1.00  0.00     0.071 A 
HETATM   28  C18 UNL     1      23.452   8.675  -5.396  1.00  0.00     0.049 A 
BRANCH  25  29
HETATM   29  O1  UNL     1      25.857  11.754  -4.071  1.00  0.00    -0.356 OA
HETATM   30  C14 UNL     1      27.250  11.538  -4.013  1.00  0.00     0.210 C 
ENDBRANCH  25  29
BRANCH  27  31
HETATM   31  O2  UNL     1      21.586  10.239  -5.525  1.00  0.00    -0.356 OA
HETATM   32  C17 UNL     1      21.023  11.510  -5.628  1.00  0.00     0.210 C 
ENDBRANCH  27  31
ENDBRANCH   1  23
TORSDOF 7
ENDMDL
MODEL 2
REMARK VINA RESULT: -8.255617565      0.101      2.230
REMARK  7 active torsions:
REMARK  status: ('A' for Active; 'I' for Inactive)
REMARK    1  A    between atoms: N1_2  and  C2_4 
REMARK    2  A    between atoms: C7_10  and  C8_11 
REMARK    3  A    between atoms: C8_11  and  C11_15 
REMARK    4  A    between atoms: C13_17  and  O1_18 
REMARK    5  A    between atoms: C16_21  and  O2_22 
REMARK    6  A    between atoms: N3_26  and  C20_27 
REMARK    7  A    between atoms: C23_30  and  O3_31 
ROOT
HETATM    1  C8  UNL     1      25.216   7.000  -5.262  1.00  0.00    -0.003 C 
HETATM    2  C9  UNL     1      25.026   6.351  -6.376  1.00  0.00     0.106 C 
HETATM    3  C10 UNL     1      25.536   5.022  -6.603  1.00  0.00     0.088 C 
HETATM    4  N2  UNL     1      25.932   3.935  -6.799  1.00  0.00    -0.192 NA
ENDROOT
BRANCH   1   5
HETATM    5  C7  UNL     1      25.971   6.435  -4.162  1.00  0.00     0.006 A 
HETATM    6  C6  UNL     1      27.312   6.300  -3.907  1.00  0.00     0.039 A 
HETATM    7  C5  UNL     1      27.500   5.480  -2.798  1.00  0.00     0.051 A 
HETATM    8  C23 UNL     1      28.418   6.848  -4.520  1.00  0.00     0.108 A 
HETATM    9  C4  UNL     1      28.772   5.234  -2.348  1.00  0.00     0.075 A 
HETATM   10  N3  UNL     1      26.262   5.119  -2.370  1.00  0.00    -0.350 N 
HETATM   11  C3  UNL     1      29.901   5.756  -2.933  1.00  0.00     0.147 A 
HETATM   12  C2  UNL     1      29.699   6.568  -4.027  1.00  0.00     0.101 A 
HETATM   13  F1  UNL     1      31.157   5.498  -2.470  1.00  0.00    -0.204 F 
HETATM   14  C19 UNL     1      25.345   5.667  -3.152  1.00  0.00     0.105 A 
BRANCH  12  15
HETATM   15  N1  UNL     1      30.840   7.128  -4.657  1.00  0.00    -0.390 N 
HETATM   16  C1  UNL     1      31.588   8.239  -4.114  1.00  0.00     0.146 C 
ATOM     17  H1  UNL     1      31.149   6.726  -5.542  1.00  0.00     0.159 HD
ENDBRANCH  12  15
BRANCH  10  18
HETATM   18  C20 UNL     1      26.084   4.253  -1.211  1.00  0.00     0.090 A 
HETATM   19  C21 UNL     1      25.584   4.966   0.010  1.00  0.00     0.028 A 
HETATM   20  C22 UNL     1      24.736   3.965  -0.690  1.00  0.00     0.028 A 
ENDBRANCH  10  18
BRANCH   8  21
HETATM   21  O3  UNL     1      28.291   7.678  -5.608  1.00  0.00    -0.357 OA
ATOM     22  H3  UNL     1      27.531   8.244  -5.669  1.00  0.00     0.217 HD
ENDBRANCH   8  21
ENDBRANCH   1   5
BRANCH   1  23
HETATM   23  C11 UNL     1      24.663   8.329  -5.091  1.00  0.00    -0.019 A 
HETATM   24  C12 UNL     1      23.362   8.642  -5.361  1.00  0.00     0.049 A 
HETATM   25  C13 UNL     1      22.837   9.909  -5.211  1.00  0.00     0.071 A 
HETATM   26  C15 UNL     1      23.670  10.911  -4.765  1.00  0.00     0.073 A 
HETATM   27  C16 UNL     1      25.001  10.664  -4.473  1.00  0.00     0.071 A 
HETATM   28  C18 UNL     1      25.470   9.363  -4.646  1.00  0.00     0.049 A 
BRANCH  25  29
HETATM   29  O1  UNL     1      21.514  10.162  -5.499  1.00  0.00    -0.356 OA
HETATM   30  C14 UNL     1      21.077  11.500  -5.585  1.00  0.00     0.210 C 
ENDBRANCH  25  29
BRANCH  27  31
HETATM   31  O2  UNL     1      25.772  11.704  -4.034  1.00  0.00    -0.356 OA
HETATM   32  C17 UNL     1      27.164  11.738  -3.965  1.00  0.00     0.210 C 
ENDBRANCH  27  31
ENDBRANCH   1  23
TORSDOF 7
ENDMDL
MODEL 3
REMARK VINA RESULT: -8.248524593      2.800      5.968
REMARK  7 active torsions:
REMARK  status: ('A' for Active; 'I' for Inactive)
REMARK    1  A    between atoms: N1_2  and  C2_4 
REMARK    2  A    between atoms: C7_10  and  C8_11 
REMARK    3  A    between atoms: C8_11  and  C11_15 
REMARK    4  A    between atoms: C13_17  and  O1_18 
REMARK    5  A    between atoms: C16_21  and  O2_22 
REMARK    6  A    between atoms: N3_26  and  C20_27 
REMARK    7  A    between atoms: C23_30  and  O3_31 
ROOT
HETATM    1  C8  UNL     1      27.350   5.653  -4.764  1.00  0.00    -0.003 C 
HETATM    2  C9  UNL     1      27.129   5.270  -5.990  1.00  0.00     0.106 C 
HETATM    3  C10 UNL     1      25.825   4.878  -6.464  1.00  0.00     0.088 C 
HETATM    4  N2  UNL     1      24.768   4.570  -6.869  1.00  0.00    -0.192 NA
ENDROOT
BRANCH   1   5
HETATM    5  C7  UNL     1      26.294   5.703  -3.772  1.00  0.00     0.006 A 
HETATM    6  C6  UNL     1      25.485   6.706  -3.303  1.00  0.00     0.039 A 
HETATM    7  C5  UNL     1      24.785   6.262  -2.185  1.00  0.00     0.051 A 
HETATM    8  C23 UNL     1      25.251   7.983  -3.766  1.00  0.00     0.108 A 
HETATM    9  C4  UNL     1      23.892   7.102  -1.571  1.00  0.00     0.075 A 
HETATM   10  N3  UNL     1      25.167   4.975  -1.976  1.00  0.00    -0.350 N 
HETATM   11  C3  UNL     1      23.633   8.382  -1.996  1.00  0.00     0.147 A 
HETATM   12  C2  UNL     1      24.330   8.807  -3.106  1.00  0.00     0.101 A 
HETATM   13  F1  UNL     1      22.741   9.202  -1.370  1.00  0.00    -0.204 F 
HETATM   14  C19 UNL     1      26.051   4.620  -2.895  1.00  0.00     0.105 A 
BRANCH  12  15
HETATM   15  N1  UNL     1      24.090  10.123  -3.578  1.00  0.00    -0.390 N 
HETATM   16  C1  UNL     1      23.053  10.454  -4.528  1.00  0.00     0.146 C 
ATOM     17  H1  UNL     1      24.681  10.877  -3.227  1.00  0.00     0.159 HD
ENDBRANCH  12  15
BRANCH  10  18
HETATM   18  C20 UNL     1      24.620   4.192  -0.874  1.00  0.00     0.090 A 
HETATM   19  C21 UNL     1      25.548   3.129  -0.365  1.00  0.00     0.028 A 
HETATM   20  C22 UNL     1      25.193   4.301   0.479  1.00  0.00     0.028 A 
ENDBRANCH  10  18
BRANCH   8  21
HETATM   21  O3  UNL     1      25.902   8.469  -4.875  1.00  0.00    -0.357 OA
ATOM     22  H3  UNL     1      26.808   8.223  -5.021  1.00  0.00     0.217 HD
ENDBRANCH   8  21
ENDBRANCH   1   5
BRANCH   1  23
HETATM   23  C11 UNL     1      28.683   6.048  -4.354  1.00  0.00    -0.019 A 
HETATM   24  C12 UNL     1      29.463   5.305  -3.516  1.00  0.00     0.049 A 
HETATM   25  C13 UNL     1      30.727   5.685  -3.115  1.00  0.00     0.071 A 
HETATM   26  C15 UNL     1      31.228   6.879  -3.585  1.00  0.00     0.073 A 
HETATM   27  C16 UNL     1      30.491   7.683  -4.438  1.00  0.00     0.071 A 
HETATM   28  C18 UNL     1      29.221   7.242  -4.805  1.00  0.00     0.049 A 
BRANCH  25  29
HETATM   29  O1  UNL     1      31.466   4.889  -2.268  1.00  0.00    -0.356 OA
HETATM   30  C14 UNL     1      32.269   3.868  -2.817  1.00  0.00     0.210 C 
ENDBRANCH  25  29
BRANCH  27  31
HETATM   31  O2  UNL     1      31.049   8.855  -4.867  1.00  0.00    -0.356 OA
HETATM   32  C17 UNL     1      32.102   8.995  -5.769  1.00  0.00     0.210 C 
ENDBRANCH  27  31
ENDBRANCH   1  23
TORSDOF 7
ENDMDL
MODEL 4
REMARK VINA RESULT: -8.186529890      2.793      5.976
REMARK  7 active torsions:
REMARK  status: ('A' for Active; 'I' for Inactive)
REMARK    1  A    between atoms: N1_2  and  C2_4 
REMARK    2  A    between atoms: C7_10  and  C8_11 
REMARK    3  A    between atoms: C8_11  and  C11_15 
REMARK    4  A    between atoms: C13_17  and  O1_18 
REMARK    5  A    between atoms: C16_21  and  O2_22 
REMARK    6  A    between atoms: N3_26  and  C20_27 
REMARK    7  A    between atoms: C23_30  and  O3_31 
ROOT
HETATM    1  C8  UNL     1      27.308   5.811  -4.782  1.00  0.00    -0.003 C 
HETATM    2  C9  UNL     1      27.115   5.328  -5.976  1.00  0.00     0.106 C 
HETATM    3  C10 UNL     1      25.835   4.841  -6.425  1.00  0.00     0.088 C 
HETATM    4  N2  UNL     1      24.797   4.453  -6.810  1.00  0.00    -0.192 NA
ENDROOT
BRANCH   1   5
HETATM    5  C7  UNL     1      26.245   5.883  -3.800  1.00  0.00     0.006 A 
HETATM    6  C6  UNL     1      25.401   6.885  -3.393  1.00  0.00     0.039 A 
HETATM    7  C5  UNL     1      24.708   6.483  -2.255  1.00  0.00     0.051 A 
HETATM    8  C23 UNL     1      25.132   8.126  -3.927  1.00  0.00     0.108 A 
HETATM    9  C4  UNL     1      23.784   7.327  -1.694  1.00  0.00     0.075 A 
HETATM   10  N3  UNL     1      25.127   5.222  -1.972  1.00  0.00    -0.350 N 
HETATM   11  C3  UNL     1      23.489   8.573  -2.192  1.00  0.00     0.147 A 
HETATM   12  C2  UNL     1      24.181   8.956  -3.320  1.00  0.00     0.101 A 
HETATM   13  F1  UNL     1      22.567   9.398  -1.618  1.00  0.00    -0.204 F 
HETATM   14  C19 UNL     1      26.029   4.844  -2.865  1.00  0.00     0.105 A 
BRANCH  12  15
HETATM   15  N1  UNL     1      23.904  10.236  -3.866  1.00  0.00    -0.390 N 
HETATM   16  C1  UNL     1      22.822  10.493  -4.790  1.00  0.00     0.146 C 
ATOM     17  H1  UNL     1      24.499  11.017  -3.592  1.00  0.00     0.159 HD
ENDBRANCH  12  15
BRANCH  10  18
HETATM   18  C20 UNL     1      24.597   4.485  -0.831  1.00  0.00     0.090 A 
HETATM   19  C21 UNL     1      25.433   3.307  -0.427  1.00  0.00     0.028 A 
HETATM   20  C22 UNL     1      25.306   4.493   0.461  1.00  0.00     0.028 A 
ENDBRANCH  10  18
BRANCH   8  21
HETATM   21  O3  UNL     1      25.775   8.569  -5.059  1.00  0.00    -0.357 OA
ATOM     22  H3  UNL     1      26.720   8.489  -5.111  1.00  0.00     0.217 HD
ENDBRANCH   8  21
ENDBRANCH   1   5
BRANCH   1  23
HETATM   23  C11 UNL     1      28.618   6.299  -4.398  1.00  0.00    -0.019 A 
HETATM   24  C12 UNL     1      29.144   7.474  -4.852  1.00  0.00     0.049 A 
HETATM   25  C13 UNL     1      30.396   7.936  -4.497  1.00  0.00     0.071 A 
HETATM   26  C15 UNL     1      31.154   7.169  -3.640  1.00  0.00     0.073 A 
HETATM   27  C16 UNL     1      30.682   5.966  -3.142  1.00  0.00     0.071 A 
HETATM   28  C18 UNL     1      29.411   5.557  -3.538  1.00  0.00     0.049 A 
BRANCH  25  29
HETATM   29  O1  UNL     1      30.870   9.131  -4.989  1.00  0.00    -0.356 OA
HETATM   30  C14 UNL     1      32.135   9.159  -5.615  1.00  0.00     0.210 C 
ENDBRANCH  25  29
BRANCH  27  31
HETATM   31  O2  UNL     1      31.486   5.256  -2.295  1.00  0.00    -0.356 OA
HETATM   32  C17 UNL     1      32.306   4.180  -2.632  1.00  0.00     0.210 C 
ENDBRANCH  27  31
ENDBRANCH   1  23
TORSDOF 7
ENDMDL
MODEL 5
REMARK VINA RESULT: -8.005485300      2.881      5.412
REMARK  7 active torsions:
REMARK  status: ('A' for Active; 'I' for Inactive)
REMARK    1  A    between atoms: N1_2  and  C2_4 
REMARK    2  A    between atoms: C7_10  and  C8_11 
REMARK    3  A    between atoms: C8_11  and  C11_15 
REMARK    4  A    between atoms: C13_17  and  O1_18 
REMARK    5  A    between atoms: C16_21  and  O2_22 
REMARK    6  A    between atoms: N3_26  and  C20_27 
REMARK    7  A    between atoms: C23_30  and  O3_31 
ROOT
HETATM    1  C8  UNL     1      26.607   6.529  -5.277  1.00  0.00    -0.003 C 
HETATM    2  C9  UNL     1      26.449   5.838  -6.370  1.00  0.00     0.106 C 
HETATM    3  C10 UNL     1      25.328   4.957  -6.582  1.00  0.00     0.088 C 
HETATM    4  N2  UNL     1      24.414   4.246  -6.776  1.00  0.00    -0.192 NA
ENDROOT
BRANCH   1   5
HETATM    5  C7  UNL     1      25.666   6.455  -4.177  1.00  0.00     0.006 A 
HETATM    6  C6  UNL     1      24.556   7.182  -3.832  1.00  0.00     0.039 A 
HETATM    7  C5  UNL     1      24.141   6.829  -2.551  1.00  0.00     0.051 A 
HETATM    8  C23 UNL     1      23.821   8.115  -4.531  1.00  0.00     0.108 A 
HETATM    9  C4  UNL     1      23.024   7.417  -2.017  1.00  0.00     0.075 A 
HETATM   10  N3  UNL     1      25.003   5.873  -2.116  1.00  0.00    -0.350 N 
HETATM   11  C3  UNL     1      22.267   8.355  -2.678  1.00  0.00     0.147 A 
HETATM   12  C2  UNL     1      22.687   8.692  -3.946  1.00  0.00     0.101 A 
HETATM   13  F1  UNL     1      21.159   8.929  -2.128  1.00  0.00    -0.204 F 
HETATM   14  C19 UNL     1      25.908   5.632  -3.051  1.00  0.00     0.105 A 
BRANCH  12  15
HETATM   15  N1  UNL     1      21.931   9.655  -4.662  1.00  0.00    -0.390 N 
HETATM   16  C1  UNL     1      22.293  11.052  -4.746  1.00  0.00     0.146 C 
ATOM     17  H1  UNL     1      21.087   9.346  -5.144  1.00  0.00     0.159 HD
ENDBRANCH  12  15
BRANCH  10  18
HETATM   18  C20 UNL     1      24.860   5.268  -0.797  1.00  0.00     0.090 A 
HETATM   19  C21 UNL     1      24.493   3.814  -0.831  1.00  0.00     0.028 A 
HETATM   20  C22 UNL     1      25.822   4.254  -0.329  1.00  0.00     0.028 A 
ENDBRANCH  10  18
BRANCH   8  21
HETATM   21  O3  UNL     1      24.175   8.490  -5.806  1.00  0.00    -0.357 OA
ATOM     22  H3  UNL     1      24.996   8.949  -5.938  1.00  0.00     0.217 HD
ENDBRANCH   8  21
ENDBRANCH   1   5
BRANCH   1  23
HETATM   23  C11 UNL     1      27.749   7.410  -5.132  1.00  0.00    -0.019 A 
HETATM   24  C12 UNL     1      29.036   6.962  -5.042  1.00  0.00     0.049 A 
HETATM   25  C13 UNL     1      30.124   7.797  -4.892  1.00  0.00     0.071 A 
HETATM   26  C15 UNL     1      29.899   9.154  -4.829  1.00  0.00     0.073 A 
HETATM   27  C16 UNL     1      28.620   9.678  -4.915  1.00  0.00     0.071 A 
HETATM   28  C18 UNL     1      27.564   8.781  -5.065  1.00  0.00     0.049 A 
BRANCH  25  29
HETATM   29  O1  UNL     1      31.399   7.284  -4.807  1.00  0.00    -0.356 OA
HETATM   30  C14 UNL     1      32.336   7.612  -5.810  1.00  0.00     0.210 C 
ENDBRANCH  25  29
BRANCH  27  31
HETATM   31  O2  UNL     1      28.469  11.034  -4.846  1.00  0.00    -0.356 OA
HETATM   32  C17 UNL     1      27.520  11.730  -4.098  1.00  0.00     0.210 C 
ENDBRANCH  27  31
ENDBRANCH   1  23
TORSDOF 7
ENDMDL
