MODEL 1
REMARK VINA RESULT: -8.541055053      0.000      0.000
REMARK  7 active torsions:
REMARK  status: ('A' for Active; 'I' for Inactive)
REMARK    1  A    between atoms: C6_6  and  O1_7 
REMARK    2  A    between atoms: C8_9  and  C9_10 
REMARK    3  A    between atoms: C9_10  and  C10_11 
REMARK    4  A    between atoms: C14_15  and  O2_16 
REMARK    5  A    between atoms: C16_19  and  C17_20 
REMARK    6  A    between atoms: C20_23  and  O4_24 
REMARK    7  A    between atoms: C21_26  and  O5_27 
ROOT
HETATM    1  C1  UNL     1      28.991   4.998  -2.882  1.00  0.00     0.021 C 
HETATM    2  C2  UNL     1      28.637   5.975  -3.637  1.00  0.00    -0.030 C 
HETATM    3  C3  UNL     1      29.616   6.789  -4.337  1.00  0.00     0.038 A 
HETATM    4  C4  UNL     1      29.266   8.141  -4.477  1.00  0.00     0.086 A 
HETATM    5  C5  UNL     1      30.181   8.963  -5.138  1.00  0.00     0.075 A 
HETATM    6  C6  UNL     1      31.363   8.473  -5.625  1.00  0.00     0.080 A 
HETATM    7  C8  UNL     1      31.665   7.116  -5.459  1.00  0.00     0.013 A 
HETATM    8  C14 UNL     1      30.795   6.272  -4.819  1.00  0.00     0.091 A 
HETATM    9  O3  UNL     1      28.076   8.639  -3.985  1.00  0.00    -0.338 OA
HETATM   10  C16 UNL     1      27.187   7.827  -3.281  1.00  0.00     0.188 C 
HETATM   11  C23 UNL     1      27.203   6.416  -3.814  1.00  0.00     0.149 C 
HETATM   12 CL1  UNL     1      26.849   6.458  -5.541  1.00  0.00    -0.117 Cl
ENDROOT
BRANCH  10  13
HETATM   13  C17 UNL     1      25.813   8.378  -3.198  1.00  0.00     0.015 A 
HETATM   14  C18 UNL     1      25.211   9.098  -4.204  1.00  0.00     0.016 A 
HETATM   15  C19 UNL     1      23.928   9.600  -4.103  1.00  0.00     0.040 A 
HETATM   16  C20 UNL     1      23.209   9.379  -2.954  1.00  0.00     0.102 A 
HETATM   17  C21 UNL     1      23.805   8.653  -1.927  1.00  0.00     0.138 A 
HETATM   18  C22 UNL     1      25.082   8.166  -2.055  1.00  0.00     0.161 A 
HETATM   19  F1  UNL     1      25.616   7.471  -1.041  1.00  0.00    -0.202 F 
BRANCH  16  20
HETATM   20  O4  UNL     1      21.920   9.860  -2.801  1.00  0.00    -0.358 OA
ATOM     21  H4  UNL     1      21.398   9.649  -2.037  1.00  0.00     0.217 HD
ENDBRANCH  16  20
BRANCH  17  22
HETATM   22  O5  UNL     1      23.063   8.436  -0.767  1.00  0.00    -0.355 OA
ATOM     23  H5  UNL     1      23.458   7.916  -0.078  1.00  0.00     0.218 HD
ENDBRANCH  17  22
ENDBRANCH  10  13
BRANCH   8  24
HETATM   24  O2  UNL     1      31.031   4.918  -4.631  1.00  0.00    -0.354 OA
HETATM   25  C15 UNL     1      30.657   3.967  -5.646  1.00  0.00     0.210 C 
ENDBRANCH   8  24
BRANCH   6  26
HETATM   26  O1  UNL     1      32.301   9.243  -6.285  1.00  0.00    -0.355 OA
HETATM   27  C7  UNL     1      32.599  10.515  -5.733  1.00  0.00     0.210 C 
ENDBRANCH   6  26
BRANCH   7  28
HETATM   28  C9  UNL     1      32.963   6.661  -5.962  1.00  0.00     0.072 C 
BRANCH  28  29
HETATM   29  C10 UNL     1      32.956   6.031  -7.278  1.00  0.00    -0.020 C 
HETATM   30  C11 UNL     1      33.777   6.316  -8.260  1.00  0.00    -0.091 C 
HETATM   31  C12 UNL     1      33.661   5.574  -9.588  1.00  0.00     0.042 C 
HETATM   32  C13 UNL     1      34.823   7.353  -8.211  1.00  0.00     0.042 C 
ENDBRANCH  28  29
ENDBRANCH   7  28
TORSDOF 7
ENDMDL
MODEL 2
REMARK VINA RESULT: -8.184112075      1.133      1.218
REMARK  7 active torsions:
REMARK  status: ('A' for Active; 'I' for Inactive)
REMARK    1  A    between atoms: C6_6  and  O1_7 
REMARK    2  A    between atoms: C8_9  and  C9_10 
REMARK    3  A    between atoms: C9_10  and  C10_11 
REMARK    4  A    between atoms: C14_15  and  O2_16 
REMARK    5  A    between atoms: C16_19  and  C17_20 
REMARK    6  A    between atoms: C20_23  and  O4_24 
REMARK    7  A    between atoms: C21_26  and  O5_27 
ROOT
HETATM    1  C1  UNL     1      28.619   3.660  -3.775  1.00  0.00     0.021 C 
HETATM    2  C2  UNL     1      28.439   4.896  -4.077  1.00  0.00    -0.030 C 
HETATM    3  C3  UNL     1      29.555   5.780  -4.365  1.00  0.00     0.038 A 
HETATM    4  C4  UNL     1      29.376   7.109  -3.952  1.00  0.00     0.086 A 
HETATM    5  C5  UNL     1      30.427   7.994  -4.203  1.00  0.00     0.075 A 
HETATM    6  C6  UNL     1      31.577   7.582  -4.821  1.00  0.00     0.080 A 
HETATM    7  C8  UNL     1      31.707   6.245  -5.212  1.00  0.00     0.013 A 
HETATM    8  C14 UNL     1      30.700   5.342  -4.988  1.00  0.00     0.091 A 
HETATM    9  O3  UNL     1      28.218   7.527  -3.328  1.00  0.00    -0.338 OA
HETATM   10  C16 UNL     1      27.190   6.631  -3.034  1.00  0.00     0.188 C 
HETATM   11  C23 UNL     1      27.083   5.561  -4.092  1.00  0.00     0.149 C 
HETATM   12 CL1  UNL     1      26.868   6.337  -5.661  1.00  0.00    -0.117 Cl
ENDROOT
BRANCH  10  13
HETATM   13  C17 UNL     1      25.887   7.285  -2.765  1.00  0.00     0.015 A 
HETATM   14  C18 UNL     1      25.539   8.529  -3.238  1.00  0.00     0.016 A 
HETATM   15  C19 UNL     1      24.316   9.116  -2.975  1.00  0.00     0.040 A 
HETATM   16  C20 UNL     1      23.398   8.442  -2.209  1.00  0.00     0.102 A 
HETATM   17  C21 UNL     1      23.737   7.183  -1.722  1.00  0.00     0.138 A 
HETATM   18  C22 UNL     1      24.958   6.623  -2.000  1.00  0.00     0.161 A 
HETATM   19  F1  UNL     1      25.241   5.407  -1.511  1.00  0.00    -0.202 F 
BRANCH  16  20
HETATM   20  O4  UNL     1      22.159   8.985  -1.915  1.00  0.00    -0.358 OA
ATOM     21  H4  UNL     1      22.017   9.503  -1.131  1.00  0.00     0.217 HD
ENDBRANCH  16  20
BRANCH  17  22
HETATM   22  O5  UNL     1      22.793   6.510  -0.946  1.00  0.00    -0.355 OA
ATOM     23  H5  UNL     1      22.870   6.573  -0.001  1.00  0.00     0.218 HD
ENDBRANCH  17  22
ENDBRANCH  10  13
BRANCH   8  24
HETATM   24  O2  UNL     1      30.763   4.008  -5.360  1.00  0.00    -0.354 OA
HETATM   25  C15 UNL     1      31.693   3.117  -4.714  1.00  0.00     0.210 C 
ENDBRANCH   8  24
BRANCH   6  26
HETATM   26  O1  UNL     1      32.646   8.416  -5.090  1.00  0.00    -0.355 OA
HETATM   27  C7  UNL     1      32.375   9.601  -5.821  1.00  0.00     0.210 C 
ENDBRANCH   6  26
BRANCH   7  28
HETATM   28  C9  UNL     1      32.979   5.856  -5.827  1.00  0.00     0.072 C 
BRANCH  28  29
HETATM   29  C10 UNL     1      32.938   5.573  -7.258  1.00  0.00    -0.020 C 
HETATM   30  C11 UNL     1      33.645   6.191  -8.173  1.00  0.00    -0.091 C 
HETATM   31  C12 UNL     1      33.509   5.791  -9.639  1.00  0.00     0.042 C 
HETATM   32  C13 UNL     1      34.574   7.306  -7.912  1.00  0.00     0.042 C 
ENDBRANCH  28  29
ENDBRANCH   7  28
TORSDOF 7
ENDMDL
MODEL 3
REMARK VINA RESULT: -7.915632253      1.773      3.310
REMARK  7 active torsions:
REMARK  status: ('A' for Active; 'I' for Inactive)
REMARK    1  A    between atoms: C6_6  and  O1_7 
REMARK    2  A    between atoms: C8_9  and  C9_10 
REMARK    3  A    between atoms: C9_10  and  C10_11 
REMARK    4  A    between atoms: C14_15  and  O2_16 
REMARK    5  A    between atoms: C16_19  and  C17_20 
REMARK    6  A    between atoms: C20_23  and  O4_24 
REMARK    7  A    between atoms: C21_26  and  O5_27 
ROOT
HETATM    1  C1  UNL     1      29.131   9.658  -5.366  1.00  0.00     0.021 C 
HETATM    2  C2  UNL     1      28.623   8.663  -4.732  1.00  0.00    -0.030 C 
HETATM    3  C3  UNL     1      29.122   7.310  -4.910  1.00  0.00     0.038 A 
HETATM    4  C4  UNL     1      28.146   6.305  -4.824  1.00  0.00     0.086 A 
HETATM    5  C5  UNL     1      28.580   4.990  -4.996  1.00  0.00     0.075 A 
HETATM    6  C6  UNL     1      29.895   4.695  -5.238  1.00  0.00     0.080 A 
HETATM    7  C8  UNL     1      30.830   5.734  -5.315  1.00  0.00     0.013 A 
HETATM    8  C14 UNL     1      30.449   7.041  -5.150  1.00  0.00     0.091 A 
HETATM    9  O3  UNL     1      26.819   6.599  -4.582  1.00  0.00    -0.338 OA
HETATM   10  C16 UNL     1      26.380   7.918  -4.460  1.00  0.00     0.188 C 
HETATM   11  C23 UNL     1      27.431   8.782  -3.811  1.00  0.00     0.149 C 
HETATM   12 CL1  UNL     1      27.864   8.074  -2.255  1.00  0.00    -0.117 Cl
ENDROOT
BRANCH  10  13
HETATM   13  C17 UNL     1      25.059   8.048  -3.798  1.00  0.00     0.015 A 
HETATM   14  C18 UNL     1      24.527   7.103  -2.951  1.00  0.00     0.016 A 
HETATM   15  C19 UNL     1      23.295   7.249  -2.345  1.00  0.00     0.040 A 
HETATM   16  C20 UNL     1      22.557   8.381  -2.587  1.00  0.00     0.102 A 
HETATM   17  C21 UNL     1      23.082   9.346  -3.442  1.00  0.00     0.138 A 
HETATM   18  C22 UNL     1      24.309   9.174  -4.031  1.00  0.00     0.161 A 
HETATM   19  F1  UNL     1      24.776  10.130  -4.847  1.00  0.00    -0.202 F 
BRANCH  16  20
HETATM   20  O4  UNL     1      21.316   8.576  -2.005  1.00  0.00    -0.358 OA
ATOM     21  H4  UNL     1      20.584   7.999  -2.188  1.00  0.00     0.217 HD
ENDBRANCH  16  20
BRANCH  17  22
HETATM   22  O5  UNL     1      22.321  10.490  -3.678  1.00  0.00    -0.355 OA
ATOM     23  H5  UNL     1      22.568  11.045  -4.408  1.00  0.00     0.218 HD
ENDBRANCH  17  22
ENDBRANCH  10  13
BRANCH   8  24
HETATM   24  O2  UNL     1      31.326   8.113  -5.205  1.00  0.00    -0.354 OA
HETATM   25  C15 UNL     1      32.074   8.501  -4.037  1.00  0.00     0.210 C 
ENDBRANCH   8  24
BRANCH   6  26
HETATM   26  O1  UNL     1      30.375   3.412  -5.417  1.00  0.00    -0.355 OA
HETATM   27  C7  UNL     1      29.776   2.383  -4.647  1.00  0.00     0.210 C 
ENDBRANCH   6  26
BRANCH   7  28
HETATM   28  C9  UNL     1      32.212   5.359  -5.621  1.00  0.00     0.072 C 
BRANCH  28  29
HETATM   29  C10 UNL     1      32.563   5.302  -7.036  1.00  0.00    -0.020 C 
HETATM   30  C11 UNL     1      33.384   6.122  -7.647  1.00  0.00    -0.091 C 
HETATM   31  C12 UNL     1      33.667   5.946  -9.136  1.00  0.00     0.042 C 
HETATM   32  C13 UNL     1      34.062   7.267  -7.012  1.00  0.00     0.042 C 
ENDBRANCH  28  29
ENDBRANCH   7  28
TORSDOF 7
ENDMDL
MODEL 4
REMARK VINA RESULT: -7.883880819      3.216      4.906
REMARK  7 active torsions:
REMARK  status: ('A' for Active; 'I' for Inactive)
REMARK    1  A    between atoms: C6_6  and  O1_7 
REMARK    2  A    between atoms: C8_9  and  C9_10 
REMARK    3  A    between atoms: C9_10  and  C10_11 
REMARK    4  A    between atoms: C14_15  and  O2_16 
REMARK    5  A    between atoms: C16_19  and  C17_20 
REMARK    6  A    between atoms: C20_23  and  O4_24 
REMARK    7  A    between atoms: C21_26  and  O5_27 
ROOT
HETATM    1  C1  UNL     1      24.381   4.415  -1.737  1.00  0.00     0.021 C 
HETATM    2  C2  UNL     1      24.883   4.979  -2.776  1.00  0.00    -0.030 C 
HETATM    3  C3  UNL     1      26.262   4.754  -3.173  1.00  0.00     0.038 A 
HETATM    4  C4  UNL     1      26.895   5.862  -3.759  1.00  0.00     0.086 A 
HETATM    5  C5  UNL     1      28.224   5.693  -4.150  1.00  0.00     0.075 A 
HETATM    6  C6  UNL     1      28.879   4.504  -3.970  1.00  0.00     0.080 A 
HETATM    7  C8  UNL     1      28.203   3.429  -3.381  1.00  0.00     0.013 A 
HETATM    8  C14 UNL     1      26.896   3.549  -2.983  1.00  0.00     0.091 A 
HETATM    9  O3  UNL     1      26.239   7.062  -3.940  1.00  0.00    -0.338 OA
HETATM   10  C16 UNL     1      24.926   7.244  -3.503  1.00  0.00     0.188 C 
HETATM   11  C23 UNL     1      24.130   5.970  -3.633  1.00  0.00     0.149 C 
HETATM   12 CL1  UNL     1      24.209   5.421  -5.308  1.00  0.00    -0.117 Cl
ENDROOT
BRANCH  10  13
HETATM   13  C17 UNL     1      24.242   8.399  -4.133  1.00  0.00     0.015 A 
HETATM   14  C18 UNL     1      23.126   8.291  -4.930  1.00  0.00     0.016 A 
HETATM   15  C19 UNL     1      22.506   9.384  -5.503  1.00  0.00     0.040 A 
HETATM   16  C20 UNL     1      23.013  10.640  -5.277  1.00  0.00     0.102 A 
HETATM   17  C21 UNL     1      24.142  10.764  -4.473  1.00  0.00     0.138 A 
HETATM   18  C22 UNL     1      24.738   9.661  -3.916  1.00  0.00     0.161 A 
HETATM   19  F1  UNL     1      25.823   9.829  -3.147  1.00  0.00    -0.202 F 
BRANCH  16  20
HETATM   20  O4  UNL     1      22.429  11.767  -5.828  1.00  0.00    -0.358 OA
ATOM     21  H4  UNL     1      22.357  12.579  -5.339  1.00  0.00     0.217 HD
ENDBRANCH  16  20
BRANCH  17  22
HETATM   22  O5  UNL     1      24.645  12.046  -4.252  1.00  0.00    -0.355 OA
ATOM     23  H5  UNL     1      24.063  12.691  -3.868  1.00  0.00     0.218 HD
ENDBRANCH  17  22
ENDBRANCH  10  13
BRANCH   8  24
HETATM   24  O2  UNL     1      26.169   2.521  -2.403  1.00  0.00    -0.354 OA
HETATM   25  C15 UNL     1      26.366   2.185  -1.016  1.00  0.00     0.210 C 
ENDBRANCH   8  24
BRANCH   6  26
HETATM   26  O1  UNL     1      30.193   4.286  -4.338  1.00  0.00    -0.355 OA
HETATM   27  C7  UNL     1      30.530   4.505  -5.698  1.00  0.00     0.210 C 
ENDBRANCH   6  26
BRANCH   7  28
HETATM   28  C9  UNL     1      28.970   2.199  -3.174  1.00  0.00     0.072 C 
BRANCH  28  29
HETATM   29  C10 UNL     1      28.792   1.157  -4.179  1.00  0.00    -0.020 C 
HETATM   30  C11 UNL     1      29.760   0.558  -4.830  1.00  0.00    -0.091 C 
HETATM   31  C12 UNL     1      29.432  -0.523  -5.856  1.00  0.00     0.042 C 
HETATM   32  C13 UNL     1      31.194   0.868  -4.684  1.00  0.00     0.042 C 
ENDBRANCH  28  29
ENDBRANCH   7  28
TORSDOF 7
ENDMDL
MODEL 5
REMARK VINA RESULT: -7.843788986      2.109      2.704
REMARK  7 active torsions:
REMARK  status: ('A' for Active; 'I' for Inactive)
REMARK    1  A    between atoms: C6_6  and  O1_7 
REMARK    2  A    between atoms: C8_9  and  C9_10 
REMARK    3  A    between atoms: C9_10  and  C10_11 
REMARK    4  A    between atoms: C14_15  and  O2_16 
REMARK    5  A    between atoms: C16_19  and  C17_20 
REMARK    6  A    between atoms: C20_23  and  O4_24 
REMARK    7  A    between atoms: C21_26  and  O5_27 
ROOT
HETATM    1  C1  UNL     1      29.937   2.720  -4.355  1.00  0.00     0.021 C 
HETATM    2  C2  UNL     1      29.479   3.918  -4.406  1.00  0.00    -0.030 C 
HETATM    3  C3  UNL     1      30.351   5.059  -4.626  1.00  0.00     0.038 A 
HETATM    4  C4  UNL     1      29.966   6.233  -3.960  1.00  0.00     0.086 A 
HETATM    5  C5  UNL     1      30.779   7.353  -4.139  1.00  0.00     0.075 A 
HETATM    6  C6  UNL     1      31.899   7.308  -4.926  1.00  0.00     0.080 A 
HETATM    7  C8  UNL     1      32.240   6.112  -5.568  1.00  0.00     0.013 A 
HETATM    8  C14 UNL     1      31.469   4.988  -5.423  1.00  0.00     0.091 A 
HETATM    9  O3  UNL     1      28.839   6.282  -3.165  1.00  0.00    -0.338 OA
HETATM   10  C16 UNL     1      28.056   5.148  -2.948  1.00  0.00     0.188 C 
HETATM   11  C23 UNL     1      28.027   4.266  -4.171  1.00  0.00     0.149 C 
HETATM   12 CL1  UNL     1      27.461   5.219  -5.543  1.00  0.00    -0.117 Cl
ENDROOT
BRANCH  10  13
HETATM   13  C17 UNL     1      26.694   5.451  -2.443  1.00  0.00     0.015 A 
HETATM   14  C18 UNL     1      26.121   6.701  -2.480  1.00  0.00     0.016 A 
HETATM   15  C19 UNL     1      24.849   6.956  -2.004  1.00  0.00     0.040 A 
HETATM   16  C20 UNL     1      24.113   5.928  -1.470  1.00  0.00     0.102 A 
HETATM   17  C21 UNL     1      24.680   4.658  -1.426  1.00  0.00     0.138 A 
HETATM   18  C22 UNL     1      25.946   4.433  -1.905  1.00  0.00     0.161 A 
HETATM   19  F1  UNL     1      26.452   3.193  -1.843  1.00  0.00    -0.202 F 
BRANCH  16  20
HETATM   20  O4  UNL     1      22.835   6.131  -0.980  1.00  0.00    -0.358 OA
ATOM     21  H4  UNL     1      22.650   6.107  -0.048  1.00  0.00     0.217 HD
ENDBRANCH  16  20
BRANCH  17  22
HETATM   22  O5  UNL     1      23.920   3.624  -0.880  1.00  0.00    -0.355 OA
ATOM     23  H5  UNL     1      24.233   2.735  -0.994  1.00  0.00     0.218 HD
ENDBRANCH  17  22
ENDBRANCH  10  13
BRANCH   8  24
HETATM   24  O2  UNL     1      31.747   3.777  -6.040  1.00  0.00    -0.354 OA
HETATM   25  C15 UNL     1      32.841   2.961  -5.579  1.00  0.00     0.210 C 
ENDBRANCH   8  24
BRANCH   6  26
HETATM   26  O1  UNL     1      32.737   8.387  -5.134  1.00  0.00    -0.355 OA
HETATM   27  C7  UNL     1      32.175   9.535  -5.746  1.00  0.00     0.210 C 
ENDBRANCH   6  26
BRANCH   7  28
HETATM   28  C9  UNL     1      33.473   6.114  -6.359  1.00  0.00     0.072 C 
BRANCH  28  29
HETATM   29  C10 UNL     1      33.312   5.916  -7.796  1.00  0.00    -0.020 C 
HETATM   30  C11 UNL     1      34.047   5.125  -8.539  1.00  0.00    -0.091 C 
HETATM   31  C12 UNL     1      33.767   5.008 -10.034  1.00  0.00     0.042 C 
HETATM   32  C13 UNL     1      35.189   4.329  -8.052  1.00  0.00     0.042 C 
ENDBRANCH  28  29
ENDBRANCH   7  28
TORSDOF 7
ENDMDL
