MODEL 1
REMARK VINA RESULT: -8.073806896      0.000      0.000
REMARK  6 active torsions:
REMARK  status: ('A' for Active; 'I' for Inactive)
REMARK    1  A    between atoms: C2_2  and  C3_3 
REMARK    2  A    between atoms: C2_2  and  N2_19 
REMARK    3  A    between atoms: C3_3  and  N1_4 
REMARK    4  A    between atoms: N1_4  and  C4_6 
REMARK    5  A    between atoms: C10_12  and  C11_13 
REMARK       I    between atoms: N2_19  and  C15_21 
REMARK       I    between atoms: C15_21  and  N3_23 
REMARK    6  A    between atoms: N3_23  and  C16_25 
ROOT
HETATM    1  C1  UNL     1      -9.343  17.863  22.597  1.00  0.00     0.034 C 
HETATM    2  C2  UNL     1      -9.902  18.714  21.488  1.00  0.00     0.099 C 
ENDROOT
BRANCH   2   3
HETATM    3  C3  UNL     1     -11.416  18.902  21.609  1.00  0.00     0.139 C 
BRANCH   3   4
HETATM    4  N1  UNL     1     -12.020  17.630  21.656  1.00  0.00    -0.415 N 
ATOM      5  H1  UNL     1     -11.994  17.081  22.516  1.00  0.00     0.153 HD
BRANCH   4   6
HETATM    6  C4  UNL     1     -12.658  17.120  20.515  1.00  0.00     0.085 C 
HETATM    7  C5  UNL     1     -13.039  18.252  19.544  1.00  0.00     0.064 C 
HETATM    8  C6  UNL     1     -13.853  17.442  18.570  1.00  0.00    -0.049 A 
HETATM    9  C7  UNL     1     -14.075  17.574  17.227  1.00  0.00     0.008 A 
HETATM   10  C13 UNL     1     -14.450  16.390  19.254  1.00  0.00    -0.038 A 
HETATM   11  C8  UNL     1     -14.885  16.673  16.552  1.00  0.00     0.001 A 
HETATM   12  C9  UNL     1     -15.479  15.630  17.228  1.00  0.00     0.014 A 
HETATM   13  C10 UNL     1     -15.253  15.500  18.577  1.00  0.00     0.019 A 
HETATM   14  C14 UNL     1     -14.017  16.507  20.699  1.00  0.00     0.065 C 
BRANCH  13  15
HETATM   15  C11 UNL     1     -15.868  14.394  19.360  1.00  0.00     0.268 C 
HETATM   16  C12 UNL     1     -16.834  13.651  18.469  1.00  0.00     0.096 C 
HETATM   17  F1  UNL     1     -14.885  13.520  19.770  1.00  0.00    -0.201 F 
HETATM   18  F2  UNL     1     -16.574  14.915  20.451  1.00  0.00    -0.201 F 
ENDBRANCH  13  15
ENDBRANCH   4   6
ENDBRANCH   3   4
ENDBRANCH   2   3
BRANCH   2  19
HETATM   19  N2  UNL     1      -9.557  18.223  20.170  1.00  0.00    -0.337 N 
HETATM   20  C15 UNL     1      -8.629  18.905  19.341  1.00  0.00     0.316 C 
HETATM   21  O1  UNL     1      -8.079  19.947  19.737  1.00  0.00    -0.247 OA
HETATM   22  N3  UNL     1      -8.336  18.368  18.030  1.00  0.00    -0.336 N 
ATOM     23  H3  UNL     1      -8.811  17.513  17.743  1.00  0.00     0.164 HD
ATOM     24  H2  UNL     1      -9.992  17.366  19.830  1.00  0.00     0.164 HD
BRANCH  22  25
HETATM   25  C16 UNL     1      -7.426  18.965  17.121  1.00  0.00     0.120 C 
HETATM   26  C17 UNL     1      -8.029  20.081  16.243  1.00  0.00     0.298 C 
HETATM   27  N4  UNL     1      -7.855  20.124  14.789  1.00  0.00     0.096 N 
HETATM   28  C18 UNL     1      -8.974  19.291  14.359  1.00  0.00     0.274 C 
HETATM   29  C24 UNL     1      -6.751  19.385  14.118  1.00  0.00     0.241 C 
HETATM   30  C19 UNL     1      -8.154  18.119  14.864  1.00  0.00     0.043 C 
HETATM   31  C20 UNL     1      -6.793  18.515  15.485  1.00  0.00     0.004 A 
HETATM   32  C21 UNL     1      -5.588  19.454  15.594  1.00  0.00     0.009 A 
HETATM   33  C23 UNL     1      -6.119  18.096  14.838  1.00  0.00     0.003 A 
HETATM   34  C25 UNL     1      -6.640  17.828  16.372  1.00  0.00     0.032 C 
HETATM   35  C22 UNL     1      -4.658  18.395  15.009  1.00  0.00     0.019 A 
ENDBRANCH  22  25
ENDBRANCH   2  19
TORSDOF 6
ENDMDL
MODEL 2
REMARK VINA RESULT: -8.047316284      5.045      6.224
REMARK  6 active torsions:
REMARK  status: ('A' for Active; 'I' for Inactive)
REMARK    1  A    between atoms: C2_2  and  C3_3 
REMARK    2  A    between atoms: C2_2  and  N2_19 
REMARK    3  A    between atoms: C3_3  and  N1_4 
REMARK    4  A    between atoms: N1_4  and  C4_6 
REMARK    5  A    between atoms: C10_12  and  C11_13 
REMARK       I    between atoms: N2_19  and  C15_21 
REMARK       I    between atoms: C15_21  and  N3_23 
REMARK    6  A    between atoms: N3_23  and  C16_25 
ROOT
HETATM    1  C1  UNL     1     -12.934  20.674  23.096  1.00  0.00     0.034 C 
HETATM    2  C2  UNL     1     -11.876  20.865  22.042  1.00  0.00     0.099 C 
ENDROOT
BRANCH   2   3
HETATM    3  C3  UNL     1     -10.939  19.659  21.936  1.00  0.00     0.139 C 
BRANCH   3   4
HETATM    4  N1  UNL     1     -10.602  19.476  20.580  1.00  0.00    -0.415 N 
ATOM      5  H1  UNL     1      -9.738  19.870  20.209  1.00  0.00     0.153 HD
BRANCH   4   6
HETATM    6  C4  UNL     1     -11.461  18.748  19.742  1.00  0.00     0.085 C 
HETATM    7  C5  UNL     1     -12.050  19.647  18.641  1.00  0.00     0.064 C 
HETATM    8  C6  UNL     1     -13.043  18.669  18.067  1.00  0.00    -0.049 A 
HETATM    9  C7  UNL     1     -13.545  18.506  16.805  1.00  0.00     0.008 A 
HETATM   10  C13 UNL     1     -13.469  17.821  19.081  1.00  0.00    -0.038 A 
HETATM   11  C8  UNL     1     -14.469  17.507  16.536  1.00  0.00     0.001 A 
HETATM   12  C9  UNL     1     -14.894  16.664  17.539  1.00  0.00     0.014 A 
HETATM   13  C10 UNL     1     -14.387  16.832  18.806  1.00  0.00     0.019 A 
HETATM   14  C14 UNL     1     -12.743  18.241  20.339  1.00  0.00     0.065 C 
BRANCH  13  15
HETATM   15  C11 UNL     1     -14.811  15.953  19.929  1.00  0.00     0.268 C 
HETATM   16  C12 UNL     1     -15.916  15.047  19.443  1.00  0.00     0.096 C 
HETATM   17  F1  UNL     1     -13.747  15.174  20.328  1.00  0.00    -0.201 F 
HETATM   18  F2  UNL     1     -15.300  16.729  20.986  1.00  0.00    -0.201 F 
ENDBRANCH  13  15
ENDBRANCH   4   6
ENDBRANCH   3   4
ENDBRANCH   2   3
BRANCH   2  19
HETATM   19  N2  UNL     1     -11.113  22.083  22.222  1.00  0.00    -0.337 N 
HETATM   20  C15 UNL     1     -10.742  22.899  21.122  1.00  0.00     0.316 C 
HETATM   21  O1  UNL     1     -11.076  22.585  19.965  1.00  0.00    -0.247 OA
HETATM   22  N3  UNL     1      -9.969  24.097  21.368  1.00  0.00    -0.336 N 
ATOM     23  H3  UNL     1      -9.715  24.315  22.330  1.00  0.00     0.164 HD
ATOM     24  H2  UNL     1     -10.836  22.362  23.163  1.00  0.00     0.164 HD
BRANCH  22  25
HETATM   25  C16 UNL     1      -9.547  24.984  20.345  1.00  0.00     0.120 C 
HETATM   26  C17 UNL     1      -8.318  25.844  20.704  1.00  0.00     0.298 C 
HETATM   27  N4  UNL     1      -8.282  27.295  20.505  1.00  0.00     0.096 N 
HETATM   28  C18 UNL     1      -8.870  27.754  21.760  1.00  0.00     0.274 C 
HETATM   29  C24 UNL     1      -9.212  27.970  19.559  1.00  0.00     0.241 C 
HETATM   30  C19 UNL     1     -10.191  27.265  21.194  1.00  0.00     0.043 C 
HETATM   31  C20 UNL     1     -10.082  26.622  19.790  1.00  0.00     0.004 A 
HETATM   32  C21 UNL     1      -9.401  26.482  18.426  1.00  0.00     0.009 A 
HETATM   33  C23 UNL     1     -10.613  27.271  19.203  1.00  0.00     0.003 A 
HETATM   34  C25 UNL     1     -10.802  25.748  19.788  1.00  0.00     0.032 C 
HETATM   35  C22 UNL     1     -10.611  27.079  17.714  1.00  0.00     0.019 A 
ENDBRANCH  22  25
ENDBRANCH   2  19
TORSDOF 6
ENDMDL
MODEL 3
REMARK VINA RESULT: -8.042400710      4.803      6.690
REMARK  6 active torsions:
REMARK  status: ('A' for Active; 'I' for Inactive)
REMARK    1  A    between atoms: C2_2  and  C3_3 
REMARK    2  A    between atoms: C2_2  and  N2_19 
REMARK    3  A    between atoms: C3_3  and  N1_4 
REMARK    4  A    between atoms: N1_4  and  C4_6 
REMARK    5  A    between atoms: C10_12  and  C11_13 
REMARK       I    between atoms: N2_19  and  C15_21 
REMARK       I    between atoms: C15_21  and  N3_23 
REMARK    6  A    between atoms: N3_23  and  C16_25 
ROOT
HETATM    1  C1  UNL     1     -14.906  18.181  23.835  1.00  0.00     0.034 C 
HETATM    2  C2  UNL     1     -13.694  18.716  23.119  1.00  0.00     0.099 C 
ENDROOT
BRANCH   2   3
HETATM    3  C3  UNL     1     -12.733  17.602  22.695  1.00  0.00     0.139 C 
BRANCH   3   4
HETATM    4  N1  UNL     1     -12.264  17.889  21.398  1.00  0.00    -0.415 N 
ATOM      5  H1  UNL     1     -11.504  18.556  21.263  1.00  0.00     0.153 HD
BRANCH   4   6
HETATM    6  C4  UNL     1     -12.847  17.254  20.290  1.00  0.00     0.085 C 
HETATM    7  C5  UNL     1     -13.218  18.275  19.201  1.00  0.00     0.064 C 
HETATM    8  C6  UNL     1     -13.976  17.352  18.283  1.00  0.00    -0.049 A 
HETATM    9  C7  UNL     1     -14.151  17.347  16.926  1.00  0.00     0.008 A 
HETATM   10  C13 UNL     1     -14.573  16.357  19.046  1.00  0.00    -0.038 A 
HETATM   11  C8  UNL     1     -14.914  16.363  16.316  1.00  0.00     0.001 A 
HETATM   12  C9  UNL     1     -15.508  15.375  17.070  1.00  0.00     0.014 A 
HETATM   13  C10 UNL     1     -15.330  15.383  18.433  1.00  0.00     0.019 A 
HETATM   14  C14 UNL     1     -14.197  16.625  20.487  1.00  0.00     0.065 C 
BRANCH  13  15
HETATM   15  C11 UNL     1     -15.947  14.343  19.299  1.00  0.00     0.268 C 
HETATM   16  C12 UNL     1     -16.815  13.454  18.441  1.00  0.00     0.096 C 
HETATM   17  F1  UNL     1     -14.957  13.574  19.870  1.00  0.00    -0.201 F 
HETATM   18  F2  UNL     1     -16.750  14.947  20.274  1.00  0.00    -0.201 F 
ENDBRANCH  13  15
ENDBRANCH   4   6
ENDBRANCH   3   4
ENDBRANCH   2   3
BRANCH   2  19
HETATM   19  N2  UNL     1     -12.991  19.728  23.879  1.00  0.00    -0.337 N 
HETATM   20  C15 UNL     1     -12.265  20.768  23.240  1.00  0.00     0.316 C 
HETATM   21  O1  UNL     1     -12.225  20.836  21.999  1.00  0.00    -0.247 OA
HETATM   22  N3  UNL     1     -11.574  21.741  24.056  1.00  0.00    -0.336 N 
ATOM     23  H3  UNL     1     -11.631  21.647  25.070  1.00  0.00     0.164 HD
ATOM     24  H2  UNL     1     -13.018  19.694  24.897  1.00  0.00     0.164 HD
BRANCH  22  25
HETATM   25  C16 UNL     1     -10.821  22.820  23.526  1.00  0.00     0.120 C 
HETATM   26  C17 UNL     1      -9.455  22.423  22.930  1.00  0.00     0.298 C 
HETATM   27  N4  UNL     1      -8.211  23.119  23.270  1.00  0.00     0.096 N 
HETATM   28  C18 UNL     1      -7.812  22.387  24.469  1.00  0.00     0.274 C 
HETATM   29  C24 UNL     1      -8.224  24.495  23.838  1.00  0.00     0.241 C 
HETATM   30  C19 UNL     1      -8.936  23.131  25.166  1.00  0.00     0.043 C 
HETATM   31  C20 UNL     1      -9.738  24.081  24.243  1.00  0.00     0.004 A 
HETATM   32  C21 UNL     1      -9.840  24.995  23.019  1.00  0.00     0.009 A 
HETATM   33  C23 UNL     1      -9.524  25.005  24.630  1.00  0.00     0.003 A 
HETATM   34  C25 UNL     1     -10.820  23.997  24.569  1.00  0.00     0.032 C 
HETATM   35  C22 UNL     1      -9.996  26.229  23.902  1.00  0.00     0.019 A 
ENDBRANCH  22  25
ENDBRANCH   2  19
TORSDOF 6
ENDMDL
MODEL 4
REMARK VINA RESULT: -8.014298743      1.140      1.345
REMARK  6 active torsions:
REMARK  status: ('A' for Active; 'I' for Inactive)
REMARK    1  A    between atoms: C2_2  and  C3_3 
REMARK    2  A    between atoms: C2_2  and  N2_19 
REMARK    3  A    between atoms: C3_3  and  N1_4 
REMARK    4  A    between atoms: N1_4  and  C4_6 
REMARK    5  A    between atoms: C10_12  and  C11_13 
REMARK       I    between atoms: N2_19  and  C15_21 
REMARK       I    between atoms: C15_21  and  N3_23 
REMARK    6  A    between atoms: N3_23  and  C16_25 
ROOT
HETATM    1  C1  UNL     1      -8.825  17.900  22.690  1.00  0.00     0.034 C 
HETATM    2  C2  UNL     1      -9.226  18.608  21.423  1.00  0.00     0.099 C 
ENDROOT
BRANCH   2   3
HETATM    3  C3  UNL     1     -10.662  19.133  21.483  1.00  0.00     0.139 C 
BRANCH   3   4
HETATM    4  N1  UNL     1     -11.535  18.032  21.593  1.00  0.00    -0.415 N 
ATOM      5  H1  UNL     1     -11.675  17.578  22.496  1.00  0.00     0.153 HD
BRANCH   4   6
HETATM    6  C4  UNL     1     -12.209  17.562  20.456  1.00  0.00     0.085 C 
HETATM    7  C5  UNL     1     -12.599  18.725  19.527  1.00  0.00     0.064 C 
HETATM    8  C6  UNL     1     -13.450  17.952  18.553  1.00  0.00    -0.049 A 
HETATM    9  C7  UNL     1     -13.704  18.124  17.220  1.00  0.00     0.008 A 
HETATM   10  C13 UNL     1     -14.043  16.891  19.224  1.00  0.00    -0.038 A 
HETATM   11  C8  UNL     1     -14.545  17.253  16.543  1.00  0.00     0.001 A 
HETATM   12  C9  UNL     1     -15.135  16.199  17.205  1.00  0.00     0.014 A 
HETATM   13  C10 UNL     1     -14.876  16.030  18.544  1.00  0.00     0.019 A 
HETATM   14  C14 UNL     1     -13.571  16.962  20.659  1.00  0.00     0.065 C 
BRANCH  13  15
HETATM   15  C11 UNL     1     -15.486  14.911  19.313  1.00  0.00     0.268 C 
HETATM   16  C12 UNL     1     -16.471  14.194  18.422  1.00  0.00     0.096 C 
HETATM   17  F1  UNL     1     -14.503  14.022  19.688  1.00  0.00    -0.201 F 
HETATM   18  F2  UNL     1     -16.171  15.413  20.426  1.00  0.00    -0.201 F 
ENDBRANCH  13  15
ENDBRANCH   4   6
ENDBRANCH   3   4
ENDBRANCH   2   3
BRANCH   2  19
HETATM   19  N2  UNL     1      -9.032  17.798  20.238  1.00  0.00    -0.337 N 
HETATM   20  C15 UNL     1      -7.911  17.979  19.387  1.00  0.00     0.316 C 
HETATM   21  O1  UNL     1      -7.056  18.843  19.649  1.00  0.00    -0.247 OA
HETATM   22  N3  UNL     1      -7.783  17.146  18.212  1.00  0.00    -0.336 N 
ATOM     23  H3  UNL     1      -8.508  16.451  18.033  1.00  0.00     0.164 HD
ATOM     24  H2  UNL     1      -9.719  17.079  20.010  1.00  0.00     0.164 HD
BRANCH  22  25
HETATM   25  C16 UNL     1      -6.704  17.239  17.295  1.00  0.00     0.120 C 
HETATM   26  C17 UNL     1      -6.555  18.615  16.614  1.00  0.00     0.298 C 
HETATM   27  N4  UNL     1      -6.404  18.768  15.164  1.00  0.00     0.096 N 
HETATM   28  C18 UNL     1      -7.803  18.804  14.750  1.00  0.00     0.274 C 
HETATM   29  C24 UNL     1      -5.943  17.639  14.310  1.00  0.00     0.241 C 
HETATM   30  C19 UNL     1      -7.813  17.314  15.035  1.00  0.00     0.043 C 
HETATM   31  C20 UNL     1      -6.469  16.759  15.566  1.00  0.00     0.004 A 
HETATM   32  C21 UNL     1      -4.942  16.806  15.666  1.00  0.00     0.009 A 
HETATM   33  C23 UNL     1      -6.171  16.131  14.813  1.00  0.00     0.003 A 
HETATM   34  C25 UNL     1      -6.735  15.985  16.349  1.00  0.00     0.032 C 
HETATM   35  C22 UNL     1      -4.808  15.507  14.877  1.00  0.00     0.019 A 
ENDBRANCH  22  25
ENDBRANCH   2  19
TORSDOF 6
ENDMDL
MODEL 5
REMARK VINA RESULT: -8.013802600      4.629      5.889
REMARK  6 active torsions:
REMARK  status: ('A' for Active; 'I' for Inactive)
REMARK    1  A    between atoms: C2_2  and  C3_3 
REMARK    2  A    between atoms: C2_2  and  N2_19 
REMARK    3  A    between atoms: C3_3  and  N1_4 
REMARK    4  A    between atoms: N1_4  and  C4_6 
REMARK    5  A    between atoms: C10_12  and  C11_13 
REMARK       I    between atoms: N2_19  and  C15_21 
REMARK       I    between atoms: C15_21  and  N3_23 
REMARK    6  A    between atoms: N3_23  and  C16_25 
ROOT
HETATM    1  C1  UNL     1     -13.381  19.999  22.890  1.00  0.00     0.034 C 
HETATM    2  C2  UNL     1     -12.453  20.328  21.750  1.00  0.00     0.099 C 
ENDROOT
BRANCH   2   3
HETATM    3  C3  UNL     1     -11.579  19.136  21.352  1.00  0.00     0.139 C 
BRANCH   3   4
HETATM    4  N1  UNL     1     -12.328  17.956  21.528  1.00  0.00    -0.415 N 
ATOM      5  H1  UNL     1     -12.476  17.577  22.464  1.00  0.00     0.153 HD
BRANCH   4   6
HETATM    6  C4  UNL     1     -12.871  17.303  20.411  1.00  0.00     0.085 C 
HETATM    7  C5  UNL     1     -13.206  18.308  19.295  1.00  0.00     0.064 C 
HETATM    8  C6  UNL     1     -13.930  17.369  18.365  1.00  0.00    -0.049 A 
HETATM    9  C7  UNL     1     -14.058  17.344  17.003  1.00  0.00     0.008 A 
HETATM   10  C13 UNL     1     -14.550  16.382  19.121  1.00  0.00    -0.038 A 
HETATM   11  C8  UNL     1     -14.796  16.349  16.380  1.00  0.00     0.001 A 
HETATM   12  C9  UNL     1     -15.413  15.369  17.127  1.00  0.00     0.014 A 
HETATM   13  C10 UNL     1     -15.282  15.398  18.495  1.00  0.00     0.019 A 
HETATM   14  C14 UNL     1     -14.225  16.672  20.569  1.00  0.00     0.065 C 
BRANCH  13  15
HETATM   15  C11 UNL     1     -15.926  14.367  19.354  1.00  0.00     0.268 C 
HETATM   16  C12 UNL     1     -16.783  13.481  18.483  1.00  0.00     0.096 C 
HETATM   17  F1  UNL     1     -14.955  13.593  19.950  1.00  0.00    -0.201 F 
HETATM   18  F2  UNL     1     -16.744  14.983  20.309  1.00  0.00    -0.201 F 
ENDBRANCH  13  15
ENDBRANCH   4   6
ENDBRANCH   3   4
ENDBRANCH   2   3
BRANCH   2  19
HETATM   19  N2  UNL     1     -11.633  21.493  22.008  1.00  0.00    -0.337 N 
HETATM   20  C15 UNL     1     -11.188  22.338  20.958  1.00  0.00     0.316 C 
HETATM   21  O1  UNL     1     -11.505  22.097  19.780  1.00  0.00    -0.247 OA
HETATM   22  N3  UNL     1     -10.361  23.480  21.281  1.00  0.00    -0.336 N 
ATOM     23  H3  UNL     1     -10.123  23.639  22.260  1.00  0.00     0.164 HD
ATOM     24  H2  UNL     1     -11.369  21.712  22.968  1.00  0.00     0.164 HD
BRANCH  22  25
HETATM   25  C16 UNL     1      -9.864  24.389  20.314  1.00  0.00     0.120 C 
HETATM   26  C17 UNL     1      -8.472  24.974  20.633  1.00  0.00     0.298 C 
HETATM   27  N4  UNL     1      -8.184  26.409  20.575  1.00  0.00     0.096 N 
HETATM   28  C18 UNL     1      -8.576  26.818  21.921  1.00  0.00     0.274 C 
HETATM   29  C24 UNL     1      -9.045  27.341  19.795  1.00  0.00     0.241 C 
HETATM   30  C19 UNL     1     -10.005  26.637  21.442  1.00  0.00     0.043 C 
HETATM   31  C20 UNL     1     -10.128  26.149  19.978  1.00  0.00     0.004 A 
HETATM   32  C21 UNL     1      -9.595  26.048  18.546  1.00  0.00     0.009 A 
HETATM   33  C23 UNL     1     -10.575  26.944  19.512  1.00  0.00     0.003 A 
HETATM   34  C25 UNL     1     -10.996  25.421  19.961  1.00  0.00     0.032 C 
HETATM   35  C22 UNL     1     -10.726  26.926  18.019  1.00  0.00     0.019 A 
ENDBRANCH  22  25
ENDBRANCH   2  19
TORSDOF 6
ENDMDL
