MODEL 1
REMARK VINA RESULT: -7.856001820      0.000      0.000
REMARK  6 active torsions:
REMARK  status: ('A' for Active; 'I' for Inactive)
REMARK    1  A    between atoms: C2_2  and  C4_4 
REMARK    2  A    between atoms: C4_4  and  C5_8 
REMARK    3  A    between atoms: C6_9  and  C7_10 
REMARK    4  A    between atoms: C7_10  and  C8_11 
REMARK    5  A    between atoms: C8_11  and  O1_12 
REMARK    6  A    between atoms: C9_14  and  O2_15 
ROOT
HETATM    1  C7  UNL     1      15.790   9.643  10.747  1.00  0.00     0.032 C 
HETATM    2  C9  UNL     1      16.490  10.562   9.767  1.00  0.00     0.133 C 
HETATM    3  C10 UNL     1      17.250   9.927   8.646  1.00  0.00     0.034 C 
HETATM    4  C11 UNL     1      16.757   8.571   8.277  1.00  0.00     0.012 C 
HETATM    5  C12 UNL     1      16.698   7.660   9.508  1.00  0.00    -0.034 C 
HETATM    6  C13 UNL     1      15.814   6.573   9.134  1.00  0.00     0.016 C 
HETATM    7  C14 UNL     1      18.127   7.033   9.519  1.00  0.00     0.046 C 
HETATM    8  C15 UNL     1      18.108   6.111  10.706  1.00  0.00     0.055 C 
HETATM    9  C16 UNL     1      18.131   4.682  10.117  1.00  0.00     0.045 C 
HETATM   10  C17 UNL     1      19.480   6.229  11.343  1.00  0.00     0.045 C 
HETATM   11  O3  UNL     1      17.038   6.165  11.489  1.00  0.00    -0.370 OA
HETATM   12  C18 UNL     1      16.572   7.443  11.924  1.00  0.00     0.060 C 
HETATM   13  C19 UNL     1      17.543   7.712  13.082  1.00  0.00     0.046 C 
HETATM   14  C20 UNL     1      15.275   7.105  12.566  1.00  0.00     0.046 C 
HETATM   15  C21 UNL     1      16.620   8.387  10.804  1.00  0.00     0.044 C 
ENDROOT
BRANCH   1  16
HETATM   16  C6  UNL     1      15.788  10.419  11.988  1.00  0.00    -0.010 C 
HETATM   17  C5  UNL     1      15.065  10.815  12.949  1.00  0.00     0.026 C 
BRANCH  17  18
HETATM   18  C4  UNL     1      13.769  10.803  13.528  1.00  0.00     0.030 C 
HETATM   19  N1  UNL     1      12.697  11.221  13.056  1.00  0.00    -0.399 N 
ATOM     20  H12 UNL     1      11.766  11.213  13.471  1.00  0.00     0.156 HD
ATOM     21  H11 UNL     1      12.808  11.614  12.122  1.00  0.00     0.156 HD
BRANCH  18  22
HETATM   22  C2  UNL     1      13.603  10.215  14.928  1.00  0.00    -0.045 C 
HETATM   23  C1  UNL     1      13.912   8.968  15.161  1.00  0.00     0.021 C 
HETATM   24  C3  UNL     1      13.088  11.065  16.019  1.00  0.00     0.049 C 
ENDBRANCH  18  22
ENDBRANCH  17  18
ENDBRANCH   1  16
BRANCH   1  25
HETATM   25  C8  UNL     1      14.354   9.348  10.375  1.00  0.00     0.180 C 
BRANCH  25  26
HETATM   26  O1  UNL     1      13.627  10.498  10.117  1.00  0.00    -0.400 OA
ATOM     27  H1  UNL     1      12.779  10.313   9.730  1.00  0.00     0.209 HD
ENDBRANCH  25  26
ENDBRANCH   1  25
BRANCH   2  28
HETATM   28  O2  UNL     1      17.462  11.342  10.416  1.00  0.00    -0.394 OA
ATOM     29  H2  UNL     1      17.241  12.265  10.374  1.00  0.00     0.210 HD
ENDBRANCH   2  28
TORSDOF 6
ENDMDL
MODEL 2
REMARK VINA RESULT: -7.583971242      1.486      1.848
REMARK  6 active torsions:
REMARK  status: ('A' for Active; 'I' for Inactive)
REMARK    1  A    between atoms: C2_2  and  C4_4 
REMARK    2  A    between atoms: C4_4  and  C5_8 
REMARK    3  A    between atoms: C6_9  and  C7_10 
REMARK    4  A    between atoms: C7_10  and  C8_11 
REMARK    5  A    between atoms: C8_11  and  O1_12 
REMARK    6  A    between atoms: C9_14  and  O2_15 
ROOT
HETATM    1  C7  UNL     1      16.877   8.282  10.223  1.00  0.00     0.032 C 
HETATM    2  C9  UNL     1      17.797   9.118   9.357  1.00  0.00     0.133 C 
HETATM    3  C10 UNL     1      18.424   8.453   8.172  1.00  0.00     0.034 C 
HETATM    4  C11 UNL     1      17.644   7.298   7.648  1.00  0.00     0.012 C 
HETATM    5  C12 UNL     1      17.341   6.294   8.766  1.00  0.00    -0.034 C 
HETATM    6  C13 UNL     1      16.242   5.490   8.267  1.00  0.00     0.016 C 
HETATM    7  C14 UNL     1      18.588   5.356   8.708  1.00  0.00     0.046 C 
HETATM    8  C15 UNL     1      18.322   4.337   9.781  1.00  0.00     0.055 C 
HETATM    9  C16 UNL     1      18.034   3.017   9.031  1.00  0.00     0.045 C 
HETATM   10  C17 UNL     1      19.666   4.063  10.432  1.00  0.00     0.045 C 
HETATM   11  O3  UNL     1      17.271   4.550  10.562  1.00  0.00    -0.370 OA
HETATM   12  C18 UNL     1      17.098   5.845  11.141  1.00  0.00     0.060 C 
HETATM   13  C19 UNL     1      18.071   5.750  12.325  1.00  0.00     0.046 C 
HETATM   14  C20 UNL     1      15.741   5.746  11.736  1.00  0.00     0.046 C 
HETATM   15  C21 UNL     1      17.394   6.870  10.137  1.00  0.00     0.044 C 
ENDROOT
BRANCH   1  16
HETATM   16  C6  UNL     1      17.016   8.895  11.544  1.00  0.00    -0.010 C 
HETATM   17  C5  UNL     1      16.403   9.533  12.450  1.00  0.00     0.026 C 
BRANCH  17  18
HETATM   18  C4  UNL     1      15.170  10.108  12.852  1.00  0.00     0.030 C 
HETATM   19  N1  UNL     1      14.589  11.112  12.400  1.00  0.00    -0.399 N 
ATOM     20  H12 UNL     1      13.703  11.526  12.688  1.00  0.00     0.156 HD
ATOM     21  H11 UNL     1      15.101  11.547  11.634  1.00  0.00     0.156 HD
BRANCH  18  22
HETATM   22  C2  UNL     1      14.402   9.456  14.000  1.00  0.00    -0.045 C 
HETATM   23  C1  UNL     1      14.487   8.169  14.204  1.00  0.00     0.021 C 
HETATM   24  C3  UNL     1      13.559  10.289  14.880  1.00  0.00     0.049 C 
ENDBRANCH  18  22
ENDBRANCH  17  18
ENDBRANCH   1  16
BRANCH   1  25
HETATM   25  C8  UNL     1      15.423   8.371   9.815  1.00  0.00     0.180 C 
BRANCH  25  26
HETATM   26  O1  UNL     1      15.046   9.659   9.474  1.00  0.00    -0.400 OA
ATOM     27  H1  UNL     1      14.818  10.184  10.231  1.00  0.00     0.209 HD
ENDBRANCH  25  26
ENDBRANCH   1  25
BRANCH   2  28
HETATM   28  O2  UNL     1      18.904   9.575  10.094  1.00  0.00    -0.394 OA
ATOM     29  H2  UNL     1      19.600   9.864   9.517  1.00  0.00     0.210 HD
ENDBRANCH   2  28
TORSDOF 6
ENDMDL
MODEL 3
REMARK VINA RESULT: -7.473360786      1.708      2.400
REMARK  6 active torsions:
REMARK  status: ('A' for Active; 'I' for Inactive)
REMARK    1  A    between atoms: C2_2  and  C4_4 
REMARK    2  A    between atoms: C4_4  and  C5_8 
REMARK    3  A    between atoms: C6_9  and  C7_10 
REMARK    4  A    between atoms: C7_10  and  C8_11 
REMARK    5  A    between atoms: C8_11  and  O1_12 
REMARK    6  A    between atoms: C9_14  and  O2_15 
ROOT
HETATM    1  C7  UNL     1      16.822   8.343   9.899  1.00  0.00     0.032 C 
HETATM    2  C9  UNL     1      17.636   9.437   9.239  1.00  0.00     0.133 C 
HETATM    3  C10 UNL     1      18.172   9.168   7.868  1.00  0.00     0.034 C 
HETATM    4  C11 UNL     1      17.382   8.167   7.098  1.00  0.00     0.012 C 
HETATM    5  C12 UNL     1      17.211   6.874   7.904  1.00  0.00    -0.034 C 
HETATM    6  C13 UNL     1      16.095   6.185   7.283  1.00  0.00     0.016 C 
HETATM    7  C14 UNL     1      18.473   6.059   7.482  1.00  0.00     0.046 C 
HETATM    8  C15 UNL     1      18.336   4.765   8.237  1.00  0.00     0.055 C 
HETATM    9  C16 UNL     1      18.019   3.697   7.166  1.00  0.00     0.045 C 
HETATM   10  C17 UNL     1      19.740   4.391   8.675  1.00  0.00     0.045 C 
HETATM   11  O3  UNL     1      17.354   4.692   9.126  1.00  0.00    -0.370 OA
HETATM   12  C18 UNL     1      17.196   5.760  10.063  1.00  0.00     0.060 C 
HETATM   13  C19 UNL     1      18.274   5.388  11.090  1.00  0.00     0.046 C 
HETATM   14  C20 UNL     1      15.901   5.425  10.709  1.00  0.00     0.046 C 
HETATM   15  C21 UNL     1      17.370   7.042   9.373  1.00  0.00     0.044 C 
ENDROOT
BRANCH   1  16
HETATM   16  C6  UNL     1      17.063   8.564  11.325  1.00  0.00    -0.010 C 
HETATM   17  C5  UNL     1      16.536   8.964  12.405  1.00  0.00     0.026 C 
BRANCH  17  18
HETATM   18  C4  UNL     1      15.365   9.475  13.022  1.00  0.00     0.030 C 
HETATM   19  N1  UNL     1      14.834  10.593  12.892  1.00  0.00    -0.399 N 
ATOM     20  H12 UNL     1      13.992  10.959  13.336  1.00  0.00     0.156 HD
ATOM     21  H11 UNL     1      15.339  11.191  12.240  1.00  0.00     0.156 HD
BRANCH  18  22
HETATM   22  C2  UNL     1      14.607   8.578  14.000  1.00  0.00    -0.045 C 
HETATM   23  C1  UNL     1      13.866   9.103  14.939  1.00  0.00     0.021 C 
HETATM   24  C3  UNL     1      14.718   7.111  13.880  1.00  0.00     0.049 C 
ENDBRANCH  18  22
ENDBRANCH  17  18
ENDBRANCH   1  16
BRANCH   1  25
HETATM   25  C8  UNL     1      15.335   8.465   9.649  1.00  0.00     0.180 C 
BRANCH  25  26
HETATM   26  O1  UNL     1      14.899   9.778   9.681  1.00  0.00    -0.400 OA
ATOM     27  H1  UNL     1      14.073   9.876  10.139  1.00  0.00     0.209 HD
ENDBRANCH  25  26
ENDBRANCH   1  25
BRANCH   2  28
HETATM   28  O2  UNL     1      18.790   9.725   9.987  1.00  0.00    -0.394 OA
ATOM     29  H2  UNL     1      19.574   9.501   9.500  1.00  0.00     0.210 HD
ENDBRANCH   2  28
TORSDOF 6
ENDMDL
MODEL 4
REMARK VINA RESULT: -7.418781302      2.334      5.488
REMARK  6 active torsions:
REMARK  status: ('A' for Active; 'I' for Inactive)
REMARK    1  A    between atoms: C2_2  and  C4_4 
REMARK    2  A    between atoms: C4_4  and  C5_8 
REMARK    3  A    between atoms: C6_9  and  C7_10 
REMARK    4  A    between atoms: C7_10  and  C8_11 
REMARK    5  A    between atoms: C8_11  and  O1_12 
REMARK    6  A    between atoms: C9_14  and  O2_15 
ROOT
HETATM    1  C7  UNL     1      16.033   9.193  10.566  1.00  0.00     0.032 C 
HETATM    2  C9  UNL     1      14.839  10.060  10.907  1.00  0.00     0.133 C 
HETATM    3  C10 UNL     1      14.336  10.021  12.316  1.00  0.00     0.034 C 
HETATM    4  C11 UNL     1      15.374   9.639  13.314  1.00  0.00     0.012 C 
HETATM    5  C12 UNL     1      16.051   8.322  12.918  1.00  0.00    -0.034 C 
HETATM    6  C13 UNL     1      17.291   8.292  13.669  1.00  0.00     0.016 C 
HETATM    7  C14 UNL     1      15.134   7.264  13.608  1.00  0.00     0.046 C 
HETATM    8  C15 UNL     1      15.776   5.950  13.261  1.00  0.00     0.055 C 
HETATM    9  C16 UNL     1      16.374   5.423  14.586  1.00  0.00     0.045 C 
HETATM   10  C17 UNL     1      14.632   4.985  13.008  1.00  0.00     0.045 C 
HETATM   11  O3  UNL     1      16.780   5.984  12.395  1.00  0.00    -0.370 OA
HETATM   12  C18 UNL     1      16.614   6.719  11.182  1.00  0.00     0.060 C 
HETATM   13  C19 UNL     1      15.815   5.705  10.351  1.00  0.00     0.046 C 
HETATM   14  C20 UNL     1      17.986   6.703  10.612  1.00  0.00     0.046 C 
HETATM   15  C21 UNL     1      15.947   7.992  11.471  1.00  0.00     0.044 C 
ENDROOT
BRANCH   1  16
HETATM   16  C6  UNL     1      15.832   8.892   9.148  1.00  0.00    -0.010 C 
HETATM   17  C5  UNL     1      16.385   8.426   8.109  1.00  0.00     0.026 C 
BRANCH  17  18
HETATM   18  C4  UNL     1      17.566   7.863   7.559  1.00  0.00     0.030 C 
HETATM   19  N1  UNL     1      18.724   8.318   7.557  1.00  0.00    -0.399 N 
ATOM     20  H12 UNL     1      19.573   7.913   7.162  1.00  0.00     0.156 HD
ATOM     21  H11 UNL     1      18.791   9.218   8.031  1.00  0.00     0.156 HD
BRANCH  18  22
HETATM   22  C2  UNL     1      17.467   6.514   6.848  1.00  0.00    -0.045 C 
HETATM   23  C1  UNL     1      18.371   5.594   7.050  1.00  0.00     0.021 C 
HETATM   24  C3  UNL     1      16.341   6.254   5.930  1.00  0.00     0.049 C 
ENDBRANCH  18  22
ENDBRANCH  17  18
ENDBRANCH   1  16
BRANCH   1  25
HETATM   25  C8  UNL     1      17.357   9.909  10.711  1.00  0.00     0.180 C 
BRANCH  25  26
HETATM   26  O1  UNL     1      17.264  11.259  10.420  1.00  0.00    -0.400 OA
ATOM     27  H1  UNL     1      16.662  11.715  10.996  1.00  0.00     0.209 HD
ENDBRANCH  25  26
ENDBRANCH   1  25
BRANCH   2  28
HETATM   28  O2  UNL     1      13.713   9.685  10.153  1.00  0.00    -0.394 OA
ATOM     29  H2  UNL     1      12.991   9.440  10.719  1.00  0.00     0.210 HD
ENDBRANCH   2  28
TORSDOF 6
ENDMDL
MODEL 5
REMARK VINA RESULT: -7.377473931      1.936      2.593
REMARK  6 active torsions:
REMARK  status: ('A' for Active; 'I' for Inactive)
REMARK    1  A    between atoms: C2_2  and  C4_4 
REMARK    2  A    between atoms: C4_4  and  C5_8 
REMARK    3  A    between atoms: C6_9  and  C7_10 
REMARK    4  A    between atoms: C7_10  and  C8_11 
REMARK    5  A    between atoms: C8_11  and  O1_12 
REMARK    6  A    between atoms: C9_14  and  O2_15 
ROOT
HETATM    1  C7  UNL     1      16.867   8.289  10.000  1.00  0.00     0.032 C 
HETATM    2  C9  UNL     1      17.642   9.427   9.368  1.00  0.00     0.133 C 
HETATM    3  C10 UNL     1      18.110   9.246   7.958  1.00  0.00     0.034 C 
HETATM    4  C11 UNL     1      17.286   8.288   7.169  1.00  0.00     0.012 C 
HETATM    5  C12 UNL     1      17.160   6.948   7.901  1.00  0.00    -0.034 C 
HETATM    6  C13 UNL     1      16.017   6.291   7.295  1.00  0.00     0.016 C 
HETATM    7  C14 UNL     1      18.403   6.168   7.368  1.00  0.00     0.046 C 
HETATM    8  C15 UNL     1      18.309   4.830   8.048  1.00  0.00     0.055 C 
HETATM    9  C16 UNL     1      17.943   3.827   6.930  1.00  0.00     0.045 C 
HETATM   10  C17 UNL     1      19.734   4.439   8.391  1.00  0.00     0.045 C 
HETATM   11  O3  UNL     1      17.373   4.696   8.978  1.00  0.00    -0.370 OA
HETATM   12  C18 UNL     1      17.258   5.704   9.985  1.00  0.00     0.060 C 
HETATM   13  C19 UNL     1      18.387   5.277  10.933  1.00  0.00     0.046 C 
HETATM   14  C20 UNL     1      15.999   5.321  10.673  1.00  0.00     0.046 C 
HETATM   15  C21 UNL     1      17.392   7.026   9.368  1.00  0.00     0.044 C 
ENDROOT
BRANCH   1  16
HETATM   16  C6  UNL     1      17.178   8.424  11.423  1.00  0.00    -0.010 C 
HETATM   17  C5  UNL     1      16.697   8.337  12.591  1.00  0.00     0.026 C 
BRANCH  17  18
HETATM   18  C4  UNL     1      15.545   8.051  13.370  1.00  0.00     0.030 C 
HETATM   19  N1  UNL     1      15.133   6.953  13.785  1.00  0.00    -0.399 N 
ATOM     20  H12 UNL     1      14.306   6.748  14.345  1.00  0.00     0.156 HD
ATOM     21  H11 UNL     1      15.738   6.180  13.511  1.00  0.00     0.156 HD
BRANCH  18  22
HETATM   22  C2  UNL     1      14.639   9.210  13.781  1.00  0.00    -0.045 C 
HETATM   23  C1  UNL     1      13.881   9.111  14.840  1.00  0.00     0.021 C 
HETATM   24  C3  UNL     1      14.623  10.446  12.974  1.00  0.00     0.049 C 
ENDBRANCH  18  22
ENDBRANCH  17  18
ENDBRANCH   1  16
BRANCH   1  25
HETATM   25  C8  UNL     1      15.369   8.416   9.832  1.00  0.00     0.180 C 
BRANCH  25  26
HETATM   26  O1  UNL     1      14.966   9.726   9.638  1.00  0.00    -0.400 OA
ATOM     27  H1  UNL     1      14.081   9.884   9.943  1.00  0.00     0.209 HD
ENDBRANCH  25  26
ENDBRANCH   1  25
BRANCH   2  28
HETATM   28  O2  UNL     1      18.832   9.677  10.074  1.00  0.00    -0.394 OA
ATOM     29  H2  UNL     1      19.331  10.371   9.662  1.00  0.00     0.210 HD
ENDBRANCH   2  28
TORSDOF 6
ENDMDL
