MODEL 1
REMARK VINA RESULT: -9.866248847      0.000      0.000
REMARK  7 active torsions:
REMARK  status: ('A' for Active; 'I' for Inactive)
REMARK    1  A    between atoms: N1_1  and  C1_4 
REMARK    2  A    between atoms: C5_13  and  C6_14 
REMARK       I    between atoms: C6_14  and  N4_16 
REMARK    3  A    between atoms: N4_16  and  C7_18 
REMARK    4  A    between atoms: C11_22  and  C12_23 
REMARK    5  A    between atoms: C12_23  and  N5_24 
REMARK    6  A    between atoms: N5_24  and  C13_26 
REMARK    7  A    between atoms: C16_29  and  N6_30 
ROOT
HETATM    1  C7  UNL     1      92.450 115.780 131.092  1.00  0.00     0.084 C 
HETATM    2  C8  UNL     1      92.084 114.387 130.724  1.00  0.00     0.025 C 
HETATM    3  C9  UNL     1      90.612 114.089 130.760  1.00  0.00     0.002 C 
HETATM    4  C10 UNL     1      89.974 114.603 132.028  1.00  0.00     0.006 C 
HETATM    5  C11 UNL     1      90.105 116.128 131.924  1.00  0.00     0.005 C 
HETATM    6  C19 UNL     1      91.538 116.469 132.053  1.00  0.00     0.031 C 
ENDROOT
BRANCH   1   7
HETATM    7  N4  UNL     1      92.572 116.580 129.888  1.00  0.00    -0.356 N 
HETATM    8  C6  UNL     1      93.598 117.499 129.645  1.00  0.00     0.226 C 
HETATM    9  O2  UNL     1      94.482 117.630 130.561  1.00  0.00    -0.273 OA
ATOM     10  H4  UNL     1      91.860 116.464 129.168  1.00  0.00     0.162 HD
BRANCH   8  11
HETATM   11  C5  UNL     1      93.743 118.316 128.440  1.00  0.00     0.118 C 
HETATM   12  C3  UNL     1      93.545 117.491 127.221  1.00  0.00     0.047 A 
HETATM   13  C2  UNL     1      92.942 118.269 126.257  1.00  0.00     0.039 A 
HETATM   14  C4  UNL     1      93.834 116.182 126.908  1.00  0.00     0.268 A 
HETATM   15  N2  UNL     1      92.664 117.716 125.054  1.00  0.00    -0.195 N 
HETATM   16  C21 UNL     1      92.714 119.653 126.798  1.00  0.00     0.059 C 
HETATM   17  C1  UNL     1      92.963 116.423 124.779  1.00  0.00     0.679 A 
ATOM     18  H2  UNL     1      92.218 118.287 124.336  1.00  0.00     0.184 HD
HETATM   19  N3  UNL     1      93.544 115.655 125.696  1.00  0.00    -0.156 N 
ATOM     20  H3  UNL     1      93.769 114.683 125.488  1.00  0.00     0.187 HD
HETATM   21  C20 UNL     1      92.661 119.372 128.289  1.00  0.00     0.025 C 
HETATM   22  O1  UNL     1      94.388 115.399 127.739  1.00  0.00    -0.267 OA
BRANCH  17  23
HETATM   23  N1  UNL     1      92.700 115.887 123.633  1.00  0.00    -0.234 N 
ATOM     24  H12 UNL     1      91.858 115.315 123.564  1.00  0.00     0.174 HD
ATOM     25  H11 UNL     1      93.302 116.024 122.821  1.00  0.00     0.174 HD
ENDBRANCH  17  23
ENDBRANCH   8  11
ENDBRANCH   1   7
BRANCH   5  26
HETATM   26  C12 UNL     1      89.219 116.733 132.953  1.00  0.00     0.118 C 
BRANCH  26  27
HETATM   27  N5  UNL     1      89.622 118.041 133.327  1.00  0.00    -0.417 N 
ATOM     28  H5  UNL     1      90.297 118.196 134.076  1.00  0.00     0.153 HD
BRANCH  27  29
HETATM   29  C13 UNL     1      89.046 119.125 132.613  1.00  0.00     0.076 C 
HETATM   30  C14 UNL     1      88.755 120.267 133.538  1.00  0.00     0.027 C 
HETATM   31  C15 UNL     1      88.072 121.420 132.867  1.00  0.00     0.035 C 
HETATM   32  C16 UNL     1      87.951 121.308 131.387  1.00  0.00     0.183 C 
HETATM   33  C17 UNL     1      89.012 120.569 130.676  1.00  0.00     0.035 C 
HETATM   34  C18 UNL     1      89.894 119.691 131.501  1.00  0.00     0.027 C 
BRANCH  32  35
HETATM   35  N6  UNL     1      86.650 120.708 131.058  1.00  0.00    -0.075 N 
ATOM     36  H63 UNL     1      86.713 120.037 130.293  1.00  0.00     0.274 HD
ATOM     37  H62 UNL     1      86.322 120.068 131.782  1.00  0.00     0.274 HD
ATOM     38  H61 UNL     1      85.981 121.454 130.867  1.00  0.00     0.274 HD
ENDBRANCH  32  35
ENDBRANCH  27  29
ENDBRANCH  26  27
ENDBRANCH   5  26
TORSDOF 7
ENDMDL
MODEL 2
REMARK VINA RESULT: -9.456275701      2.683      8.518
REMARK  7 active torsions:
REMARK  status: ('A' for Active; 'I' for Inactive)
REMARK    1  A    between atoms: N1_1  and  C1_4 
REMARK    2  A    between atoms: C5_13  and  C6_14 
REMARK       I    between atoms: C6_14  and  N4_16 
REMARK    3  A    between atoms: N4_16  and  C7_18 
REMARK    4  A    between atoms: C11_22  and  C12_23 
REMARK    5  A    between atoms: C12_23  and  N5_24 
REMARK    6  A    between atoms: N5_24  and  C13_26 
REMARK    7  A    between atoms: C16_29  and  N6_30 
ROOT
HETATM    1  C7  UNL     1      93.648 116.874 127.426  1.00  0.00     0.084 C 
HETATM    2  C8  UNL     1      93.986 118.081 126.627  1.00  0.00     0.025 C 
HETATM    3  C9  UNL     1      93.140 118.287 125.402  1.00  0.00     0.002 C 
HETATM    4  C10 UNL     1      93.000 117.012 124.605  1.00  0.00     0.006 C 
HETATM    5  C11 UNL     1      92.208 116.077 125.528  1.00  0.00     0.005 C 
HETATM    6  C19 UNL     1      93.080 115.721 126.668  1.00  0.00     0.031 C 
ENDROOT
BRANCH   1   7
HETATM    7  N4  UNL     1      92.739 117.243 128.494  1.00  0.00    -0.356 N 
HETATM    8  C6  UNL     1      93.136 117.642 129.774  1.00  0.00     0.226 C 
HETATM    9  O2  UNL     1      94.394 117.679 130.000  1.00  0.00    -0.273 OA
ATOM     10  H4  UNL     1      91.738 117.208 128.297  1.00  0.00     0.162 HD
BRANCH   8  11
HETATM   11  C5  UNL     1      92.238 118.019 130.866  1.00  0.00     0.118 C 
HETATM   12  C3  UNL     1      91.246 119.023 130.406  1.00  0.00     0.047 A 
HETATM   13  C2  UNL     1      90.059 118.806 131.072  1.00  0.00     0.039 A 
HETATM   14  C4  UNL     1      91.297 120.056 129.498  1.00  0.00     0.268 A 
HETATM   15  N2  UNL     1      89.006 119.611 130.806  1.00  0.00    -0.195 N 
HETATM   16  C21 UNL     1      90.215 117.641 132.009  1.00  0.00     0.059 C 
HETATM   17  C1  UNL     1      89.092 120.620 129.904  1.00  0.00     0.679 A 
ATOM     18  H2  UNL     1      88.124 119.455 131.296  1.00  0.00     0.184 HD
HETATM   19  N3  UNL     1      90.227 120.847 129.251  1.00  0.00    -0.156 N 
ATOM     20  H3  UNL     1      90.291 121.606 128.573  1.00  0.00     0.187 HD
HETATM   21  C20 UNL     1      91.346 116.883 131.337  1.00  0.00     0.025 C 
HETATM   22  O1  UNL     1      92.352 120.322 128.843  1.00  0.00    -0.267 OA
BRANCH  17  23
HETATM   23  N1  UNL     1      88.090 121.394 129.643  1.00  0.00    -0.234 N 
ATOM     24  H12 UNL     1      88.284 122.387 129.517  1.00  0.00     0.174 HD
ATOM     25  H11 UNL     1      87.138 121.037 129.563  1.00  0.00     0.174 HD
ENDBRANCH  17  23
ENDBRANCH   8  11
ENDBRANCH   1   7
BRANCH   5  26
HETATM   26  C12 UNL     1      91.735 114.927 124.714  1.00  0.00     0.118 C 
BRANCH  26  27
HETATM   27  N5  UNL     1      92.525 113.762 124.895  1.00  0.00    -0.417 N 
ATOM     28  H5  UNL     1      92.460 113.202 125.745  1.00  0.00     0.153 HD
BRANCH  27  29
HETATM   29  C13 UNL     1      93.408 113.408 123.840  1.00  0.00     0.076 C 
HETATM   30  C14 UNL     1      94.810 113.824 124.168  1.00  0.00     0.027 C 
HETATM   31  C15 UNL     1      95.786 113.552 123.064  1.00  0.00     0.035 C 
HETATM   32  C16 UNL     1      95.242 112.776 121.916  1.00  0.00     0.183 C 
HETATM   33  C17 UNL     1      94.172 111.803 122.205  1.00  0.00     0.035 C 
HETATM   34  C18 UNL     1      93.471 111.936 123.516  1.00  0.00     0.027 C 
BRANCH  32  35
HETATM   35  N6  UNL     1      94.769 113.715 120.888  1.00  0.00    -0.075 N 
ATOM     36  H63 UNL     1      94.297 113.241 120.117  1.00  0.00     0.274 HD
ATOM     37  H62 UNL     1      93.983 114.281 121.209  1.00  0.00     0.274 HD
ATOM     38  H61 UNL     1      95.555 114.283 120.572  1.00  0.00     0.274 HD
ENDBRANCH  32  35
ENDBRANCH  27  29
ENDBRANCH  26  27
ENDBRANCH   5  26
TORSDOF 7
ENDMDL
MODEL 3
REMARK VINA RESULT: -9.406564561      2.597      8.239
REMARK  7 active torsions:
REMARK  status: ('A' for Active; 'I' for Inactive)
REMARK    1  A    between atoms: N1_1  and  C1_4 
REMARK    2  A    between atoms: C5_13  and  C6_14 
REMARK       I    between atoms: C6_14  and  N4_16 
REMARK    3  A    between atoms: N4_16  and  C7_18 
REMARK    4  A    between atoms: C11_22  and  C12_23 
REMARK    5  A    between atoms: C12_23  and  N5_24 
REMARK    6  A    between atoms: N5_24  and  C13_26 
REMARK    7  A    between atoms: C16_29  and  N6_30 
ROOT
HETATM    1  C7  UNL     1      93.422 116.853 127.621  1.00  0.00     0.084 C 
HETATM    2  C8  UNL     1      94.000 118.040 126.938  1.00  0.00     0.025 C 
HETATM    3  C9  UNL     1      93.271 118.476 125.700  1.00  0.00     0.002 C 
HETATM    4  C10 UNL     1      92.964 117.306 124.796  1.00  0.00     0.006 C 
HETATM    5  C11 UNL     1      91.976 116.455 125.605  1.00  0.00     0.005 C 
HETATM    6  C19 UNL     1      92.711 115.872 126.748  1.00  0.00     0.031 C 
ENDROOT
BRANCH   1   7
HETATM    7  N4  UNL     1      92.529 117.292 128.675  1.00  0.00    -0.356 N 
HETATM    8  C6  UNL     1      92.941 117.702 129.947  1.00  0.00     0.226 C 
HETATM    9  O2  UNL     1      94.199 117.680 130.178  1.00  0.00    -0.273 OA
ATOM     10  H4  UNL     1      91.528 117.303 128.476  1.00  0.00     0.162 HD
BRANCH   8  11
HETATM   11  C5  UNL     1      92.061 118.150 131.027  1.00  0.00     0.118 C 
HETATM   12  C3  UNL     1      91.077 119.141 130.523  1.00  0.00     0.047 A 
HETATM   13  C2  UNL     1      89.894 118.976 131.211  1.00  0.00     0.039 A 
HETATM   14  C4  UNL     1      91.132 120.122 129.559  1.00  0.00     0.268 A 
HETATM   15  N2  UNL     1      88.849 119.780 130.912  1.00  0.00    -0.195 N 
HETATM   16  C21 UNL     1      90.045 117.861 132.209  1.00  0.00     0.059 C 
HETATM   17  C1  UNL     1      88.938 120.738 129.956  1.00  0.00     0.679 A 
ATOM     18  H2  UNL     1      87.970 119.663 131.418  1.00  0.00     0.184 HD
HETATM   19  N3  UNL     1      90.069 120.913 129.281  1.00  0.00    -0.156 N 
ATOM     20  H3  UNL     1      90.136 121.633 128.562  1.00  0.00     0.187 HD
HETATM   21  C20 UNL     1      91.159 117.053 131.568  1.00  0.00     0.025 C 
HETATM   22  O1  UNL     1      92.183 120.338 128.880  1.00  0.00    -0.267 OA
BRANCH  17  23
HETATM   23  N1  UNL     1      87.944 121.509 129.664  1.00  0.00    -0.234 N 
ATOM     24  H12 UNL     1      87.917 121.905 128.724  1.00  0.00     0.174 HD
ATOM     25  H11 UNL     1      87.208 121.722 130.337  1.00  0.00     0.174 HD
ENDBRANCH  17  23
ENDBRANCH   8  11
ENDBRANCH   1   7
BRANCH   5  26
HETATM   26  C12 UNL     1      91.364 115.466 124.680  1.00  0.00     0.118 C 
BRANCH  26  27
HETATM   27  N5  UNL     1      92.292 114.937 123.746  1.00  0.00    -0.417 N 
ATOM     28  H5  UNL     1      92.453 115.385 122.843  1.00  0.00     0.153 HD
BRANCH  27  29
HETATM   29  C13 UNL     1      92.987 113.757 124.121  1.00  0.00     0.076 C 
HETATM   30  C14 UNL     1      92.669 112.638 123.177  1.00  0.00     0.027 C 
HETATM   31  C15 UNL     1      93.308 111.336 123.557  1.00  0.00     0.035 C 
HETATM   32  C16 UNL     1      94.269 111.412 124.692  1.00  0.00     0.183 C 
HETATM   33  C17 UNL     1      95.015 112.673 124.863  1.00  0.00     0.035 C 
HETATM   34  C18 UNL     1      94.491 113.872 124.144  1.00  0.00     0.027 C 
BRANCH  32  35
HETATM   35  N6  UNL     1      93.556 111.106 125.941  1.00  0.00    -0.075 N 
ATOM     36  H63 UNL     1      94.125 110.562 126.590  1.00  0.00     0.274 HD
ATOM     37  H62 UNL     1      93.424 111.931 126.526  1.00  0.00     0.274 HD
ATOM     38  H61 UNL     1      92.675 110.645 125.714  1.00  0.00     0.274 HD
ENDBRANCH  32  35
ENDBRANCH  27  29
ENDBRANCH  26  27
ENDBRANCH   5  26
TORSDOF 7
ENDMDL
MODEL 4
REMARK VINA RESULT: -9.301232770      2.157      6.644
REMARK  7 active torsions:
REMARK  status: ('A' for Active; 'I' for Inactive)
REMARK    1  A    between atoms: N1_1  and  C1_4 
REMARK    2  A    between atoms: C5_13  and  C6_14 
REMARK       I    between atoms: C6_14  and  N4_16 
REMARK    3  A    between atoms: N4_16  and  C7_18 
REMARK    4  A    between atoms: C11_22  and  C12_23 
REMARK    5  A    between atoms: C12_23  and  N5_24 
REMARK    6  A    between atoms: N5_24  and  C13_26 
REMARK    7  A    between atoms: C16_29  and  N6_30 
ROOT
HETATM    1  C7  UNL     1      91.191 114.932 131.804  1.00  0.00     0.084 C 
HETATM    2  C8  UNL     1      92.404 114.306 132.392  1.00  0.00     0.025 C 
HETATM    3  C9  UNL     1      93.576 114.198 131.459  1.00  0.00     0.002 C 
HETATM    4  C10 UNL     1      93.164 113.651 130.114  1.00  0.00     0.006 C 
HETATM    5  C11 UNL     1      92.245 114.734 129.533  1.00  0.00     0.005 C 
HETATM    6  C19 UNL     1      91.003 114.751 130.335  1.00  0.00     0.031 C 
ENDROOT
BRANCH   1   7
HETATM    7  N4  UNL     1      91.178 116.347 132.120  1.00  0.00    -0.356 N 
HETATM    8  C6  UNL     1      90.036 117.074 132.472  1.00  0.00     0.226 C 
HETATM    9  O2  UNL     1      88.933 116.427 132.512  1.00  0.00    -0.273 OA
ATOM     10  H4  UNL     1      92.066 116.849 132.083  1.00  0.00     0.162 HD
BRANCH   8  11
HETATM   11  C5  UNL     1      89.998 118.501 132.795  1.00  0.00     0.118 C 
HETATM   12  C3  UNL     1      89.752 119.308 131.573  1.00  0.00     0.047 A 
HETATM   13  C2  UNL     1      88.999 120.409 131.918  1.00  0.00     0.039 A 
HETATM   14  C4  UNL     1      90.115 119.161 130.254  1.00  0.00     0.268 A 
HETATM   15  N2  UNL     1      88.652 121.290 130.952  1.00  0.00    -0.195 N 
HETATM   16  C21 UNL     1      88.712 120.379 133.394  1.00  0.00     0.059 C 
HETATM   17  C1  UNL     1      89.028 121.114 129.661  1.00  0.00     0.679 A 
ATOM     18  H2  UNL     1      88.094 122.107 131.202  1.00  0.00     0.184 HD
HETATM   19  N3  UNL     1      89.754 120.059 129.308  1.00  0.00    -0.156 N 
ATOM     20  H3  UNL     1      90.036 119.927 128.337  1.00  0.00     0.187 HD
HETATM   21  C20 UNL     1      88.825 118.892 133.677  1.00  0.00     0.025 C 
HETATM   22  O1  UNL     1      90.808 118.175 129.854  1.00  0.00    -0.267 OA
BRANCH  17  23
HETATM   23  N1  UNL     1      88.701 121.950 128.732  1.00  0.00    -0.234 N 
ATOM     24  H12 UNL     1      87.977 122.636 128.950  1.00  0.00     0.174 HD
ATOM     25  H11 UNL     1      89.142 121.937 127.813  1.00  0.00     0.174 HD
ENDBRANCH  17  23
ENDBRANCH   8  11
ENDBRANCH   1   7
BRANCH   5  26
HETATM   26  C12 UNL     1      92.058 114.445 128.087  1.00  0.00     0.118 C 
BRANCH  26  27
HETATM   27  N5  UNL     1      91.349 115.470 127.408  1.00  0.00    -0.417 N 
ATOM     28  H5  UNL     1      90.351 115.617 127.560  1.00  0.00     0.153 HD
BRANCH  27  29
HETATM   29  C13 UNL     1      92.089 116.281 126.507  1.00  0.00     0.076 C 
HETATM   30  C14 UNL     1      91.742 115.944 125.090  1.00  0.00     0.027 C 
HETATM   31  C15 UNL     1      92.544 116.709 124.081  1.00  0.00     0.035 C 
HETATM   32  C16 UNL     1      93.415 117.777 124.645  1.00  0.00     0.183 C 
HETATM   33  C17 UNL     1      92.953 118.447 125.875  1.00  0.00     0.035 C 
HETATM   34  C18 UNL     1      91.874 117.767 126.651  1.00  0.00     0.027 C 
BRANCH  32  35
HETATM   35  N6  UNL     1      94.757 117.223 124.878  1.00  0.00    -0.075 N 
ATOM     36  H63 UNL     1      94.727 116.301 125.312  1.00  0.00     0.274 HD
ATOM     37  H62 UNL     1      95.224 116.957 124.010  1.00  0.00     0.274 HD
ATOM     38  H61 UNL     1      95.301 117.893 125.423  1.00  0.00     0.274 HD
ENDBRANCH  32  35
ENDBRANCH  27  29
ENDBRANCH  26  27
ENDBRANCH   5  26
TORSDOF 7
ENDMDL
MODEL 5
REMARK VINA RESULT: -9.196094267      2.127      6.593
REMARK  7 active torsions:
REMARK  status: ('A' for Active; 'I' for Inactive)
REMARK    1  A    between atoms: N1_1  and  C1_4 
REMARK    2  A    between atoms: C5_13  and  C6_14 
REMARK       I    between atoms: C6_14  and  N4_16 
REMARK    3  A    between atoms: N4_16  and  C7_18 
REMARK    4  A    between atoms: C11_22  and  C12_23 
REMARK    5  A    between atoms: C12_23  and  N5_24 
REMARK    6  A    between atoms: N5_24  and  C13_26 
REMARK    7  A    between atoms: C16_29  and  N6_30 
ROOT
HETATM    1  C7  UNL     1      91.245 114.951 131.857  1.00  0.00     0.084 C 
HETATM    2  C8  UNL     1      92.498 114.360 132.397  1.00  0.00     0.025 C 
HETATM    3  C9  UNL     1      93.633 114.277 131.417  1.00  0.00     0.002 C 
HETATM    4  C10 UNL     1      93.180 113.713 130.092  1.00  0.00     0.006 C 
HETATM    5  C11 UNL     1      92.210 114.769 129.545  1.00  0.00     0.005 C 
HETATM    6  C19 UNL     1      91.002 114.758 130.397  1.00  0.00     0.031 C 
ENDROOT
BRANCH   1   7
HETATM    7  N4  UNL     1      91.209 116.367 132.167  1.00  0.00    -0.356 N 
HETATM    8  C6  UNL     1      90.050 117.080 132.491  1.00  0.00     0.226 C 
HETATM    9  O2  UNL     1      88.955 116.420 132.510  1.00  0.00    -0.273 OA
ATOM     10  H4  UNL     1      92.090 116.880 132.147  1.00  0.00     0.162 HD
BRANCH   8  11
HETATM   11  C5  UNL     1      89.988 118.508 132.808  1.00  0.00     0.118 C 
HETATM   12  C3  UNL     1      89.744 119.307 131.581  1.00  0.00     0.047 A 
HETATM   13  C2  UNL     1      88.970 120.397 131.912  1.00  0.00     0.039 A 
HETATM   14  C4  UNL     1      90.124 119.159 130.266  1.00  0.00     0.268 A 
HETATM   15  N2  UNL     1      88.622 121.270 130.939  1.00  0.00    -0.195 N 
HETATM   16  C21 UNL     1      88.667 120.370 133.384  1.00  0.00     0.059 C 
HETATM   17  C1  UNL     1      89.016 121.094 129.653  1.00  0.00     0.679 A 
ATOM     18  H2  UNL     1      88.050 122.080 131.178  1.00  0.00     0.184 HD
HETATM   19  N3  UNL     1      89.761 120.048 129.312  1.00  0.00    -0.156 N 
ATOM     20  H3  UNL     1      90.057 119.917 128.345  1.00  0.00     0.187 HD
HETATM   21  C20 UNL     1      88.798 118.885 133.675  1.00  0.00     0.025 C 
HETATM   22  O1  UNL     1      90.836 118.183 129.878  1.00  0.00    -0.267 OA
BRANCH  17  23
HETATM   23  N1  UNL     1      88.687 121.922 128.717  1.00  0.00    -0.234 N 
ATOM     24  H12 UNL     1      87.728 121.886 128.372  1.00  0.00     0.174 HD
ATOM     25  H11 UNL     1      89.351 122.592 128.329  1.00  0.00     0.174 HD
ENDBRANCH  17  23
ENDBRANCH   8  11
ENDBRANCH   1   7
BRANCH   5  26
HETATM   26  C12 UNL     1      91.970 114.467 128.109  1.00  0.00     0.118 C 
BRANCH  26  27
HETATM   27  N5  UNL     1      91.377 115.550 127.410  1.00  0.00    -0.417 N 
ATOM     28  H5  UNL     1      90.413 115.834 127.588  1.00  0.00     0.153 HD
BRANCH  27  29
HETATM   29  C13 UNL     1      92.182 116.222 126.453  1.00  0.00     0.076 C 
HETATM   30  C14 UNL     1      92.170 117.699 126.701  1.00  0.00     0.027 C 
HETATM   31  C15 UNL     1      92.938 118.482 125.679  1.00  0.00     0.035 C 
HETATM   32  C16 UNL     1      93.709 117.662 124.704  1.00  0.00     0.183 C 
HETATM   33  C17 UNL     1      94.226 116.363 125.173  1.00  0.00     0.035 C 
HETATM   34  C18 UNL     1      93.633 115.811 126.427  1.00  0.00     0.027 C 
BRANCH  32  35
HETATM   35  N6  UNL     1      92.883 117.444 123.507  1.00  0.00    -0.075 N 
ATOM     36  H63 UNL     1      93.034 116.524 123.093  1.00  0.00     0.274 HD
ATOM     37  H62 UNL     1      91.893 117.339 123.730  1.00  0.00     0.274 HD
ATOM     38  H61 UNL     1      93.054 118.200 122.845  1.00  0.00     0.274 HD
ENDBRANCH  32  35
ENDBRANCH  27  29
ENDBRANCH  26  27
ENDBRANCH   5  26
TORSDOF 7
ENDMDL
