MODEL 1
REMARK VINA RESULT: -6.701548856      0.000      0.000
REMARK  17 active torsions:
REMARK  status: ('A' for Active; 'I' for Inactive)
REMARK    1  A    between atoms: C2_2  and  N1_3 
REMARK    2  A    between atoms: N1_3  and  C3_4 
REMARK    3  A    between atoms: N1_3  and  C15_26 
REMARK    4  A    between atoms: C3_4  and  C4_5 
REMARK    5  A    between atoms: C5_6  and  C6_7 
REMARK    6  A    between atoms: C6_7  and  N2_8 
REMARK       I    between atoms: N2_8  and  C7_10 
REMARK    7  A    between atoms: C7_10  and  C8_12 
REMARK    8  A    between atoms: C8_12  and  N3_13 
REMARK    9  A    between atoms: C10_17  and  N5_18 
REMARK   10  A    between atoms: C15_26  and  C16_27 
REMARK   11  A    between atoms: C16_27  and  O3_28 
REMARK   12  A    between atoms: C16_27  and  C17_30 
REMARK   13  A    between atoms: C17_30  and  N7_31 
REMARK   14  A    between atoms: N8_33  and  C19_34 
REMARK   15  A    between atoms: C19_34  and  C20_35 
REMARK   16  A    between atoms: C20_35  and  O4_36 
REMARK   17  A    between atoms: O4_36  and  C21_37 
ROOT
HETATM    1  N1  UNL     1      -0.978   5.134  84.610  1.00  0.00     0.101 N 
ENDROOT
BRANCH   1   2
HETATM    2  C2  UNL     1      -1.780   5.454  85.764  1.00  0.00     0.269 C 
HETATM    3  C1  UNL     1      -1.699   4.322  86.751  1.00  0.00     0.037 C 
ENDBRANCH   1   2
BRANCH   1   4
HETATM    4  C3  UNL     1       0.385   5.594  84.766  1.00  0.00     0.365 C 
BRANCH   4   5
HETATM    5  C4  UNL     1       0.472   6.984  84.321  1.00  0.00    -0.075 C 
HETATM    6  C5  UNL     1       0.554   8.136  83.975  1.00  0.00    -0.085 C 
BRANCH   6   7
HETATM    7  C6  UNL     1       0.672   9.561  83.572  1.00  0.00     0.217 C 
BRANCH   7   8
HETATM    8  N2  UNL     1       1.295   9.656  82.267  1.00  0.00    -0.349 N 
HETATM    9  C7  UNL     1       2.701   9.471  82.165  1.00  0.00     0.239 C 
HETATM   10  O1  UNL     1       3.424   9.229  83.161  1.00  0.00    -0.272 OA
ATOM     11  H2  UNL     1       0.735   9.853  81.437  1.00  0.00     0.163 HD
BRANCH   9  12
HETATM   12  C8  UNL     1       3.395   9.558  80.832  1.00  0.00     0.272 C 
BRANCH  12  13
HETATM   13  N3  UNL     1       3.855   8.214  80.453  1.00  0.00    -0.224 N 
HETATM   14  N4  UNL     1       3.595   7.076  81.072  1.00  0.00    -0.291 N 
HETATM   15  C9  UNL     1       4.182   6.068  80.444  1.00  0.00     0.158 A 
ATOM     16  H4  UNL     1       3.025   6.987  81.913  1.00  0.00     0.188 HD
HETATM   17  C10 UNL     1       4.858   6.590  79.359  1.00  0.00     0.136 A 
HETATM   18  N6  UNL     1       4.621   7.913  79.414  1.00  0.00    -0.267 N 
ATOM     19  H6  UNL     1       4.983   8.594  78.746  1.00  0.00     0.190 HD
BRANCH  17  20
HETATM   20  N5  UNL     1       5.635   5.924  78.387  1.00  0.00    -0.361 N 
HETATM   21  C11 UNL     1       6.832   5.239  78.796  1.00  0.00     0.150 C 
HETATM   22  C12 UNL     1       7.303   4.206  77.813  1.00  0.00     0.187 C 
HETATM   23  O2  UNL     1       7.198   4.673  76.521  1.00  0.00    -0.388 OA
HETATM   24  C13 UNL     1       5.872   4.896  76.159  1.00  0.00     0.187 C 
HETATM   25  C14 UNL     1       5.219   5.939  77.010  1.00  0.00     0.150 C 
ENDBRANCH  17  20
ENDBRANCH  12  13
ENDBRANCH   9  12
ENDBRANCH   7   8
ENDBRANCH   6   7
ENDBRANCH   4   5
ENDBRANCH   1   4
BRANCH   1  26
HETATM   26  C15 UNL     1      -1.129   3.784  84.200  1.00  0.00     0.306 C 
BRANCH  26  27
HETATM   27  C16 UNL     1       0.119   3.085  83.799  1.00  0.00     0.166 C 
BRANCH  27  28
HETATM   28  O3  UNL     1       0.386   2.091  84.772  1.00  0.00    -0.392 OA
ATOM     29  H3  UNL     1       1.173   1.631  84.506  1.00  0.00     0.210 HD
ENDBRANCH  27  28
BRANCH  27  30
HETATM   30  C17 UNL     1       0.026   2.477  82.440  1.00  0.00     0.180 C 
BRANCH  30  31
HETATM   31  N7  UNL     1      -0.096   3.430  81.357  1.00  0.00    -0.270 N 
HETATM   32  C18 UNL     1       0.531   4.587  81.116  1.00  0.00     0.215 A 
HETATM   33  N8  UNL     1       0.094   5.146  79.982  1.00  0.00    -0.270 N 
HETATM   34  N10 UNL     1      -0.824   4.319  79.507  1.00  0.00    -0.005 NA
HETATM   35  N11 UNL     1      -0.946   3.286  80.322  1.00  0.00    -0.005 NA
BRANCH  33  36
HETATM   36  C19 UNL     1       0.519   6.408  79.361  1.00  0.00     0.173 C 
BRANCH  36  37
HETATM   37  C20 UNL     1      -0.036   7.506  80.265  1.00  0.00     0.197 C 
BRANCH  37  38
HETATM   38  O4  UNL     1      -0.284   8.629  79.467  1.00  0.00    -0.348 OA
BRANCH  38  39
HETATM   39  C21 UNL     1      -1.369   8.749  78.615  1.00  0.00     0.089 A 
HETATM   40  C22 UNL     1      -2.645   8.673  79.109  1.00  0.00     0.055 A 
HETATM   41  C23 UNL     1      -3.686   8.803  78.203  1.00  0.00     0.090 A 
HETATM   42  N9  UNL     1      -3.451   8.992  76.901  1.00  0.00    -0.374 N 
HETATM   43  C24 UNL     1      -2.204   9.072  76.379  1.00  0.00     0.109 A 
ATOM     44  H9  UNL     1      -4.248   9.081  76.271  1.00  0.00     0.164 HD
HETATM   45  C25 UNL     1      -1.145   8.943  77.282  1.00  0.00     0.060 A 
HETATM   46  S1  UNL     1       0.504   9.039  76.651  1.00  0.00    -0.048 SA
ENDBRANCH  38  39
ENDBRANCH  37  38
ENDBRANCH  36  37
ENDBRANCH  33  36
ENDBRANCH  30  31
ENDBRANCH  27  30
ENDBRANCH  26  27
ENDBRANCH   1  26
TORSDOF 17
ENDMDL
MODEL 2
REMARK VINA RESULT: -6.596477777      2.225      3.207
REMARK  17 active torsions:
REMARK  status: ('A' for Active; 'I' for Inactive)
REMARK    1  A    between atoms: C2_2  and  N1_3 
REMARK    2  A    between atoms: N1_3  and  C3_4 
REMARK    3  A    between atoms: N1_3  and  C15_26 
REMARK    4  A    between atoms: C3_4  and  C4_5 
REMARK    5  A    between atoms: C5_6  and  C6_7 
REMARK    6  A    between atoms: C6_7  and  N2_8 
REMARK       I    between atoms: N2_8  and  C7_10 
REMARK    7  A    between atoms: C7_10  and  C8_12 
REMARK    8  A    between atoms: C8_12  and  N3_13 
REMARK    9  A    between atoms: C10_17  and  N5_18 
REMARK   10  A    between atoms: C15_26  and  C16_27 
REMARK   11  A    between atoms: C16_27  and  O3_28 
REMARK   12  A    between atoms: C16_27  and  C17_30 
REMARK   13  A    between atoms: C17_30  and  N7_31 
REMARK   14  A    between atoms: N8_33  and  C19_34 
REMARK   15  A    between atoms: C19_34  and  C20_35 
REMARK   16  A    between atoms: C20_35  and  O4_36 
REMARK   17  A    between atoms: O4_36  and  C21_37 
ROOT
HETATM    1  N1  UNL     1      -0.767   4.888  84.623  1.00  0.00     0.101 N 
ENDROOT
BRANCH   1   2
HETATM    2  C2  UNL     1      -1.750   5.126  85.650  1.00  0.00     0.269 C 
HETATM    3  C1  UNL     1      -1.504   4.184  86.796  1.00  0.00     0.037 C 
ENDBRANCH   1   2
BRANCH   1   4
HETATM    4  C3  UNL     1       0.577   4.921  85.156  1.00  0.00     0.365 C 
BRANCH   4   5
HETATM    5  C4  UNL     1       1.384   5.844  84.358  1.00  0.00    -0.075 C 
HETATM    6  C5  UNL     1       2.070   6.595  83.711  1.00  0.00    -0.085 C 
BRANCH   6   7
HETATM    7  C6  UNL     1       2.937   7.506  82.921  1.00  0.00     0.217 C 
BRANCH   7   8
HETATM    8  N2  UNL     1       3.213   6.924  81.623  1.00  0.00    -0.349 N 
HETATM    9  C7  UNL     1       3.951   7.685  80.674  1.00  0.00     0.239 C 
HETATM   10  O1  UNL     1       4.371   8.842  80.918  1.00  0.00    -0.272 OA
ATOM     11  H2  UNL     1       2.884   5.986  81.393  1.00  0.00     0.163 HD
BRANCH   9  12
HETATM   12  C8  UNL     1       4.265   7.125  79.313  1.00  0.00     0.272 C 
BRANCH  12  13
HETATM   13  N3  UNL     1       5.656   6.645  79.312  1.00  0.00    -0.224 N 
HETATM   14  N4  UNL     1       6.635   7.032  80.110  1.00  0.00    -0.291 N 
HETATM   15  C9  UNL     1       7.751   6.383  79.813  1.00  0.00     0.158 A 
ATOM     16  H4  UNL     1       6.544   7.729  80.849  1.00  0.00     0.188 HD
HETATM   17  C10 UNL     1       7.471   5.532  78.762  1.00  0.00     0.136 A 
HETATM   18  N6  UNL     1       6.168   5.735  78.496  1.00  0.00    -0.267 N 
ATOM     19  H6  UNL     1       5.645   5.254  77.765  1.00  0.00     0.190 HD
BRANCH  17  20
HETATM   20  N5  UNL     1       8.327   4.636  78.088  1.00  0.00    -0.361 N 
HETATM   21  C11 UNL     1       9.712   4.986  77.912  1.00  0.00     0.150 C 
HETATM   22  C12 UNL     1      10.601   3.811  77.625  1.00  0.00     0.187 C 
HETATM   23  O2  UNL     1      10.003   2.949  76.732  1.00  0.00    -0.388 OA
HETATM   24  C13 UNL     1       8.852   2.372  77.264  1.00  0.00     0.187 C 
HETATM   25  C14 UNL     1       7.806   3.391  77.591  1.00  0.00     0.150 C 
ENDBRANCH  17  20
ENDBRANCH  12  13
ENDBRANCH   9  12
ENDBRANCH   7   8
ENDBRANCH   6   7
ENDBRANCH   4   5
ENDBRANCH   1   4
BRANCH   1  26
HETATM   26  C15 UNL     1      -1.083   3.763  83.818  1.00  0.00     0.306 C 
BRANCH  26  27
HETATM   27  C16 UNL     1      -0.001   2.759  83.654  1.00  0.00     0.166 C 
BRANCH  27  28
HETATM   28  O3  UNL     1      -0.271   1.688  84.542  1.00  0.00    -0.392 OA
ATOM     29  H3  UNL     1       0.081   0.896  84.154  1.00  0.00     0.210 HD
ENDBRANCH  27  28
BRANCH  27  30
HETATM   30  C17 UNL     1       0.117   2.262  82.253  1.00  0.00     0.180 C 
BRANCH  30  31
HETATM   31  N7  UNL     1      -0.043   3.279  81.235  1.00  0.00    -0.270 N 
HETATM   32  C18 UNL     1       0.636   4.405  80.988  1.00  0.00     0.215 A 
HETATM   33  N8  UNL     1       0.131   5.052  79.931  1.00  0.00    -0.270 N 
HETATM   34  N10 UNL     1      -0.884   4.312  79.513  1.00  0.00    -0.005 NA
HETATM   35  N11 UNL     1      -0.998   3.247  80.286  1.00  0.00    -0.005 NA
BRANCH  33  36
HETATM   36  C19 UNL     1       0.580   6.315  79.331  1.00  0.00     0.173 C 
BRANCH  36  37
HETATM   37  C20 UNL     1      -0.593   7.278  79.501  1.00  0.00     0.197 C 
BRANCH  37  38
HETATM   38  O4  UNL     1      -0.624   7.678  80.842  1.00  0.00    -0.348 OA
BRANCH  38  39
HETATM   39  C21 UNL     1      -0.051   8.847  81.314  1.00  0.00     0.089 A 
HETATM   40  C22 UNL     1       0.817   9.557  80.527  1.00  0.00     0.055 A 
HETATM   41  C23 UNL     1       1.354  10.719  81.059  1.00  0.00     0.090 A 
HETATM   42  N9  UNL     1       1.036  11.126  82.291  1.00  0.00    -0.374 N 
HETATM   43  C24 UNL     1       0.182  10.450  83.096  1.00  0.00     0.109 A 
ATOM     44  H9  UNL     1       1.456  11.987  82.642  1.00  0.00     0.164 HD
HETATM   45  C25 UNL     1      -0.366   9.277  82.572  1.00  0.00     0.060 A 
HETATM   46  S1  UNL     1      -1.487   8.356  83.584  1.00  0.00    -0.048 SA
ENDBRANCH  38  39
ENDBRANCH  37  38
ENDBRANCH  36  37
ENDBRANCH  33  36
ENDBRANCH  30  31
ENDBRANCH  27  30
ENDBRANCH  26  27
ENDBRANCH   1  26
TORSDOF 17
ENDMDL
MODEL 3
REMARK VINA RESULT: -6.551131642      2.138      2.702
REMARK  17 active torsions:
REMARK  status: ('A' for Active; 'I' for Inactive)
REMARK    1  A    between atoms: C2_2  and  N1_3 
REMARK    2  A    between atoms: N1_3  and  C3_4 
REMARK    3  A    between atoms: N1_3  and  C15_26 
REMARK    4  A    between atoms: C3_4  and  C4_5 
REMARK    5  A    between atoms: C5_6  and  C6_7 
REMARK    6  A    between atoms: C6_7  and  N2_8 
REMARK       I    between atoms: N2_8  and  C7_10 
REMARK    7  A    between atoms: C7_10  and  C8_12 
REMARK    8  A    between atoms: C8_12  and  N3_13 
REMARK    9  A    between atoms: C10_17  and  N5_18 
REMARK   10  A    between atoms: C15_26  and  C16_27 
REMARK   11  A    between atoms: C16_27  and  O3_28 
REMARK   12  A    between atoms: C16_27  and  C17_30 
REMARK   13  A    between atoms: C17_30  and  N7_31 
REMARK   14  A    between atoms: N8_33  and  C19_34 
REMARK   15  A    between atoms: C19_34  and  C20_35 
REMARK   16  A    between atoms: C20_35  and  O4_36 
REMARK   17  A    between atoms: O4_36  and  C21_37 
ROOT
HETATM    1  N1  UNL     1      -1.400   4.480  85.547  1.00  0.00     0.101 N 
ENDROOT
BRANCH   1   2
HETATM    2  C2  UNL     1      -2.193   4.011  86.655  1.00  0.00     0.269 C 
HETATM    3  C1  UNL     1      -2.679   2.619  86.360  1.00  0.00     0.037 C 
ENDBRANCH   1   2
BRANCH   1   4
HETATM    4  C3  UNL     1      -1.818   5.795  85.114  1.00  0.00     0.365 C 
BRANCH   4   5
HETATM    5  C4  UNL     1      -0.636   6.575  84.748  1.00  0.00    -0.075 C 
HETATM    6  C5  UNL     1       0.351   7.197  84.443  1.00  0.00    -0.085 C 
BRANCH   6   7
HETATM    7  C6  UNL     1       1.578   7.939  84.057  1.00  0.00     0.217 C 
BRANCH   7   8
HETATM    8  N2  UNL     1       1.909   7.661  82.673  1.00  0.00    -0.349 N 
HETATM    9  C7  UNL     1       2.725   8.587  81.966  1.00  0.00     0.239 C 
HETATM   10  O1  UNL     1       3.167   9.636  82.492  1.00  0.00    -0.272 OA
ATOM     11  H2  UNL     1       1.565   6.817  82.215  1.00  0.00     0.163 HD
BRANCH   9  12
HETATM   12  C8  UNL     1       3.098   8.343  80.528  1.00  0.00     0.272 C 
BRANCH  12  13
HETATM   13  N3  UNL     1       4.198   7.368  80.488  1.00  0.00    -0.224 N 
HETATM   14  N4  UNL     1       4.098   6.051  80.441  1.00  0.00    -0.291 N 
HETATM   15  C9  UNL     1       5.303   5.500  80.420  1.00  0.00     0.158 A 
ATOM     16  H4  UNL     1       3.220   5.534  80.424  1.00  0.00     0.188 HD
HETATM   17  C10 UNL     1       6.229   6.524  80.455  1.00  0.00     0.136 A 
HETATM   18  N6  UNL     1       5.494   7.649  80.497  1.00  0.00    -0.267 N 
ATOM     19  H6  UNL     1       5.880   8.593  80.530  1.00  0.00     0.190 HD
BRANCH  17  20
HETATM   20  N5  UNL     1       7.639   6.451  80.453  1.00  0.00    -0.361 N 
HETATM   21  C11 UNL     1       8.322   6.122  79.231  1.00  0.00     0.150 C 
HETATM   22  C12 UNL     1       9.768   6.526  79.220  1.00  0.00     0.187 C 
HETATM   23  O2  UNL     1      10.368   6.243  80.427  1.00  0.00    -0.388 OA
HETATM   24  C13 UNL     1       9.821   6.996  81.463  1.00  0.00     0.187 C 
HETATM   25  C14 UNL     1       8.367   6.709  81.667  1.00  0.00     0.150 C 
ENDBRANCH  17  20
ENDBRANCH  12  13
ENDBRANCH   9  12
ENDBRANCH   7   8
ENDBRANCH   6   7
ENDBRANCH   4   5
ENDBRANCH   1   4
BRANCH   1  26
HETATM   26  C15 UNL     1      -0.007   4.319  85.768  1.00  0.00     0.306 C 
BRANCH  26  27
HETATM   27  C16 UNL     1       0.649   3.229  85.001  1.00  0.00     0.166 C 
BRANCH  27  28
HETATM   28  O3  UNL     1       0.762   2.108  85.860  1.00  0.00    -0.392 OA
ATOM     29  H3  UNL     1       0.726   1.327  85.320  1.00  0.00     0.210 HD
ENDBRANCH  27  28
BRANCH  27  30
HETATM   30  C17 UNL     1      -0.096   2.868  83.762  1.00  0.00     0.180 C 
BRANCH  30  31
HETATM   31  N7  UNL     1       0.243   3.661  82.598  1.00  0.00    -0.270 N 
HETATM   32  C18 UNL     1      -0.359   3.801  81.411  1.00  0.00     0.215 A 
HETATM   33  N8  UNL     1       0.316   4.646  80.624  1.00  0.00    -0.270 N 
HETATM   34  N10 UNL     1       1.360   5.040  81.337  1.00  0.00    -0.005 NA
HETATM   35  N11 UNL     1       1.327   4.457  82.522  1.00  0.00    -0.005 NA
BRANCH  33  36
HETATM   36  C19 UNL     1      -0.002   5.073  79.255  1.00  0.00     0.173 C 
BRANCH  36  37
HETATM   37  C20 UNL     1       0.559   6.488  79.137  1.00  0.00     0.197 C 
BRANCH  37  38
HETATM   38  O4  UNL     1      -0.523   7.375  79.125  1.00  0.00    -0.348 OA
BRANCH  38  39
HETATM   39  C21 UNL     1      -0.596   8.518  79.904  1.00  0.00     0.089 A 
HETATM   40  C22 UNL     1      -1.057   8.446  81.192  1.00  0.00     0.055 A 
HETATM   41  C23 UNL     1      -1.102   9.626  81.918  1.00  0.00     0.090 A 
HETATM   42  N9  UNL     1      -0.713  10.785  81.379  1.00  0.00    -0.374 N 
HETATM   43  C24 UNL     1      -0.253  10.893  80.110  1.00  0.00     0.109 A 
ATOM     44  H9  UNL     1      -0.766  11.628  81.950  1.00  0.00     0.164 HD
HETATM   45  C25 UNL     1      -0.202   9.710  79.368  1.00  0.00     0.060 A 
HETATM   46  S1  UNL     1       0.391   9.797  77.703  1.00  0.00    -0.048 SA
ENDBRANCH  38  39
ENDBRANCH  37  38
ENDBRANCH  36  37
ENDBRANCH  33  36
ENDBRANCH  30  31
ENDBRANCH  27  30
ENDBRANCH  26  27
ENDBRANCH   1  26
TORSDOF 17
ENDMDL
MODEL 4
REMARK VINA RESULT: -6.545104126      1.516      2.235
REMARK  17 active torsions:
REMARK  status: ('A' for Active; 'I' for Inactive)
REMARK    1  A    between atoms: C2_2  and  N1_3 
REMARK    2  A    between atoms: N1_3  and  C3_4 
REMARK    3  A    between atoms: N1_3  and  C15_26 
REMARK    4  A    between atoms: C3_4  and  C4_5 
REMARK    5  A    between atoms: C5_6  and  C6_7 
REMARK    6  A    between atoms: C6_7  and  N2_8 
REMARK       I    between atoms: N2_8  and  C7_10 
REMARK    7  A    between atoms: C7_10  and  C8_12 
REMARK    8  A    between atoms: C8_12  and  N3_13 
REMARK    9  A    between atoms: C10_17  and  N5_18 
REMARK   10  A    between atoms: C15_26  and  C16_27 
REMARK   11  A    between atoms: C16_27  and  O3_28 
REMARK   12  A    between atoms: C16_27  and  C17_30 
REMARK   13  A    between atoms: C17_30  and  N7_31 
REMARK   14  A    between atoms: N8_33  and  C19_34 
REMARK   15  A    between atoms: C19_34  and  C20_35 
REMARK   16  A    between atoms: C20_35  and  O4_36 
REMARK   17  A    between atoms: O4_36  and  C21_37 
ROOT
HETATM    1  N1  UNL     1      -0.465   5.273  84.256  1.00  0.00     0.101 N 
ENDROOT
BRANCH   1   2
HETATM    2  C2  UNL     1      -1.429   5.968  85.071  1.00  0.00     0.269 C 
HETATM    3  C1  UNL     1      -1.922   5.044  86.150  1.00  0.00     0.037 C 
ENDBRANCH   1   2
BRANCH   1   4
HETATM    4  C3  UNL     1       0.869   5.379  84.805  1.00  0.00     0.365 C 
BRANCH   4   5
HETATM    5  C4  UNL     1       1.671   6.248  83.945  1.00  0.00    -0.075 C 
HETATM    6  C5  UNL     1       2.352   6.951  83.241  1.00  0.00    -0.085 C 
BRANCH   6   7
HETATM    7  C6  UNL     1       3.212   7.798  82.375  1.00  0.00     0.217 C 
BRANCH   7   8
HETATM    8  N2  UNL     1       4.485   7.143  82.150  1.00  0.00    -0.349 N 
HETATM    9  C7  UNL     1       5.270   7.539  81.032  1.00  0.00     0.239 C 
HETATM   10  O1  UNL     1       4.902   8.432  80.232  1.00  0.00    -0.272 OA
ATOM     11  H2  UNL     1       4.812   6.412  82.782  1.00  0.00     0.163 HD
BRANCH   9  12
HETATM   12  C8  UNL     1       6.600   6.891  80.756  1.00  0.00     0.272 C 
BRANCH  12  13
HETATM   13  N3  UNL     1       6.516   6.172  79.475  1.00  0.00    -0.224 N 
HETATM   14  N4  UNL     1       5.510   6.181  78.618  1.00  0.00    -0.291 N 
HETATM   15  C9  UNL     1       5.790   5.412  77.576  1.00  0.00     0.158 A 
ATOM     16  H4  UNL     1       4.644   6.705  78.742  1.00  0.00     0.188 HD
HETATM   17  C10 UNL     1       7.047   4.878  77.778  1.00  0.00     0.136 A 
HETATM   18  N6  UNL     1       7.446   5.380  78.961  1.00  0.00    -0.267 N 
ATOM     19  H6  UNL     1       8.343   5.179  79.402  1.00  0.00     0.190 HD
BRANCH  17  20
HETATM   20  N5  UNL     1       7.785   4.000  76.956  1.00  0.00    -0.361 N 
HETATM   21  C11 UNL     1       7.927   2.623  77.351  1.00  0.00     0.150 C 
HETATM   22  C12 UNL     1       8.300   1.707  76.222  1.00  0.00     0.187 C 
HETATM   23  O2  UNL     1       9.260   2.282  75.418  1.00  0.00    -0.388 OA
HETATM   24  C13 UNL     1       8.779   3.421  74.776  1.00  0.00     0.187 C 
HETATM   25  C14 UNL     1       8.380   4.491  75.742  1.00  0.00     0.150 C 
ENDBRANCH  17  20
ENDBRANCH  12  13
ENDBRANCH   9  12
ENDBRANCH   7   8
ENDBRANCH   6   7
ENDBRANCH   4   5
ENDBRANCH   1   4
BRANCH   1  26
HETATM   26  C15 UNL     1      -0.888   3.963  83.912  1.00  0.00     0.306 C 
BRANCH  26  27
HETATM   27  C16 UNL     1       0.195   2.981  83.646  1.00  0.00     0.166 C 
BRANCH  27  28
HETATM   28  O3  UNL     1       0.093   1.956  84.618  1.00  0.00    -0.392 OA
ATOM     29  H3  UNL     1       0.191   1.124  84.171  1.00  0.00     0.210 HD
ENDBRANCH  27  28
BRANCH  27  30
HETATM   30  C17 UNL     1       0.128   2.410  82.271  1.00  0.00     0.180 C 
BRANCH  30  31
HETATM   31  N7  UNL     1      -0.054   3.386  81.217  1.00  0.00    -0.270 N 
HETATM   32  C18 UNL     1       0.593   4.522  80.935  1.00  0.00     0.215 A 
HETATM   33  N8  UNL     1       0.076   5.117  79.854  1.00  0.00    -0.270 N 
HETATM   34  N10 UNL     1      -0.914   4.334  79.455  1.00  0.00    -0.005 NA
HETATM   35  N11 UNL     1      -1.002   3.293  80.264  1.00  0.00    -0.005 NA
BRANCH  33  36
HETATM   36  C19 UNL     1       0.492   6.372  79.214  1.00  0.00     0.173 C 
BRANCH  36  37
HETATM   37  C20 UNL     1      -0.065   7.480  80.105  1.00  0.00     0.197 C 
BRANCH  37  38
HETATM   38  O4  UNL     1      -0.270   8.608  79.303  1.00  0.00    -0.348 OA
BRANCH  38  39
HETATM   39  C21 UNL     1      -1.363   8.777  78.470  1.00  0.00     0.089 A 
HETATM   40  C22 UNL     1      -2.634   8.707  78.977  1.00  0.00     0.055 A 
HETATM   41  C23 UNL     1      -3.683   8.887  78.090  1.00  0.00     0.090 A 
HETATM   42  N9  UNL     1      -3.460   9.117  76.792  1.00  0.00    -0.374 N 
HETATM   43  C24 UNL     1      -2.218   9.192  76.257  1.00  0.00     0.109 A 
ATOM     44  H9  UNL     1      -4.263   9.241  76.175  1.00  0.00     0.164 HD
HETATM   45  C25 UNL     1      -1.152   9.013  77.141  1.00  0.00     0.060 A 
HETATM   46  S1  UNL     1       0.492   9.101  76.493  1.00  0.00    -0.048 SA
ENDBRANCH  38  39
ENDBRANCH  37  38
ENDBRANCH  36  37
ENDBRANCH  33  36
ENDBRANCH  30  31
ENDBRANCH  27  30
ENDBRANCH  26  27
ENDBRANCH   1  26
TORSDOF 17
ENDMDL
MODEL 5
REMARK VINA RESULT: -6.481420407      4.951      8.443
REMARK  17 active torsions:
REMARK  status: ('A' for Active; 'I' for Inactive)
REMARK    1  A    between atoms: C2_2  and  N1_3 
REMARK    2  A    between atoms: N1_3  and  C3_4 
REMARK    3  A    between atoms: N1_3  and  C15_26 
REMARK    4  A    between atoms: C3_4  and  C4_5 
REMARK    5  A    between atoms: C5_6  and  C6_7 
REMARK    6  A    between atoms: C6_7  and  N2_8 
REMARK       I    between atoms: N2_8  and  C7_10 
REMARK    7  A    between atoms: C7_10  and  C8_12 
REMARK    8  A    between atoms: C8_12  and  N3_13 
REMARK    9  A    between atoms: C10_17  and  N5_18 
REMARK   10  A    between atoms: C15_26  and  C16_27 
REMARK   11  A    between atoms: C16_27  and  O3_28 
REMARK   12  A    between atoms: C16_27  and  C17_30 
REMARK   13  A    between atoms: C17_30  and  N7_31 
REMARK   14  A    between atoms: N8_33  and  C19_34 
REMARK   15  A    between atoms: C19_34  and  C20_35 
REMARK   16  A    between atoms: C20_35  and  O4_36 
REMARK   17  A    between atoms: O4_36  and  C21_37 
ROOT
HETATM    1  N1  UNL     1       3.963   6.552  79.006  1.00  0.00     0.101 N 
ENDROOT
BRANCH   1   2
HETATM    2  C2  UNL     1       4.495   7.840  78.636  1.00  0.00     0.269 C 
HETATM    3  C1  UNL     1       4.046   8.867  79.638  1.00  0.00     0.037 C 
ENDBRANCH   1   2
BRANCH   1   4
HETATM    4  C3  UNL     1       4.833   5.865  79.935  1.00  0.00     0.365 C 
BRANCH   4   5
HETATM    5  C4  UNL     1       6.044   5.446  79.232  1.00  0.00    -0.075 C 
HETATM    6  C5  UNL     1       7.047   5.123  78.644  1.00  0.00    -0.085 C 
BRANCH   6   7
HETATM    7  C6  UNL     1       8.287   4.753  77.917  1.00  0.00     0.217 C 
BRANCH   7   8
HETATM    8  N2  UNL     1       7.964   3.903  76.788  1.00  0.00    -0.349 N 
HETATM    9  C7  UNL     1       8.468   2.573  76.767  1.00  0.00     0.239 C 
HETATM   10  O1  UNL     1       9.182   2.107  77.687  1.00  0.00    -0.272 OA
ATOM     11  H2  UNL     1       7.387   4.252  76.023  1.00  0.00     0.163 HD
BRANCH   9  12
HETATM   12  C8  UNL     1       8.159   1.651  75.618  1.00  0.00     0.272 C 
BRANCH  12  13
HETATM   13  N3  UNL     1       8.362   0.263  76.063  1.00  0.00    -0.224 N 
HETATM   14  N4  UNL     1       7.658  -0.398  76.965  1.00  0.00    -0.291 N 
HETATM   15  C9  UNL     1       8.134  -1.626  77.108  1.00  0.00     0.158 A 
ATOM     16  H4  UNL     1       6.863  -0.017  77.477  1.00  0.00     0.188 HD
HETATM   17  C10 UNL     1       9.206  -1.760  76.248  1.00  0.00     0.136 A 
HETATM   18  N6  UNL     1       9.300  -0.568  75.631  1.00  0.00    -0.267 N 
ATOM     19  H6  UNL     1       9.999  -0.334  74.926  1.00  0.00     0.190 HD
BRANCH  17  20
HETATM   20  N5  UNL     1      10.043  -2.875  76.033  1.00  0.00    -0.361 N 
HETATM   21  C11 UNL     1       9.646  -4.160  76.545  1.00  0.00     0.150 C 
HETATM   22  C12 UNL     1      10.334  -5.315  75.878  1.00  0.00     0.187 C 
HETATM   23  O2  UNL     1      11.672  -5.047  75.687  1.00  0.00    -0.388 OA
HETATM   24  C13 UNL     1      11.865  -3.990  74.802  1.00  0.00     0.187 C 
HETATM   25  C14 UNL     1      11.275  -2.712  75.307  1.00  0.00     0.150 C 
ENDBRANCH  17  20
ENDBRANCH  12  13
ENDBRANCH   9  12
ENDBRANCH   7   8
ENDBRANCH   6   7
ENDBRANCH   4   5
ENDBRANCH   1   4
BRANCH   1  26
HETATM   26  C15 UNL     1       2.594   6.616  79.376  1.00  0.00     0.306 C 
BRANCH  26  27
HETATM   27  C16 UNL     1       1.616   6.460  78.270  1.00  0.00     0.166 C 
BRANCH  27  28
HETATM   28  O3  UNL     1       0.751   5.391  78.609  1.00  0.00    -0.392 OA
ATOM     29  H3  UNL     1      -0.120   5.615  78.302  1.00  0.00     0.210 HD
ENDBRANCH  27  28
BRANCH  27  30
HETATM   30  C17 UNL     1       0.836   7.705  78.012  1.00  0.00     0.180 C 
BRANCH  30  31
HETATM   31  N7  UNL     1      -0.066   8.087  79.078  1.00  0.00    -0.270 N 
HETATM   32  C18 UNL     1       0.109   8.857  80.158  1.00  0.00     0.215 A 
HETATM   33  N8  UNL     1      -1.012   8.934  80.884  1.00  0.00    -0.270 N 
HETATM   34  N10 UNL     1      -1.903   8.195  80.242  1.00  0.00    -0.005 NA
HETATM   35  N11 UNL     1      -1.349   7.682  79.158  1.00  0.00    -0.005 NA
BRANCH  33  36
HETATM   36  C19 UNL     1      -1.244   9.671  82.133  1.00  0.00     0.173 C 
BRANCH  36  37
HETATM   37  C20 UNL     1      -1.899   8.665  83.077  1.00  0.00     0.197 C 
BRANCH  37  38
HETATM   38  O4  UNL     1      -1.001   8.416  84.121  1.00  0.00    -0.348 OA
BRANCH  38  39
HETATM   39  C21 UNL     1      -0.451   7.173  84.389  1.00  0.00     0.089 A 
HETATM   40  C22 UNL     1      -1.243   6.151  84.839  1.00  0.00     0.055 A 
HETATM   41  C23 UNL     1      -0.631   4.933  85.086  1.00  0.00     0.090 A 
HETATM   42  N9  UNL     1       0.681   4.767  84.893  1.00  0.00    -0.374 N 
HETATM   43  C24 UNL     1       1.494   5.755  84.449  1.00  0.00     0.109 A 
ATOM     44  H9  UNL     1       1.090   3.853  85.089  1.00  0.00     0.164 HD
HETATM   45  C25 UNL     1       0.888   6.988  84.196  1.00  0.00     0.060 A 
HETATM   46  S1  UNL     1       1.907   8.313  83.615  1.00  0.00    -0.048 SA
ENDBRANCH  38  39
ENDBRANCH  37  38
ENDBRANCH  36  37
ENDBRANCH  33  36
ENDBRANCH  30  31
ENDBRANCH  27  30
ENDBRANCH  26  27
ENDBRANCH   1  26
TORSDOF 17
ENDMDL
