MODEL 1
REMARK VINA RESULT: -8.355978763      0.000      0.000
REMARK  9 active torsions:
REMARK  status: ('A' for Active; 'I' for Inactive)
REMARK    1  A    between atoms: C2_2  and  C3_3 
REMARK    2  A    between atoms: C3_3  and  N1_5 
REMARK    3  A    between atoms: C6_7  and  C7_8 
REMARK    4  A    between atoms: C7_8  and  C8_9 
REMARK    5  A    between atoms: C9_10  and  C10_11 
REMARK    6  A    between atoms: C11_14  and  C12_15 
REMARK    7  A    between atoms: N5_26  and  O4_27 
REMARK    8  A    between atoms: N6_31  and  N7_32 
REMARK    9  A    between atoms: C18_41  and  O6_42 
ROOT
HETATM    1  C8  UNL     1       1.064   5.074  81.629  1.00  0.00     0.078 A 
HETATM    2  C9  UNL     1       0.674   4.980  83.060  1.00  0.00     0.087 A 
HETATM    3  C11 UNL     1      -0.302   4.082  83.184  1.00  0.00     0.082 A 
HETATM    4  C16 UNL     1      -0.602   3.543  81.880  1.00  0.00     0.280 A 
HETATM    5  O5  UNL     1      -1.473   2.665  81.599  1.00  0.00    -0.265 OA
HETATM    6  N6  UNL     1       0.252   4.160  80.897  1.00  0.00    -0.225 N 
ENDROOT
BRANCH   1   7
HETATM    7  C7  UNL     1       1.999   5.834  81.090  1.00  0.00     0.049 C 
BRANCH   7   8
HETATM    8  C6  UNL     1       3.211   5.371  80.427  1.00  0.00     0.025 A 
HETATM    9  C5  UNL     1       3.398   5.727  79.115  1.00  0.00     0.110 A 
HETATM   10  N1  UNL     1       4.482   5.281  78.458  1.00  0.00    -0.318 N 
HETATM   11  C18 UNL     1       5.389   4.484  79.092  1.00  0.00     0.225 A 
HETATM   12  N9  UNL     1       5.223   4.125  80.375  1.00  0.00    -0.308 N 
HETATM   13  C17 UNL     1       4.142   4.568  81.026  1.00  0.00     0.113 A 
ATOM     14  H9  UNL     1       5.905   3.528  80.843  1.00  0.00     0.171 HD
HETATM   15  N8  UNL     1       3.944   4.173  82.254  1.00  0.00    -0.385 N 
ATOM     16  H82 UNL     1       3.120   4.511  82.751  1.00  0.00     0.157 HD
ATOM     17  H81 UNL     1       4.639   3.574  82.701  1.00  0.00     0.157 HD
BRANCH  10  18
HETATM   18  C3  UNL     1       4.758   5.564  77.069  1.00  0.00     0.088 C 
HETATM   19  C4  UNL     1       4.694   7.047  76.760  1.00  0.00     0.033 C 
BRANCH  18  20
HETATM   20  C2  UNL     1       3.724   4.812  76.235  1.00  0.00     0.021 C 
HETATM   21  C1  UNL     1       4.157   4.798  74.780  1.00  0.00     0.007 C 
ENDBRANCH  18  20
ENDBRANCH  10  18
BRANCH  11  22
HETATM   22  O6  UNL     1       6.527   4.003  78.461  1.00  0.00    -0.332 OA
ATOM     23  H6  UNL     1       7.380   4.005  78.878  1.00  0.00     0.221 HD
ENDBRANCH  11  22
ENDBRANCH   7   8
ENDBRANCH   1   7
BRANCH   2  24
HETATM   24  C10 UNL     1       1.315   5.724  84.126  1.00  0.00     0.212 C 
HETATM   25  O1  UNL     1       2.489   5.463  84.469  1.00  0.00    -0.644 OA
HETATM   26  O2  UNL     1       0.675   6.761  84.833  1.00  0.00    -0.644 OA
ENDBRANCH   2  24
BRANCH   6  27
HETATM   27  N7  UNL     1       0.272   3.857  79.538  1.00  0.00    -0.335 N 
ATOM     28  H72 UNL     1       0.893   4.276  78.847  1.00  0.00     0.177 HD
ATOM     29  H71 UNL     1      -0.325   3.219  79.010  1.00  0.00     0.177 HD
ENDBRANCH   6  27
BRANCH   3  30
HETATM   30  C12 UNL     1      -0.973   3.698  84.410  1.00  0.00     0.083 A 
HETATM   31  N2  UNL     1      -1.695   4.561  85.170  1.00  0.00    -0.349 N 
HETATM   32  C13 UNL     1      -2.261   4.207  86.334  1.00  0.00     0.182 A 
ATOM     33  H2  UNL     1      -1.811   5.520  84.841  1.00  0.00     0.166 HD
HETATM   34  N3  UNL     1      -2.097   2.939  86.750  1.00  0.00    -0.333 N 
HETATM   35  C14 UNL     1      -1.383   2.025  86.031  1.00  0.00     0.193 A 
ATOM     36  H3  UNL     1      -2.520   2.650  87.632  1.00  0.00     0.168 HD
HETATM   37  C15 UNL     1      -0.800   2.386  84.838  1.00  0.00     0.133 A 
HETATM   38  N5  UNL     1      -1.065   0.738  86.226  1.00  0.00    -0.082 N 
HETATM   39  N4  UNL     1      -0.163   1.315  84.372  1.00  0.00    -0.233 N 
HETATM   40  O3  UNL     1      -0.340   0.353  85.220  1.00  0.00    -0.126 OA
ATOM     41  H4  UNL     1       0.368   1.262  83.503  1.00  0.00     0.197 HD
BRANCH  38  42
HETATM   42  O4  UNL     1      -1.473  -0.004  87.326  1.00  0.00    -0.260 OA
ATOM     43  H4  UNL     1      -1.181  -0.889  87.508  1.00  0.00     0.247 HD
ENDBRANCH  38  42
ENDBRANCH   3  30
TORSDOF 9
ENDMDL
MODEL 2
REMARK VINA RESULT: -7.851570205      2.691      3.790
REMARK  9 active torsions:
REMARK  status: ('A' for Active; 'I' for Inactive)
REMARK    1  A    between atoms: C2_2  and  C3_3 
REMARK    2  A    between atoms: C3_3  and  N1_5 
REMARK    3  A    between atoms: C6_7  and  C7_8 
REMARK    4  A    between atoms: C7_8  and  C8_9 
REMARK    5  A    between atoms: C9_10  and  C10_11 
REMARK    6  A    between atoms: C11_14  and  C12_15 
REMARK    7  A    between atoms: N5_26  and  O4_27 
REMARK    8  A    between atoms: N6_31  and  N7_32 
REMARK    9  A    between atoms: C18_41  and  O6_42 
ROOT
HETATM    1  C8  UNL     1       1.243   4.930  81.740  1.00  0.00     0.078 A 
HETATM    2  C9  UNL     1       0.841   4.799  83.165  1.00  0.00     0.087 A 
HETATM    3  C11 UNL     1      -0.223   4.001  83.242  1.00  0.00     0.082 A 
HETATM    4  C16 UNL     1      -0.572   3.566  81.912  1.00  0.00     0.280 A 
HETATM    5  O5  UNL     1      -1.527   2.798  81.586  1.00  0.00    -0.265 OA
HETATM    6  N6  UNL     1       0.344   4.144  80.962  1.00  0.00    -0.225 N 
ENDROOT
BRANCH   1   7
HETATM    7  C7  UNL     1       2.253   5.618  81.240  1.00  0.00     0.049 C 
BRANCH   7   8
HETATM    8  C6  UNL     1       2.709   6.928  81.684  1.00  0.00     0.025 A 
HETATM    9  C5  UNL     1       1.836   7.980  81.571  1.00  0.00     0.110 A 
HETATM   10  N1  UNL     1       2.236   9.212  81.928  1.00  0.00    -0.318 N 
HETATM   11  C18 UNL     1       3.499   9.413  82.401  1.00  0.00     0.225 A 
HETATM   12  N9  UNL     1       4.368   8.396  82.518  1.00  0.00    -0.308 N 
HETATM   13  C17 UNL     1       3.968   7.172  82.159  1.00  0.00     0.113 A 
ATOM     14  H9  UNL     1       5.312   8.553  82.871  1.00  0.00     0.171 HD
HETATM   15  N8  UNL     1       4.827   6.190  82.213  1.00  0.00    -0.385 N 
ATOM     16  H82 UNL     1       4.521   5.256  81.940  1.00  0.00     0.157 HD
ATOM     17  H81 UNL     1       5.766   6.371  82.568  1.00  0.00     0.157 HD
BRANCH  10  18
HETATM   18  C3  UNL     1       1.412  10.394  81.818  1.00  0.00     0.088 C 
HETATM   19  C4  UNL     1       0.468  10.550  82.993  1.00  0.00     0.033 C 
BRANCH  18  20
HETATM   20  C2  UNL     1       0.615  10.276  80.521  1.00  0.00     0.021 C 
HETATM   21  C1  UNL     1      -0.866  10.423  80.819  1.00  0.00     0.007 C 
ENDBRANCH  18  20
ENDBRANCH  10  18
BRANCH  11  22
HETATM   22  O6  UNL     1       3.959  10.662  82.789  1.00  0.00    -0.332 OA
ATOM     23  H6  UNL     1       4.585  10.779  83.494  1.00  0.00     0.221 HD
ENDBRANCH  11  22
ENDBRANCH   7   8
ENDBRANCH   1   7
BRANCH   2  24
HETATM   24  C10 UNL     1       1.551   5.416  84.268  1.00  0.00     0.212 C 
HETATM   25  O1  UNL     1       2.548   4.857  84.777  1.00  0.00    -0.644 OA
HETATM   26  O2  UNL     1       1.174   6.651  84.831  1.00  0.00    -0.644 OA
ENDBRANCH   2  24
BRANCH   6  27
HETATM   27  N7  UNL     1       0.337   3.914  79.588  1.00  0.00    -0.335 N 
ATOM     28  H72 UNL     1       0.917   3.232  79.099  1.00  0.00     0.177 HD
ATOM     29  H71 UNL     1      -0.196   4.385  78.857  1.00  0.00     0.177 HD
ENDBRANCH   6  27
BRANCH   3  30
HETATM   30  C12 UNL     1      -0.933   3.623  84.447  1.00  0.00     0.083 A 
HETATM   31  N2  UNL     1      -1.682   4.489  85.177  1.00  0.00    -0.349 N 
HETATM   32  C13 UNL     1      -2.286   4.140  86.324  1.00  0.00     0.182 A 
ATOM     33  H2  UNL     1      -1.790   5.445  84.839  1.00  0.00     0.166 HD
HETATM   34  N3  UNL     1      -2.134   2.875  86.753  1.00  0.00    -0.333 N 
HETATM   35  C14 UNL     1      -1.394   1.959  86.064  1.00  0.00     0.193 A 
ATOM     36  H3  UNL     1      -2.586   2.590  87.622  1.00  0.00     0.168 HD
HETATM   37  C15 UNL     1      -0.773   2.314  84.888  1.00  0.00     0.133 A 
HETATM   38  N5  UNL     1      -1.080   0.674  86.278  1.00  0.00    -0.082 N 
HETATM   39  N4  UNL     1      -0.118   1.242  84.451  1.00  0.00    -0.233 N 
HETATM   40  O3  UNL     1      -0.320   0.284  85.299  1.00  0.00    -0.126 OA
ATOM     41  H4  UNL     1       0.443   1.185  83.601  1.00  0.00     0.197 HD
BRANCH  38  42
HETATM   42  O4  UNL     1      -1.523  -0.063  87.367  1.00  0.00    -0.260 OA
ATOM     43  H4  UNL     1      -1.490  -1.011  87.417  1.00  0.00     0.247 HD
ENDBRANCH  38  42
ENDBRANCH   3  30
TORSDOF 9
ENDMDL
MODEL 3
REMARK VINA RESULT: -7.780349256      2.607      4.226
REMARK  9 active torsions:
REMARK  status: ('A' for Active; 'I' for Inactive)
REMARK    1  A    between atoms: C2_2  and  C3_3 
REMARK    2  A    between atoms: C3_3  and  N1_5 
REMARK    3  A    between atoms: C6_7  and  C7_8 
REMARK    4  A    between atoms: C7_8  and  C8_9 
REMARK    5  A    between atoms: C9_10  and  C10_11 
REMARK    6  A    between atoms: C11_14  and  C12_15 
REMARK    7  A    between atoms: N5_26  and  O4_27 
REMARK    8  A    between atoms: N6_31  and  N7_32 
REMARK    9  A    between atoms: C18_41  and  O6_42 
ROOT
HETATM    1  C8  UNL     1       1.255   4.922  81.760  1.00  0.00     0.078 A 
HETATM    2  C9  UNL     1       0.854   4.787  83.184  1.00  0.00     0.087 A 
HETATM    3  C11 UNL     1      -0.219   4.001  83.258  1.00  0.00     0.082 A 
HETATM    4  C16 UNL     1      -0.577   3.580  81.926  1.00  0.00     0.280 A 
HETATM    5  O5  UNL     1      -1.542   2.827  81.596  1.00  0.00    -0.265 OA
HETATM    6  N6  UNL     1       0.345   4.154  80.978  1.00  0.00    -0.225 N 
ENDROOT
BRANCH   1   7
HETATM    7  C7  UNL     1       2.273   5.601  81.263  1.00  0.00     0.049 C 
BRANCH   7   8
HETATM    8  C6  UNL     1       2.319   7.037  81.024  1.00  0.00     0.025 A 
HETATM    9  C5  UNL     1       2.420   7.863  82.114  1.00  0.00     0.110 A 
HETATM   10  N1  UNL     1       2.420   9.195  81.935  1.00  0.00    -0.318 N 
HETATM   11  C18 UNL     1       2.323   9.719  80.681  1.00  0.00     0.225 A 
HETATM   12  N9  UNL     1       2.223   8.926  79.601  1.00  0.00    -0.308 N 
HETATM   13  C17 UNL     1       2.221   7.601  79.782  1.00  0.00     0.113 A 
ATOM     14  H9  UNL     1       2.150   9.325  78.666  1.00  0.00     0.171 HD
HETATM   15  N8  UNL     1       2.063   6.827  78.743  1.00  0.00    -0.385 N 
ATOM     16  H82 UNL     1       2.061   5.816  78.881  1.00  0.00     0.157 HD
ATOM     17  H81 UNL     1       1.990   7.248  77.817  1.00  0.00     0.157 HD
BRANCH  10  18
HETATM   18  C3  UNL     1       2.485  10.155  83.013  1.00  0.00     0.088 C 
HETATM   19  C4  UNL     1       3.554   9.807  84.030  1.00  0.00     0.033 C 
BRANCH  18  20
HETATM   20  C2  UNL     1       1.115  10.182  83.685  1.00  0.00     0.021 C 
HETATM   21  C1  UNL     1       0.694  11.620  83.927  1.00  0.00     0.007 C 
ENDBRANCH  18  20
ENDBRANCH  10  18
BRANCH  11  22
HETATM   22  O6  UNL     1       2.325  11.085  80.442  1.00  0.00    -0.332 OA
ATOM     23  H6  UNL     1       1.613  11.526  79.994  1.00  0.00     0.221 HD
ENDBRANCH  11  22
ENDBRANCH   7   8
ENDBRANCH   1   7
BRANCH   2  24
HETATM   24  C10 UNL     1       1.575   5.387  84.290  1.00  0.00     0.212 C 
HETATM   25  O1  UNL     1       2.585   4.828  84.771  1.00  0.00    -0.644 OA
HETATM   26  O2  UNL     1       1.192   6.603  84.887  1.00  0.00    -0.644 OA
ENDBRANCH   2  24
BRANCH   6  27
HETATM   27  N7  UNL     1       0.333   3.933  79.602  1.00  0.00    -0.335 N 
ATOM     28  H72 UNL     1       0.770   3.145  79.125  1.00  0.00     0.177 HD
ATOM     29  H71 UNL     1      -0.065   4.509  78.860  1.00  0.00     0.177 HD
ENDBRANCH   6  27
BRANCH   3  30
HETATM   30  C12 UNL     1      -0.933   3.623  84.462  1.00  0.00     0.083 A 
HETATM   31  N2  UNL     1      -1.680   4.491  85.192  1.00  0.00    -0.349 N 
HETATM   32  C13 UNL     1      -2.287   4.142  86.337  1.00  0.00     0.182 A 
ATOM     33  H2  UNL     1      -1.785   5.448  84.855  1.00  0.00     0.166 HD
HETATM   34  N3  UNL     1      -2.138   2.876  86.765  1.00  0.00    -0.333 N 
HETATM   35  C14 UNL     1      -1.399   1.959  86.076  1.00  0.00     0.193 A 
ATOM     36  H3  UNL     1      -2.592   2.591  87.633  1.00  0.00     0.168 HD
HETATM   37  C15 UNL     1      -0.776   2.314  84.902  1.00  0.00     0.133 A 
HETATM   38  N5  UNL     1      -1.089   0.673  86.289  1.00  0.00    -0.082 N 
HETATM   39  N4  UNL     1      -0.123   1.240  84.464  1.00  0.00    -0.233 N 
HETATM   40  O3  UNL     1      -0.329   0.282  85.311  1.00  0.00    -0.126 OA
ATOM     41  H4  UNL     1       0.439   1.183  83.614  1.00  0.00     0.197 HD
BRANCH  38  42
HETATM   42  O4  UNL     1      -1.535  -0.064  87.377  1.00  0.00    -0.260 OA
ATOM     43  H4  UNL     1      -2.158  -0.778  87.316  1.00  0.00     0.247 HD
ENDBRANCH  38  42
ENDBRANCH   3  30
TORSDOF 9
ENDMDL
MODEL 4
REMARK VINA RESULT: -7.777840365      1.605      2.539
REMARK  9 active torsions:
REMARK  status: ('A' for Active; 'I' for Inactive)
REMARK    1  A    between atoms: C2_2  and  C3_3 
REMARK    2  A    between atoms: C3_3  and  N1_5 
REMARK    3  A    between atoms: C6_7  and  C7_8 
REMARK    4  A    between atoms: C7_8  and  C8_9 
REMARK    5  A    between atoms: C9_10  and  C10_11 
REMARK    6  A    between atoms: C11_14  and  C12_15 
REMARK    7  A    between atoms: N5_26  and  O4_27 
REMARK    8  A    between atoms: N6_31  and  N7_32 
REMARK    9  A    between atoms: C18_41  and  O6_42 
ROOT
HETATM    1  C8  UNL     1       1.446   5.437  82.244  1.00  0.00     0.078 A 
HETATM    2  C9  UNL     1       0.530   4.494  82.937  1.00  0.00     0.087 A 
HETATM    3  C11 UNL     1       0.131   5.043  84.084  1.00  0.00     0.082 A 
HETATM    4  C16 UNL     1       0.739   6.345  84.209  1.00  0.00     0.280 A 
HETATM    5  O5  UNL     1       0.597   7.166  85.165  1.00  0.00    -0.265 OA
HETATM    6  N6  UNL     1       1.566   6.601  83.057  1.00  0.00    -0.225 N 
ENDROOT
BRANCH   1   7
HETATM    7  C7  UNL     1       2.044   5.279  81.078  1.00  0.00     0.049 C 
BRANCH   7   8
HETATM    8  C6  UNL     1       3.481   5.202  80.848  1.00  0.00     0.025 A 
HETATM    9  C5  UNL     1       4.048   6.140  80.023  1.00  0.00     0.110 A 
HETATM   10  N1  UNL     1       5.362   6.074  79.752  1.00  0.00    -0.318 N 
HETATM   11  C18 UNL     1       6.126   5.084  80.297  1.00  0.00     0.225 A 
HETATM   12  N9  UNL     1       5.589   4.157  81.106  1.00  0.00    -0.308 N 
HETATM   13  C17 UNL     1       4.280   4.224  81.371  1.00  0.00     0.113 A 
ATOM     14  H9  UNL     1       6.165   3.419  81.509  1.00  0.00     0.171 HD
HETATM   15  N8  UNL     1       3.741   3.290  82.108  1.00  0.00    -0.385 N 
ATOM     16  H82 UNL     1       2.743   3.341  82.311  1.00  0.00     0.157 HD
ATOM     17  H81 UNL     1       4.337   2.560  82.499  1.00  0.00     0.157 HD
BRANCH  10  18
HETATM   18  C3  UNL     1       6.053   6.986  78.871  1.00  0.00     0.088 C 
HETATM   19  C4  UNL     1       6.090   8.399  79.419  1.00  0.00     0.033 C 
BRANCH  18  20
HETATM   20  C2  UNL     1       5.323   6.967  77.530  1.00  0.00     0.021 C 
HETATM   21  C1  UNL     1       5.904   5.875  76.650  1.00  0.00     0.007 C 
ENDBRANCH  18  20
ENDBRANCH  10  18
BRANCH  11  22
HETATM   22  O6  UNL     1       7.487   4.975  80.054  1.00  0.00    -0.332 OA
ATOM     23  H6  UNL     1       7.915   4.138  79.917  1.00  0.00     0.221 HD
ENDBRANCH  11  22
ENDBRANCH   7   8
ENDBRANCH   1   7
BRANCH   2  24
HETATM   24  C10 UNL     1       0.120   3.214  82.393  1.00  0.00     0.212 C 
HETATM   25  O1  UNL     1       0.863   2.213  82.490  1.00  0.00    -0.644 OA
HETATM   26  O2  UNL     1      -1.107   3.018  81.730  1.00  0.00    -0.644 OA
ENDBRANCH   2  24
BRANCH   6  27
HETATM   27  N7  UNL     1       2.276   7.776  82.815  1.00  0.00    -0.335 N 
ATOM     28  H72 UNL     1       1.874   8.712  82.768  1.00  0.00     0.177 HD
ATOM     29  H71 UNL     1       3.269   7.901  82.617  1.00  0.00     0.177 HD
ENDBRANCH   6  27
BRANCH   3  30
HETATM   30  C12 UNL     1      -0.758   4.450  85.063  1.00  0.00     0.083 A 
HETATM   31  N2  UNL     1      -1.894   5.051  85.501  1.00  0.00    -0.349 N 
HETATM   32  C13 UNL     1      -2.677   4.518  86.452  1.00  0.00     0.182 A 
ATOM     33  H2  UNL     1      -2.164   5.944  85.090  1.00  0.00     0.166 HD
HETATM   34  N3  UNL     1      -2.306   3.339  86.982  1.00  0.00    -0.333 N 
HETATM   35  C14 UNL     1      -1.175   2.687  86.583  1.00  0.00     0.193 A 
ATOM     36  H3  UNL     1      -2.888   2.917  87.705  1.00  0.00     0.168 HD
HETATM   37  C15 UNL     1      -0.370   3.231  85.608  1.00  0.00     0.133 A 
HETATM   38  N5  UNL     1      -0.589   1.540  86.952  1.00  0.00    -0.082 N 
HETATM   39  N4  UNL     1       0.654   2.401  85.436  1.00  0.00    -0.233 N 
HETATM   40  O3  UNL     1       0.495   1.406  86.249  1.00  0.00    -0.126 OA
ATOM     41  H4  UNL     1       1.426   2.525  84.781  1.00  0.00     0.197 HD
BRANCH  38  42
HETATM   42  O4  UNL     1      -1.100   0.683  87.917  1.00  0.00    -0.260 OA
ATOM     43  H4  UNL     1      -0.934  -0.252  87.939  1.00  0.00     0.247 HD
ENDBRANCH  38  42
ENDBRANCH   3  30
TORSDOF 9
ENDMDL
MODEL 5
REMARK VINA RESULT: -7.763621946      2.756      3.826
REMARK  9 active torsions:
REMARK  status: ('A' for Active; 'I' for Inactive)
REMARK    1  A    between atoms: C2_2  and  C3_3 
REMARK    2  A    between atoms: C3_3  and  N1_5 
REMARK    3  A    between atoms: C6_7  and  C7_8 
REMARK    4  A    between atoms: C7_8  and  C8_9 
REMARK    5  A    between atoms: C9_10  and  C10_11 
REMARK    6  A    between atoms: C11_14  and  C12_15 
REMARK    7  A    between atoms: N5_26  and  O4_27 
REMARK    8  A    between atoms: N6_31  and  N7_32 
REMARK    9  A    between atoms: C18_41  and  O6_42 
ROOT
HETATM    1  C8  UNL     1       1.008   5.029  81.617  1.00  0.00     0.078 A 
HETATM    2  C9  UNL     1       0.636   4.948  83.053  1.00  0.00     0.087 A 
HETATM    3  C11 UNL     1      -0.340   4.052  83.197  1.00  0.00     0.082 A 
HETATM    4  C16 UNL     1      -0.656   3.502  81.902  1.00  0.00     0.280 A 
HETATM    5  O5  UNL     1      -1.531   2.622  81.639  1.00  0.00    -0.265 OA
HETATM    6  N6  UNL     1       0.187   4.109  80.903  1.00  0.00    -0.225 N 
ENDROOT
BRANCH   1   7
HETATM    7  C7  UNL     1       1.938   5.783  81.059  1.00  0.00     0.049 C 
BRANCH   7   8
HETATM    8  C6  UNL     1       1.715   6.987  80.270  1.00  0.00     0.025 A 
HETATM    9  C5  UNL     1       0.529   7.653  80.443  1.00  0.00     0.110 A 
HETATM   10  N1  UNL     1       0.268   8.743  79.700  1.00  0.00    -0.318 N 
HETATM   11  C18 UNL     1       1.178   9.182  78.785  1.00  0.00     0.225 A 
HETATM   12  N9  UNL     1       2.345   8.542  78.601  1.00  0.00    -0.308 N 
HETATM   13  C17 UNL     1       2.599   7.457  79.339  1.00  0.00     0.113 A 
ATOM     14  H9  UNL     1       3.020   8.876  77.914  1.00  0.00     0.171 HD
HETATM   15  N8  UNL     1       3.704   6.796  79.122  1.00  0.00    -0.385 N 
ATOM     16  H82 UNL     1       3.899   5.969  79.686  1.00  0.00     0.157 HD
ATOM     17  H81 UNL     1       4.364   7.147  78.428  1.00  0.00     0.157 HD
BRANCH  10  18
HETATM   18  C3  UNL     1      -0.961   9.497  79.776  1.00  0.00     0.088 C 
HETATM   19  C4  UNL     1      -1.124  10.201  81.109  1.00  0.00     0.033 C 
BRANCH  18  20
HETATM   20  C2  UNL     1      -2.112   8.519  79.559  1.00  0.00     0.021 C 
HETATM   21  C1  UNL     1      -3.050   9.064  78.498  1.00  0.00     0.007 C 
ENDBRANCH  18  20
ENDBRANCH  10  18
BRANCH  11  22
HETATM   22  O6  UNL     1       0.961  10.303  77.999  1.00  0.00    -0.332 OA
ATOM     23  H6  UNL     1       1.624  10.654  77.416  1.00  0.00     0.221 HD
ENDBRANCH  11  22
ENDBRANCH   7   8
ENDBRANCH   1   7
BRANCH   2  24
HETATM   24  C10 UNL     1       1.291   5.702  84.104  1.00  0.00     0.212 C 
HETATM   25  O1  UNL     1       2.468   5.442  84.436  1.00  0.00    -0.644 OA
HETATM   26  O2  UNL     1       0.661   6.745  84.809  1.00  0.00    -0.644 OA
ENDBRANCH   2  24
BRANCH   6  27
HETATM   27  N7  UNL     1       0.190   3.793  79.546  1.00  0.00    -0.335 N 
ATOM     28  H72 UNL     1      -0.053   4.431  78.789  1.00  0.00     0.177 HD
ATOM     29  H71 UNL     1       0.392   2.903  79.091  1.00  0.00     0.177 HD
ENDBRANCH   6  27
BRANCH   3  30
HETATM   30  C12 UNL     1      -0.996   3.680  84.434  1.00  0.00     0.083 A 
HETATM   31  N2  UNL     1      -1.706   4.552  85.196  1.00  0.00    -0.349 N 
HETATM   32  C13 UNL     1      -2.258   4.208  86.370  1.00  0.00     0.182 A 
ATOM     33  H2  UNL     1      -1.824   5.508  84.861  1.00  0.00     0.166 HD
HETATM   34  N3  UNL     1      -2.093   2.943  86.794  1.00  0.00    -0.333 N 
HETATM   35  C14 UNL     1      -1.390   2.022  86.074  1.00  0.00     0.193 A 
ATOM     36  H3  UNL     1      -2.506   2.663  87.684  1.00  0.00     0.168 HD
HETATM   37  C15 UNL     1      -0.822   2.371  84.870  1.00  0.00     0.133 A 
HETATM   38  N5  UNL     1      -1.073   0.736  86.276  1.00  0.00    -0.082 N 
HETATM   39  N4  UNL     1      -0.193   1.295  84.406  1.00  0.00    -0.233 N 
HETATM   40  O3  UNL     1      -0.362   0.340  85.264  1.00  0.00    -0.126 OA
ATOM     41  H4  UNL     1       0.327   1.233  83.530  1.00  0.00     0.197 HD
BRANCH  38  42
HETATM   42  O4  UNL     1      -1.469   0.004  87.387  1.00  0.00    -0.260 OA
ATOM     43  H4  UNL     1      -1.752  -0.903  87.353  1.00  0.00     0.247 HD
ENDBRANCH  38  42
ENDBRANCH   3  30
TORSDOF 9
ENDMDL
