MODEL 1
REMARK VINA RESULT: -9.773119267      0.000      0.000
REMARK  4 active torsions:
REMARK  status: ('A' for Active; 'I' for Inactive)
REMARK    1  A    between atoms: C1_2  and  C2_4 
REMARK    2  A    between atoms: C2_4  and  C3_5 
REMARK    3  A    between atoms: C3_5  and  C4_6 
REMARK    4  A    between atoms: C4_6  and  C5_7 
ROOT
HETATM    1  C5  UNL     1      15.529 118.121 129.889  1.00  0.00    -0.011 A 
HETATM    2  C6  UNL     1      15.988 116.833 129.629  1.00  0.00     0.039 A 
HETATM    3  C7  UNL     1      15.886 115.866 130.603  1.00  0.00     0.057 A 
HETATM    4 CL1  UNL     1      16.476 114.259 130.232  1.00  0.00    -0.083 Cl
HETATM    5  C8  UNL     1      15.350 116.096 131.837  1.00  0.00     0.064 A 
HETATM    6 CL2  UNL     1      15.237 114.826 133.062  1.00  0.00    -0.082 Cl
HETATM    7  C9  UNL     1      14.886 117.381 132.110  1.00  0.00    -0.003 A 
HETATM    8  C10 UNL     1      14.980 118.363 131.146  1.00  0.00     0.052 A 
HETATM    9  N2  UNL     1      14.479 119.649 131.489  1.00  0.00    -0.341 N 
ATOM     10  H2  UNL     1      14.532 120.402 130.801  1.00  0.00     0.167 HD
HETATM   11  C11 UNL     1      13.902 119.918 132.774  1.00  0.00     0.115 A 
HETATM   12  N3  UNL     1      13.429 121.140 133.085  1.00  0.00    -0.308 N 
ATOM     13  H3  UNL     1      13.488 121.883 132.388  1.00  0.00     0.170 HD
HETATM   14  C12 UNL     1      12.880 121.416 134.285  1.00  0.00     0.268 A 
HETATM   15  O2  UNL     1      12.437 122.557 134.574  1.00  0.00    -0.266 OA
HETATM   16  C13 UNL     1      12.794 120.427 135.237  1.00  0.00     0.102 A 
HETATM   17 CL3  UNL     1      12.087 120.726 136.822  1.00  0.00    -0.078 Cl
HETATM   18  C14 UNL     1      13.261 119.170 134.972  1.00  0.00     0.040 A 
HETATM   19  C15 UNL     1      13.821 118.936 133.711  1.00  0.00    -0.008 A 
HETATM   20  C16 UNL     1      14.311 117.584 133.461  1.00  0.00     0.085 A 
ENDROOT
BRANCH   1  21
HETATM   21  C4  UNL     1      15.608 119.160 128.879  1.00  0.00    -0.013 C 
BRANCH  21  22
HETATM   22  C3  UNL     1      16.892 119.647 128.354  1.00  0.00     0.037 C 
BRANCH  22  23
HETATM   23  C2  UNL     1      17.245 119.425 126.935  1.00  0.00     0.103 C 
BRANCH  23  24
HETATM   24  C1  UNL     1      17.365 118.031 126.539  1.00  0.00     0.231 C 
HETATM   25  N1  UNL     1      18.518 117.316 127.044  1.00  0.00    -0.062 NA
HETATM   26  O1  UNL     1      16.576 117.383 125.817  1.00  0.00    -0.277 OA
ENDBRANCH  23  24
ENDBRANCH  22  23
ENDBRANCH  21  22
ENDBRANCH   1  21
TORSDOF 4
ENDMDL
MODEL 2
REMARK VINA RESULT: -9.097471022      1.065      1.175
REMARK  4 active torsions:
REMARK  status: ('A' for Active; 'I' for Inactive)
REMARK    1  A    between atoms: C1_2  and  C2_4 
REMARK    2  A    between atoms: C2_4  and  C3_5 
REMARK    3  A    between atoms: C3_5  and  C4_6 
REMARK    4  A    between atoms: C4_6  and  C5_7 
ROOT
HETATM    1  C5  UNL     1      15.968 117.482 129.181  1.00  0.00    -0.011 A 
HETATM    2  C6  UNL     1      16.321 116.152 128.970  1.00  0.00     0.039 A 
HETATM    3  C7  UNL     1      16.104 115.226 129.966  1.00  0.00     0.057 A 
HETATM    4 CL1  UNL     1      16.561 113.564 129.658  1.00  0.00    -0.083 Cl
HETATM    5  C8  UNL     1      15.552 115.538 131.175  1.00  0.00     0.064 A 
HETATM    6 CL2  UNL     1      15.291 114.319 132.429  1.00  0.00    -0.082 Cl
HETATM    7  C9  UNL     1      15.195 116.866 131.399  1.00  0.00    -0.003 A 
HETATM    8  C10 UNL     1      15.405 117.808 130.412  1.00  0.00     0.052 A 
HETATM    9  N2  UNL     1      15.009 119.142 130.704  1.00  0.00    -0.341 N 
ATOM     10  H2  UNL     1      15.148 119.866 130.000  1.00  0.00     0.167 HD
HETATM   11  C11 UNL     1      14.418 119.497 131.962  1.00  0.00     0.115 A 
HETATM   12  N3  UNL     1      14.045 120.764 132.225  1.00  0.00    -0.308 N 
ATOM     13  H3  UNL     1      14.190 121.478 131.511  1.00  0.00     0.170 HD
HETATM   14  C12 UNL     1      13.486 121.122 133.398  1.00  0.00     0.268 A 
HETATM   15  O2  UNL     1      13.136 122.305 133.642  1.00  0.00    -0.266 OA
HETATM   16  C13 UNL     1      13.284 120.173 134.373  1.00  0.00     0.102 A 
HETATM   17 CL3  UNL     1      12.558 120.578 135.925  1.00  0.00    -0.078 Cl
HETATM   18  C14 UNL     1      13.646 118.873 134.157  1.00  0.00     0.040 A 
HETATM   19  C15 UNL     1      14.222 118.554 132.922  1.00  0.00    -0.008 A 
HETATM   20  C16 UNL     1      14.599 117.157 132.724  1.00  0.00     0.085 A 
ENDROOT
BRANCH   1  21
HETATM   21  C4  UNL     1      16.170 118.480 128.147  1.00  0.00    -0.013 C 
BRANCH  21  22
HETATM   22  C3  UNL     1      17.430 118.589 127.398  1.00  0.00     0.037 C 
BRANCH  22  23
HETATM   23  C2  UNL     1      17.479 118.201 125.971  1.00  0.00     0.103 C 
BRANCH  23  24
HETATM   24  C1  UNL     1      18.025 116.878 125.709  1.00  0.00     0.231 C 
HETATM   25  N1  UNL     1      19.464 116.792 125.577  1.00  0.00    -0.062 NA
HETATM   26  O1  UNL     1      17.386 115.810 125.595  1.00  0.00    -0.277 OA
ENDBRANCH  23  24
ENDBRANCH  22  23
ENDBRANCH  21  22
ENDBRANCH   1  21
TORSDOF 4
ENDMDL
MODEL 3
REMARK VINA RESULT: -8.948032163      1.753      2.352
REMARK  4 active torsions:
REMARK  status: ('A' for Active; 'I' for Inactive)
REMARK    1  A    between atoms: C1_2  and  C2_4 
REMARK    2  A    between atoms: C2_4  and  C3_5 
REMARK    3  A    between atoms: C3_5  and  C4_6 
REMARK    4  A    between atoms: C4_6  and  C5_7 
ROOT
HETATM    1  C5  UNL     1      16.286 115.740 129.330  1.00  0.00    -0.011 A 
HETATM    2  C6  UNL     1      16.567 114.377 129.355  1.00  0.00     0.039 A 
HETATM    3  C7  UNL     1      16.270 113.643 130.481  1.00  0.00     0.057 A 
HETATM    4 CL1  UNL     1      16.639 111.932 130.469  1.00  0.00    -0.083 Cl
HETATM    5  C8  UNL     1      15.704 114.181 131.601  1.00  0.00     0.064 A 
HETATM    6 CL2  UNL     1      15.339 113.205 133.029  1.00  0.00    -0.082 Cl
HETATM    7  C9  UNL     1      15.418 115.545 131.588  1.00  0.00    -0.003 A 
HETATM    8  C10 UNL     1      15.709 116.296 130.468  1.00  0.00     0.052 A 
HETATM    9  N2  UNL     1      15.383 117.679 130.521  1.00  0.00    -0.341 N 
ATOM     10  H2  UNL     1      15.583 118.267 129.711  1.00  0.00     0.167 HD
HETATM   11  C11 UNL     1      14.780 118.270 131.680  1.00  0.00     0.115 A 
HETATM   12  N3  UNL     1      14.472 119.581 131.716  1.00  0.00    -0.308 N 
ATOM     13  H3  UNL     1      14.678 120.157 130.899  1.00  0.00     0.170 HD
HETATM   14  C12 UNL     1      13.903 120.159 132.792  1.00  0.00     0.268 A 
HETATM   15  O2  UNL     1      13.616 121.383 132.824  1.00  0.00    -0.266 OA
HETATM   16  C13 UNL     1      13.620 119.398 133.903  1.00  0.00     0.102 A 
HETATM   17 CL3  UNL     1      12.876 120.094 135.338  1.00  0.00    -0.078 Cl
HETATM   18  C14 UNL     1      13.913 118.063 133.917  1.00  0.00     0.040 A 
HETATM   19  C15 UNL     1      14.503 117.512 132.774  1.00  0.00    -0.008 A 
HETATM   20  C16 UNL     1      14.804 116.084 132.824  1.00  0.00     0.085 A 
ENDROOT
BRANCH   1  21
HETATM   21  C4  UNL     1      16.574 116.539 128.152  1.00  0.00    -0.013 C 
BRANCH  21  22
HETATM   22  C3  UNL     1      17.912 117.083 127.882  1.00  0.00     0.037 C 
BRANCH  22  23
HETATM   23  C2  UNL     1      18.341 118.347 128.520  1.00  0.00     0.103 C 
BRANCH  23  24
HETATM   24  C1  UNL     1      17.480 119.491 128.264  1.00  0.00     0.231 C 
HETATM   25  N1  UNL     1      16.911 120.141 129.426  1.00  0.00    -0.062 NA
HETATM   26  O1  UNL     1      17.185 119.977 127.150  1.00  0.00    -0.277 OA
ENDBRANCH  23  24
ENDBRANCH  22  23
ENDBRANCH  21  22
ENDBRANCH   1  21
TORSDOF 4
ENDMDL
MODEL 4
REMARK VINA RESULT: -8.829290481      1.952      2.298
REMARK  4 active torsions:
REMARK  status: ('A' for Active; 'I' for Inactive)
REMARK    1  A    between atoms: C1_2  and  C2_4 
REMARK    2  A    between atoms: C2_4  and  C3_5 
REMARK    3  A    between atoms: C3_5  and  C4_6 
REMARK    4  A    between atoms: C4_6  and  C5_7 
ROOT
HETATM    1  C5  UNL     1      15.970 116.073 130.433  1.00  0.00    -0.011 A 
HETATM    2  C6  UNL     1      16.527 114.818 130.666  1.00  0.00     0.039 A 
HETATM    3  C7  UNL     1      16.507 114.292 131.938  1.00  0.00     0.057 A 
HETATM    4 CL1  UNL     1      17.219 112.712 132.186  1.00  0.00    -0.083 Cl
HETATM    5  C8  UNL     1      15.963 114.939 133.010  1.00  0.00     0.064 A 
HETATM    6 CL2  UNL     1      15.959 114.229 134.630  1.00  0.00    -0.082 Cl
HETATM    7  C9  UNL     1      15.402 116.195 132.790  1.00  0.00    -0.003 A 
HETATM    8  C10 UNL     1      15.412 116.738 131.521  1.00  0.00     0.052 A 
HETATM    9  N2  UNL     1      14.815 118.019 131.367  1.00  0.00    -0.341 N 
ATOM     10  H2  UNL     1      14.804 118.453 130.443  1.00  0.00     0.167 HD
HETATM   11  C11 UNL     1      14.227 118.717 132.473  1.00  0.00     0.115 A 
HETATM   12  N3  UNL     1      13.661 119.929 132.312  1.00  0.00    -0.308 N 
ATOM     13  H3  UNL     1      13.657 120.351 131.383  1.00  0.00     0.170 HD
HETATM   14  C12 UNL     1      13.101 120.604 133.335  1.00  0.00     0.268 A 
HETATM   15  O2  UNL     1      12.572 121.735 133.184  1.00  0.00    -0.266 OA
HETATM   16  C13 UNL     1      13.099 120.051 134.595  1.00  0.00     0.102 A 
HETATM   17 CL3  UNL     1      12.381 120.883 135.971  1.00  0.00    -0.078 Cl
HETATM   18  C14 UNL     1      13.660 118.824 134.811  1.00  0.00     0.040 A 
HETATM   19  C15 UNL     1      14.229 118.165 133.715  1.00  0.00    -0.008 A 
HETATM   20  C16 UNL     1      14.822 116.858 133.982  1.00  0.00     0.085 A 
ENDROOT
BRANCH   1  21
HETATM   21  C4  UNL     1      15.961 116.649 129.100  1.00  0.00    -0.013 C 
BRANCH  21  22
HETATM   22  C3  UNL     1      17.038 117.526 128.619  1.00  0.00     0.037 C 
BRANCH  22  23
HETATM   23  C2  UNL     1      16.737 118.921 128.229  1.00  0.00     0.103 C 
BRANCH  23  24
HETATM   24  C1  UNL     1      16.193 119.755 129.289  1.00  0.00     0.231 C 
HETATM   25  N1  UNL     1      14.800 120.130 129.161  1.00  0.00    -0.062 NA
HETATM   26  O1  UNL     1      16.796 120.175 130.301  1.00  0.00    -0.277 OA
ENDBRANCH  23  24
ENDBRANCH  22  23
ENDBRANCH  21  22
ENDBRANCH   1  21
TORSDOF 4
ENDMDL
MODEL 5
REMARK VINA RESULT: -8.826925324      3.416      7.095
REMARK  4 active torsions:
REMARK  status: ('A' for Active; 'I' for Inactive)
REMARK    1  A    between atoms: C1_2  and  C2_4 
REMARK    2  A    between atoms: C2_4  and  C3_5 
REMARK    3  A    between atoms: C3_5  and  C4_6 
REMARK    4  A    between atoms: C4_6  and  C5_7 
ROOT
HETATM    1  C5  UNL     1      14.729 118.119 132.604  1.00  0.00    -0.011 A 
HETATM    2  C6  UNL     1      13.849 119.069 133.115  1.00  0.00     0.039 A 
HETATM    3  C7  UNL     1      13.463 120.131 132.327  1.00  0.00     0.057 A 
HETATM    4 CL1  UNL     1      12.355 121.302 133.009  1.00  0.00    -0.083 Cl
HETATM    5  C8  UNL     1      13.901 120.314 131.047  1.00  0.00     0.064 A 
HETATM    6 CL2  UNL     1      13.383 121.692 130.068  1.00  0.00    -0.082 Cl
HETATM    7  C9  UNL     1      14.782 119.370 130.524  1.00  0.00    -0.003 A 
HETATM    8  C10 UNL     1      15.179 118.299 131.299  1.00  0.00     0.052 A 
HETATM    9  N2  UNL     1      16.072 117.369 130.699  1.00  0.00    -0.341 N 
ATOM     10  H2  UNL     1      16.388 116.565 131.241  1.00  0.00     0.167 HD
HETATM   11  C11 UNL     1      16.541 117.532 129.354  1.00  0.00     0.115 A 
HETATM   12  N3  UNL     1      17.384 116.642 128.796  1.00  0.00    -0.308 N 
ATOM     13  H3  UNL     1      17.692 115.842 129.350  1.00  0.00     0.170 HD
HETATM   14  C12 UNL     1      17.837 116.771 127.533  1.00  0.00     0.268 A 
HETATM   15  O2  UNL     1      18.623 115.939 127.013  1.00  0.00    -0.266 OA
HETATM   16  C13 UNL     1      17.434 117.844 126.773  1.00  0.00     0.102 A 
HETATM   17 CL3  UNL     1      17.988 118.067 125.117  1.00  0.00    -0.078 Cl
HETATM   18  C14 UNL     1      16.579 118.776 127.291  1.00  0.00     0.040 A 
HETATM   19  C15 UNL     1      16.139 118.595 128.608  1.00  0.00    -0.008 A 
HETATM   20  C16 UNL     1      15.228 119.609 129.131  1.00  0.00     0.085 A 
ENDROOT
BRANCH   1  21
HETATM   21  C4  UNL     1      15.143 116.980 133.403  1.00  0.00    -0.013 C 
BRANCH  21  22
HETATM   22  C3  UNL     1      14.551 115.645 133.232  1.00  0.00     0.037 C 
BRANCH  22  23
HETATM   23  C2  UNL     1      15.414 114.491 132.897  1.00  0.00     0.103 C 
BRANCH  23  24
HETATM   24  C1  UNL     1      15.223 113.944 131.563  1.00  0.00     0.231 C 
HETATM   25  N1  UNL     1      14.656 112.614 131.488  1.00  0.00    -0.062 NA
HETATM   26  O1  UNL     1      15.488 114.503 130.476  1.00  0.00    -0.277 OA
ENDBRANCH  23  24
ENDBRANCH  22  23
ENDBRANCH  21  22
ENDBRANCH   1  21
TORSDOF 4
ENDMDL
