MODEL 1
REMARK VINA RESULT: -8.556382372      0.000      0.000
REMARK  11 active torsions:
REMARK  status: ('A' for Active; 'I' for Inactive)
REMARK    1  A    between atoms: C6_6  and  N1_7 
REMARK    2  A    between atoms: C9_10  and  C10_11 
REMARK       I    between atoms: C10_11  and  N2_13 
REMARK    3  A    between atoms: N2_13  and  C11_15 
REMARK    4  A    between atoms: C11_15  and  C12_16 
REMARK    5  A    between atoms: C11_15  and  C19_23 
REMARK    6  A    between atoms: C12_16  and  C13_17 
REMARK    7  A    between atoms: C19_23  and  O2_24 
REMARK    8  A    between atoms: C19_23  and  N3_26 
REMARK    9  A    between atoms: N4_31  and  S1_32 
REMARK   10  A    between atoms: S1_32  and  C24_35 
REMARK   11  A    between atoms: C24_35  and  C25_36 
ROOT
HETATM    1  C11 UNL     1      -6.403 -11.780  -1.866  1.00  0.00     0.159 C 
ENDROOT
BRANCH   1   2
HETATM    2  N2  UNL     1      -5.617 -10.920  -0.915  1.00  0.00    -0.349 N 
HETATM    3  C10 UNL     1      -6.236 -10.401   0.234  1.00  0.00     0.222 C 
HETATM    4  O1  UNL     1      -7.445 -10.674   0.446  1.00  0.00    -0.273 OA
ATOM      5  H2  UNL     1      -4.636 -10.715  -1.104  1.00  0.00     0.163 HD
BRANCH   3   6
HETATM    6  C9  UNL     1      -5.488  -9.535   1.201  1.00  0.00     0.081 C 
HETATM    7  C8  UNL     1      -4.019  -9.469   0.826  1.00  0.00     0.044 C 
HETATM    8  C7  UNL     1      -3.394  -8.441   1.738  1.00  0.00     0.273 C 
HETATM    9  N1  UNL     1      -3.898  -7.136   1.342  1.00  0.00     0.096 N 
HETATM   10  C34 UNL     1      -5.285  -7.049   1.672  1.00  0.00     0.273 C 
HETATM   11  C33 UNL     1      -6.135  -8.206   1.282  1.00  0.00     0.044 C 
BRANCH   9  12
HETATM   12  C6  UNL     1      -3.088  -6.078   1.964  1.00  0.00     0.256 C 
HETATM   13  C5  UNL     1      -2.222  -6.742   2.983  1.00  0.00     0.039 C 
HETATM   14  C4  UNL     1      -0.870  -6.135   3.172  1.00  0.00     0.011 C 
HETATM   15  C2  UNL     1      -0.846  -4.656   2.874  1.00  0.00    -0.045 C 
HETATM   16  C1  UNL     1      -1.668  -3.861   3.872  1.00  0.00     0.015 C 
HETATM   17  C3  UNL     1       0.592  -4.176   3.005  1.00  0.00     0.015 C 
HETATM   18  C36 UNL     1      -1.314  -4.387   1.485  1.00  0.00     0.048 C 
HETATM   19  C35 UNL     1      -2.256  -5.417   0.921  1.00  0.00     0.204 C 
HETATM   20  F1  UNL     1      -1.596  -6.389   0.192  1.00  0.00    -0.247 F 
ENDBRANCH   9  12
ENDBRANCH   3   6
ENDBRANCH   1   2
BRANCH   1  21
HETATM   21  C12 UNL     1      -6.823 -12.985  -1.187  1.00  0.00     0.038 C 
BRANCH  21  22
HETATM   22  C13 UNL     1      -6.352 -14.322  -1.606  1.00  0.00    -0.012 C 
HETATM   23  C14 UNL     1      -5.543 -14.882  -0.406  1.00  0.00     0.005 C 
HETATM   24  C15 UNL     1      -4.840 -16.123  -0.947  1.00  0.00     0.000 C 
HETATM   25  C16 UNL     1      -3.584 -15.590  -1.637  1.00  0.00     0.000 C 
HETATM   26  C17 UNL     1      -3.928 -14.262  -2.300  1.00  0.00     0.000 C 
HETATM   27  C18 UNL     1      -5.351 -14.219  -2.749  1.00  0.00     0.005 C 
ENDBRANCH  21  22
ENDBRANCH   1  21
BRANCH   1  28
HETATM   28  C19 UNL     1      -7.203 -10.841  -2.592  1.00  0.00     0.137 C 
BRANCH  28  29
HETATM   29  O2  UNL     1      -8.509 -11.171  -2.476  1.00  0.00    -0.348 OA
ATOM     30  H2  UNL     1      -8.850 -10.842  -1.653  1.00  0.00     0.219 HD
ENDBRANCH  28  29
BRANCH  28  31
HETATM   31  N3  UNL     1      -7.064  -9.709  -3.376  1.00  0.00    -0.362 N 
HETATM   32  C20 UNL     1      -6.815  -9.677  -4.769  1.00  0.00     0.125 C 
HETATM   33  C21 UNL     1      -7.589  -8.637  -5.475  1.00  0.00     0.027 C 
HETATM   34  C22 UNL     1      -8.517  -7.809  -4.689  1.00  0.00     0.022 C 
HETATM   35  C23 UNL     1      -8.400  -6.301  -4.904  1.00  0.00     0.114 C 
HETATM   36  C31 UNL     1      -8.044  -7.429  -3.317  1.00  0.00     0.097 C 
HETATM   37  N4  UNL     1      -7.284  -6.373  -3.988  1.00  0.00    -0.203 NA
HETATM   38  C32 UNL     1      -7.117  -8.400  -2.705  1.00  0.00     0.146 C 
BRANCH  37  39
HETATM   39  S1  UNL     1      -6.998  -5.065  -2.956  1.00  0.00     0.216 S 
HETATM   40  O3  UNL     1      -6.378  -3.870  -3.669  1.00  0.00    -0.211 OA
HETATM   41  O4  UNL     1      -8.314  -4.582  -2.419  1.00  0.00    -0.211 OA
BRANCH  39  42
HETATM   42  C24 UNL     1      -5.935  -5.453  -1.594  1.00  0.00     0.196 C 
BRANCH  42  43
HETATM   43  C25 UNL     1      -4.543  -5.651  -2.070  1.00  0.00    -0.043 A 
HETATM   44  C26 UNL     1      -4.079  -6.952  -2.268  1.00  0.00     0.008 A 
HETATM   45  C27 UNL     1      -2.813  -7.246  -2.702  1.00  0.00     0.001 A 
HETATM   46  C28 UNL     1      -1.957  -6.194  -2.955  1.00  0.00     0.000 A 
HETATM   47  C29 UNL     1      -2.398  -4.898  -2.764  1.00  0.00     0.001 A 
HETATM   48  C30 UNL     1      -3.673  -4.630  -2.327  1.00  0.00     0.008 A 
ENDBRANCH  42  43
ENDBRANCH  39  42
ENDBRANCH  37  39
ENDBRANCH  28  31
ENDBRANCH   1  28
TORSDOF 11
ENDMDL
MODEL 2
REMARK VINA RESULT: -8.474213775      3.796      5.798
REMARK  11 active torsions:
REMARK  status: ('A' for Active; 'I' for Inactive)
REMARK    1  A    between atoms: C6_6  and  N1_7 
REMARK    2  A    between atoms: C9_10  and  C10_11 
REMARK       I    between atoms: C10_11  and  N2_13 
REMARK    3  A    between atoms: N2_13  and  C11_15 
REMARK    4  A    between atoms: C11_15  and  C12_16 
REMARK    5  A    between atoms: C11_15  and  C19_23 
REMARK    6  A    between atoms: C12_16  and  C13_17 
REMARK    7  A    between atoms: C19_23  and  O2_24 
REMARK    8  A    between atoms: C19_23  and  N3_26 
REMARK    9  A    between atoms: N4_31  and  S1_32 
REMARK   10  A    between atoms: S1_32  and  C24_35 
REMARK   11  A    between atoms: C24_35  and  C25_36 
ROOT
HETATM    1  C11 UNL     1      -6.759 -11.332  -1.145  1.00  0.00     0.159 C 
ENDROOT
BRANCH   1   2
HETATM    2  N2  UNL     1      -5.630 -10.478  -0.636  1.00  0.00    -0.349 N 
HETATM    3  C10 UNL     1      -4.685  -9.958  -1.535  1.00  0.00     0.222 C 
HETATM    4  O1  UNL     1      -4.809 -10.215  -2.760  1.00  0.00    -0.273 OA
ATOM      5  H2  UNL     1      -5.551 -10.278   0.361  1.00  0.00     0.163 HD
BRANCH   3   6
HETATM    6  C9  UNL     1      -3.544  -9.109  -1.065  1.00  0.00     0.081 C 
HETATM    7  C8  UNL     1      -3.823  -7.644  -1.343  1.00  0.00     0.044 C 
HETATM    8  C7  UNL     1      -2.714  -6.866  -0.678  1.00  0.00     0.273 C 
HETATM    9  N1  UNL     1      -2.902  -6.974   0.760  1.00  0.00     0.096 N 
HETATM   10  C34 UNL     1      -2.635  -8.316   1.168  1.00  0.00     0.273 C 
HETATM   11  C33 UNL     1      -3.266  -9.394   0.361  1.00  0.00     0.044 C 
BRANCH   9  12
HETATM   12  C6  UNL     1      -2.063  -5.982   1.449  1.00  0.00     0.256 C 
HETATM   13  C5  UNL     1      -2.538  -4.636   1.010  1.00  0.00     0.039 C 
HETATM   14  C4  UNL     1      -2.449  -3.555   2.037  1.00  0.00     0.011 C 
HETATM   15  C2  UNL     1      -1.330  -3.777   3.024  1.00  0.00    -0.045 C 
HETATM   16  C1  UNL     1       0.035  -3.674   2.368  1.00  0.00     0.015 C 
HETATM   17  C3  UNL     1      -1.402  -2.674   4.069  1.00  0.00     0.015 C 
HETATM   18  C36 UNL     1      -1.479  -5.092   3.708  1.00  0.00     0.048 C 
HETATM   19  C35 UNL     1      -2.223  -6.138   2.921  1.00  0.00     0.204 C 
HETATM   20  F1  UNL     1      -3.571  -6.163   3.225  1.00  0.00    -0.247 F 
ENDBRANCH   9  12
ENDBRANCH   3   6
ENDBRANCH   1   2
BRANCH   1  21
HETATM   21  C12 UNL     1      -6.743 -12.605  -0.459  1.00  0.00     0.038 C 
BRANCH  21  22
HETATM   22  C13 UNL     1      -6.484 -13.873  -1.173  1.00  0.00    -0.012 C 
HETATM   23  C14 UNL     1      -5.504 -14.673  -0.274  1.00  0.00     0.005 C 
HETATM   24  C15 UNL     1      -5.035 -15.838  -1.139  1.00  0.00     0.000 C 
HETATM   25  C16 UNL     1      -3.899 -15.263  -1.986  1.00  0.00     0.000 C 
HETATM   26  C17 UNL     1      -4.251 -13.824  -2.345  1.00  0.00     0.000 C 
HETATM   27  C18 UNL     1      -5.725 -13.628  -2.470  1.00  0.00     0.005 C 
ENDBRANCH  21  22
ENDBRANCH   1  21
BRANCH   1  28
HETATM   28  C19 UNL     1      -7.844 -10.411  -1.289  1.00  0.00     0.137 C 
BRANCH  28  29
HETATM   29  O2  UNL     1      -7.866  -9.928  -2.551  1.00  0.00    -0.348 OA
ATOM     30  H2  UNL     1      -7.295 -10.450  -3.104  1.00  0.00     0.219 HD
ENDBRANCH  28  29
BRANCH  28  31
HETATM   31  N3  UNL     1      -8.871  -9.854  -0.546  1.00  0.00    -0.362 N 
HETATM   32  C20 UNL     1      -8.866  -9.616   0.849  1.00  0.00     0.125 C 
HETATM   33  C21 UNL     1      -9.478  -8.325   1.221  1.00  0.00     0.027 C 
HETATM   34  C22 UNL     1      -9.972  -7.454   0.143  1.00  0.00     0.022 C 
HETATM   35  C23 UNL     1     -11.391  -6.917   0.327  1.00  0.00     0.114 C 
HETATM   36  C31 UNL     1     -10.623  -8.158  -1.011  1.00  0.00     0.097 C 
HETATM   37  N4  UNL     1     -11.820  -8.206  -0.169  1.00  0.00    -0.203 NA
HETATM   38  C32 UNL     1     -10.123  -9.525  -1.247  1.00  0.00     0.146 C 
BRANCH  37  39
HETATM   39  S1  UNL     1     -13.228  -8.288  -1.099  1.00  0.00     0.216 S 
HETATM   40  O3  UNL     1     -13.952  -6.951  -1.202  1.00  0.00    -0.211 OA
HETATM   41  O4  UNL     1     -12.852  -8.657  -2.506  1.00  0.00    -0.211 OA
BRANCH  39  42
HETATM   42  C24 UNL     1     -14.410  -9.462  -0.500  1.00  0.00     0.196 C 
BRANCH  42  43
HETATM   43  C25 UNL     1     -14.150 -10.799  -1.090  1.00  0.00    -0.043 A 
HETATM   44  C26 UNL     1     -15.076 -11.329  -1.989  1.00  0.00     0.008 A 
HETATM   45  C27 UNL     1     -14.934 -12.552  -2.589  1.00  0.00     0.001 A 
HETATM   46  C28 UNL     1     -13.813 -13.294  -2.283  1.00  0.00     0.000 A 
HETATM   47  C29 UNL     1     -12.883 -12.787  -1.394  1.00  0.00     0.001 A 
HETATM   48  C30 UNL     1     -13.049 -11.556  -0.806  1.00  0.00     0.008 A 
ENDBRANCH  42  43
ENDBRANCH  39  42
ENDBRANCH  37  39
ENDBRANCH  28  31
ENDBRANCH   1  28
TORSDOF 11
ENDMDL
MODEL 3
REMARK VINA RESULT: -8.473654219      3.767      5.890
REMARK  11 active torsions:
REMARK  status: ('A' for Active; 'I' for Inactive)
REMARK    1  A    between atoms: C6_6  and  N1_7 
REMARK    2  A    between atoms: C9_10  and  C10_11 
REMARK       I    between atoms: C10_11  and  N2_13 
REMARK    3  A    between atoms: N2_13  and  C11_15 
REMARK    4  A    between atoms: C11_15  and  C12_16 
REMARK    5  A    between atoms: C11_15  and  C19_23 
REMARK    6  A    between atoms: C12_16  and  C13_17 
REMARK    7  A    between atoms: C19_23  and  O2_24 
REMARK    8  A    between atoms: C19_23  and  N3_26 
REMARK    9  A    between atoms: N4_31  and  S1_32 
REMARK   10  A    between atoms: S1_32  and  C24_35 
REMARK   11  A    between atoms: C24_35  and  C25_36 
ROOT
HETATM    1  C11 UNL     1      -6.556 -10.734  -2.893  1.00  0.00     0.159 C 
ENDROOT
BRANCH   1   2
HETATM    2  N2  UNL     1      -5.438 -10.051  -2.155  1.00  0.00    -0.349 N 
HETATM    3  C10 UNL     1      -4.626  -9.118  -2.820  1.00  0.00     0.222 C 
HETATM    4  O1  UNL     1      -4.859  -8.868  -4.030  1.00  0.00    -0.273 OA
ATOM      5  H2  UNL     1      -5.270 -10.266  -1.171  1.00  0.00     0.163 HD
BRANCH   3   6
HETATM    6  C9  UNL     1      -3.500  -8.423  -2.120  1.00  0.00     0.081 C 
HETATM    7  C8  UNL     1      -3.631  -6.919  -2.269  1.00  0.00     0.044 C 
HETATM    8  C7  UNL     1      -2.568  -6.310  -1.387  1.00  0.00     0.273 C 
HETATM    9  N1  UNL     1      -2.955  -6.543  -0.005  1.00  0.00     0.096 N 
HETATM   10  C34 UNL     1      -2.844  -7.937   0.284  1.00  0.00     0.273 C 
HETATM   11  C33 UNL     1      -3.437  -8.871  -0.710  1.00  0.00     0.044 C 
BRANCH   9  12
HETATM   12  C6  UNL     1      -2.146  -5.701   0.888  1.00  0.00     0.256 C 
HETATM   13  C5  UNL     1      -2.540  -4.286   0.621  1.00  0.00     0.039 C 
HETATM   14  C4  UNL     1      -2.503  -3.372   1.803  1.00  0.00     0.011 C 
HETATM   15  C2  UNL     1      -1.478  -3.787   2.829  1.00  0.00    -0.045 C 
HETATM   16  C1  UNL     1      -0.060  -3.648   2.306  1.00  0.00     0.015 C 
HETATM   17  C3  UNL     1      -1.602  -2.847   4.020  1.00  0.00     0.015 C 
HETATM   18  C36 UNL     1      -1.725  -5.180   3.295  1.00  0.00     0.048 C 
HETATM   19  C35 UNL     1      -2.433  -6.065   2.304  1.00  0.00     0.204 C 
HETATM   20  F1  UNL     1      -3.802  -6.076   2.493  1.00  0.00    -0.247 F 
ENDBRANCH   9  12
ENDBRANCH   3   6
ENDBRANCH   1   2
BRANCH   1  21
HETATM   21  C12 UNL     1      -6.385 -12.167  -2.804  1.00  0.00     0.038 C 
BRANCH  21  22
HETATM   22  C13 UNL     1      -5.311 -12.774  -1.990  1.00  0.00    -0.012 C 
HETATM   23  C14 UNL     1      -4.912 -14.083  -2.723  1.00  0.00     0.005 C 
HETATM   24  C15 UNL     1      -4.013 -14.829  -1.742  1.00  0.00     0.000 C 
HETATM   25  C16 UNL     1      -4.977 -15.562  -0.810  1.00  0.00     0.000 C 
HETATM   26  C17 UNL     1      -6.192 -14.671  -0.580  1.00  0.00     0.000 C 
HETATM   27  C18 UNL     1      -5.836 -13.222  -0.633  1.00  0.00     0.005 C 
ENDBRANCH  21  22
ENDBRANCH   1  21
BRANCH   1  28
HETATM   28  C19 UNL     1      -7.709  -9.953  -2.564  1.00  0.00     0.137 C 
BRANCH  28  29
HETATM   29  O2  UNL     1      -7.923  -9.029  -3.527  1.00  0.00    -0.348 OA
ATOM     30  H2  UNL     1      -8.072  -8.179  -3.128  1.00  0.00     0.219 HD
ENDBRANCH  28  29
BRANCH  28  31
HETATM   31  N3  UNL     1      -8.667  -9.839  -1.572  1.00  0.00    -0.362 N 
HETATM   32  C20 UNL     1      -8.544 -10.272  -0.230  1.00  0.00     0.125 C 
HETATM   33  C21 UNL     1      -9.118  -9.322   0.744  1.00  0.00     0.027 C 
HETATM   34  C22 UNL     1      -9.698  -8.070   0.233  1.00  0.00     0.022 C 
HETATM   35  C23 UNL     1     -11.094  -7.730   0.753  1.00  0.00     0.114 C 
HETATM   36  C31 UNL     1     -10.447  -8.184  -1.062  1.00  0.00     0.097 C 
HETATM   37  N4  UNL     1     -11.568  -8.659  -0.250  1.00  0.00    -0.203 NA
HETATM   38  C32 UNL     1      -9.973  -9.269  -1.942  1.00  0.00     0.146 C 
BRANCH  37  39
HETATM   39  S1  UNL     1     -13.050  -8.352  -1.001  1.00  0.00     0.216 S 
HETATM   40  O3  UNL     1     -13.567  -6.943  -0.744  1.00  0.00    -0.211 OA
HETATM   41  O4  UNL     1     -12.863  -8.454  -2.488  1.00  0.00    -0.211 OA
BRANCH  39  42
HETATM   42  C24 UNL     1     -14.339  -9.464  -0.512  1.00  0.00     0.196 C 
BRANCH  42  43
HETATM   43  C25 UNL     1     -14.113 -10.805  -1.107  1.00  0.00    -0.043 A 
HETATM   44  C26 UNL     1     -15.083 -11.335  -1.958  1.00  0.00     0.008 A 
HETATM   45  C27 UNL     1     -14.974 -12.563  -2.557  1.00  0.00     0.001 A 
HETATM   46  C28 UNL     1     -13.843 -13.308  -2.301  1.00  0.00     0.000 A 
HETATM   47  C29 UNL     1     -12.870 -12.800  -1.460  1.00  0.00     0.001 A 
HETATM   48  C30 UNL     1     -13.003 -11.565  -0.871  1.00  0.00     0.008 A 
ENDBRANCH  42  43
ENDBRANCH  39  42
ENDBRANCH  37  39
ENDBRANCH  28  31
ENDBRANCH   1  28
TORSDOF 11
ENDMDL
MODEL 4
REMARK VINA RESULT: -8.439964807      1.798      2.372
REMARK  11 active torsions:
REMARK  status: ('A' for Active; 'I' for Inactive)
REMARK    1  A    between atoms: C6_6  and  N1_7 
REMARK    2  A    between atoms: C9_10  and  C10_11 
REMARK       I    between atoms: C10_11  and  N2_13 
REMARK    3  A    between atoms: N2_13  and  C11_15 
REMARK    4  A    between atoms: C11_15  and  C12_16 
REMARK    5  A    between atoms: C11_15  and  C19_23 
REMARK    6  A    between atoms: C12_16  and  C13_17 
REMARK    7  A    between atoms: C19_23  and  O2_24 
REMARK    8  A    between atoms: C19_23  and  N3_26 
REMARK    9  A    between atoms: N4_31  and  S1_32 
REMARK   10  A    between atoms: S1_32  and  C24_35 
REMARK   11  A    between atoms: C24_35  and  C25_36 
ROOT
HETATM    1  C11 UNL     1      -7.038 -12.146  -0.820  1.00  0.00     0.159 C 
ENDROOT
BRANCH   1   2
HETATM    2  N2  UNL     1      -6.444 -11.198   0.184  1.00  0.00    -0.349 N 
HETATM    3  C10 UNL     1      -5.227 -10.555  -0.094  1.00  0.00     0.222 C 
HETATM    4  O1  UNL     1      -4.658 -10.786  -1.192  1.00  0.00    -0.273 OA
ATOM      5  H2  UNL     1      -6.924 -11.023   1.067  1.00  0.00     0.163 HD
BRANCH   3   6
HETATM    6  C9  UNL     1      -4.600  -9.610   0.884  1.00  0.00     0.081 C 
HETATM    7  C8  UNL     1      -3.260  -9.122   0.365  1.00  0.00     0.044 C 
HETATM    8  C7  UNL     1      -2.800  -8.049   1.322  1.00  0.00     0.273 C 
HETATM    9  N1  UNL     1      -3.666  -6.896   1.140  1.00  0.00     0.096 N 
HETATM   10  C34 UNL     1      -4.973  -7.211   1.624  1.00  0.00     0.273 C 
HETATM   11  C33 UNL     1      -5.546  -8.513   1.192  1.00  0.00     0.044 C 
BRANCH   9  12
HETATM   12  C6  UNL     1      -3.075  -5.719   1.794  1.00  0.00     0.256 C 
HETATM   13  C5  UNL     1      -1.801  -6.173   2.427  1.00  0.00     0.039 C 
HETATM   14  C4  UNL     1      -0.699  -5.164   2.452  1.00  0.00     0.011 C 
HETATM   15  C2  UNL     1      -1.208  -3.745   2.495  1.00  0.00    -0.045 C 
HETATM   16  C1  UNL     1      -1.921  -3.434   3.799  1.00  0.00     0.015 C 
HETATM   17  C3  UNL     1      -0.006  -2.815   2.417  1.00  0.00     0.015 C 
HETATM   18  C36 UNL     1      -2.102  -3.465   1.336  1.00  0.00     0.048 C 
HETATM   19  C35 UNL     1      -2.805  -4.670   0.771  1.00  0.00     0.204 C 
HETATM   20  F1  UNL     1      -2.113  -5.238  -0.281  1.00  0.00    -0.247 F 
ENDBRANCH   9  12
ENDBRANCH   3   6
ENDBRANCH   1   2
BRANCH   1  21
HETATM   21  C12 UNL     1      -6.833 -13.506  -0.375  1.00  0.00     0.038 C 
BRANCH  21  22
HETATM   22  C13 UNL     1      -6.321 -14.555  -1.282  1.00  0.00    -0.012 C 
HETATM   23  C14 UNL     1      -5.322 -15.394  -0.441  1.00  0.00     0.005 C 
HETATM   24  C15 UNL     1      -4.604 -16.284  -1.450  1.00  0.00     0.000 C 
HETATM   25  C16 UNL     1      -3.493 -15.406  -2.024  1.00  0.00     0.000 C 
HETATM   26  C17 UNL     1      -4.019 -13.981  -2.140  1.00  0.00     0.000 C 
HETATM   27  C18 UNL     1      -5.488 -13.952  -2.405  1.00  0.00     0.005 C 
ENDBRANCH  21  22
ENDBRANCH   1  21
BRANCH   1  28
HETATM   28  C19 UNL     1      -8.261 -11.511  -1.206  1.00  0.00     0.137 C 
BRANCH  28  29
HETATM   29  O2  UNL     1      -9.026 -12.380  -1.903  1.00  0.00    -0.348 OA
ATOM     30  H2  UNL     1      -9.912 -12.042  -1.974  1.00  0.00     0.219 HD
ENDBRANCH  28  29
BRANCH  28  31
HETATM   31  N3  UNL     1      -8.904 -10.290  -1.097  1.00  0.00    -0.362 N 
HETATM   32  C20 UNL     1     -10.259 -10.082  -0.744  1.00  0.00     0.125 C 
HETATM   33  C21 UNL     1     -10.455  -8.937   0.166  1.00  0.00     0.027 C 
HETATM   34  C22 UNL     1      -9.266  -8.193   0.612  1.00  0.00     0.022 C 
HETATM   35  C23 UNL     1      -9.348  -6.674   0.474  1.00  0.00     0.114 C 
HETATM   36  C31 UNL     1      -8.192  -8.010  -0.419  1.00  0.00     0.097 C 
HETATM   37  N4  UNL     1      -9.004  -6.897  -0.913  1.00  0.00    -0.203 NA
HETATM   38  C32 UNL     1      -8.138  -9.079  -1.434  1.00  0.00     0.146 C 
BRANCH  37  39
HETATM   39  S1  UNL     1      -8.058  -5.745  -1.708  1.00  0.00     0.216 S 
HETATM   40  O3  UNL     1      -8.764  -4.406  -1.873  1.00  0.00    -0.211 OA
HETATM   41  O4  UNL     1      -6.842  -5.464  -0.872  1.00  0.00    -0.211 OA
BRANCH  39  42
HETATM   42  C24 UNL     1      -7.534  -6.246  -3.324  1.00  0.00     0.196 C 
BRANCH  42  43
HETATM   43  C25 UNL     1      -6.170  -6.830  -3.263  1.00  0.00    -0.043 A 
HETATM   44  C26 UNL     1      -5.914  -8.013  -3.957  1.00  0.00     0.008 A 
HETATM   45  C27 UNL     1      -4.694  -8.636  -3.966  1.00  0.00     0.001 A 
HETATM   46  C28 UNL     1      -3.669  -8.057  -3.248  1.00  0.00     0.000 A 
HETATM   47  C29 UNL     1      -3.903  -6.885  -2.553  1.00  0.00     0.001 A 
HETATM   48  C30 UNL     1      -5.137  -6.279  -2.560  1.00  0.00     0.008 A 
ENDBRANCH  42  43
ENDBRANCH  39  42
ENDBRANCH  37  39
ENDBRANCH  28  31
ENDBRANCH   1  28
TORSDOF 11
ENDMDL
MODEL 5
REMARK VINA RESULT: -8.387430270      2.797      4.122
REMARK  11 active torsions:
REMARK  status: ('A' for Active; 'I' for Inactive)
REMARK    1  A    between atoms: C6_6  and  N1_7 
REMARK    2  A    between atoms: C9_10  and  C10_11 
REMARK       I    between atoms: C10_11  and  N2_13 
REMARK    3  A    between atoms: N2_13  and  C11_15 
REMARK    4  A    between atoms: C11_15  and  C12_16 
REMARK    5  A    between atoms: C11_15  and  C19_23 
REMARK    6  A    between atoms: C12_16  and  C13_17 
REMARK    7  A    between atoms: C19_23  and  O2_24 
REMARK    8  A    between atoms: C19_23  and  N3_26 
REMARK    9  A    between atoms: N4_31  and  S1_32 
REMARK   10  A    between atoms: S1_32  and  C24_35 
REMARK   11  A    between atoms: C24_35  and  C25_36 
ROOT
HETATM    1  C11 UNL     1      -6.904 -11.481  -0.931  1.00  0.00     0.159 C 
ENDROOT
BRANCH   1   2
HETATM    2  N2  UNL     1      -5.704 -10.715  -0.445  1.00  0.00    -0.349 N 
HETATM    3  C10 UNL     1      -4.872 -10.059  -1.366  1.00  0.00     0.222 C 
HETATM    4  O1  UNL     1      -5.154 -10.123  -2.590  1.00  0.00    -0.273 OA
ATOM      5  H2  UNL     1      -5.496 -10.672   0.553  1.00  0.00     0.163 HD
BRANCH   3   6
HETATM    6  C9  UNL     1      -3.665  -9.292  -0.921  1.00  0.00     0.081 C 
HETATM    7  C8  UNL     1      -3.800  -7.828  -1.294  1.00  0.00     0.044 C 
HETATM    8  C7  UNL     1      -2.635  -7.116  -0.650  1.00  0.00     0.273 C 
HETATM    9  N1  UNL     1      -2.859  -7.116   0.787  1.00  0.00     0.096 N 
HETATM   10  C34 UNL     1      -2.727  -8.449   1.282  1.00  0.00     0.273 C 
HETATM   11  C33 UNL     1      -3.441  -9.513   0.527  1.00  0.00     0.044 C 
BRANCH   9  12
HETATM   12  C6  UNL     1      -1.944  -6.165   1.435  1.00  0.00     0.256 C 
HETATM   13  C5  UNL     1      -2.005  -4.900   0.643  1.00  0.00     0.039 C 
HETATM   14  C4  UNL     1      -1.845  -3.639   1.429  1.00  0.00     0.011 C 
HETATM   15  C2  UNL     1      -0.999  -3.825   2.664  1.00  0.00    -0.045 C 
HETATM   16  C1  UNL     1       0.445  -4.145   2.322  1.00  0.00     0.015 C 
HETATM   17  C3  UNL     1      -0.990  -2.509   3.428  1.00  0.00     0.015 C 
HETATM   18  C36 UNL     1      -1.569  -4.883   3.545  1.00  0.00     0.048 C 
HETATM   19  C35 UNL     1      -2.390  -5.927   2.836  1.00  0.00     0.204 C 
HETATM   20  F1  UNL     1      -3.738  -5.621   2.830  1.00  0.00    -0.247 F 
ENDBRANCH   9  12
ENDBRANCH   3   6
ENDBRANCH   1   2
BRANCH   1  21
HETATM   21  C12 UNL     1      -6.872 -12.819  -0.384  1.00  0.00     0.038 C 
BRANCH  21  22
HETATM   22  C13 UNL     1      -6.519 -13.992  -1.211  1.00  0.00    -0.012 C 
HETATM   23  C14 UNL     1      -5.531 -14.831  -0.357  1.00  0.00     0.005 C 
HETATM   24  C15 UNL     1      -4.967 -15.875  -1.316  1.00  0.00     0.000 C 
HETATM   25  C16 UNL     1      -3.834 -15.159  -2.051  1.00  0.00     0.000 C 
HETATM   26  C17 UNL     1      -4.249 -13.711  -2.276  1.00  0.00     0.000 C 
HETATM   27  C18 UNL     1      -5.727 -13.576  -2.444  1.00  0.00     0.005 C 
ENDBRANCH  21  22
ENDBRANCH   1  21
BRANCH   1  28
HETATM   28  C19 UNL     1      -7.964 -10.522  -0.877  1.00  0.00     0.137 C 
BRANCH  28  29
HETATM   29  O2  UNL     1      -9.147 -11.138  -1.099  1.00  0.00    -0.348 OA
ATOM     30  H2  UNL     1      -9.308 -11.778  -0.414  1.00  0.00     0.219 HD
ENDBRANCH  28  29
BRANCH  28  31
HETATM   31  N3  UNL     1      -8.162  -9.167  -0.676  1.00  0.00    -0.362 N 
HETATM   32  C20 UNL     1      -8.332  -8.184  -1.680  1.00  0.00     0.125 C 
HETATM   33  C21 UNL     1      -9.369  -7.186  -1.350  1.00  0.00     0.027 C 
HETATM   34  C22 UNL     1     -10.101  -7.339  -0.083  1.00  0.00     0.022 C 
HETATM   35  C23 UNL     1     -10.190  -6.085   0.784  1.00  0.00     0.114 C 
HETATM   36  C31 UNL     1      -9.288  -7.821   1.081  1.00  0.00     0.097 C 
HETATM   37  N4  UNL     1      -8.855  -6.430   1.218  1.00  0.00    -0.203 NA
HETATM   38  C32 UNL     1      -8.139  -8.668   0.709  1.00  0.00     0.146 C 
BRANCH  37  39
HETATM   39  S1  UNL     1      -8.402  -6.075   2.807  1.00  0.00     0.216 S 
HETATM   40  O3  UNL     1      -9.197  -6.862   3.841  1.00  0.00    -0.211 OA
HETATM   41  O4  UNL     1      -6.969  -6.481   2.999  1.00  0.00    -0.211 OA
BRANCH  39  42
HETATM   42  C24 UNL     1      -8.571  -4.364   3.230  1.00  0.00     0.196 C 
BRANCH  42  43
HETATM   43  C25 UNL     1      -7.234  -3.722   3.315  1.00  0.00    -0.043 A 
HETATM   44  C26 UNL     1      -6.622  -3.287   2.139  1.00  0.00     0.008 A 
HETATM   45  C27 UNL     1      -5.391  -2.685   2.105  1.00  0.00     0.001 A 
HETATM   46  C28 UNL     1      -4.729  -2.503   3.301  1.00  0.00     0.000 A 
HETATM   47  C29 UNL     1      -5.319  -2.929   4.477  1.00  0.00     0.001 A 
HETATM   48  C30 UNL     1      -6.555  -3.530   4.484  1.00  0.00     0.008 A 
ENDBRANCH  42  43
ENDBRANCH  39  42
ENDBRANCH  37  39
ENDBRANCH  28  31
ENDBRANCH   1  28
TORSDOF 11
ENDMDL
