MODEL 1
REMARK VINA RESULT: -7.064350707      0.000      0.000
REMARK  10 active torsions:
REMARK  status: ('A' for Active; 'I' for Inactive)
REMARK    1  A    between atoms: N1_1  and  C1_5 
REMARK    2  A    between atoms: C1_5  and  C2_6 
REMARK    3  A    between atoms: C5_9  and  N2_10 
REMARK    4  A    between atoms: C6_14  and  O1_15 
REMARK    5  A    between atoms: O1_15  and  C7_16 
REMARK    6  A    between atoms: C8_17  and  N3_18 
REMARK    7  A    between atoms: C10_23  and  N4_24 
REMARK    8  A    between atoms: C11_28  and  O2_29 
REMARK    9  A    between atoms: C12_31  and  O3_32 
REMARK   10  A    between atoms: O3_32  and  C13_33 
ROOT
HETATM    1  C7  UNL     1       6.979   4.645  91.934  1.00  0.00     0.186 C 
HETATM    2  C8  UNL     1       7.224   3.967  93.266  1.00  0.00     0.217 C 
HETATM    3  C9  UNL     1       5.945   3.393  93.840  1.00  0.00     0.071 C 
HETATM    4  C10 UNL     1       5.396   2.346  92.923  1.00  0.00     0.216 C 
HETATM    5  C11 UNL     1       5.423   2.828  91.504  1.00  0.00     0.180 C 
HETATM    6  C12 UNL     1       5.558   4.356  91.440  1.00  0.00     0.183 C 
ENDROOT
BRANCH   1   7
HETATM    7  O1  UNL     1       7.952   4.141  91.072  1.00  0.00    -0.349 OA
BRANCH   7   8
HETATM    8  C6  UNL     1       8.937   5.030  90.769  1.00  0.00     0.291 C 
HETATM    9  C5  UNL     1      10.136   4.306  90.205  1.00  0.00     0.238 C 
HETATM   10  C4  UNL     1      11.427   4.979  90.621  1.00  0.00     0.040 C 
HETATM   11  C3  UNL     1      11.358   6.460  90.721  1.00  0.00     0.036 C 
HETATM   12  C2  UNL     1      10.039   6.896  91.277  1.00  0.00     0.150 C 
HETATM   13  O5  UNL     1       9.391   5.806  91.842  1.00  0.00    -0.352 OA
BRANCH   9  14
HETATM   14  N2  UNL     1      10.219   2.946  90.740  1.00  0.00    -0.070 N 
ATOM     15  H23 UNL     1      10.167   2.900  91.757  1.00  0.00     0.274 HD
ATOM     16  H22 UNL     1       9.392   2.379  90.552  1.00  0.00     0.274 HD
ATOM     17  H21 UNL     1      11.080   2.556  90.354  1.00  0.00     0.274 HD
ENDBRANCH   9  14
BRANCH  12  18
HETATM   18  C1  UNL     1      10.183   8.042  92.251  1.00  0.00     0.261 C 
BRANCH  18  19
HETATM   19  N1  UNL     1      10.096   7.472  93.596  1.00  0.00    -0.077 N 
ATOM     20  H13 UNL     1       9.403   6.728  93.671  1.00  0.00     0.274 HD
ATOM     21  H12 UNL     1      10.912   6.916  93.850  1.00  0.00     0.274 HD
ATOM     22  H11 UNL     1       9.923   8.247  94.236  1.00  0.00     0.274 HD
ENDBRANCH  18  19
ENDBRANCH  12  18
ENDBRANCH   7   8
ENDBRANCH   1   7
BRANCH   2  23
HETATM   23  N3  UNL     1       7.686   4.971  94.205  1.00  0.00    -0.072 N 
ATOM     24  H33 UNL     1       8.688   4.914  94.380  1.00  0.00     0.274 HD
ATOM     25  H32 UNL     1       7.668   5.913  93.814  1.00  0.00     0.274 HD
ATOM     26  H31 UNL     1       7.131   4.887  95.058  1.00  0.00     0.274 HD
ENDBRANCH   2  23
BRANCH   6  27
HETATM   27  O3  UNL     1       5.430   4.744  90.180  1.00  0.00    -0.373 OA
BRANCH  27  28
HETATM   28  C13 UNL     1       4.580   5.722  89.801  1.00  0.00     0.149 C 
HETATM   29  C14 UNL     1       3.430   5.096  89.050  1.00  0.00     0.063 C 
HETATM   30  C15 UNL     1       2.859   5.918  87.983  1.00  0.00    -0.000 C 
HETATM   31  C16 UNL     1       3.174   7.178  87.817  1.00  0.00     0.130 C 
HETATM   32  O4  UNL     1       4.083   7.754  88.685  1.00  0.00    -0.361 OA
HETATM   33  C17 UNL     1       5.152   6.925  89.138  1.00  0.00     0.206 C 
ENDBRANCH  27  28
ENDBRANCH   6  27
BRANCH   5  34
HETATM   34  O2  UNL     1       4.249   2.410  90.889  1.00  0.00    -0.391 OA
ATOM     35  H2  UNL     1       4.300   1.468  90.776  1.00  0.00     0.210 HD
ENDBRANCH   5  34
BRANCH   4  36
HETATM   36  N4  UNL     1       6.277   1.180  93.005  1.00  0.00    -0.072 N 
ATOM     37  H43 UNL     1       6.506   0.923  93.965  1.00  0.00     0.274 HD
ATOM     38  H42 UNL     1       5.812   0.312  92.740  1.00  0.00     0.274 HD
ATOM     39  H41 UNL     1       7.102   1.377  92.439  1.00  0.00     0.274 HD
ENDBRANCH   4  36
TORSDOF 10
ENDMDL
MODEL 2
REMARK VINA RESULT: -7.013468998      4.155      6.639
REMARK  10 active torsions:
REMARK  status: ('A' for Active; 'I' for Inactive)
REMARK    1  A    between atoms: N1_1  and  C1_5 
REMARK    2  A    between atoms: C1_5  and  C2_6 
REMARK    3  A    between atoms: C5_9  and  N2_10 
REMARK    4  A    between atoms: C6_14  and  O1_15 
REMARK    5  A    between atoms: O1_15  and  C7_16 
REMARK    6  A    between atoms: C8_17  and  N3_18 
REMARK    7  A    between atoms: C10_23  and  N4_24 
REMARK    8  A    between atoms: C11_28  and  O2_29 
REMARK    9  A    between atoms: C12_31  and  O3_32 
REMARK   10  A    between atoms: O3_32  and  C13_33 
ROOT
HETATM    1  C7  UNL     1       4.645   7.022  87.797  1.00  0.00     0.186 C 
HETATM    2  C8  UNL     1       3.962   7.237  86.462  1.00  0.00     0.217 C 
HETATM    3  C9  UNL     1       3.382   5.946  85.922  1.00  0.00     0.071 C 
HETATM    4  C10 UNL     1       2.338   5.422  86.856  1.00  0.00     0.216 C 
HETATM    5  C11 UNL     1       2.826   5.481  88.272  1.00  0.00     0.180 C 
HETATM    6  C12 UNL     1       4.355   5.614  88.326  1.00  0.00     0.183 C 
ENDROOT
BRANCH   1   7
HETATM    7  O1  UNL     1       4.148   8.016  88.638  1.00  0.00    -0.349 OA
BRANCH   7   8
HETATM    8  C6  UNL     1       5.052   8.984  88.947  1.00  0.00     0.291 C 
HETATM    9  C5  UNL     1       4.357  10.166  89.579  1.00  0.00     0.238 C 
HETATM   10  C4  UNL     1       5.024  11.468  89.189  1.00  0.00     0.040 C 
HETATM   11  C3  UNL     1       6.500  11.393  89.037  1.00  0.00     0.036 C 
HETATM   12  C2  UNL     1       6.909  10.093  88.419  1.00  0.00     0.150 C 
HETATM   13  O5  UNL     1       5.796   9.474  87.867  1.00  0.00    -0.352 OA
BRANCH   9  14
HETATM   14  N2  UNL     1       2.980  10.276  89.095  1.00  0.00    -0.070 N 
ATOM     15  H23 UNL     1       2.364   9.537  89.433  1.00  0.00     0.274 HD
ATOM     16  H22 UNL     1       2.462  11.056  89.500  1.00  0.00     0.274 HD
ATOM     17  H21 UNL     1       3.054  10.317  88.078  1.00  0.00     0.274 HD
ENDBRANCH   9  14
BRANCH  12  18
HETATM   18  C1  UNL     1       8.022  10.267  87.412  1.00  0.00     0.261 C 
BRANCH  18  19
HETATM   19  N1  UNL     1       7.432  10.079  86.086  1.00  0.00    -0.077 N 
ATOM     20  H13 UNL     1       7.954  10.546  85.345  1.00  0.00     0.274 HD
ATOM     21  H12 UNL     1       7.531   9.127  85.735  1.00  0.00     0.274 HD
ATOM     22  H11 UNL     1       6.461  10.386  86.147  1.00  0.00     0.274 HD
ENDBRANCH  18  19
ENDBRANCH  12  18
ENDBRANCH   7   8
ENDBRANCH   1   7
BRANCH   2  23
HETATM   23  N3  UNL     1       4.962   7.674  85.509  1.00  0.00    -0.072 N 
ATOM     24  H33 UNL     1       4.558   8.158  84.708  1.00  0.00     0.274 HD
ATOM     25  H32 UNL     1       5.532   8.444  85.860  1.00  0.00     0.274 HD
ATOM     26  H31 UNL     1       5.520   6.863  85.239  1.00  0.00     0.274 HD
ENDBRANCH   2  23
BRANCH   6  27
HETATM   27  O3  UNL     1       4.748   5.514  89.587  1.00  0.00    -0.373 OA
BRANCH  27  28
HETATM   28  C13 UNL     1       5.742   4.688  89.978  1.00  0.00     0.149 C 
HETATM   29  C14 UNL     1       5.133   3.510  90.698  1.00  0.00     0.063 C 
HETATM   30  C15 UNL     1       5.945   2.948  91.776  1.00  0.00    -0.000 C 
HETATM   31  C16 UNL     1       7.191   3.298  91.977  1.00  0.00     0.130 C 
HETATM   32  O4  UNL     1       7.760   4.235  91.136  1.00  0.00    -0.361 OA
HETATM   33  C17 UNL     1       6.912   5.285  90.677  1.00  0.00     0.206 C 
ENDBRANCH  27  28
ENDBRANCH   6  27
BRANCH   5  34
HETATM   34  O2  UNL     1       2.408   4.323  88.916  1.00  0.00    -0.391 OA
ATOM     35  H2  UNL     1       3.113   4.036  89.484  1.00  0.00     0.210 HD
ENDBRANCH   5  34
BRANCH   4  36
HETATM   36  N4  UNL     1       1.174   6.303  86.759  1.00  0.00    -0.072 N 
ATOM     37  H43 UNL     1       1.407   7.230  86.401  1.00  0.00     0.274 HD
ATOM     38  H42 UNL     1       0.531   6.031  86.016  1.00  0.00     0.274 HD
ATOM     39  H41 UNL     1       0.731   6.332  87.677  1.00  0.00     0.274 HD
ENDBRANCH   4  36
TORSDOF 10
ENDMDL
MODEL 3
REMARK VINA RESULT: -6.740402873      4.348      6.944
REMARK  10 active torsions:
REMARK  status: ('A' for Active; 'I' for Inactive)
REMARK    1  A    between atoms: N1_1  and  C1_5 
REMARK    2  A    between atoms: C1_5  and  C2_6 
REMARK    3  A    between atoms: C5_9  and  N2_10 
REMARK    4  A    between atoms: C6_14  and  O1_15 
REMARK    5  A    between atoms: O1_15  and  C7_16 
REMARK    6  A    between atoms: C8_17  and  N3_18 
REMARK    7  A    between atoms: C10_23  and  N4_24 
REMARK    8  A    between atoms: C11_28  and  O2_29 
REMARK    9  A    between atoms: C12_31  and  O3_32 
REMARK   10  A    between atoms: O3_32  and  C13_33 
ROOT
HETATM    1  C7  UNL     1       4.389   7.837  87.351  1.00  0.00     0.186 C 
HETATM    2  C8  UNL     1       4.079   8.517  86.033  1.00  0.00     0.217 C 
HETATM    3  C9  UNL     1       3.194   7.653  85.158  1.00  0.00     0.071 C 
HETATM    4  C10 UNL     1       1.881   7.414  85.834  1.00  0.00     0.216 C 
HETATM    5  C11 UNL     1       2.092   7.045  87.272  1.00  0.00     0.180 C 
HETATM    6  C12 UNL     1       3.534   6.577  87.518  1.00  0.00     0.183 C 
ENDROOT
BRANCH   1   7
HETATM    7  O1  UNL     1       4.125   8.790  88.335  1.00  0.00    -0.349 OA
BRANCH   7   8
HETATM    8  C6  UNL     1       5.231   9.445  88.782  1.00  0.00     0.291 C 
HETATM    9  C5  UNL     1       4.828  10.624  89.635  1.00  0.00     0.238 C 
HETATM   10  C4  UNL     1       5.791  11.780  89.461  1.00  0.00     0.040 C 
HETATM   11  C3  UNL     1       7.208  11.388  89.251  1.00  0.00     0.036 C 
HETATM   12  C2  UNL     1       7.303  10.162  88.399  1.00  0.00     0.150 C 
HETATM   13  O5  UNL     1       6.081   9.931  87.782  1.00  0.00    -0.352 OA
BRANCH   9  14
HETATM   14  N2  UNL     1       3.523  11.142  89.221  1.00  0.00    -0.070 N 
ATOM     15  H23 UNL     1       3.386  11.153  88.211  1.00  0.00     0.274 HD
ATOM     16  H22 UNL     1       2.745  10.518  89.440  1.00  0.00     0.274 HD
ATOM     17  H21 UNL     1       3.447  12.061  89.657  1.00  0.00     0.274 HD
ENDBRANCH   9  14
BRANCH  12  18
HETATM   18  C1  UNL     1       8.438  10.246  87.404  1.00  0.00     0.261 C 
BRANCH  18  19
HETATM   19  N1  UNL     1       9.653   9.837  88.108  1.00  0.00    -0.077 N 
ATOM     20  H13 UNL     1      10.418   9.593  87.479  1.00  0.00     0.274 HD
ATOM     21  H12 UNL     1      10.119  10.609  88.585  1.00  0.00     0.274 HD
ATOM     22  H11 UNL     1       9.392   9.076  88.735  1.00  0.00     0.274 HD
ENDBRANCH  18  19
ENDBRANCH  12  18
ENDBRANCH   7   8
ENDBRANCH   1   7
BRANCH   2  23
HETATM   23  N3  UNL     1       5.326   8.695  85.314  1.00  0.00    -0.072 N 
ATOM     24  H33 UNL     1       5.521   7.930  84.669  1.00  0.00     0.274 HD
ATOM     25  H32 UNL     1       5.279   9.447  84.626  1.00  0.00     0.274 HD
ATOM     26  H31 UNL     1       6.070   8.833  85.999  1.00  0.00     0.274 HD
ENDBRANCH   2  23
BRANCH   6  27
HETATM   27  O3  UNL     1       3.630   6.126  88.759  1.00  0.00    -0.373 OA
BRANCH  27  28
HETATM   28  C13 UNL     1       4.381   5.053  89.088  1.00  0.00     0.149 C 
HETATM   29  C14 UNL     1       3.463   3.942  89.537  1.00  0.00     0.063 C 
HETATM   30  C15 UNL     1       4.005   3.061  90.570  1.00  0.00    -0.000 C 
HETATM   31  C16 UNL     1       5.262   3.096  90.940  1.00  0.00     0.130 C 
HETATM   32  O4  UNL     1       6.107   4.002  90.327  1.00  0.00    -0.361 OA
HETATM   33  C17 UNL     1       5.551   5.269  89.983  1.00  0.00     0.206 C 
ENDBRANCH  27  28
ENDBRANCH   6  27
BRANCH   5  34
HETATM   34  O2  UNL     1       1.186   6.042  87.591  1.00  0.00    -0.391 OA
ATOM     35  H2  UNL     1       1.358   5.768  88.484  1.00  0.00     0.210 HD
ENDBRANCH   5  34
BRANCH   4  36
HETATM   36  N4  UNL     1       1.137   8.674  85.812  1.00  0.00    -0.072 N 
ATOM     37  H43 UNL     1       1.376   9.289  86.590  1.00  0.00     0.274 HD
ATOM     38  H42 UNL     1       1.428   9.294  85.056  1.00  0.00     0.274 HD
ATOM     39  H41 UNL     1       0.144   8.445  85.777  1.00  0.00     0.274 HD
ENDBRANCH   4  36
TORSDOF 10
ENDMDL
MODEL 4
REMARK VINA RESULT: -6.712015380      1.412      1.646
REMARK  10 active torsions:
REMARK  status: ('A' for Active; 'I' for Inactive)
REMARK    1  A    between atoms: N1_1  and  C1_5 
REMARK    2  A    between atoms: C1_5  and  C2_6 
REMARK    3  A    between atoms: C5_9  and  N2_10 
REMARK    4  A    between atoms: C6_14  and  O1_15 
REMARK    5  A    between atoms: O1_15  and  C7_16 
REMARK    6  A    between atoms: C8_17  and  N3_18 
REMARK    7  A    between atoms: C10_23  and  N4_24 
REMARK    8  A    between atoms: C11_28  and  O2_29 
REMARK    9  A    between atoms: C12_31  and  O3_32 
REMARK   10  A    between atoms: O3_32  and  C13_33 
ROOT
HETATM    1  C7  UNL     1       8.008   4.330  92.662  1.00  0.00     0.186 C 
HETATM    2  C8  UNL     1       8.668   3.958  93.974  1.00  0.00     0.217 C 
HETATM    3  C9  UNL     1       7.775   3.063  94.808  1.00  0.00     0.071 C 
HETATM    4  C10 UNL     1       7.513   1.781  94.084  1.00  0.00     0.216 C 
HETATM    5  C11 UNL     1       7.162   2.052  92.652  1.00  0.00     0.180 C 
HETATM    6  C12 UNL     1       6.730   3.512  92.454  1.00  0.00     0.183 C 
ENDROOT
BRANCH   1   7
HETATM    7  O1  UNL     1       8.962   4.080  91.677  1.00  0.00    -0.349 OA
BRANCH   7   8
HETATM    8  C6  UNL     1       9.527   5.202  91.154  1.00  0.00     0.291 C 
HETATM    9  C5  UNL     1      10.649   4.832  90.215  1.00  0.00     0.238 C 
HETATM   10  C4  UNL     1      11.769   5.850  90.272  1.00  0.00     0.040 C 
HETATM   11  C3  UNL     1      11.330   7.253  90.484  1.00  0.00     0.036 C 
HETATM   12  C2  UNL     1      10.174   7.314  91.432  1.00  0.00     0.150 C 
HETATM   13  O5  UNL     1      10.053   6.098  92.092  1.00  0.00    -0.352 OA
BRANCH   9  14
HETATM   14  N2  UNL     1      11.260   3.562  90.611  1.00  0.00    -0.070 N 
ATOM     15  H23 UNL     1      12.089   3.318  90.071  1.00  0.00     0.274 HD
ATOM     16  H22 UNL     1      11.716   3.592  91.523  1.00  0.00     0.274 HD
ATOM     17  H21 UNL     1      10.511   2.872  90.550  1.00  0.00     0.274 HD
ENDBRANCH   9  14
BRANCH  12  18
HETATM   18  C1  UNL     1      10.286   8.475  92.392  1.00  0.00     0.261 C 
BRANCH  18  19
HETATM   19  N1  UNL     1      10.252   7.916  93.744  1.00  0.00    -0.077 N 
ATOM     20  H13 UNL     1      10.866   8.404  94.395  1.00  0.00     0.274 HD
ATOM     21  H12 UNL     1       9.375   8.099  94.232  1.00  0.00     0.274 HD
ATOM     22  H11 UNL     1      10.464   6.922  93.660  1.00  0.00     0.274 HD
ENDBRANCH  18  19
ENDBRANCH  12  18
ENDBRANCH   7   8
ENDBRANCH   1   7
BRANCH   2  23
HETATM   23  N3  UNL     1       8.869   5.173  94.738  1.00  0.00    -0.072 N 
ATOM     24  H33 UNL     1       8.752   6.015  94.176  1.00  0.00     0.274 HD
ATOM     25  H32 UNL     1       8.117   5.348  95.405  1.00  0.00     0.274 HD
ATOM     26  H31 UNL     1       9.786   5.121  95.183  1.00  0.00     0.274 HD
ENDBRANCH   2  23
BRANCH   6  27
HETATM   27  O3  UNL     1       6.292   3.663  91.214  1.00  0.00    -0.373 OA
BRANCH  27  28
HETATM   28  C13 UNL     1       5.262   4.478  90.898  1.00  0.00     0.149 C 
HETATM   29  C14 UNL     1       4.166   3.649  90.274  1.00  0.00     0.063 C 
HETATM   30  C15 UNL     1       3.374   4.329  89.251  1.00  0.00    -0.000 C 
HETATM   31  C16 UNL     1       3.462   5.617  89.029  1.00  0.00     0.130 C 
HETATM   32  O4  UNL     1       4.340   6.362  89.793  1.00  0.00    -0.361 OA
HETATM   33  C17 UNL     1       5.567   5.733  90.159  1.00  0.00     0.206 C 
ENDBRANCH  27  28
ENDBRANCH   6  27
BRANCH   5  34
HETATM   34  O2  UNL     1       6.140   1.182  92.292  1.00  0.00    -0.391 OA
ATOM     35  H2  UNL     1       6.533   0.441  91.846  1.00  0.00     0.210 HD
ENDBRANCH   5  34
BRANCH   4  36
HETATM   36  N4  UNL     1       8.754   1.007  94.090  1.00  0.00    -0.072 N 
ATOM     37  H43 UNL     1       9.314   1.149  93.249  1.00  0.00     0.274 HD
ATOM     38  H42 UNL     1       9.435   1.354  94.765  1.00  0.00     0.274 HD
ATOM     39  H41 UNL     1       8.508   0.029  94.241  1.00  0.00     0.274 HD
ENDBRANCH   4  36
TORSDOF 10
ENDMDL
MODEL 5
REMARK VINA RESULT: -6.645287280      2.425      5.369
REMARK  10 active torsions:
REMARK  status: ('A' for Active; 'I' for Inactive)
REMARK    1  A    between atoms: N1_1  and  C1_5 
REMARK    2  A    between atoms: C1_5  and  C2_6 
REMARK    3  A    between atoms: C5_9  and  N2_10 
REMARK    4  A    between atoms: C6_14  and  O1_15 
REMARK    5  A    between atoms: O1_15  and  C7_16 
REMARK    6  A    between atoms: C8_17  and  N3_18 
REMARK    7  A    between atoms: C10_23  and  N4_24 
REMARK    8  A    between atoms: C11_28  and  O2_29 
REMARK    9  A    between atoms: C12_31  and  O3_32 
REMARK   10  A    between atoms: O3_32  and  C13_33 
ROOT
HETATM    1  C7  UNL     1       7.180   4.087  92.230  1.00  0.00     0.186 C 
HETATM    2  C8  UNL     1       5.709   4.276  92.537  1.00  0.00     0.217 C 
HETATM    3  C9  UNL     1       5.090   5.336  91.650  1.00  0.00     0.071 C 
HETATM    4  C10 UNL     1       5.177   4.921  90.216  1.00  0.00     0.216 C 
HETATM    5  C11 UNL     1       6.548   4.401  89.905  1.00  0.00     0.180 C 
HETATM    6  C12 UNL     1       7.566   4.853  90.961  1.00  0.00     0.183 C 
ENDROOT
BRANCH   1   7
HETATM    7  O1  UNL     1       7.362   2.711  92.094  1.00  0.00    -0.349 OA
BRANCH   7   8
HETATM    8  C6  UNL     1       8.102   2.148  93.087  1.00  0.00     0.291 C 
HETATM    9  C5  UNL     1       7.617   0.746  93.368  1.00  0.00     0.238 C 
HETATM   10  C4  UNL     1       7.742   0.408  94.838  1.00  0.00     0.040 C 
HETATM   11  C3  UNL     1       8.923   1.001  95.518  1.00  0.00     0.036 C 
HETATM   12  C2  UNL     1       9.195   2.382  95.012  1.00  0.00     0.150 C 
HETATM   13  O5  UNL     1       8.092   2.840  94.304  1.00  0.00    -0.352 OA
BRANCH   9  14
HETATM   14  N2  UNL     1       6.191   0.620  93.062  1.00  0.00    -0.070 N 
ATOM     15  H23 UNL     1       5.950  -0.242  92.575  1.00  0.00     0.274 HD
ATOM     16  H22 UNL     1       5.607   0.461  93.883  1.00  0.00     0.274 HD
ATOM     17  H21 UNL     1       5.950   1.466  92.545  1.00  0.00     0.274 HD
ENDBRANCH   9  14
BRANCH  12  18
HETATM   18  C1  UNL     1       9.593   3.327  96.122  1.00  0.00     0.261 C 
BRANCH  18  19
HETATM   19  N1  UNL     1      10.749   2.734  96.794  1.00  0.00    -0.077 N 
ATOM     20  H13 UNL     1      11.591   2.734  96.218  1.00  0.00     0.274 HD
ATOM     21  H12 UNL     1      11.111   3.310  97.554  1.00  0.00     0.274 HD
ATOM     22  H11 UNL     1      10.470   1.800  97.096  1.00  0.00     0.274 HD
ENDBRANCH  18  19
ENDBRANCH  12  18
ENDBRANCH   7   8
ENDBRANCH   1   7
BRANCH   2  23
HETATM   23  N3  UNL     1       5.590   4.753  93.900  1.00  0.00    -0.072 N 
ATOM     24  H33 UNL     1       5.290   5.726  93.952  1.00  0.00     0.274 HD
ATOM     25  H32 UNL     1       4.799   4.340  94.395  1.00  0.00     0.274 HD
ATOM     26  H31 UNL     1       6.480   4.590  94.373  1.00  0.00     0.274 HD
ENDBRANCH   2  23
BRANCH   6  27
HETATM   27  O3  UNL     1       8.778   4.496  90.567  1.00  0.00    -0.373 OA
BRANCH  27  28
HETATM   28  C13 UNL     1       9.900   5.083  91.037  1.00  0.00     0.149 C 
HETATM   29  C14 UNL     1       9.582   6.516  91.389  1.00  0.00     0.063 C 
HETATM   30  C15 UNL     1      10.676   7.465  91.193  1.00  0.00    -0.000 C 
HETATM   31  C16 UNL     1      11.902   7.086  90.928  1.00  0.00     0.130 C 
HETATM   32  O4  UNL     1      12.170   5.734  90.831  1.00  0.00    -0.361 OA
HETATM   33  C17 UNL     1      11.154   4.917  90.253  1.00  0.00     0.206 C 
ENDBRANCH  27  28
ENDBRANCH   6  27
BRANCH   5  34
HETATM   34  O2  UNL     1       6.904   4.866  88.645  1.00  0.00    -0.391 OA
ATOM     35  H2  UNL     1       6.223   4.606  88.036  1.00  0.00     0.210 HD
ENDBRANCH   5  34
BRANCH   4  36
HETATM   36  N4  UNL     1       4.236   3.818  90.016  1.00  0.00    -0.072 N 
ATOM     37  H43 UNL     1       3.962   3.702  89.040  1.00  0.00     0.274 HD
ATOM     38  H42 UNL     1       4.666   2.902  90.145  1.00  0.00     0.274 HD
ATOM     39  H41 UNL     1       3.441   3.975  90.636  1.00  0.00     0.274 HD
ENDBRANCH   4  36
TORSDOF 10
ENDMDL
