MODEL 1
REMARK VINA RESULT: -5.863282094      0.000      0.000
REMARK  6 active torsions:
REMARK  status: ('A' for Active; 'I' for Inactive)
REMARK    1  A    between atoms: O1_3  and  C3_4 
REMARK    2  A    between atoms: C3_4  and  C4_5 
REMARK    3  A    between atoms: C3_4  and  N2_9 
REMARK    4  A    between atoms: C4_5  and  N1_6 
REMARK    5  A    between atoms: N2_9  and  C7_11 
REMARK    6  A    between atoms: N3_14  and  C11_16 
ROOT
HETATM    1  C1  UNL     1       3.968  12.520  53.435  1.00  0.00     0.045 C 
HETATM    2  C2  UNL     1       3.962  13.650  53.850  1.00  0.00     0.045 C 
HETATM    3  O1  UNL     1       3.951  14.906  54.307  1.00  0.00    -0.277 OA
ENDROOT
BRANCH   3   4
HETATM    4  C3  UNL     1       3.234  15.335  55.486  1.00  0.00     0.263 C 
BRANCH   4   5
HETATM    5  C4  UNL     1       4.013  14.840  56.638  1.00  0.00     0.325 C 
BRANCH   5   6
HETATM    6  N1  UNL     1       4.856  15.967  57.103  1.00  0.00     0.084 N 
HETATM    7  C5  UNL     1       4.607  16.190  58.526  1.00  0.00     0.309 C 
HETATM    8  C6  UNL     1       6.258  15.594  56.910  1.00  0.00     0.309 C 
ENDBRANCH   5   6
ENDBRANCH   4   5
BRANCH   4   9
HETATM    9  N2  UNL     1       3.014  16.706  55.320  1.00  0.00    -0.388 N 
ATOM     10  H2  UNL     1       3.808  17.341  55.404  1.00  0.00     0.156 HD
BRANCH   9  11
HETATM   11  C7  UNL     1       1.753  17.243  55.042  1.00  0.00     0.106 C 
HETATM   12  C8  UNL     1       0.630  16.233  55.169  1.00  0.00     0.054 C 
HETATM   13  C9  UNL     1      -0.457  16.964  55.958  1.00  0.00     0.239 C 
HETATM   14  N3  UNL     1       0.301  17.837  56.857  1.00  0.00    -0.069 N 
HETATM   15  C10 UNL     1       0.727  17.075  58.005  1.00  0.00     0.272 C 
HETATM   16  C13 UNL     1       1.410  18.289  56.083  1.00  0.00     0.261 C 
BRANCH  14  17
HETATM   17  C11 UNL     1      -0.531  18.964  57.234  1.00  0.00     0.232 C 
HETATM   18  C12 UNL     1      -1.911  18.543  57.686  1.00  0.00     0.035 C 
ENDBRANCH  14  17
ENDBRANCH   9  11
ENDBRANCH   4   9
ENDBRANCH   3   4
TORSDOF 6
ENDMDL
MODEL 2
REMARK VINA RESULT: -5.845088740      0.849      1.221
REMARK  6 active torsions:
REMARK  status: ('A' for Active; 'I' for Inactive)
REMARK    1  A    between atoms: O1_3  and  C3_4 
REMARK    2  A    between atoms: C3_4  and  C4_5 
REMARK    3  A    between atoms: C3_4  and  N2_9 
REMARK    4  A    between atoms: C4_5  and  N1_6 
REMARK    5  A    between atoms: N2_9  and  C7_11 
REMARK    6  A    between atoms: N3_14  and  C11_16 
ROOT
HETATM    1  C1  UNL     1       3.800  12.941  53.784  1.00  0.00     0.045 C 
HETATM    2  C2  UNL     1       3.915  14.081  54.152  1.00  0.00     0.045 C 
HETATM    3  O1  UNL     1       4.038  15.349  54.558  1.00  0.00    -0.277 OA
ENDROOT
BRANCH   3   4
HETATM    4  C3  UNL     1       3.341  15.910  55.693  1.00  0.00     0.263 C 
BRANCH   4   5
HETATM    5  C4  UNL     1       4.263  15.783  56.839  1.00  0.00     0.325 C 
BRANCH   5   6
HETATM    6  N1  UNL     1       3.633  14.841  57.795  1.00  0.00     0.084 N 
HETATM    7  C5  UNL     1       4.393  13.592  57.801  1.00  0.00     0.309 C 
HETATM    8  C6  UNL     1       3.686  15.445  59.127  1.00  0.00     0.309 C 
ENDBRANCH   5   6
ENDBRANCH   4   5
BRANCH   4   9
HETATM    9  N2  UNL     1       2.897  17.170  55.281  1.00  0.00    -0.388 N 
ATOM     10  H2  UNL     1       3.584  17.912  55.154  1.00  0.00     0.156 HD
BRANCH   9  11
HETATM   11  C7  UNL     1       1.549  17.456  55.037  1.00  0.00     0.106 C 
HETATM   12  C8  UNL     1       0.629  16.281  55.302  1.00  0.00     0.054 C 
HETATM   13  C9  UNL     1      -0.535  16.875  56.095  1.00  0.00     0.239 C 
HETATM   14  N3  UNL     1       0.094  17.938  56.882  1.00  0.00    -0.069 N 
HETATM   15  C10 UNL     1       0.697  17.359  58.058  1.00  0.00     0.272 C 
HETATM   16  C13 UNL     1       1.072  18.509  56.014  1.00  0.00     0.261 C 
BRANCH  14  17
HETATM   17  C11 UNL     1      -0.907  18.931  57.221  1.00  0.00     0.232 C 
HETATM   18  C12 UNL     1      -2.216  18.313  57.654  1.00  0.00     0.035 C 
ENDBRANCH  14  17
ENDBRANCH   9  11
ENDBRANCH   4   9
ENDBRANCH   3   4
TORSDOF 6
ENDMDL
MODEL 3
REMARK VINA RESULT: -5.824316084      1.917      5.160
REMARK  6 active torsions:
REMARK  status: ('A' for Active; 'I' for Inactive)
REMARK    1  A    between atoms: O1_3  and  C3_4 
REMARK    2  A    between atoms: C3_4  and  C4_5 
REMARK    3  A    between atoms: C3_4  and  N2_9 
REMARK    4  A    between atoms: C4_5  and  N1_6 
REMARK    5  A    between atoms: N2_9  and  C7_11 
REMARK    6  A    between atoms: N3_14  and  C11_16 
ROOT
HETATM    1  C1  UNL     1       4.433  12.837  53.409  1.00  0.00     0.045 C 
HETATM    2  C2  UNL     1       4.141  13.909  53.871  1.00  0.00     0.045 C 
HETATM    3  O1  UNL     1       3.810  15.097  54.385  1.00  0.00    -0.277 OA
ENDROOT
BRANCH   3   4
HETATM    4  C3  UNL     1       3.919  15.435  55.786  1.00  0.00     0.263 C 
BRANCH   4   5
HETATM    5  C4  UNL     1       3.138  16.675  55.967  1.00  0.00     0.325 C 
BRANCH   5   6
HETATM    6  N1  UNL     1       1.813  16.274  56.497  1.00  0.00     0.084 N 
HETATM    7  C5  UNL     1       1.512  17.077  57.680  1.00  0.00     0.309 C 
HETATM    8  C6  UNL     1       0.811  16.541  55.464  1.00  0.00     0.309 C 
ENDBRANCH   5   6
ENDBRANCH   4   5
BRANCH   4   9
HETATM    9  N2  UNL     1       3.572  14.275  56.484  1.00  0.00    -0.388 N 
ATOM     10  H2  UNL     1       2.638  13.888  56.355  1.00  0.00     0.156 HD
BRANCH   9  11
HETATM   11  C7  UNL     1       4.453  13.621  57.354  1.00  0.00     0.106 C 
HETATM   12  C8  UNL     1       5.850  14.209  57.345  1.00  0.00     0.054 C 
HETATM   13  C9  UNL     1       6.230  14.321  58.822  1.00  0.00     0.239 C 
HETATM   14  N3  UNL     1       4.954  14.607  59.483  1.00  0.00    -0.069 N 
HETATM   15  C10 UNL     1       4.672  16.018  59.371  1.00  0.00     0.272 C 
HETATM   16  C13 UNL     1       3.992  13.821  58.782  1.00  0.00     0.261 C 
BRANCH  14  17
HETATM   17  C11 UNL     1       5.031  14.179  60.866  1.00  0.00     0.232 C 
HETATM   18  C12 UNL     1       6.373  13.575  61.213  1.00  0.00     0.035 C 
ENDBRANCH  14  17
ENDBRANCH   9  11
ENDBRANCH   4   9
ENDBRANCH   3   4
TORSDOF 6
ENDMDL
MODEL 4
REMARK VINA RESULT: -5.817017322      1.003      1.519
REMARK  6 active torsions:
REMARK  status: ('A' for Active; 'I' for Inactive)
REMARK    1  A    between atoms: O1_3  and  C3_4 
REMARK    2  A    between atoms: C3_4  and  C4_5 
REMARK    3  A    between atoms: C3_4  and  N2_9 
REMARK    4  A    between atoms: C4_5  and  N1_6 
REMARK    5  A    between atoms: N2_9  and  C7_11 
REMARK    6  A    between atoms: N3_14  and  C11_16 
ROOT
HETATM    1  C1  UNL     1       4.017  12.598  53.532  1.00  0.00     0.045 C 
HETATM    2  C2  UNL     1       3.473  13.622  53.855  1.00  0.00     0.045 C 
HETATM    3  O1  UNL     1       2.865  14.756  54.216  1.00  0.00    -0.277 OA
ENDROOT
BRANCH   3   4
HETATM    4  C3  UNL     1       3.220  15.532  55.383  1.00  0.00     0.263 C 
BRANCH   4   5
HETATM    5  C4  UNL     1       4.694  15.496  55.462  1.00  0.00     0.325 C 
BRANCH   5   6
HETATM    6  N1  UNL     1       5.046  15.458  56.901  1.00  0.00     0.084 N 
HETATM    7  C5  UNL     1       4.268  14.406  57.553  1.00  0.00     0.309 C 
HETATM    8  C6  UNL     1       6.471  15.142  57.010  1.00  0.00     0.309 C 
ENDBRANCH   5   6
ENDBRANCH   4   5
BRANCH   4   9
HETATM    9  N2  UNL     1       2.550  16.752  55.246  1.00  0.00    -0.388 N 
ATOM     10  H2  UNL     1       2.304  17.071  54.310  1.00  0.00     0.156 HD
BRANCH   9  11
HETATM   11  C7  UNL     1       2.204  17.553  56.340  1.00  0.00     0.106 C 
HETATM   12  C8  UNL     1       1.446  18.806  55.948  1.00  0.00     0.054 C 
HETATM   13  C9  UNL     1       0.284  18.878  56.940  1.00  0.00     0.239 C 
HETATM   14  N3  UNL     1      -0.036  17.472  57.196  1.00  0.00    -0.069 N 
HETATM   15  C10 UNL     1      -0.877  16.979  56.133  1.00  0.00     0.272 C 
HETATM   16  C13 UNL     1       1.225  16.806  57.222  1.00  0.00     0.261 C 
BRANCH  14  17
HETATM   17  C11 UNL     1      -0.680  17.361  58.491  1.00  0.00     0.232 C 
HETATM   18  C12 UNL     1      -2.115  17.839  58.469  1.00  0.00     0.035 C 
ENDBRANCH  14  17
ENDBRANCH   9  11
ENDBRANCH   4   9
ENDBRANCH   3   4
TORSDOF 6
ENDMDL
MODEL 5
REMARK VINA RESULT: -5.725806713      0.996      1.483
REMARK  6 active torsions:
REMARK  status: ('A' for Active; 'I' for Inactive)
REMARK    1  A    between atoms: O1_3  and  C3_4 
REMARK    2  A    between atoms: C3_4  and  C4_5 
REMARK    3  A    between atoms: C3_4  and  N2_9 
REMARK    4  A    between atoms: C4_5  and  N1_6 
REMARK    5  A    between atoms: N2_9  and  C7_11 
REMARK    6  A    between atoms: N3_14  and  C11_16 
ROOT
HETATM    1  C1  UNL     1       3.974  12.339  53.426  1.00  0.00     0.045 C 
HETATM    2  C2  UNL     1       3.539  13.433  53.673  1.00  0.00     0.045 C 
HETATM    3  O1  UNL     1       3.051  14.647  53.950  1.00  0.00    -0.277 OA
ENDROOT
BRANCH   3   4
HETATM    4  C3  UNL     1       3.226  15.323  55.216  1.00  0.00     0.263 C 
BRANCH   4   5
HETATM    5  C4  UNL     1       4.663  15.649  55.307  1.00  0.00     0.325 C 
BRANCH   5   6
HETATM    6  N1  UNL     1       5.052  15.482  56.727  1.00  0.00     0.084 N 
HETATM    7  C5  UNL     1       4.539  14.202  57.212  1.00  0.00     0.309 C 
HETATM    8  C6  UNL     1       6.514  15.475  56.799  1.00  0.00     0.309 C 
ENDBRANCH   5   6
ENDBRANCH   4   5
BRANCH   4   9
HETATM    9  N2  UNL     1       2.268  16.341  55.238  1.00  0.00    -0.388 N 
ATOM     10  H2  UNL     1       2.339  17.093  54.552  1.00  0.00     0.156 HD
BRANCH   9  11
HETATM   11  C7  UNL     1       1.217  16.374  56.160  1.00  0.00     0.106 C 
HETATM   12  C8  UNL     1       1.677  16.612  57.585  1.00  0.00     0.054 C 
HETATM   13  C9  UNL     1       0.715  17.670  58.127  1.00  0.00     0.239 C 
HETATM   14  N3  UNL     1       0.409  18.490  56.951  1.00  0.00    -0.069 N 
HETATM   15  C10 UNL     1       1.471  19.447  56.755  1.00  0.00     0.272 C 
HETATM   16  C13 UNL     1       0.327  17.564  55.869  1.00  0.00     0.261 C 
BRANCH  14  17
HETATM   17  C11 UNL     1      -0.873  19.137  57.147  1.00  0.00     0.232 C 
HETATM   18  C12 UNL     1      -1.997  18.148  57.361  1.00  0.00     0.035 C 
ENDBRANCH  14  17
ENDBRANCH   9  11
ENDBRANCH   4   9
ENDBRANCH   3   4
TORSDOF 6
ENDMDL
