MODEL 1
REMARK VINA RESULT: -6.847986329      0.000      0.000
REMARK  6 active torsions:
REMARK  status: ('A' for Active; 'I' for Inactive)
REMARK    1  A    between atoms: N1_2  and  C2_4 
REMARK    2  A    between atoms: N3_11  and  C6_13 
REMARK    3  A    between atoms: C6_13  and  C7_14 
REMARK    4  A    between atoms: C8_15  and  C9_16 
REMARK    5  A    between atoms: C9_16  and  C10_18 
REMARK    6  A    between atoms: C11_19  and  C12_20 
ROOT
HETATM    1  C2  UNL     1      27.055 -22.062   3.166  1.00  0.00     0.679 A 
HETATM    2  N2  UNL     1      26.203 -21.858   2.148  1.00  0.00    -0.201 N 
ATOM      3  H2  UNL     1      26.476 -21.216   1.405  1.00  0.00     0.183 HD
HETATM    4  C3  UNL     1      25.012 -22.462   2.067  1.00  0.00     0.129 A 
HETATM    5  C4  UNL     1      24.617 -23.332   3.052  1.00  0.00     0.071 A 
HETATM    6 BR1  UNL     1      22.896 -24.208   2.938  1.00  0.00    -0.046 Br
HETATM    7  C5  UNL     1      25.462 -23.566   4.109  1.00  0.00     0.139 A 
HETATM    8  N3  UNL     1      25.216 -24.333   5.063  1.00  0.00    -0.351 N 
ATOM      9  H3  UNL     1      25.981 -24.357   5.738  1.00  0.00     0.166 HD
HETATM   10  N4  UNL     1      26.666 -22.906   4.119  1.00  0.00    -0.175 N 
ATOM     11  H4  UNL     1      27.299 -23.073   4.901  1.00  0.00     0.186 HD
ENDROOT
BRANCH   8  12
HETATM   12  C6  UNL     1      24.161 -25.167   5.442  1.00  0.00     0.089 C 
BRANCH  12  13
HETATM   13  C7  UNL     1      23.800 -25.021   6.904  1.00  0.00     0.015 C 
HETATM   14  C8  UNL     1      22.562 -24.976   7.347  1.00  0.00     0.003 C 
BRANCH  14  15
HETATM   15  C9  UNL     1      21.357 -25.063   6.468  1.00  0.00     0.159 C 
HETATM   16 BR2  UNL     1      20.458 -26.766   6.649  1.00  0.00    -0.073 Br
BRANCH  15  17
HETATM   17  C10 UNL     1      20.422 -23.969   6.819  1.00  0.00    -0.084 C 
HETATM   18  C11 UNL     1      19.666 -23.076   7.111  1.00  0.00    -0.074 C 
BRANCH  18  19
HETATM   19  C12 UNL     1      18.727 -22.005   7.477  1.00  0.00     0.315 C 
HETATM   20  F1  UNL     1      18.521 -21.961   8.844  1.00  0.00    -0.242 F 
ENDBRANCH  18  19
ENDBRANCH  15  17
ENDBRANCH  14  15
ENDBRANCH  12  13
ENDBRANCH   8  12
BRANCH   1  21
HETATM   21  N1  UNL     1      28.190 -21.448   3.186  1.00  0.00    -0.230 N 
HETATM   22  C1  UNL     1      29.400 -22.015   3.688  1.00  0.00     0.165 C 
ATOM     23  H1  UNL     1      28.225 -20.497   2.821  1.00  0.00     0.177 HD
ENDBRANCH   1  21
TORSDOF 6
ENDMDL
MODEL 2
REMARK VINA RESULT: -6.846710358      2.060      2.079
REMARK  6 active torsions:
REMARK  status: ('A' for Active; 'I' for Inactive)
REMARK    1  A    between atoms: N1_2  and  C2_4 
REMARK    2  A    between atoms: N3_11  and  C6_13 
REMARK    3  A    between atoms: C6_13  and  C7_14 
REMARK    4  A    between atoms: C8_15  and  C9_16 
REMARK    5  A    between atoms: C9_16  and  C10_18 
REMARK    6  A    between atoms: C11_19  and  C12_20 
ROOT
HETATM    1  C2  UNL     1      27.666 -21.975   3.237  1.00  0.00     0.679 A 
HETATM    2  N2  UNL     1      27.088 -21.560   2.098  1.00  0.00    -0.201 N 
ATOM      3  H2  UNL     1      27.621 -20.957   1.472  1.00  0.00     0.183 HD
HETATM    4  C3  UNL     1      25.843 -21.905   1.748  1.00  0.00     0.129 A 
HETATM    5  C4  UNL     1      25.101 -22.715   2.569  1.00  0.00     0.071 A 
HETATM    6 BR1  UNL     1      23.301 -23.216   2.067  1.00  0.00    -0.046 Br
HETATM    7  C5  UNL     1      25.658 -23.160   3.743  1.00  0.00     0.139 A 
HETATM    8  N3  UNL     1      25.085 -23.899   4.570  1.00  0.00    -0.351 N 
ATOM      9  H3  UNL     1      25.681 -24.106   5.372  1.00  0.00     0.166 HD
HETATM   10  N4  UNL     1      26.940 -22.761   4.030  1.00  0.00    -0.175 N 
ATOM     11  H4  UNL     1      27.361 -23.085   4.901  1.00  0.00     0.186 HD
ENDROOT
BRANCH   8  12
HETATM   12  C6  UNL     1      23.835 -24.515   4.678  1.00  0.00     0.089 C 
BRANCH  12  13
HETATM   13  C7  UNL     1      23.276 -24.456   6.082  1.00  0.00     0.015 C 
HETATM   14  C8  UNL     1      22.021 -24.172   6.354  1.00  0.00     0.003 C 
BRANCH  14  15
HETATM   15  C9  UNL     1      20.989 -23.872   5.316  1.00  0.00     0.159 C 
HETATM   16 BR2  UNL     1      19.299 -24.724   5.718  1.00  0.00    -0.073 Br
BRANCH  15  17
HETATM   17  C10 UNL     1      20.797 -22.406   5.234  1.00  0.00    -0.084 C 
HETATM   18  C11 UNL     1      20.642 -21.211   5.175  1.00  0.00    -0.074 C 
BRANCH  18  19
HETATM   19  C12 UNL     1      20.427 -19.758   5.098  1.00  0.00     0.315 C 
HETATM   20  F1  UNL     1      20.034 -19.374   3.829  1.00  0.00    -0.242 F 
ENDBRANCH  18  19
ENDBRANCH  15  17
ENDBRANCH  14  15
ENDBRANCH  12  13
ENDBRANCH   8  12
BRANCH   1  21
HETATM   21  N1  UNL     1      28.870 -21.607   3.518  1.00  0.00    -0.230 N 
HETATM   22  C1  UNL     1      29.628 -22.112   4.616  1.00  0.00     0.165 C 
ATOM     23  H1  UNL     1      29.309 -20.910   2.915  1.00  0.00     0.177 HD
ENDBRANCH   1  21
TORSDOF 6
ENDMDL
MODEL 3
REMARK VINA RESULT: -6.824105040      2.411      2.881
REMARK  6 active torsions:
REMARK  status: ('A' for Active; 'I' for Inactive)
REMARK    1  A    between atoms: N1_2  and  C2_4 
REMARK    2  A    between atoms: N3_11  and  C6_13 
REMARK    3  A    between atoms: C6_13  and  C7_14 
REMARK    4  A    between atoms: C8_15  and  C9_16 
REMARK    5  A    between atoms: C9_16  and  C10_18 
REMARK    6  A    between atoms: C11_19  and  C12_20 
ROOT
HETATM    1  C2  UNL     1      26.993 -22.073   3.128  1.00  0.00     0.679 A 
HETATM    2  N2  UNL     1      26.239 -21.887   2.033  1.00  0.00    -0.201 N 
ATOM      3  H2  UNL     1      26.593 -21.279   1.295  1.00  0.00     0.183 HD
HETATM    4  C3  UNL     1      25.043 -22.465   1.867  1.00  0.00     0.129 A 
HETATM    5  C4  UNL     1      24.541 -23.288   2.842  1.00  0.00     0.071 A 
HETATM    6 BR1  UNL     1      22.813 -24.126   2.607  1.00  0.00    -0.046 Br
HETATM    7  C5  UNL     1      25.283 -23.503   3.978  1.00  0.00     0.139 A 
HETATM    8  N3  UNL     1      24.934 -24.229   4.932  1.00  0.00    -0.351 N 
ATOM      9  H3  UNL     1      25.636 -24.246   5.672  1.00  0.00     0.166 HD
HETATM   10  N4  UNL     1      26.499 -22.873   4.072  1.00  0.00    -0.175 N 
ATOM     11  H4  UNL     1      27.056 -23.026   4.912  1.00  0.00     0.186 HD
ENDROOT
BRANCH   8  12
HETATM   12  C6  UNL     1      23.827 -25.023   5.245  1.00  0.00     0.089 C 
BRANCH  12  13
HETATM   13  C7  UNL     1      22.964 -24.417   6.329  1.00  0.00     0.015 C 
HETATM   14  C8  UNL     1      22.601 -25.062   7.416  1.00  0.00     0.003 C 
BRANCH  14  15
HETATM   15  C9  UNL     1      22.993 -26.472   7.720  1.00  0.00     0.159 C 
HETATM   16 BR2  UNL     1      24.187 -26.574   9.239  1.00  0.00    -0.073 Br
BRANCH  15  17
HETATM   17  C10 UNL     1      21.773 -27.265   7.995  1.00  0.00    -0.084 C 
HETATM   18  C11 UNL     1      20.780 -27.910   8.228  1.00  0.00    -0.074 C 
BRANCH  18  19
HETATM   19  C12 UNL     1      19.583 -28.717   8.505  1.00  0.00     0.315 C 
HETATM   20  F1  UNL     1      18.524 -28.341   7.698  1.00  0.00    -0.242 F 
ENDBRANCH  18  19
ENDBRANCH  15  17
ENDBRANCH  14  15
ENDBRANCH  12  13
ENDBRANCH   8  12
BRANCH   1  21
HETATM   21  N1  UNL     1      28.138 -21.487   3.228  1.00  0.00    -0.230 N 
HETATM   22  C1  UNL     1      29.351 -22.150   3.581  1.00  0.00     0.165 C 
ATOM     23  H1  UNL     1      28.178 -20.485   3.043  1.00  0.00     0.177 HD
ENDBRANCH   1  21
TORSDOF 6
ENDMDL
MODEL 4
REMARK VINA RESULT: -6.563911204      5.274      8.072
REMARK  6 active torsions:
REMARK  status: ('A' for Active; 'I' for Inactive)
REMARK    1  A    between atoms: N1_2  and  C2_4 
REMARK    2  A    between atoms: N3_11  and  C6_13 
REMARK    3  A    between atoms: C6_13  and  C7_14 
REMARK    4  A    between atoms: C8_15  and  C9_16 
REMARK    5  A    between atoms: C9_16  and  C10_18 
REMARK    6  A    between atoms: C11_19  and  C12_20 
ROOT
HETATM    1  C2  UNL     1      17.590 -21.192   2.972  1.00  0.00     0.679 A 
HETATM    2  N2  UNL     1      17.218 -21.323   4.256  1.00  0.00    -0.201 N 
ATOM      3  H2  UNL     1      16.280 -21.029   4.524  1.00  0.00     0.183 HD
HETATM    4  C3  UNL     1      18.025 -21.825   5.199  1.00  0.00     0.129 A 
HETATM    5  C4  UNL     1      19.293 -22.230   4.868  1.00  0.00     0.071 A 
HETATM    6 BR1  UNL     1      20.464 -22.955   6.227  1.00  0.00    -0.046 Br
HETATM    7  C5  UNL     1      19.711 -22.110   3.565  1.00  0.00     0.139 A 
HETATM    8  N3  UNL     1      20.838 -22.443   3.143  1.00  0.00    -0.351 N 
ATOM      9  H3  UNL     1      20.935 -22.268   2.142  1.00  0.00     0.166 HD
HETATM   10  N4  UNL     1      18.823 -21.586   2.658  1.00  0.00    -0.175 N 
ATOM     11  H4  UNL     1      19.125 -21.492   1.689  1.00  0.00     0.186 HD
ENDROOT
BRANCH   8  12
HETATM   12  C6  UNL     1      21.999 -22.993   3.691  1.00  0.00     0.089 C 
BRANCH  12  13
HETATM   13  C7  UNL     1      23.021 -23.363   2.639  1.00  0.00     0.015 C 
HETATM   14  C8  UNL     1      24.314 -23.426   2.871  1.00  0.00     0.003 C 
BRANCH  14  15
HETATM   15  C9  UNL     1      24.939 -23.143   4.199  1.00  0.00     0.159 C 
HETATM   16 BR2  UNL     1      24.909 -24.697   5.351  1.00  0.00    -0.073 Br
BRANCH  15  17
HETATM   17  C10 UNL     1      26.339 -22.706   3.992  1.00  0.00    -0.084 C 
HETATM   18  C11 UNL     1      27.481 -22.358   3.821  1.00  0.00    -0.074 C 
BRANCH  18  19
HETATM   19  C12 UNL     1      28.876 -21.933   3.638  1.00  0.00     0.315 C 
HETATM   20  F1  UNL     1      29.587 -22.847   2.882  1.00  0.00    -0.242 F 
ENDBRANCH  18  19
ENDBRANCH  15  17
ENDBRANCH  14  15
ENDBRANCH  12  13
ENDBRANCH   8  12
BRANCH   1  21
HETATM   21  N1  UNL     1      16.765 -20.700   2.111  1.00  0.00    -0.230 N 
HETATM   22  C1  UNL     1      15.810 -19.682   2.406  1.00  0.00     0.165 C 
ATOM     23  H1  UNL     1      16.797 -21.063   1.159  1.00  0.00     0.177 HD
ENDBRANCH   1  21
TORSDOF 6
ENDMDL
MODEL 5
REMARK VINA RESULT: -6.501672707      1.730      1.741
REMARK  6 active torsions:
REMARK  status: ('A' for Active; 'I' for Inactive)
REMARK    1  A    between atoms: N1_2  and  C2_4 
REMARK    2  A    between atoms: N3_11  and  C6_13 
REMARK    3  A    between atoms: C6_13  and  C7_14 
REMARK    4  A    between atoms: C8_15  and  C9_16 
REMARK    5  A    between atoms: C9_16  and  C10_18 
REMARK    6  A    between atoms: C11_19  and  C12_20 
ROOT
HETATM    1  C2  UNL     1      26.082 -22.190   2.624  1.00  0.00     0.679 A 
HETATM    2  N2  UNL     1      25.115 -22.247   1.694  1.00  0.00    -0.201 N 
ATOM      3  H2  UNL     1      25.214 -21.681   0.852  1.00  0.00     0.183 HD
HETATM    4  C3  UNL     1      24.027 -23.016   1.824  1.00  0.00     0.129 A 
HETATM    5  C4  UNL     1      23.866 -23.789   2.946  1.00  0.00     0.071 A 
HETATM    6 BR1  UNL     1      22.295 -24.902   3.138  1.00  0.00    -0.046 Br
HETATM    7  C5  UNL     1      24.834 -23.757   3.920  1.00  0.00     0.139 A 
HETATM    8  N3  UNL     1      24.801 -24.413   4.981  1.00  0.00    -0.351 N 
ATOM      9  H3  UNL     1      25.622 -24.239   5.561  1.00  0.00     0.166 HD
HETATM   10  N4  UNL     1      25.919 -22.942   3.711  1.00  0.00    -0.175 N 
ATOM     11  H4  UNL     1      26.642 -22.912   4.429  1.00  0.00     0.186 HD
ENDROOT
BRANCH   8  12
HETATM   12  C6  UNL     1      23.926 -25.326   5.577  1.00  0.00     0.089 C 
BRANCH  12  13
HETATM   13  C7  UNL     1      23.350 -24.814   6.879  1.00  0.00     0.015 C 
HETATM   14  C8  UNL     1      22.278 -25.320   7.448  1.00  0.00     0.003 C 
BRANCH  14  15
HETATM   15  C9  UNL     1      21.492 -26.459   6.886  1.00  0.00     0.159 C 
HETATM   16 BR2  UNL     1      21.048 -27.764   8.243  1.00  0.00    -0.073 Br
BRANCH  15  17
HETATM   17  C10 UNL     1      20.248 -25.936   6.276  1.00  0.00    -0.084 C 
HETATM   18  C11 UNL     1      19.234 -25.502   5.786  1.00  0.00    -0.074 C 
BRANCH  18  19
HETATM   19  C12 UNL     1      17.986 -24.996   5.198  1.00  0.00     0.315 C 
HETATM   20  F1  UNL     1      17.486 -23.927   5.919  1.00  0.00    -0.242 F 
ENDBRANCH  18  19
ENDBRANCH  15  17
ENDBRANCH  14  15
ENDBRANCH  12  13
ENDBRANCH   8  12
BRANCH   1  21
HETATM   21  N1  UNL     1      27.107 -21.428   2.439  1.00  0.00    -0.230 N 
HETATM   22  C1  UNL     1      28.238 -21.380   3.308  1.00  0.00     0.165 C 
ATOM     23  H1  UNL     1      27.108 -20.821   1.620  1.00  0.00     0.177 HD
ENDBRANCH   1  21
TORSDOF 6
ENDMDL
