MODEL 1
REMARK VINA RESULT: -6.654677841      0.000      0.000
REMARK  5 active torsions:
REMARK  status: ('A' for Active; 'I' for Inactive)
REMARK    1  A    between atoms: N2_5  and  C4_6 
REMARK    2  A    between atoms: C4_6  and  C5_7 
REMARK    3  A    between atoms: C5_7  and  N3_8 
REMARK    4  A    between atoms: C5_7  and  C9_13 
REMARK    5  A    between atoms: N3_8  and  C6_10 
ROOT
HETATM    1  C5  UNL     1      61.200  11.892   9.545  1.00  0.00     0.134 C 
ENDROOT
BRANCH   1   2
HETATM    2  C4  UNL     1      62.684  12.171   9.640  1.00  0.00     0.299 C 
BRANCH   2   3
HETATM    3  N2  UNL     1      62.938  12.902  10.857  1.00  0.00     0.093 N 
HETATM    4  C3  UNL     1      62.764  14.308  10.783  1.00  0.00     0.302 C 
HETATM    5  C2  UNL     1      63.114  14.886  12.151  1.00  0.00     0.302 C 
HETATM    6  N1  UNL     1      64.548  14.897  12.241  1.00  0.00     0.087 N 
HETATM    7  C1  UNL     1      65.030  16.129  11.653  1.00  0.00     0.310 C 
HETATM    8  C14 UNL     1      65.135  13.771  11.543  1.00  0.00     0.302 C 
HETATM    9  C13 UNL     1      64.193  12.592  11.473  1.00  0.00     0.302 C 
ENDBRANCH   2   3
ENDBRANCH   1   2
BRANCH   1  10
HETATM   10  N3  UNL     1      60.742  11.210  10.713  1.00  0.00    -0.409 N 
ATOM     11  H3  UNL     1      61.083  11.469  11.638  1.00  0.00     0.154 HD
BRANCH  10  12
HETATM   12  C6  UNL     1      59.804  10.166  10.553  1.00  0.00     0.077 A 
HETATM   13  C7  UNL     1      59.819   9.184  11.755  1.00  0.00     0.027 A 
HETATM   14  C8  UNL     1      58.618  10.060  11.476  1.00  0.00     0.027 A 
ENDBRANCH  10  12
ENDBRANCH   1  10
BRANCH   1  15
HETATM   15  C9  UNL     1      60.893  11.164   8.264  1.00  0.00     0.145 C 
HETATM   16  C10 UNL     1      62.116  10.558   7.679  1.00  0.00     0.036 C 
HETATM   17  C11 UNL     1      62.167  11.113   6.276  1.00  0.00     0.029 C 
HETATM   18  C12 UNL     1      60.766  11.623   6.096  1.00  0.00     0.168 C 
HETATM   19  O1  UNL     1      60.416  12.105   7.356  1.00  0.00    -0.384 OA
ENDBRANCH   1  15
TORSDOF 5
ENDMDL
MODEL 2
REMARK VINA RESULT: -6.604086413      2.396      3.923
REMARK  5 active torsions:
REMARK  status: ('A' for Active; 'I' for Inactive)
REMARK    1  A    between atoms: N2_5  and  C4_6 
REMARK    2  A    between atoms: C4_6  and  C5_7 
REMARK    3  A    between atoms: C5_7  and  N3_8 
REMARK    4  A    between atoms: C5_7  and  C9_13 
REMARK    5  A    between atoms: N3_8  and  C6_10 
ROOT
HETATM    1  C5  UNL     1      63.343  10.645   8.226  1.00  0.00     0.134 C 
ENDROOT
BRANCH   1   2
HETATM    2  C4  UNL     1      62.652  11.264   9.422  1.00  0.00     0.299 C 
BRANCH   2   3
HETATM    3  N2  UNL     1      63.616  12.048  10.154  1.00  0.00     0.093 N 
HETATM    4  C3  UNL     1      63.820  11.674  11.508  1.00  0.00     0.302 C 
HETATM    5  C2  UNL     1      64.838  12.641  12.103  1.00  0.00     0.302 C 
HETATM    6  N1  UNL     1      64.138  13.868  12.370  1.00  0.00     0.087 N 
HETATM    7  C1  UNL     1      63.537  13.770  13.683  1.00  0.00     0.310 C 
HETATM    8  C14 UNL     1      63.103  14.115  11.386  1.00  0.00     0.302 C 
HETATM    9  C13 UNL     1      63.412  13.462  10.060  1.00  0.00     0.302 C 
ENDBRANCH   2   3
ENDBRANCH   1   2
BRANCH   1  10
HETATM   10  N3  UNL     1      63.051  11.384   7.040  1.00  0.00    -0.409 N 
ATOM     11  H3  UNL     1      63.761  11.519   6.319  1.00  0.00     0.154 HD
BRANCH  10  12
HETATM   12  C6  UNL     1      61.756  11.925   6.890  1.00  0.00     0.077 A 
HETATM   13  C7  UNL     1      61.426  12.238   5.406  1.00  0.00     0.027 A 
HETATM   14  C8  UNL     1      60.688  11.152   6.159  1.00  0.00     0.027 A 
ENDBRANCH  10  12
ENDBRANCH   1  10
BRANCH   1  15
HETATM   15  C9  UNL     1      62.990   9.185   8.127  1.00  0.00     0.145 C 
HETATM   16  C10 UNL     1      62.268   8.719   9.338  1.00  0.00     0.036 C 
HETATM   17  C11 UNL     1      63.083   7.545   9.824  1.00  0.00     0.029 C 
HETATM   18  C12 UNL     1      63.917   7.228   8.615  1.00  0.00     0.168 C 
HETATM   19  O1  UNL     1      64.185   8.474   8.052  1.00  0.00    -0.384 OA
ENDBRANCH   1  15
TORSDOF 5
ENDMDL
MODEL 3
REMARK VINA RESULT: -6.595419248      3.950      5.491
REMARK  5 active torsions:
REMARK  status: ('A' for Active; 'I' for Inactive)
REMARK    1  A    between atoms: N2_5  and  C4_6 
REMARK    2  A    between atoms: C4_6  and  C5_7 
REMARK    3  A    between atoms: C5_7  and  N3_8 
REMARK    4  A    between atoms: C5_7  and  C9_13 
REMARK    5  A    between atoms: N3_8  and  C6_10 
ROOT
HETATM    1  C5  UNL     1      63.145   7.329   9.179  1.00  0.00     0.134 C 
ENDROOT
BRANCH   1   2
HETATM    2  C4  UNL     1      62.947   8.768   9.602  1.00  0.00     0.299 C 
BRANCH   2   3
HETATM    3  N2  UNL     1      62.199   9.451   8.575  1.00  0.00     0.093 N 
HETATM    4  C3  UNL     1      62.900  10.460   7.865  1.00  0.00     0.302 C 
HETATM    5  C2  UNL     1      61.930  11.074   6.862  1.00  0.00     0.302 C 
HETATM    6  N1  UNL     1      61.068  11.954   7.603  1.00  0.00     0.087 N 
HETATM    7  C1  UNL     1      61.712  13.247   7.695  1.00  0.00     0.310 C 
HETATM    8  C14 UNL     1      60.812  11.449   8.937  1.00  0.00     0.302 C 
HETATM    9  C13 UNL     1      60.928   9.945   9.008  1.00  0.00     0.302 C 
ENDBRANCH   2   3
ENDBRANCH   1   2
BRANCH   1  10
HETATM   10  N3  UNL     1      62.596   6.440  10.153  1.00  0.00    -0.409 N 
ATOM     11  H3  UNL     1      63.053   5.554  10.369  1.00  0.00     0.154 HD
BRANCH  10  12
HETATM   12  C6  UNL     1      61.405   6.819  10.808  1.00  0.00     0.077 A 
HETATM   13  C7  UNL     1      60.836   5.673  11.688  1.00  0.00     0.027 A 
HETATM   14  C8  UNL     1      61.368   6.946  12.309  1.00  0.00     0.027 A 
ENDBRANCH  10  12
ENDBRANCH   1  10
BRANCH   1  15
HETATM   15  C9  UNL     1      64.599   7.074   8.884  1.00  0.00     0.145 C 
HETATM   16  C10 UNL     1      64.931   7.403   7.474  1.00  0.00     0.036 C 
HETATM   17  C11 UNL     1      65.547   6.135   6.935  1.00  0.00     0.029 C 
HETATM   18  C12 UNL     1      65.872   5.390   8.199  1.00  0.00     0.168 C 
HETATM   19  O1  UNL     1      64.826   5.712   9.061  1.00  0.00    -0.384 OA
ENDBRANCH   1  15
TORSDOF 5
ENDMDL
MODEL 4
REMARK VINA RESULT: -6.553238438      2.385      4.229
REMARK  5 active torsions:
REMARK  status: ('A' for Active; 'I' for Inactive)
REMARK    1  A    between atoms: N2_5  and  C4_6 
REMARK    2  A    between atoms: C4_6  and  C5_7 
REMARK    3  A    between atoms: C5_7  and  N3_8 
REMARK    4  A    between atoms: C5_7  and  C9_13 
REMARK    5  A    between atoms: N3_8  and  C6_10 
ROOT
HETATM    1  C5  UNL     1      63.168  13.118   9.198  1.00  0.00     0.134 C 
ENDROOT
BRANCH   1   2
HETATM    2  C4  UNL     1      62.602  13.620  10.508  1.00  0.00     0.299 C 
BRANCH   2   3
HETATM    3  N2  UNL     1      63.528  13.296  11.564  1.00  0.00     0.093 N 
HETATM    4  C3  UNL     1      63.361  12.022  12.166  1.00  0.00     0.302 C 
HETATM    5  C2  UNL     1      64.406  11.895  13.269  1.00  0.00     0.302 C 
HETATM    6  N1  UNL     1      63.931  12.672  14.381  1.00  0.00     0.087 N 
HETATM    7  C1  UNL     1      63.060  11.835  15.179  1.00  0.00     0.310 C 
HETATM    8  C14 UNL     1      63.201  13.842  13.940  1.00  0.00     0.302 C 
HETATM    9  C13 UNL     1      63.642  14.306  12.572  1.00  0.00     0.302 C 
ENDBRANCH   2   3
ENDBRANCH   1   2
BRANCH   1  10
HETATM   10  N3  UNL     1      63.936  14.139   8.558  1.00  0.00    -0.409 N 
ATOM     11  H3  UNL     1      63.484  14.961   8.159  1.00  0.00     0.154 HD
BRANCH  10  12
HETATM   12  C6  UNL     1      65.337  13.980   8.493  1.00  0.00     0.077 A 
HETATM   13  C7  UNL     1      66.084  15.086   9.286  1.00  0.00     0.027 A 
HETATM   14  C8  UNL     1      66.124  13.641   9.733  1.00  0.00     0.027 A 
ENDBRANCH  10  12
ENDBRANCH   1  10
BRANCH   1  15
HETATM   15  C9  UNL     1      62.064  12.568   8.336  1.00  0.00     0.145 C 
HETATM   16  C10 UNL     1      62.261  11.122   8.060  1.00  0.00     0.036 C 
HETATM   17  C11 UNL     1      62.236  11.027   6.554  1.00  0.00     0.029 C 
HETATM   18  C12 UNL     1      61.616  12.342   6.174  1.00  0.00     0.168 C 
HETATM   19  O1  UNL     1      62.116  13.238   7.117  1.00  0.00    -0.384 OA
ENDBRANCH   1  15
TORSDOF 5
ENDMDL
MODEL 5
REMARK VINA RESULT: -6.512954905      2.710      6.267
REMARK  5 active torsions:
REMARK  status: ('A' for Active; 'I' for Inactive)
REMARK    1  A    between atoms: N2_5  and  C4_6 
REMARK    2  A    between atoms: C4_6  and  C5_7 
REMARK    3  A    between atoms: C5_7  and  N3_8 
REMARK    4  A    between atoms: C5_7  and  C9_13 
REMARK    5  A    between atoms: N3_8  and  C6_10 
ROOT
HETATM    1  C5  UNL     1      64.260  14.381  11.195  1.00  0.00     0.134 C 
ENDROOT
BRANCH   1   2
HETATM    2  C4  UNL     1      63.117  13.427  10.922  1.00  0.00     0.299 C 
BRANCH   2   3
HETATM    3  N2  UNL     1      62.827  13.448   9.510  1.00  0.00     0.093 N 
HETATM    4  C3  UNL     1      61.547  12.965   9.133  1.00  0.00     0.302 C 
HETATM    5  C2  UNL     1      61.459  13.039   7.612  1.00  0.00     0.302 C 
HETATM    6  N1  UNL     1      62.217  11.931   7.098  1.00  0.00     0.087 N 
HETATM    7  C1  UNL     1      61.348  10.775   7.042  1.00  0.00     0.310 C 
HETATM    8  C14 UNL     1      63.360  11.633   7.937  1.00  0.00     0.302 C 
HETATM    9  C13 UNL     1      63.840  12.847   8.696  1.00  0.00     0.302 C 
ENDBRANCH   2   3
ENDBRANCH   1   2
BRANCH   1  10
HETATM   10  N3  UNL     1      65.259  13.751  11.997  1.00  0.00    -0.409 N 
ATOM     11  H3  UNL     1      65.582  14.179  12.864  1.00  0.00     0.154 HD
BRANCH  10  12
HETATM   12  C6  UNL     1      65.790  12.518  11.558  1.00  0.00     0.077 A 
HETATM   13  C7  UNL     1      67.322  12.430  11.791  1.00  0.00     0.027 A 
HETATM   14  C8  UNL     1      66.363  11.539  12.550  1.00  0.00     0.027 A 
ENDBRANCH  10  12
ENDBRANCH   1  10
BRANCH   1  15
HETATM   15  C9  UNL     1      63.732  15.660  11.787  1.00  0.00     0.145 C 
HETATM   16  C10 UNL     1      64.679  16.228  12.780  1.00  0.00     0.036 C 
HETATM   17  C11 UNL     1      63.851  16.384  14.032  1.00  0.00     0.029 C 
HETATM   18  C12 UNL     1      62.453  16.285  13.490  1.00  0.00     0.168 C 
HETATM   19  O1  UNL     1      62.554  15.351  12.461  1.00  0.00    -0.384 OA
ENDBRANCH   1  15
TORSDOF 5
ENDMDL
