MODEL 1
REMARK VINA RESULT: -6.714206973      0.000      0.000
REMARK  5 active torsions:
REMARK  status: ('A' for Active; 'I' for Inactive)
REMARK    1  A    between atoms: C2_2  and  C4_4 
REMARK    2  A    between atoms: C4_4  and  C5_5 
REMARK    3  A    between atoms: C4_4  and  N2_8 
REMARK    4  A    between atoms: N2_8  and  S1_10 
REMARK    5  A    between atoms: S1_10  and  N3_13 
ROOT
HETATM    1  C5  UNL     1      61.118  10.867   6.814  1.00  0.00     0.149 C 
HETATM    2  C6  UNL     1      61.394  11.916   5.864  1.00  0.00     0.061 C 
HETATM    3  N1  UNL     1      61.624  12.750   5.106  1.00  0.00    -0.197 NA
ENDROOT
BRANCH   1   4
HETATM    4  C4  UNL     1      62.019  10.940   8.033  1.00  0.00     0.110 C 
BRANCH   4   5
HETATM    5  C2  UNL     1      62.262   9.537   8.579  1.00  0.00     0.002 C 
HETATM    6  C1  UNL     1      62.300   9.657  10.080  1.00  0.00     0.011 C 
HETATM    7  C3  UNL     1      63.611   9.005   8.135  1.00  0.00     0.011 C 
ENDBRANCH   4   5
BRANCH   4   8
HETATM    8  N2  UNL     1      63.253  11.553   7.709  1.00  0.00    -0.301 N 
ATOM      9  H2  UNL     1      63.904  11.168   7.025  1.00  0.00     0.173 HD
BRANCH   8  10
HETATM   10  S1  UNL     1      63.550  12.997   8.569  1.00  0.00     0.299 S 
HETATM   11  O1  UNL     1      62.553  13.013   9.724  1.00  0.00    -0.188 OA
HETATM   12  O2  UNL     1      63.237  14.241   7.777  1.00  0.00    -0.188 OA
BRANCH  10  13
HETATM   13  N3  UNL     1      65.157  13.133   9.178  1.00  0.00    -0.193 NA
HETATM   14  C7  UNL     1      65.805  14.363   8.919  1.00  0.00     0.109 C 
HETATM   15  C8  UNL     1      66.683  14.699  10.106  1.00  0.00     0.017 C 
HETATM   16  C9  UNL     1      66.471  13.494  11.027  1.00  0.00     0.017 C 
HETATM   17  C10 UNL     1      65.074  13.079  10.623  1.00  0.00     0.109 C 
ENDBRANCH  10  13
ENDBRANCH   8  10
ENDBRANCH   4   8
ENDBRANCH   1   4
TORSDOF 5
ENDMDL
MODEL 2
REMARK VINA RESULT: -6.700185665      1.361      1.953
REMARK  5 active torsions:
REMARK  status: ('A' for Active; 'I' for Inactive)
REMARK    1  A    between atoms: C2_2  and  C4_4 
REMARK    2  A    between atoms: C4_4  and  C5_5 
REMARK    3  A    between atoms: C4_4  and  N2_8 
REMARK    4  A    between atoms: N2_8  and  S1_10 
REMARK    5  A    between atoms: S1_10  and  N3_13 
ROOT
HETATM    1  C5  UNL     1      61.426  10.887   6.954  1.00  0.00     0.149 C 
HETATM    2  C6  UNL     1      61.493  11.879   5.910  1.00  0.00     0.061 C 
HETATM    3  N1  UNL     1      61.556  12.669   5.076  1.00  0.00    -0.197 NA
ENDROOT
BRANCH   1   4
HETATM    4  C4  UNL     1      62.308  11.236   8.139  1.00  0.00     0.110 C 
BRANCH   4   5
HETATM    5  C2  UNL     1      62.508  10.003   9.014  1.00  0.00     0.002 C 
HETATM    6  C1  UNL     1      63.325   9.028   8.209  1.00  0.00     0.011 C 
HETATM    7  C3  UNL     1      61.182   9.334   9.324  1.00  0.00     0.011 C 
ENDBRANCH   4   5
BRANCH   4   8
HETATM    8  N2  UNL     1      63.561  11.729   7.704  1.00  0.00    -0.301 N 
ATOM      9  H2  UNL     1      64.143  11.245   7.020  1.00  0.00     0.173 HD
BRANCH   8  10
HETATM   10  S1  UNL     1      64.009  13.207   8.430  1.00  0.00     0.299 S 
HETATM   11  O1  UNL     1      63.131  14.276   7.786  1.00  0.00    -0.188 OA
HETATM   12  O2  UNL     1      65.421  13.629   8.109  1.00  0.00    -0.188 OA
BRANCH  10  13
HETATM   13  N3  UNL     1      63.811  13.237  10.142  1.00  0.00    -0.193 NA
HETATM   14  C7  UNL     1      64.968  13.575  10.883  1.00  0.00     0.109 C 
HETATM   15  C8  UNL     1      64.541  14.379  12.093  1.00  0.00     0.017 C 
HETATM   16  C9  UNL     1      63.015  14.409  11.949  1.00  0.00     0.017 C 
HETATM   17  C10 UNL     1      62.877  14.299  10.448  1.00  0.00     0.109 C 
ENDBRANCH  10  13
ENDBRANCH   8  10
ENDBRANCH   4   8
ENDBRANCH   1   4
TORSDOF 5
ENDMDL
MODEL 3
REMARK VINA RESULT: -6.570410134      2.433      5.773
REMARK  5 active torsions:
REMARK  status: ('A' for Active; 'I' for Inactive)
REMARK    1  A    between atoms: C2_2  and  C4_4 
REMARK    2  A    between atoms: C4_4  and  C5_5 
REMARK    3  A    between atoms: C4_4  and  N2_8 
REMARK    4  A    between atoms: N2_8  and  S1_10 
REMARK    5  A    between atoms: S1_10  and  N3_13 
ROOT
HETATM    1  C5  UNL     1      64.992  15.790  11.580  1.00  0.00     0.149 C 
HETATM    2  C6  UNL     1      66.300  15.484  11.058  1.00  0.00     0.061 C 
HETATM    3  N1  UNL     1      67.340  15.238  10.631  1.00  0.00    -0.197 NA
ENDROOT
BRANCH   1   4
HETATM    4  C4  UNL     1      64.016  14.641  11.404  1.00  0.00     0.110 C 
BRANCH   4   5
HETATM    5  C2  UNL     1      62.845  14.806  12.366  1.00  0.00     0.002 C 
HETATM    6  C1  UNL     1      62.525  16.277  12.413  1.00  0.00     0.011 C 
HETATM    7  C3  UNL     1      63.230  14.383  13.771  1.00  0.00     0.011 C 
ENDBRANCH   4   5
BRANCH   4   8
HETATM    8  N2  UNL     1      63.542  14.585  10.072  1.00  0.00    -0.301 N 
ATOM      9  H2  UNL     1      62.968  15.317   9.654  1.00  0.00     0.173 HD
BRANCH   8  10
HETATM   10  S1  UNL     1      64.021  13.180   9.229  1.00  0.00     0.299 S 
HETATM   11  O1  UNL     1      64.733  12.298  10.251  1.00  0.00    -0.188 OA
HETATM   12  O2  UNL     1      65.058  13.444   8.166  1.00  0.00    -0.188 OA
BRANCH  10  13
HETATM   13  N3  UNL     1      62.716  12.313   8.511  1.00  0.00    -0.193 NA
HETATM   14  C7  UNL     1      61.885  13.067   7.651  1.00  0.00     0.109 C 
HETATM   15  C8  UNL     1      61.434  12.170   6.516  1.00  0.00     0.017 C 
HETATM   16  C9  UNL     1      62.084  10.830   6.876  1.00  0.00     0.017 C 
HETATM   17  C10 UNL     1      63.295  11.307   7.646  1.00  0.00     0.109 C 
ENDBRANCH  10  13
ENDBRANCH   8  10
ENDBRANCH   4   8
ENDBRANCH   1   4
TORSDOF 5
ENDMDL
MODEL 4
REMARK VINA RESULT: -6.486987481      2.089      5.580
REMARK  5 active torsions:
REMARK  status: ('A' for Active; 'I' for Inactive)
REMARK    1  A    between atoms: C2_2  and  C4_4 
REMARK    2  A    between atoms: C4_4  and  C5_5 
REMARK    3  A    between atoms: C4_4  and  N2_8 
REMARK    4  A    between atoms: N2_8  and  S1_10 
REMARK    5  A    between atoms: S1_10  and  N3_13 
ROOT
HETATM    1  C5  UNL     1      65.572  13.504  11.281  1.00  0.00     0.149 C 
HETATM    2  C6  UNL     1      66.450  14.632  11.090  1.00  0.00     0.061 C 
HETATM    3  N1  UNL     1      67.146  15.536  10.946  1.00  0.00    -0.197 NA
ENDROOT
BRANCH   1   4
HETATM    4  C4  UNL     1      64.108  13.900  11.248  1.00  0.00     0.110 C 
BRANCH   4   5
HETATM    5  C2  UNL     1      63.798  14.832  12.414  1.00  0.00     0.002 C 
HETATM    6  C1  UNL     1      63.355  13.961  13.560  1.00  0.00     0.011 C 
HETATM    7  C3  UNL     1      62.646  15.759  12.080  1.00  0.00     0.011 C 
ENDBRANCH   4   5
BRANCH   4   8
HETATM    8  N2  UNL     1      63.786  14.534  10.024  1.00  0.00    -0.301 N 
ATOM      9  H2  UNL     1      63.701  15.545   9.927  1.00  0.00     0.173 HD
BRANCH   8  10
HETATM   10  S1  UNL     1      63.556  13.450   8.726  1.00  0.00     0.299 S 
HETATM   11  O1  UNL     1      64.926  13.275   8.075  1.00  0.00    -0.188 OA
HETATM   12  O2  UNL     1      62.681  14.004   7.631  1.00  0.00    -0.188 OA
BRANCH  10  13
HETATM   13  N3  UNL     1      62.929  11.914   9.197  1.00  0.00    -0.193 NA
HETATM   14  C7  UNL     1      61.522  11.843   9.318  1.00  0.00     0.109 C 
HETATM   15  C8  UNL     1      61.073  10.468   8.868  1.00  0.00     0.017 C 
HETATM   16  C9  UNL     1      62.400   9.784   8.523  1.00  0.00     0.017 C 
HETATM   17  C10 UNL     1      63.236  10.981   8.133  1.00  0.00     0.109 C 
ENDBRANCH  10  13
ENDBRANCH   8  10
ENDBRANCH   4   8
ENDBRANCH   1   4
TORSDOF 5
ENDMDL
MODEL 5
REMARK VINA RESULT: -6.475843170      2.108      5.424
REMARK  5 active torsions:
REMARK  status: ('A' for Active; 'I' for Inactive)
REMARK    1  A    between atoms: C2_2  and  C4_4 
REMARK    2  A    between atoms: C4_4  and  C5_5 
REMARK    3  A    between atoms: C4_4  and  N2_8 
REMARK    4  A    between atoms: N2_8  and  S1_10 
REMARK    5  A    between atoms: S1_10  and  N3_13 
ROOT
HETATM    1  C5  UNL     1      64.653  15.471  11.705  1.00  0.00     0.149 C 
HETATM    2  C6  UNL     1      66.045  15.529  11.334  1.00  0.00     0.061 C 
HETATM    3  N1  UNL     1      67.153  15.575  11.029  1.00  0.00    -0.197 NA
ENDROOT
BRANCH   1   4
HETATM    4  C4  UNL     1      63.974  14.210  11.202  1.00  0.00     0.110 C 
BRANCH   4   5
HETATM    5  C2  UNL     1      63.219  13.540  12.345  1.00  0.00     0.002 C 
HETATM    6  C1  UNL     1      63.300  14.472  13.525  1.00  0.00     0.011 C 
HETATM    7  C3  UNL     1      63.885  12.239  12.750  1.00  0.00     0.011 C 
ENDBRANCH   4   5
BRANCH   4   8
HETATM    8  N2  UNL     1      63.084  14.507  10.143  1.00  0.00    -0.301 N 
ATOM      9  H2  UNL     1      62.344  15.205  10.217  1.00  0.00     0.173 HD
BRANCH   8  10
HETATM   10  S1  UNL     1      63.364  13.591   8.731  1.00  0.00     0.299 S 
HETATM   11  O1  UNL     1      64.780  13.937   8.277  1.00  0.00    -0.188 OA
HETATM   12  O2  UNL     1      62.484  13.990   7.573  1.00  0.00    -0.188 OA
BRANCH  10  13
HETATM   13  N3  UNL     1      63.220  11.888   8.958  1.00  0.00    -0.193 NA
HETATM   14  C7  UNL     1      61.979  11.446   9.472  1.00  0.00     0.109 C 
HETATM   15  C8  UNL     1      61.651  10.108   8.842  1.00  0.00     0.017 C 
HETATM   16  C9  UNL     1      62.873   9.853   7.953  1.00  0.00     0.017 C 
HETATM   17  C10 UNL     1      63.297  11.272   7.650  1.00  0.00     0.109 C 
ENDBRANCH  10  13
ENDBRANCH   8  10
ENDBRANCH   4   8
ENDBRANCH   1   4
TORSDOF 5
ENDMDL
