MODEL 1
REMARK VINA RESULT: -6.657685840      0.000      0.000
REMARK  8 active torsions:
REMARK  status: ('A' for Active; 'I' for Inactive)
REMARK    1  A    between atoms: C2_2  and  O1_3 
REMARK    2  A    between atoms: O1_3  and  C3_4 
REMARK    3  A    between atoms: C4_5  and  N1_6 
REMARK    4  A    between atoms: C6_8  and  N2_9 
REMARK    5  A    between atoms: C8_14  and  N3_15 
REMARK    6  A    between atoms: C10_22  and  N5_23 
REMARK    7  A    between atoms: C13_26  and  N6_27 
REMARK    8  A    between atoms: C16_35  and  N8_36 
ROOT
HETATM    1  C3  UNL     1      -9.288 -28.403 -20.610  1.00  0.00     0.157 A 
HETATM    2  C4  UNL     1      -8.093 -28.780 -21.166  1.00  0.00     0.156 A 
HETATM    3  N4  UNL     1      -7.171 -29.365 -20.334  1.00  0.00    -0.173 N 
ATOM      4  H4  UNL     1      -6.278 -29.651 -20.735  1.00  0.00     0.186 HD
HETATM    5  C10 UNL     1      -7.372 -29.580 -19.038  1.00  0.00     0.687 A 
HETATM    6  N7  UNL     1      -8.542 -29.205 -18.518  1.00  0.00    -0.174 N 
ATOM      7  H7  UNL     1      -8.710 -29.365 -17.525  1.00  0.00     0.186 HD
HETATM    8  C16 UNL     1      -9.503 -28.629 -19.244  1.00  0.00     0.152 A 
ENDROOT
BRANCH   2   9
HETATM    9  N1  UNL     1      -7.690 -28.599 -22.514  1.00  0.00    -0.360 N 
HETATM   10  C5  UNL     1      -7.880 -29.478 -23.615  1.00  0.00     0.157 C 
HETATM   11  C6  UNL     1      -6.945 -29.016 -24.748  1.00  0.00     0.203 C 
HETATM   12  C7  UNL     1      -7.388 -27.634 -25.233  1.00  0.00     0.068 C 
HETATM   13  C8  UNL     1      -7.676 -26.753 -24.038  1.00  0.00     0.203 C 
HETATM   14  C9  UNL     1      -6.959 -27.350 -22.854  1.00  0.00     0.157 C 
BRANCH  11  15
HETATM   15  N2  UNL     1      -7.118 -29.897 -25.902  1.00  0.00    -0.073 N 
ATOM     16  H23 UNL     1      -7.818 -29.546 -26.556  1.00  0.00     0.274 HD
ATOM     17  H22 UNL     1      -6.313 -29.878 -26.528  1.00  0.00     0.274 HD
ATOM     18  H21 UNL     1      -7.332 -30.840 -25.574  1.00  0.00     0.274 HD
ENDBRANCH  11  15
BRANCH  13  19
HETATM   19  N3  UNL     1      -7.145 -25.416 -24.208  1.00  0.00    -0.073 N 
ATOM     20  H33 UNL     1      -6.888 -25.241 -25.180  1.00  0.00     0.274 HD
ATOM     21  H32 UNL     1      -7.875 -24.713 -24.105  1.00  0.00     0.274 HD
ATOM     22  H31 UNL     1      -6.363 -25.233 -23.581  1.00  0.00     0.274 HD
ENDBRANCH  13  19
ENDBRANCH   2   9
BRANCH   1  23
HETATM   23  O1  UNL     1     -10.286 -27.821 -21.300  1.00  0.00    -0.345 OA
BRANCH  23  24
HETATM   24  C2  UNL     1     -10.574 -26.601 -21.814  1.00  0.00     0.171 C 
HETATM   25  C1  UNL     1     -11.517 -25.706 -21.051  1.00  0.00     0.034 C 
ENDBRANCH  23  24
ENDBRANCH   1  23
BRANCH   8  26
HETATM   26  N8  UNL     1     -10.617 -28.272 -18.670  1.00  0.00    -0.383 N 
ATOM     27  H82 UNL     1     -10.831 -28.607 -17.730  1.00  0.00     0.157 HD
ATOM     28  H81 UNL     1     -11.277 -27.653 -19.141  1.00  0.00     0.157 HD
ENDBRANCH   8  26
BRANCH   5  29
HETATM   29  N5  UNL     1      -6.338 -30.164 -18.260  1.00  0.00    -0.197 N 
HETATM   30  C11 UNL     1      -6.212 -31.566 -18.209  1.00  0.00     0.084 C 
HETATM   31  C12 UNL     1      -5.400 -32.150 -17.108  1.00  0.00     0.078 C 
HETATM   32  C13 UNL     1      -4.318 -31.281 -16.568  1.00  0.00     0.189 C 
HETATM   33  C14 UNL     1      -4.186 -29.953 -17.254  1.00  0.00     0.053 C 
HETATM   34  C15 UNL     1      -5.469 -29.279 -17.545  1.00  0.00     0.148 C 
BRANCH  32  35
HETATM   35  N6  UNL     1      -3.020 -31.931 -16.635  1.00  0.00    -0.075 N 
ATOM     36  H63 UNL     1      -3.102 -32.939 -16.498  1.00  0.00     0.274 HD
ATOM     37  H62 UNL     1      -2.652 -31.928 -17.587  1.00  0.00     0.274 HD
ATOM     38  H61 UNL     1      -2.356 -31.521 -15.979  1.00  0.00     0.274 HD
ENDBRANCH  32  35
ENDBRANCH   5  29
TORSDOF 8
ENDMDL
MODEL 2
REMARK VINA RESULT: -6.454225994      3.585      4.628
REMARK  8 active torsions:
REMARK  status: ('A' for Active; 'I' for Inactive)
REMARK    1  A    between atoms: C2_2  and  O1_3 
REMARK    2  A    between atoms: O1_3  and  C3_4 
REMARK    3  A    between atoms: C4_5  and  N1_6 
REMARK    4  A    between atoms: C6_8  and  N2_9 
REMARK    5  A    between atoms: C8_14  and  N3_15 
REMARK    6  A    between atoms: C10_22  and  N5_23 
REMARK    7  A    between atoms: C13_26  and  N6_27 
REMARK    8  A    between atoms: C16_35  and  N8_36 
ROOT
HETATM    1  C3  UNL     1      -5.835 -28.189 -22.724  1.00  0.00     0.157 A 
HETATM    2  C4  UNL     1      -4.641 -28.314 -22.061  1.00  0.00     0.156 A 
HETATM    3  N4  UNL     1      -4.668 -28.919 -20.829  1.00  0.00    -0.173 N 
ATOM      4  H4  UNL     1      -3.787 -29.018 -20.325  1.00  0.00     0.186 HD
HETATM    5  C10 UNL     1      -5.773 -29.383 -20.254  1.00  0.00     0.687 A 
HETATM    6  N7  UNL     1      -6.923 -29.251 -20.918  1.00  0.00    -0.174 N 
ATOM      7  H7  UNL     1      -7.778 -29.604 -20.488  1.00  0.00     0.186 HD
HETATM    8  C16 UNL     1      -7.002 -28.678 -22.120  1.00  0.00     0.152 A 
ENDROOT
BRANCH   2   9
HETATM    9  N1  UNL     1      -3.375 -27.849 -22.499  1.00  0.00    -0.360 N 
HETATM   10  C5  UNL     1      -2.702 -26.650 -22.134  1.00  0.00     0.157 C 
HETATM   11  C6  UNL     1      -1.568 -26.424 -23.151  1.00  0.00     0.203 C 
HETATM   12  C7  UNL     1      -0.535 -27.544 -23.008  1.00  0.00     0.068 C 
HETATM   13  C8  UNL     1      -1.249 -28.873 -22.906  1.00  0.00     0.203 C 
HETATM   14  C9  UNL     1      -2.632 -28.687 -23.476  1.00  0.00     0.157 C 
BRANCH  11  15
HETATM   15  N2  UNL     1      -0.850 -25.198 -22.803  1.00  0.00    -0.073 N 
ATOM     16  H23 UNL     1      -1.467 -24.387 -22.760  1.00  0.00     0.274 HD
ATOM     17  H22 UNL     1      -0.539 -25.194 -21.831  1.00  0.00     0.274 HD
ATOM     18  H21 UNL     1      -0.079 -25.065 -23.457  1.00  0.00     0.274 HD
ENDBRANCH  11  15
BRANCH  13  19
HETATM   19  N3  UNL     1      -0.608 -29.897 -23.705  1.00  0.00    -0.073 N 
ATOM     20  H33 UNL     1      -0.273 -29.520 -24.591  1.00  0.00     0.274 HD
ATOM     21  H32 UNL     1       0.285 -30.176 -23.300  1.00  0.00     0.274 HD
ATOM     22  H31 UNL     1      -1.215 -30.703 -23.852  1.00  0.00     0.274 HD
ENDBRANCH  13  19
ENDBRANCH   2   9
BRANCH   1  23
HETATM   23  O1  UNL     1      -5.964 -27.621 -23.937  1.00  0.00    -0.345 OA
BRANCH  23  24
HETATM   24  C2  UNL     1      -5.972 -26.374 -24.466  1.00  0.00     0.171 C 
HETATM   25  C1  UNL     1      -6.107 -25.200 -23.531  1.00  0.00     0.034 C 
ENDBRANCH  23  24
ENDBRANCH   1  23
BRANCH   8  26
HETATM   26  N8  UNL     1      -8.159 -28.567 -22.707  1.00  0.00    -0.383 N 
ATOM     27  H82 UNL     1      -8.201 -28.357 -23.704  1.00  0.00     0.157 HD
ATOM     28  H81 UNL     1      -9.027 -28.698 -22.188  1.00  0.00     0.157 HD
ENDBRANCH   8  26
BRANCH   5  29
HETATM   29  N5  UNL     1      -5.694 -29.964 -18.961  1.00  0.00    -0.197 N 
HETATM   30  C11 UNL     1      -6.528 -31.051 -18.634  1.00  0.00     0.084 C 
HETATM   31  C12 UNL     1      -6.709 -31.379 -17.194  1.00  0.00     0.078 C 
HETATM   32  C13 UNL     1      -5.582 -31.004 -16.297  1.00  0.00     0.189 C 
HETATM   33  C14 UNL     1      -4.408 -30.385 -16.997  1.00  0.00     0.053 C 
HETATM   34  C15 UNL     1      -4.762 -29.394 -18.036  1.00  0.00     0.148 C 
BRANCH  32  35
HETATM   35  N6  UNL     1      -5.085 -32.146 -15.549  1.00  0.00    -0.075 N 
ATOM     36  H63 UNL     1      -5.844 -32.770 -15.276  1.00  0.00     0.274 HD
ATOM     37  H62 UNL     1      -4.562 -32.783 -16.150  1.00  0.00     0.274 HD
ATOM     38  H61 UNL     1      -4.531 -31.859 -14.742  1.00  0.00     0.274 HD
ENDBRANCH  32  35
ENDBRANCH   5  29
TORSDOF 8
ENDMDL
MODEL 3
REMARK VINA RESULT: -6.319763409      0.626      1.747
REMARK  8 active torsions:
REMARK  status: ('A' for Active; 'I' for Inactive)
REMARK    1  A    between atoms: C2_2  and  O1_3 
REMARK    2  A    between atoms: O1_3  and  C3_4 
REMARK    3  A    between atoms: C4_5  and  N1_6 
REMARK    4  A    between atoms: C6_8  and  N2_9 
REMARK    5  A    between atoms: C8_14  and  N3_15 
REMARK    6  A    between atoms: C10_22  and  N5_23 
REMARK    7  A    between atoms: C13_26  and  N6_27 
REMARK    8  A    between atoms: C16_35  and  N8_36 
ROOT
HETATM    1  C3  UNL     1      -9.228 -28.450 -20.496  1.00  0.00     0.157 A 
HETATM    2  C4  UNL     1      -8.042 -28.852 -21.056  1.00  0.00     0.156 A 
HETATM    3  N4  UNL     1      -7.126 -29.447 -20.226  1.00  0.00    -0.173 N 
ATOM      4  H4  UNL     1      -6.240 -29.751 -20.630  1.00  0.00     0.186 HD
HETATM    5  C10 UNL     1      -7.324 -29.652 -18.927  1.00  0.00     0.687 A 
HETATM    6  N7  UNL     1      -8.484 -29.254 -18.404  1.00  0.00    -0.174 N 
ATOM      7  H7  UNL     1      -8.649 -29.405 -17.408  1.00  0.00     0.186 HD
HETATM    8  C16 UNL     1      -9.439 -28.665 -19.127  1.00  0.00     0.152 A 
ENDROOT
BRANCH   2   9
HETATM    9  N1  UNL     1      -7.643 -28.685 -22.407  1.00  0.00    -0.360 N 
HETATM   10  C5  UNL     1      -6.803 -27.679 -22.959  1.00  0.00     0.157 C 
HETATM   11  C6  UNL     1      -6.987 -27.705 -24.487  1.00  0.00     0.203 C 
HETATM   12  C7  UNL     1      -6.462 -29.035 -25.033  1.00  0.00     0.068 C 
HETATM   13  C8  UNL     1      -6.959 -30.165 -24.160  1.00  0.00     0.203 C 
HETATM   14  C9  UNL     1      -8.160 -29.657 -23.405  1.00  0.00     0.157 C 
BRANCH  11  15
HETATM   15  N2  UNL     1      -6.132 -26.683 -25.090  1.00  0.00    -0.073 N 
ATOM     16  H23 UNL     1      -6.139 -25.810 -24.561  1.00  0.00     0.274 HD
ATOM     17  H22 UNL     1      -5.140 -26.902 -24.994  1.00  0.00     0.274 HD
ATOM     18  H21 UNL     1      -6.407 -26.548 -26.064  1.00  0.00     0.274 HD
ENDBRANCH  11  15
BRANCH  13  19
HETATM   19  N3  UNL     1      -7.412 -31.297 -24.941  1.00  0.00    -0.073 N 
ATOM     20  H33 UNL     1      -7.405 -32.154 -24.389  1.00  0.00     0.274 HD
ATOM     21  H32 UNL     1      -8.412 -31.237 -25.134  1.00  0.00     0.274 HD
ATOM     22  H31 UNL     1      -6.876 -31.407 -25.802  1.00  0.00     0.274 HD
ENDBRANCH  13  19
ENDBRANCH   2   9
BRANCH   1  23
HETATM   23  O1  UNL     1     -10.219 -27.855 -21.183  1.00  0.00    -0.345 OA
BRANCH  23  24
HETATM   24  C2  UNL     1     -10.473 -26.644 -21.735  1.00  0.00     0.171 C 
HETATM   25  C1  UNL     1     -11.288 -25.654 -20.944  1.00  0.00     0.034 C 
ENDBRANCH  23  24
ENDBRANCH   1  23
BRANCH   8  26
HETATM   26  N8  UNL     1     -10.543 -28.286 -18.549  1.00  0.00    -0.383 N 
ATOM     27  H82 UNL     1     -10.886 -27.335 -18.690  1.00  0.00     0.157 HD
ATOM     28  H81 UNL     1     -11.080 -28.927 -17.966  1.00  0.00     0.157 HD
ENDBRANCH   8  26
BRANCH   5  29
HETATM   29  N5  UNL     1      -6.295 -30.249 -18.152  1.00  0.00    -0.197 N 
HETATM   30  C11 UNL     1      -6.233 -31.652 -18.040  1.00  0.00     0.084 C 
HETATM   31  C12 UNL     1      -5.417 -32.225 -16.936  1.00  0.00     0.078 C 
HETATM   32  C13 UNL     1      -4.281 -31.386 -16.466  1.00  0.00     0.189 C 
HETATM   33  C14 UNL     1      -4.108 -30.097 -17.215  1.00  0.00     0.053 C 
HETATM   34  C15 UNL     1      -5.366 -29.376 -17.502  1.00  0.00     0.148 C 
BRANCH  32  35
HETATM   35  N6  UNL     1      -3.017 -32.099 -16.538  1.00  0.00    -0.075 N 
ATOM     36  H63 UNL     1      -3.023 -32.790 -17.289  1.00  0.00     0.274 HD
ATOM     37  H62 UNL     1      -2.269 -31.495 -16.881  1.00  0.00     0.274 HD
ATOM     38  H61 UNL     1      -2.770 -32.524 -15.645  1.00  0.00     0.274 HD
ENDBRANCH  32  35
ENDBRANCH   5  29
TORSDOF 8
ENDMDL
MODEL 4
REMARK VINA RESULT: -6.270135480      1.436      1.805
REMARK  8 active torsions:
REMARK  status: ('A' for Active; 'I' for Inactive)
REMARK    1  A    between atoms: C2_2  and  O1_3 
REMARK    2  A    between atoms: O1_3  and  C3_4 
REMARK    3  A    between atoms: C4_5  and  N1_6 
REMARK    4  A    between atoms: C6_8  and  N2_9 
REMARK    5  A    between atoms: C8_14  and  N3_15 
REMARK    6  A    between atoms: C10_22  and  N5_23 
REMARK    7  A    between atoms: C13_26  and  N6_27 
REMARK    8  A    between atoms: C16_35  and  N8_36 
ROOT
HETATM    1  C3  UNL     1     -10.345 -27.713 -20.634  1.00  0.00     0.157 A 
HETATM    2  C4  UNL     1      -9.177 -28.164 -21.192  1.00  0.00     0.156 A 
HETATM    3  N4  UNL     1      -8.323 -28.867 -20.379  1.00  0.00    -0.173 N 
ATOM      4  H4  UNL     1      -7.450 -29.209 -20.782  1.00  0.00     0.186 HD
HETATM    5  C10 UNL     1      -8.564 -29.129 -19.098  1.00  0.00     0.687 A 
HETATM    6  N7  UNL     1      -9.707 -28.680 -18.576  1.00  0.00    -0.174 N 
ATOM      7  H7  UNL     1      -9.905 -28.875 -17.594  1.00  0.00     0.186 HD
HETATM    8  C16 UNL     1     -10.602 -27.988 -19.283  1.00  0.00     0.152 A 
ENDROOT
BRANCH   2   9
HETATM    9  N1  UNL     1      -8.736 -27.952 -22.523  1.00  0.00    -0.360 N 
HETATM   10  C5  UNL     1      -9.277 -28.484 -23.726  1.00  0.00     0.157 C 
HETATM   11  C6  UNL     1      -8.236 -28.273 -24.840  1.00  0.00     0.203 C 
HETATM   12  C7  UNL     1      -8.061 -26.773 -25.087  1.00  0.00     0.068 C 
HETATM   13  C8  UNL     1      -7.952 -26.057 -23.760  1.00  0.00     0.203 C 
HETATM   14  C9  UNL     1      -7.550 -27.079 -22.727  1.00  0.00     0.157 C 
BRANCH  11  15
HETATM   15  N2  UNL     1      -8.763 -28.806 -26.096  1.00  0.00    -0.073 N 
ATOM     16  H23 UNL     1      -9.249 -29.694 -25.966  1.00  0.00     0.274 HD
ATOM     17  H22 UNL     1      -9.550 -28.261 -26.447  1.00  0.00     0.274 HD
ATOM     18  H21 UNL     1      -8.004 -28.875 -26.774  1.00  0.00     0.274 HD
ENDBRANCH  11  15
BRANCH  13  19
HETATM   19  N3  UNL     1      -6.911 -25.051 -23.769  1.00  0.00    -0.073 N 
ATOM     20  H33 UNL     1      -6.261 -25.197 -24.542  1.00  0.00     0.274 HD
ATOM     21  H32 UNL     1      -7.280 -24.139 -24.039  1.00  0.00     0.274 HD
ATOM     22  H31 UNL     1      -6.419 -25.001 -22.878  1.00  0.00     0.274 HD
ENDBRANCH  13  19
ENDBRANCH   2   9
BRANCH   1  23
HETATM   23  O1  UNL     1     -11.277 -27.014 -21.306  1.00  0.00    -0.345 OA
BRANCH  23  24
HETATM   24  C2  UNL     1     -12.316 -27.267 -22.137  1.00  0.00     0.171 C 
HETATM   25  C1  UNL     1     -12.908 -28.654 -22.143  1.00  0.00     0.034 C 
ENDBRANCH  23  24
ENDBRANCH   1  23
BRANCH   8  26
HETATM   26  N8  UNL     1     -11.692 -27.566 -18.707  1.00  0.00    -0.383 N 
ATOM     27  H82 UNL     1     -12.233 -26.817 -19.139  1.00  0.00     0.157 HD
ATOM     28  H81 UNL     1     -12.020 -27.979 -17.834  1.00  0.00     0.157 HD
ENDBRANCH   8  26
BRANCH   5  29
HETATM   29  N5  UNL     1      -7.598 -29.838 -18.338  1.00  0.00    -0.197 N 
HETATM   30  C11 UNL     1      -7.197 -29.340 -17.083  1.00  0.00     0.084 C 
HETATM   31  C12 UNL     1      -5.933 -29.864 -16.499  1.00  0.00     0.078 C 
HETATM   32  C13 UNL     1      -5.549 -31.241 -16.915  1.00  0.00     0.189 C 
HETATM   33  C14 UNL     1      -6.528 -31.909 -17.835  1.00  0.00     0.053 C 
HETATM   34  C15 UNL     1      -7.063 -31.038 -18.904  1.00  0.00     0.148 C 
BRANCH  32  35
HETATM   35  N6  UNL     1      -5.365 -32.118 -15.771  1.00  0.00    -0.075 N 
ATOM     36  H63 UNL     1      -5.087 -31.594 -14.942  1.00  0.00     0.274 HD
ATOM     37  H62 UNL     1      -6.257 -32.486 -15.439  1.00  0.00     0.274 HD
ATOM     38  H61 UNL     1      -4.706 -32.870 -15.972  1.00  0.00     0.274 HD
ENDBRANCH  32  35
ENDBRANCH   5  29
TORSDOF 8
ENDMDL
MODEL 5
REMARK VINA RESULT: -6.261034765      2.310      3.630
REMARK  8 active torsions:
REMARK  status: ('A' for Active; 'I' for Inactive)
REMARK    1  A    between atoms: C2_2  and  O1_3 
REMARK    2  A    between atoms: O1_3  and  C3_4 
REMARK    3  A    between atoms: C4_5  and  N1_6 
REMARK    4  A    between atoms: C6_8  and  N2_9 
REMARK    5  A    between atoms: C8_14  and  N3_15 
REMARK    6  A    between atoms: C10_22  and  N5_23 
REMARK    7  A    between atoms: C13_26  and  N6_27 
REMARK    8  A    between atoms: C16_35  and  N8_36 
ROOT
HETATM    1  C3  UNL     1      -9.525 -31.248 -20.216  1.00  0.00     0.157 A 
HETATM    2  C4  UNL     1      -8.776 -30.103 -20.138  1.00  0.00     0.156 A 
HETATM    3  N4  UNL     1      -7.566 -30.187 -19.495  1.00  0.00    -0.173 N 
ATOM      4  H4  UNL     1      -6.998 -29.342 -19.430  1.00  0.00     0.186 HD
HETATM    5  C10 UNL     1      -7.091 -31.303 -18.951  1.00  0.00     0.687 A 
HETATM    6  N7  UNL     1      -7.837 -32.405 -19.039  1.00  0.00    -0.174 N 
ATOM      7  H7  UNL     1      -7.483 -33.269 -18.626  1.00  0.00     0.186 HD
HETATM    8  C16 UNL     1      -9.027 -32.427 -19.644  1.00  0.00     0.152 A 
ENDROOT
BRANCH   2   9
HETATM    9  N1  UNL     1      -9.134 -28.820 -20.625  1.00  0.00    -0.360 N 
HETATM   10  C5  UNL     1      -8.992 -28.308 -21.944  1.00  0.00     0.157 C 
HETATM   11  C6  UNL     1      -9.163 -26.780 -21.872  1.00  0.00     0.203 C 
HETATM   12  C7  UNL     1     -10.598 -26.455 -21.449  1.00  0.00     0.068 C 
HETATM   13  C8  UNL     1     -10.993 -27.348 -20.296  1.00  0.00     0.203 C 
HETATM   14  C9  UNL     1      -9.724 -27.855 -19.661  1.00  0.00     0.157 C 
BRANCH  11  15
HETATM   15  N2  UNL     1      -9.027 -26.218 -23.216  1.00  0.00    -0.073 N 
ATOM     16  H23 UNL     1      -8.203 -25.623 -23.306  1.00  0.00     0.274 HD
ATOM     17  H22 UNL     1      -8.771 -26.924 -23.906  1.00  0.00     0.274 HD
ATOM     18  H21 UNL     1      -9.887 -25.728 -23.462  1.00  0.00     0.274 HD
ENDBRANCH  11  15
BRANCH  13  19
HETATM   19  N3  UNL     1     -11.706 -26.621 -19.265  1.00  0.00    -0.073 N 
ATOM     20  H33 UNL     1     -11.074 -26.037 -18.719  1.00  0.00     0.274 HD
ATOM     21  H32 UNL     1     -12.294 -25.891 -19.667  1.00  0.00     0.274 HD
ATOM     22  H31 UNL     1     -12.248 -27.242 -18.665  1.00  0.00     0.274 HD
ENDBRANCH  13  19
ENDBRANCH   2   9
BRANCH   1  23
HETATM   23  O1  UNL     1     -10.727 -31.319 -20.816  1.00  0.00    -0.345 OA
BRANCH  23  24
HETATM   24  C2  UNL     1     -12.000 -30.929 -20.564  1.00  0.00     0.171 C 
HETATM   25  C1  UNL     1     -12.974 -31.954 -20.041  1.00  0.00     0.034 C 
ENDBRANCH  23  24
ENDBRANCH   1  23
BRANCH   8  26
HETATM   26  N8  UNL     1      -9.711 -33.534 -19.680  1.00  0.00    -0.383 N 
ATOM     27  H82 UNL     1      -9.308 -34.362 -20.119  1.00  0.00     0.157 HD
ATOM     28  H81 UNL     1     -10.642 -33.592 -19.266  1.00  0.00     0.157 HD
ENDBRANCH   8  26
BRANCH   5  29
HETATM   29  N5  UNL     1      -5.840 -31.273 -18.280  1.00  0.00    -0.197 N 
HETATM   30  C11 UNL     1      -5.535 -32.267 -17.331  1.00  0.00     0.084 C 
HETATM   31  C12 UNL     1      -4.423 -32.001 -16.379  1.00  0.00     0.078 C 
HETATM   32  C13 UNL     1      -3.359 -31.080 -16.866  1.00  0.00     0.189 C 
HETATM   33  C14 UNL     1      -3.555 -30.591 -18.271  1.00  0.00     0.053 C 
HETATM   34  C15 UNL     1      -4.943 -30.205 -18.602  1.00  0.00     0.148 C 
BRANCH  32  35
HETATM   35  N6  UNL     1      -2.044 -31.694 -16.803  1.00  0.00    -0.075 N 
ATOM     36  H63 UNL     1      -2.030 -32.477 -16.149  1.00  0.00     0.274 HD
ATOM     37  H62 UNL     1      -1.828 -32.199 -17.663  1.00  0.00     0.274 HD
ATOM     38  H61 UNL     1      -1.318 -31.013 -16.580  1.00  0.00     0.274 HD
ENDBRANCH  32  35
ENDBRANCH   5  29
TORSDOF 8
ENDMDL
