MODEL 1
REMARK VINA RESULT: -5.860201245      0.000      0.000
REMARK  1 active torsions:
REMARK  status: ('A' for Active; 'I' for Inactive)
REMARK    1  A    between atoms: C4_7  and  C5_8 
ROOT
HETATM    1  O1  UNL     1      -0.599  11.967   5.574  1.00  0.00    -0.268 OA
HETATM    2  C1  UNL     1      -1.325  11.722   6.561  1.00  0.00     0.248 A 
HETATM    3  C2  UNL     1      -1.530  12.759   7.469  1.00  0.00     0.091 A 
HETATM    4  C3  UNL     1      -2.326  12.487   8.548  1.00  0.00     0.095 A 
HETATM    5  N1  UNL     1      -2.877  11.253   8.702  1.00  0.00    -0.349 N 
ATOM      6  H1  UNL     1      -3.466  11.078   9.516  1.00  0.00     0.167 HD
HETATM    7  C4  UNL     1      -2.679  10.267   7.834  1.00  0.00     0.154 A 
HETATM    8  N5  UNL     1      -1.900  10.519   6.768  1.00  0.00    -0.306 N 
ATOM      9  H5  UNL     1      -1.738   9.775   6.091  1.00  0.00     0.170 HD
ENDROOT
BRANCH   7  10
HETATM   10  C5  UNL     1      -3.285   8.954   8.025  1.00  0.00     0.169 A 
HETATM   11  N2  UNL     1      -3.856   8.494   9.170  1.00  0.00    -0.289 N 
HETATM   12  C6  UNL     1      -4.297   7.246   8.946  1.00  0.00     0.340 A 
ATOM     13  H2  UNL     1      -3.935   9.008  10.047  1.00  0.00     0.172 HD
HETATM   14  O2  UNL     1      -4.879   6.499   9.768  1.00  0.00    -0.245 OA
HETATM   15  N3  UNL     1      -4.019   6.900   7.679  1.00  0.00    -0.250 N 
HETATM   16  N4  UNL     1      -3.411   7.946   7.150  1.00  0.00    -0.278 N 
ATOM     17  H3  UNL     1      -4.232   6.014   7.221  1.00  0.00     0.192 HD
ATOM     18  H4  UNL     1      -3.075   7.983   6.188  1.00  0.00     0.189 HD
ENDBRANCH   7  10
TORSDOF 1
ENDMDL
MODEL 2
REMARK VINA RESULT: -5.721997724      1.249      1.794
REMARK  1 active torsions:
REMARK  status: ('A' for Active; 'I' for Inactive)
REMARK    1  A    between atoms: C4_7  and  C5_8 
ROOT
HETATM    1  O1  UNL     1      -2.446  13.366   9.423  1.00  0.00    -0.268 OA
HETATM    2  C1  UNL     1      -2.299  12.434   8.604  1.00  0.00     0.248 A 
HETATM    3  C2  UNL     1      -1.519  12.695   7.479  1.00  0.00     0.091 A 
HETATM    4  C3  UNL     1      -1.362  11.672   6.585  1.00  0.00     0.095 A 
HETATM    5  N1  UNL     1      -1.949  10.466   6.810  1.00  0.00    -0.349 N 
ATOM      6  H1  UNL     1      -1.815   9.721   6.127  1.00  0.00     0.167 HD
HETATM    7  C4  UNL     1      -2.691  10.221   7.885  1.00  0.00     0.154 A 
HETATM    8  N5  UNL     1      -2.856  11.217   8.772  1.00  0.00    -0.306 N 
ATOM      9  H5  UNL     1      -3.422  11.046   9.603  1.00  0.00     0.170 HD
ENDROOT
BRANCH   7  10
HETATM   10  C5  UNL     1      -3.309   8.917   8.099  1.00  0.00     0.169 A 
HETATM   11  N2  UNL     1      -3.884   8.483   9.253  1.00  0.00    -0.289 N 
HETATM   12  C6  UNL     1      -4.337   7.235   9.052  1.00  0.00     0.340 A 
ATOM     13  H2  UNL     1      -3.959   9.014  10.121  1.00  0.00     0.172 HD
HETATM   14  O2  UNL     1      -4.925   6.509   9.887  1.00  0.00    -0.245 OA
HETATM   15  N3  UNL     1      -4.062   6.863   7.791  1.00  0.00    -0.250 N 
HETATM   16  N4  UNL     1      -3.444   7.894   7.244  1.00  0.00    -0.278 N 
ATOM     17  H3  UNL     1      -4.283   5.971   7.349  1.00  0.00     0.192 HD
ATOM     18  H4  UNL     1      -3.109   7.911   6.281  1.00  0.00     0.189 HD
ENDBRANCH   7  10
TORSDOF 1
ENDMDL
MODEL 3
REMARK VINA RESULT: -5.653537703      3.196      6.697
REMARK  1 active torsions:
REMARK  status: ('A' for Active; 'I' for Inactive)
REMARK    1  A    between atoms: C4_7  and  C5_8 
ROOT
HETATM    1  O1  UNL     1      -6.962   3.349  11.167  1.00  0.00    -0.268 OA
HETATM    2  C1  UNL     1      -6.943   4.560  10.860  1.00  0.00     0.248 A 
HETATM    3  C2  UNL     1      -7.907   5.377  11.447  1.00  0.00     0.091 A 
HETATM    4  C3  UNL     1      -7.883   6.703  11.108  1.00  0.00     0.095 A 
HETATM    5  N1  UNL     1      -6.949   7.173  10.238  1.00  0.00    -0.349 N 
ATOM      6  H1  UNL     1      -6.954   8.165  10.003  1.00  0.00     0.167 HD
HETATM    7  C4  UNL     1      -6.031   6.390   9.682  1.00  0.00     0.154 A 
HETATM    8  N5  UNL     1      -6.042   5.085  10.004  1.00  0.00    -0.306 N 
ATOM      9  H5  UNL     1      -5.344   4.470   9.587  1.00  0.00     0.170 HD
ENDROOT
BRANCH   7  10
HETATM   10  C5  UNL     1      -5.041   6.923   8.752  1.00  0.00     0.169 A 
HETATM   11  N2  UNL     1      -4.206   7.971   8.984  1.00  0.00    -0.289 N 
HETATM   12  C6  UNL     1      -3.449   8.154   7.891  1.00  0.00     0.340 A 
ATOM     13  H2  UNL     1      -4.163   8.523   9.841  1.00  0.00     0.172 HD
HETATM   14  O2  UNL     1      -2.563   9.026   7.731  1.00  0.00    -0.245 OA
HETATM   15  N3  UNL     1      -3.783   7.241   6.964  1.00  0.00    -0.250 N 
HETATM   16  N4  UNL     1      -4.743   6.516   7.510  1.00  0.00    -0.278 N 
ATOM     17  H3  UNL     1      -3.382   7.132   6.033  1.00  0.00     0.192 HD
ATOM     18  H4  UNL     1      -5.203   5.736   7.041  1.00  0.00     0.189 HD
ENDBRANCH   7  10
TORSDOF 1
ENDMDL
MODEL 4
REMARK VINA RESULT: -5.588634370      7.481     11.308
REMARK  1 active torsions:
REMARK  status: ('A' for Active; 'I' for Inactive)
REMARK    1  A    between atoms: C4_7  and  C5_8 
ROOT
HETATM    1  O1  UNL     1     -10.763  -0.241  12.677  1.00  0.00    -0.268 OA
HETATM    2  C1  UNL     1     -10.137   0.057  11.637  1.00  0.00     0.248 A 
HETATM    3  C2  UNL     1     -10.114  -0.891  10.617  1.00  0.00     0.091 A 
HETATM    4  C3  UNL     1      -9.428  -0.560   9.481  1.00  0.00     0.095 A 
HETATM    5  N1  UNL     1      -8.808   0.647   9.380  1.00  0.00    -0.349 N 
ATOM      6  H1  UNL     1      -8.304   0.868   8.521  1.00  0.00     0.167 HD
HETATM    7  C4  UNL     1      -8.834   1.549  10.355  1.00  0.00     0.154 A 
HETATM    8  N5  UNL     1      -9.504   1.237  11.478  1.00  0.00    -0.306 N 
ATOM      9  H5  UNL     1      -9.534   1.918  12.236  1.00  0.00     0.170 HD
ENDROOT
BRANCH   7  10
HETATM   10  C5  UNL     1      -8.160   2.835  10.217  1.00  0.00     0.169 A 
HETATM   11  N2  UNL     1      -7.244   3.356  11.078  1.00  0.00    -0.289 N 
HETATM   12  C6  UNL     1      -6.858   4.552  10.605  1.00  0.00     0.340 A 
ATOM     13  H2  UNL     1      -6.909   2.915  11.934  1.00  0.00     0.172 HD
HETATM   14  O2  UNL     1      -6.026   5.330  11.128  1.00  0.00    -0.245 OA
HETATM   15  N3  UNL     1      -7.510   4.805   9.459  1.00  0.00    -0.250 N 
HETATM   16  N4  UNL     1      -8.284   3.755   9.251  1.00  0.00    -0.278 N 
ATOM     17  H3  UNL     1      -7.425   5.634   8.871  1.00  0.00     0.192 HD
ATOM     18  H4  UNL     1      -8.906   3.657   8.449  1.00  0.00     0.189 HD
ENDBRANCH   7  10
TORSDOF 1
ENDMDL
MODEL 5
REMARK VINA RESULT: -5.498536144      1.004      1.185
REMARK  1 active torsions:
REMARK  status: ('A' for Active; 'I' for Inactive)
REMARK    1  A    between atoms: C4_7  and  C5_8 
ROOT
HETATM    1  O1  UNL     1      -0.602  12.326   5.772  1.00  0.00    -0.268 OA
HETATM    2  C1  UNL     1      -1.333  11.967   6.720  1.00  0.00     0.248 A 
HETATM    3  C2  UNL     1      -1.650  12.930   7.676  1.00  0.00     0.091 A 
HETATM    4  C3  UNL     1      -2.450  12.532   8.712  1.00  0.00     0.095 A 
HETATM    5  N1  UNL     1      -2.900  11.251   8.780  1.00  0.00    -0.349 N 
ATOM      6  H1  UNL     1      -3.496  10.982   9.563  1.00  0.00     0.167 HD
HETATM    7  C4  UNL     1      -2.596  10.336   7.866  1.00  0.00     0.154 A 
HETATM    8  N5  UNL     1      -1.810  10.711   6.842  1.00  0.00    -0.306 N 
ATOM      9  H5  UNL     1      -1.567  10.022   6.131  1.00  0.00     0.170 HD
ENDROOT
BRANCH   7  10
HETATM   10  C5  UNL     1      -3.094   8.968   7.965  1.00  0.00     0.169 A 
HETATM   11  N2  UNL     1      -4.036   8.399   7.166  1.00  0.00    -0.289 N 
HETATM   12  C6  UNL     1      -4.221   7.133   7.573  1.00  0.00     0.340 A 
ATOM     13  H2  UNL     1      -4.518   8.855   6.391  1.00  0.00     0.172 HD
HETATM   14  O2  UNL     1      -5.011   6.295   7.078  1.00  0.00    -0.245 OA
HETATM   15  N3  UNL     1      -3.415   6.882   8.617  1.00  0.00    -0.250 N 
HETATM   16  N4  UNL     1      -2.750   8.004   8.830  1.00  0.00    -0.278 N 
ATOM     17  H3  UNL     1      -3.333   6.010   9.138  1.00  0.00     0.192 HD
ATOM     18  H4  UNL     1      -2.055   8.122   9.567  1.00  0.00     0.189 HD
ENDBRANCH   7  10
TORSDOF 1
ENDMDL
