MODEL 1
REMARK VINA RESULT: -8.133996105      0.000      0.000
REMARK  1 active torsions:
REMARK  status: ('A' for Active; 'I' for Inactive)
REMARK    1  A    between atoms: C5_5  and  O1_6 
ROOT
HETATM    1  C1  UNL     1      28.902  47.628   9.676  1.00  0.00     0.045 C 
HETATM    2  C2  UNL     1      28.972  46.301   8.906  1.00  0.00     0.060 C 
HETATM    3  C3  UNL     1      27.522  45.810   8.836  1.00  0.00     0.045 C 
HETATM    4  C4  UNL     1      29.414  46.605   7.530  1.00  0.00     0.075 C 
HETATM    5  C5  UNL     1      30.864  46.528   7.267  1.00  0.00     0.065 C 
HETATM    6  C6  UNL     1      31.633  47.774   7.634  1.00  0.00     0.043 C 
HETATM    7  C7  UNL     1      33.049  47.699   7.198  1.00  0.00     0.071 C 
HETATM    8  C8  UNL     1      33.727  46.394   7.483  1.00  0.00     0.164 C 
HETATM    9  C9  UNL     1      32.886  45.191   7.219  1.00  0.00     0.076 C 
HETATM   10  C10 UNL     1      31.564  45.366   7.910  1.00  0.00     0.030 C 
HETATM   11  C11 UNL     1      30.684  44.166   7.867  1.00  0.00     0.073 C 
HETATM   12  C12 UNL     1      29.864  44.178   9.164  1.00  0.00     0.308 C 
HETATM   13  F1  UNL     1      30.645  43.465  10.084  1.00  0.00    -0.220 F 
HETATM   14  O2  UNL     1      29.769  45.461   9.628  1.00  0.00    -0.346 OA
HETATM   15  O3  UNL     1      34.893  46.279   6.727  1.00  0.00    -0.353 OA
HETATM   16  C13 UNL     1      34.756  46.691   5.429  1.00  0.00     0.197 C 
HETATM   17  C14 UNL     1      35.791  45.922   4.597  1.00  0.00     0.194 C 
HETATM   18  O4  UNL     1      37.035  46.525   4.756  1.00  0.00    -0.387 OA
HETATM   19  C15 UNL     1      37.954  45.491   4.975  1.00  0.00     0.193 C 
HETATM   20  C16 UNL     1      39.272  46.136   5.345  1.00  0.00     0.193 C 
HETATM   21  O5  UNL     1      39.055  46.880   6.502  1.00  0.00    -0.387 OA
HETATM   22  C17 UNL     1      39.744  46.368   7.582  1.00  0.00     0.193 C 
HETATM   23  C18 UNL     1      38.767  45.628   8.498  1.00  0.00     0.193 C 
HETATM   24  O6  UNL     1      37.730  46.475   8.805  1.00  0.00    -0.387 OA
HETATM   25  C19 UNL     1      36.502  45.798   8.954  1.00  0.00     0.194 C 
HETATM   26  C20 UNL     1      35.425  46.831   8.937  1.00  0.00     0.197 C 
HETATM   27  O7  UNL     1      34.149  46.329   8.829  1.00  0.00    -0.353 OA
ENDROOT
BRANCH   5  28
HETATM   28  O1  UNL     1      31.028  46.368   5.870  1.00  0.00    -0.389 OA
ATOM     29  H1  UNL     1      31.915  46.635   5.658  1.00  0.00     0.210 HD
ENDBRANCH   5  28
TORSDOF 1
ENDMDL
MODEL 2
REMARK VINA RESULT: -7.925538927      2.306      7.806
REMARK  1 active torsions:
REMARK  status: ('A' for Active; 'I' for Inactive)
REMARK    1  A    between atoms: C5_5  and  O1_6 
ROOT
HETATM    1  C1  UNL     1      39.376  47.433   8.469  1.00  0.00     0.045 C 
HETATM    2  C2  UNL     1      38.974  46.265   7.556  1.00  0.00     0.060 C 
HETATM    3  C3  UNL     1      40.298  45.608   7.151  1.00  0.00     0.045 C 
HETATM    4  C4  UNL     1      38.221  45.295   8.378  1.00  0.00     0.075 C 
HETATM    5  C5  UNL     1      36.752  45.439   8.394  1.00  0.00     0.065 C 
HETATM    6  C6  UNL     1      36.235  46.457   9.382  1.00  0.00     0.043 C 
HETATM    7  C7  UNL     1      34.754  46.441   9.469  1.00  0.00     0.071 C 
HETATM    8  C8  UNL     1      34.046  46.379   8.151  1.00  0.00     0.164 C 
HETATM    9  C9  UNL     1      34.664  45.448   7.162  1.00  0.00     0.076 C 
HETATM   10  C10 UNL     1      36.131  45.754   7.064  1.00  0.00     0.030 C 
HETATM   11  C11 UNL     1      36.844  45.007   5.991  1.00  0.00     0.073 C 
HETATM   12  C12 UNL     1      37.971  45.923   5.495  1.00  0.00     0.308 C 
HETATM   13  F1  UNL     1      37.390  46.676   4.466  1.00  0.00    -0.220 F 
HETATM   14  O2  UNL     1      38.312  46.799   6.489  1.00  0.00    -0.346 OA
HETATM   15  O3  UNL     1      32.718  45.995   8.332  1.00  0.00    -0.353 OA
HETATM   16  C13 UNL     1      32.552  44.974   9.229  1.00  0.00     0.197 C 
HETATM   17  C14 UNL     1      31.264  44.236   8.842  1.00  0.00     0.194 C 
HETATM   18  O4  UNL     1      30.172  44.957   9.317  1.00  0.00    -0.387 OA
HETATM   19  C15 UNL     1      29.243  45.008   8.270  1.00  0.00     0.193 C 
HETATM   20  C16 UNL     1      28.138  45.950   8.698  1.00  0.00     0.193 C 
HETATM   21  O5  UNL     1      28.724  47.193   8.923  1.00  0.00    -0.387 OA
HETATM   22  C17 UNL     1      28.293  48.139   8.015  1.00  0.00     0.193 C 
HETATM   23  C18 UNL     1      29.396  48.386   6.983  1.00  0.00     0.193 C 
HETATM   24  O6  UNL     1      30.557  48.693   7.651  1.00  0.00    -0.387 OA
HETATM   25  C19 UNL     1      31.706  48.219   6.986  1.00  0.00     0.194 C 
HETATM   26  C20 UNL     1      32.840  48.301   7.953  1.00  0.00     0.197 C 
HETATM   27  O7  UNL     1      33.987  47.655   7.550  1.00  0.00    -0.353 OA
ENDROOT
BRANCH   5  28
HETATM   28  O1  UNL     1      36.213  44.195   8.801  1.00  0.00    -0.389 OA
ATOM     29  H1  UNL     1      35.539  44.378   9.446  1.00  0.00     0.210 HD
ENDBRANCH   5  28
TORSDOF 1
ENDMDL
MODEL 3
REMARK VINA RESULT: -7.626065300      3.115      7.629
REMARK  1 active torsions:
REMARK  status: ('A' for Active; 'I' for Inactive)
REMARK    1  A    between atoms: C5_5  and  O1_6 
ROOT
HETATM    1  C1  UNL     1      35.159  43.805   6.804  1.00  0.00     0.045 C 
HETATM    2  C2  UNL     1      35.528  44.957   7.751  1.00  0.00     0.060 C 
HETATM    3  C3  UNL     1      36.928  44.608   8.268  1.00  0.00     0.045 C 
HETATM    4  C4  UNL     1      35.639  46.186   6.938  1.00  0.00     0.075 C 
HETATM    5  C5  UNL     1      34.426  47.019   6.827  1.00  0.00     0.065 C 
HETATM    6  C6  UNL     1      33.458  46.573   5.758  1.00  0.00     0.043 C 
HETATM    7  C7  UNL     1      32.343  47.536   5.583  1.00  0.00     0.071 C 
HETATM    8  C8  UNL     1      31.737  48.037   6.858  1.00  0.00     0.164 C 
HETATM    9  C9  UNL     1      32.727  48.351   7.930  1.00  0.00     0.076 C 
HETATM   10  C10 UNL     1      33.644  47.174   8.099  1.00  0.00     0.030 C 
HETATM   11  C11 UNL     1      34.581  47.286   9.250  1.00  0.00     0.073 C 
HETATM   12  C12 UNL     1      34.817  45.859   9.763  1.00  0.00     0.308 C 
HETATM   13  F1  UNL     1      33.809  45.653  10.715  1.00  0.00    -0.220 F 
HETATM   14  O2  UNL     1      34.596  44.971   8.747  1.00  0.00    -0.346 OA
HETATM   15  O3  UNL     1      30.982  49.184   6.618  1.00  0.00    -0.353 OA
HETATM   16  C13 UNL     1      31.580  50.075   5.769  1.00  0.00     0.197 C 
HETATM   17  C14 UNL     1      31.038  51.467   6.117  1.00  0.00     0.194 C 
HETATM   18  O4  UNL     1      29.780  51.618   5.540  1.00  0.00    -0.387 OA
HETATM   19  C15 UNL     1      28.955  52.173   6.525  1.00  0.00     0.193 C 
HETATM   20  C16 UNL     1      27.542  52.162   5.983  1.00  0.00     0.193 C 
HETATM   21  O5  UNL     1      27.211  50.833   5.728  1.00  0.00    -0.387 OA
HETATM   22  C17 UNL     1      26.204  50.383   6.558  1.00  0.00     0.193 C 
HETATM   23  C18 UNL     1      26.807  49.483   7.639  1.00  0.00     0.193 C 
HETATM   24  O6  UNL     1      27.550  48.503   7.027  1.00  0.00    -0.387 OA
HETATM   25  C19 UNL     1      28.679  48.127   7.783  1.00  0.00     0.194 C 
HETATM   26  C20 UNL     1      29.569  47.337   6.882  1.00  0.00     0.197 C 
HETATM   27  O7  UNL     1      30.827  47.095   7.386  1.00  0.00    -0.353 OA
ENDROOT
BRANCH   5  28
HETATM   28  O1  UNL     1      34.843  48.319   6.454  1.00  0.00    -0.389 OA
ATOM     29  H1  UNL     1      34.996  48.806   7.255  1.00  0.00     0.210 HD
ENDBRANCH   5  28
TORSDOF 1
ENDMDL
MODEL 4
REMARK VINA RESULT: -7.459024164      2.300      2.537
REMARK  1 active torsions:
REMARK  status: ('A' for Active; 'I' for Inactive)
REMARK    1  A    between atoms: C5_5  and  O1_6 
ROOT
HETATM    1  C1  UNL     1      29.386  47.894   8.549  1.00  0.00     0.045 C 
HETATM    2  C2  UNL     1      29.929  46.568   7.994  1.00  0.00     0.060 C 
HETATM    3  C3  UNL     1      28.753  45.590   8.091  1.00  0.00     0.045 C 
HETATM    4  C4  UNL     1      30.229  46.774   6.561  1.00  0.00     0.075 C 
HETATM    5  C5  UNL     1      31.609  47.173   6.224  1.00  0.00     0.065 C 
HETATM    6  C6  UNL     1      31.878  48.654   6.343  1.00  0.00     0.043 C 
HETATM    7  C7  UNL     1      33.225  49.014   5.838  1.00  0.00     0.071 C 
HETATM    8  C8  UNL     1      34.329  48.103   6.281  1.00  0.00     0.164 C 
HETATM    9  C9  UNL     1      33.977  46.654   6.261  1.00  0.00     0.076 C 
HETATM   10  C10 UNL     1      32.682  46.462   6.997  1.00  0.00     0.030 C 
HETATM   11  C11 UNL     1      32.294  45.039   7.196  1.00  0.00     0.073 C 
HETATM   12  C12 UNL     1      31.526  44.976   8.524  1.00  0.00     0.308 C 
HETATM   13  F1  UNL     1      32.513  44.753   9.494  1.00  0.00    -0.220 F 
HETATM   14  O2  UNL     1      30.977  46.201   8.787  1.00  0.00    -0.346 OA
HETATM   15  O3  UNL     1      35.457  48.285   5.481  1.00  0.00    -0.353 OA
HETATM   16  C13 UNL     1      35.178  48.397   4.146  1.00  0.00     0.197 C 
HETATM   17  C14 UNL     1      36.419  47.917   3.382  1.00  0.00     0.194 C 
HETATM   18  O4  UNL     1      37.362  48.940   3.367  1.00  0.00    -0.387 OA
HETATM   19  C15 UNL     1      38.592  48.353   3.688  1.00  0.00     0.193 C 
HETATM   20  C16 UNL     1      39.591  49.476   3.870  1.00  0.00     0.193 C 
HETATM   21  O5  UNL     1      39.121  50.277   4.907  1.00  0.00    -0.387 OA
HETATM   22  C17 UNL     1      39.951  50.233   6.010  1.00  0.00     0.193 C 
HETATM   23  C18 UNL     1      39.307  49.360   7.089  1.00  0.00     0.193 C 
HETATM   24  O6  UNL     1      38.035  49.823   7.323  1.00  0.00    -0.387 OA
HETATM   25  C19 UNL     1      37.134  48.789   7.652  1.00  0.00     0.194 C 
HETATM   26  C20 UNL     1      35.757  49.354   7.541  1.00  0.00     0.197 C 
HETATM   27  O7  UNL     1      34.747  48.420   7.592  1.00  0.00    -0.353 OA
ENDROOT
BRANCH   5  28
HETATM   28  O1  UNL     1      31.818  46.850   4.862  1.00  0.00    -0.389 OA
ATOM     29  H1  UNL     1      32.066  47.651   4.417  1.00  0.00     0.210 HD
ENDBRANCH   5  28
TORSDOF 1
ENDMDL
MODEL 5
REMARK VINA RESULT: -7.410760601      2.061      7.604
REMARK  1 active torsions:
REMARK  status: ('A' for Active; 'I' for Inactive)
REMARK    1  A    between atoms: C5_5  and  O1_6 
ROOT
HETATM    1  C1  UNL     1      37.888  44.060   5.403  1.00  0.00     0.045 C 
HETATM    2  C2  UNL     1      38.001  45.384   6.174  1.00  0.00     0.060 C 
HETATM    3  C3  UNL     1      39.483  45.763   6.091  1.00  0.00     0.045 C 
HETATM    4  C4  UNL     1      37.231  46.402   5.429  1.00  0.00     0.075 C 
HETATM    5  C5  UNL     1      35.824  46.594   5.832  1.00  0.00     0.065 C 
HETATM    6  C6  UNL     1      34.857  45.617   5.208  1.00  0.00     0.043 C 
HETATM    7  C7  UNL     1      33.447  45.959   5.519  1.00  0.00     0.071 C 
HETATM    8  C8  UNL     1      33.188  46.327   6.947  1.00  0.00     0.164 C 
HETATM    9  C9  UNL     1      34.234  47.198   7.559  1.00  0.00     0.076 C 
HETATM   10  C10 UNL     1      35.580  46.579   7.312  1.00  0.00     0.030 C 
HETATM   11  C11 UNL     1      36.705  47.259   8.011  1.00  0.00     0.073 C 
HETATM   12  C12 UNL     1      37.739  46.173   8.337  1.00  0.00     0.308 C 
HETATM   13  F1  UNL     1      37.361  45.691   9.598  1.00  0.00    -0.220 F 
HETATM   14  O2  UNL     1      37.600  45.137   7.455  1.00  0.00    -0.346 OA
HETATM   15  O3  UNL     1      31.961  46.980   7.064  1.00  0.00    -0.353 OA
HETATM   16  C13 UNL     1      31.729  47.905   6.083  1.00  0.00     0.197 C 
HETATM   17  C14 UNL     1      30.775  48.955   6.667  1.00  0.00     0.194 C 
HETATM   18  O4  UNL     1      29.477  48.454   6.633  1.00  0.00    -0.387 OA
HETATM   19  C15 UNL     1      28.909  48.732   7.882  1.00  0.00     0.193 C 
HETATM   20  C16 UNL     1      27.573  48.024   7.934  1.00  0.00     0.193 C 
HETATM   21  O5  UNL     1      27.823  46.663   7.778  1.00  0.00    -0.387 OA
HETATM   22  C17 UNL     1      27.514  45.947   8.917  1.00  0.00     0.193 C 
HETATM   23  C18 UNL     1      28.809  45.573   9.643  1.00  0.00     0.193 C 
HETATM   24  O6  UNL     1      29.640  44.938   8.752  1.00  0.00    -0.387 OA
HETATM   25  C19 UNL     1      31.002  45.209   8.994  1.00  0.00     0.194 C 
HETATM   26  C20 UNL     1      31.761  44.764   7.788  1.00  0.00     0.197 C 
HETATM   27  O7  UNL     1      33.074  45.173   7.752  1.00  0.00    -0.353 OA
ENDROOT
BRANCH   5  28
HETATM   28  O1  UNL     1      35.429  47.875   5.375  1.00  0.00    -0.389 OA
ATOM     29  H1  UNL     1      35.994  48.099   4.645  1.00  0.00     0.210 HD
ENDBRANCH   5  28
TORSDOF 1
ENDMDL
