MODEL 1
REMARK VINA RESULT: -8.012953304      0.000      0.000
REMARK  1 active torsions:
REMARK  status: ('A' for Active; 'I' for Inactive)
REMARK    1  A    between atoms: C19_26  and  O7_27 
ROOT
HETATM    1  C1  UNL     1      28.705  48.289   7.098  1.00  0.00     0.046 C 
HETATM    2  C2  UNL     1      29.519  47.352   7.917  1.00  0.00     0.060 C 
HETATM    3  C3  UNL     1      28.716  46.839   9.099  1.00  0.00     0.046 C 
HETATM    4  O1  UNL     1      30.753  47.786   8.348  1.00  0.00    -0.371 OA
HETATM    5  C4  UNL     1      31.412  46.595   7.956  1.00  0.00     0.169 C 
HETATM    6  C5  UNL     1      30.215  46.282   7.115  1.00  0.00     0.052 C 
HETATM    7  C6  UNL     1      30.586  46.755   5.740  1.00  0.00     0.013 C 
HETATM    8  C7  UNL     1      31.837  47.593   5.874  1.00  0.00     0.047 C 
HETATM    9  C8  UNL     1      32.537  46.972   7.027  1.00  0.00     0.140 C 
HETATM   10  O2  UNL     1      33.314  45.910   6.635  1.00  0.00    -0.333 OA
HETATM   11  C9  UNL     1      34.557  46.042   7.205  1.00  0.00     0.200 C 
HETATM   12  C10 UNL     1      34.692  44.987   8.270  1.00  0.00     0.072 C 
HETATM   13  C11 UNL     1      36.080  44.875   8.824  1.00  0.00     0.006 C 
HETATM   14  C12 UNL     1      37.066  45.794   8.211  1.00  0.00     0.012 C 
HETATM   15  C13 UNL     1      37.013  45.882   6.714  1.00  0.00     0.076 C 
HETATM   16  C14 UNL     1      37.980  44.943   6.038  1.00  0.00     0.151 C 
HETATM   17  C15 UNL     1      38.114  43.623   6.754  1.00  0.00     0.065 C 
HETATM   18 CL1  UNL     1      39.615  45.668   5.959  1.00  0.00    -0.087 Cl
HETATM   19  O3  UNL     1      37.586  44.653   4.705  1.00  0.00    -0.270 OA
HETATM   20  C16 UNL     1      36.291  44.120   4.563  1.00  0.00     0.409 C 
HETATM   21  O4  UNL     1      35.991  43.342   3.615  1.00  0.00    -0.229 OA
HETATM   22  O5  UNL     1      35.379  44.513   5.539  1.00  0.00    -0.281 OA
HETATM   23  C17 UNL     1      35.635  45.789   6.149  1.00  0.00     0.133 C 
HETATM   24  C18 UNL     1      35.443  46.816   5.052  1.00  0.00     0.053 C 
HETATM   25  O6  UNL     1      34.700  47.324   7.660  1.00  0.00    -0.319 OA
HETATM   26  C19 UNL     1      33.454  47.900   7.770  1.00  0.00     0.297 C 
ENDROOT
BRANCH  26  27
HETATM   27  O7  UNL     1      33.404  49.208   7.323  1.00  0.00    -0.368 OA
ATOM     28  H7  UNL     1      33.936  49.368   6.552  1.00  0.00     0.212 HD
ENDBRANCH  26  27
TORSDOF 1
ENDMDL
MODEL 2
REMARK VINA RESULT: -7.900759055      2.964      6.762
REMARK  1 active torsions:
REMARK  status: ('A' for Active; 'I' for Inactive)
REMARK    1  A    between atoms: C19_26  and  O7_27 
ROOT
HETATM    1  C1  UNL     1      39.465  45.328   6.588  1.00  0.00     0.046 C 
HETATM    2  C2  UNL     1      38.273  45.726   5.792  1.00  0.00     0.060 C 
HETATM    3  C3  UNL     1      38.684  46.166   4.399  1.00  0.00     0.046 C 
HETATM    4  O1  UNL     1      37.420  46.658   6.339  1.00  0.00    -0.371 OA
HETATM    5  C4  UNL     1      36.257  45.908   6.034  1.00  0.00     0.169 C 
HETATM    6  C5  UNL     1      37.147  44.724   5.831  1.00  0.00     0.052 C 
HETATM    7  C6  UNL     1      37.093  43.983   7.134  1.00  0.00     0.013 C 
HETATM    8  C7  UNL     1      36.434  44.896   8.145  1.00  0.00     0.047 C 
HETATM    9  C8  UNL     1      35.494  45.693   7.316  1.00  0.00     0.140 C 
HETATM   10  O2  UNL     1      34.294  45.046   7.147  1.00  0.00    -0.333 OA
HETATM   11  C9  UNL     1      33.278  45.933   7.408  1.00  0.00     0.200 C 
HETATM   12  C10 UNL     1      32.609  46.267   6.102  1.00  0.00     0.072 C 
HETATM   13  C11 UNL     1      31.343  47.054   6.266  1.00  0.00     0.006 C 
HETATM   14  C12 UNL     1      30.969  47.335   7.670  1.00  0.00     0.012 C 
HETATM   15  C13 UNL     1      31.087  46.171   8.609  1.00  0.00     0.076 C 
HETATM   16  C14 UNL     1      29.791  45.417   8.774  1.00  0.00     0.151 C 
HETATM   17  C15 UNL     1      28.996  45.332   7.496  1.00  0.00     0.065 C 
HETATM   18 CL1  UNL     1      28.748  46.212   9.993  1.00  0.00    -0.087 Cl
HETATM   19  O3  UNL     1      30.010  44.085   9.214  1.00  0.00    -0.270 OA
HETATM   20  C16 UNL     1      30.861  43.315   8.400  1.00  0.00     0.409 C 
HETATM   21  O4  UNL     1      30.745  42.061   8.315  1.00  0.00    -0.229 OA
HETATM   22  O5  UNL     1      31.828  44.036   7.705  1.00  0.00    -0.281 OA
HETATM   23  C17 UNL     1      32.240  45.269   8.315  1.00  0.00     0.133 C 
HETATM   24  C18 UNL     1      32.946  44.878   9.598  1.00  0.00     0.053 C 
HETATM   25  O6  UNL     1      33.794  47.013   8.069  1.00  0.00    -0.319 OA
HETATM   26  C19 UNL     1      35.157  47.042   7.882  1.00  0.00     0.297 C 
ENDROOT
BRANCH  26  27
HETATM   27  O7  UNL     1      35.870  47.360   9.024  1.00  0.00    -0.368 OA
ATOM     28  H7  UNL     1      35.645  48.207   9.391  1.00  0.00     0.212 HD
ENDBRANCH  26  27
TORSDOF 1
ENDMDL
MODEL 3
REMARK VINA RESULT: -7.504055462      3.490      7.493
REMARK  1 active torsions:
REMARK  status: ('A' for Active; 'I' for Inactive)
REMARK    1  A    between atoms: C19_26  and  O7_27 
ROOT
HETATM    1  C1  UNL     1      36.284  45.450   8.550  1.00  0.00     0.046 C 
HETATM    2  C2  UNL     1      34.878  45.541   9.025  1.00  0.00     0.060 C 
HETATM    3  C3  UNL     1      34.628  44.548  10.146  1.00  0.00     0.046 C 
HETATM    4  O1  UNL     1      33.877  45.441   8.085  1.00  0.00    -0.371 OA
HETATM    5  C4  UNL     1      33.172  46.565   8.582  1.00  0.00     0.169 C 
HETATM    6  C5  UNL     1      34.418  46.948   9.313  1.00  0.00     0.052 C 
HETATM    7  C6  UNL     1      35.084  47.956   8.424  1.00  0.00     0.013 C 
HETATM    8  C7  UNL     1      34.384  47.906   7.084  1.00  0.00     0.047 C 
HETATM    9  C8  UNL     1      32.991  47.539   7.446  1.00  0.00     0.140 C 
HETATM   10  O2  UNL     1      32.244  48.643   7.774  1.00  0.00    -0.333 OA
HETATM   11  C9  UNL     1      31.048  48.579   7.100  1.00  0.00     0.200 C 
HETATM   12  C10 UNL     1      29.967  48.282   8.105  1.00  0.00     0.072 C 
HETATM   13  C11 UNL     1      28.583  48.402   7.542  1.00  0.00     0.006 C 
HETATM   14  C12 UNL     1      28.528  48.813   6.121  1.00  0.00     0.012 C 
HETATM   15  C13 UNL     1      29.436  49.947   5.748  1.00  0.00     0.076 C 
HETATM   16  C14 UNL     1      28.752  51.290   5.808  1.00  0.00     0.151 C 
HETATM   17  C15 UNL     1      27.770  51.398   6.948  1.00  0.00     0.065 C 
HETATM   18 CL1  UNL     1      27.843  51.605   4.298  1.00  0.00    -0.087 Cl
HETATM   19  O3  UNL     1      29.685  52.348   5.965  1.00  0.00    -0.270 OA
HETATM   20  C16 UNL     1      30.534  52.242   7.082  1.00  0.00     0.409 C 
HETATM   21  O4  UNL     1      31.003  53.261   7.660  1.00  0.00    -0.229 OA
HETATM   22  O5  UNL     1      30.811  50.942   7.493  1.00  0.00    -0.281 OA
HETATM   23  C17 UNL     1      30.744  49.939   6.467  1.00  0.00     0.133 C 
HETATM   24  C18 UNL     1      31.876  50.254   5.510  1.00  0.00     0.053 C 
HETATM   25  O6  UNL     1      31.155  47.656   6.097  1.00  0.00    -0.319 OA
HETATM   26  C19 UNL     1      32.231  46.838   6.357  1.00  0.00     0.297 C 
ENDROOT
BRANCH  26  27
HETATM   27  O7  UNL     1      32.996  46.551   5.241  1.00  0.00    -0.368 OA
ATOM     28  H7  UNL     1      32.531  46.057   4.576  1.00  0.00     0.212 HD
ENDBRANCH  26  27
TORSDOF 1
ENDMDL
MODEL 4
REMARK VINA RESULT: -7.466871846      3.111      6.115
REMARK  1 active torsions:
REMARK  status: ('A' for Active; 'I' for Inactive)
REMARK    1  A    between atoms: C19_26  and  O7_27 
ROOT
HETATM    1  C1  UNL     1      37.655  50.153   5.562  1.00  0.00     0.046 C 
HETATM    2  C2  UNL     1      37.565  49.324   6.794  1.00  0.00     0.060 C 
HETATM    3  C3  UNL     1      38.728  49.620   7.723  1.00  0.00     0.046 C 
HETATM    4  O1  UNL     1      37.430  47.962   6.640  1.00  0.00    -0.371 OA
HETATM    5  C4  UNL     1      36.374  47.867   7.579  1.00  0.00     0.169 C 
HETATM    6  C5  UNL     1      36.209  49.347   7.452  1.00  0.00     0.052 C 
HETATM    7  C6  UNL     1      35.099  49.519   6.457  1.00  0.00     0.013 C 
HETATM    8  C7  UNL     1      34.860  48.173   5.812  1.00  0.00     0.047 C 
HETATM    9  C8  UNL     1      35.201  47.215   6.894  1.00  0.00     0.140 C 
HETATM   10  O2  UNL     1      34.130  46.985   7.723  1.00  0.00    -0.333 OA
HETATM   11  C9  UNL     1      33.997  45.630   7.901  1.00  0.00     0.200 C 
HETATM   12  C10 UNL     1      34.404  45.306   9.314  1.00  0.00     0.072 C 
HETATM   13  C11 UNL     1      34.099  43.894   9.712  1.00  0.00     0.006 C 
HETATM   14  C12 UNL     1      33.434  43.087   8.665  1.00  0.00     0.012 C 
HETATM   15  C13 UNL     1      32.309  43.773   7.948  1.00  0.00     0.076 C 
HETATM   16  C14 UNL     1      30.959  43.475   8.553  1.00  0.00     0.151 C 
HETATM   17  C15 UNL     1      31.001  43.374  10.057  1.00  0.00     0.065 C 
HETATM   18 CL1  UNL     1      30.320  41.920   7.937  1.00  0.00    -0.087 Cl
HETATM   19  O3  UNL     1      30.007  44.477   8.232  1.00  0.00    -0.270 OA
HETATM   20  C16 UNL     1      30.367  45.788   8.595  1.00  0.00     0.409 C 
HETATM   21  O4  UNL     1      29.501  46.661   8.883  1.00  0.00    -0.229 OA
HETATM   22  O5  UNL     1      31.735  46.043   8.613  1.00  0.00    -0.281 OA
HETATM   23  C17 UNL     1      32.529  45.233   7.730  1.00  0.00     0.133 C 
HETATM   24  C18 UNL     1      32.115  45.627   6.327  1.00  0.00     0.053 C 
HETATM   25  O6  UNL     1      34.727  44.984   6.942  1.00  0.00    -0.319 OA
HETATM   26  C19 UNL     1      35.644  45.863   6.412  1.00  0.00     0.297 C 
ENDROOT
BRANCH  26  27
HETATM   27  O7  UNL     1      35.769  45.777   5.037  1.00  0.00    -0.368 OA
ATOM     28  H7  UNL     1      36.513  46.256   4.691  1.00  0.00     0.212 HD
ENDBRANCH  26  27
TORSDOF 1
ENDMDL
MODEL 5
REMARK VINA RESULT: -7.462772502      2.125      3.452
REMARK  1 active torsions:
REMARK  status: ('A' for Active; 'I' for Inactive)
REMARK    1  A    between atoms: C19_26  and  O7_27 
ROOT
HETATM    1  C1  UNL     1      27.599  49.033   6.379  1.00  0.00     0.046 C 
HETATM    2  C2  UNL     1      28.921  49.681   6.587  1.00  0.00     0.060 C 
HETATM    3  C3  UNL     1      28.789  51.193   6.538  1.00  0.00     0.046 C 
HETATM    4  O1  UNL     1      29.964  49.281   5.782  1.00  0.00    -0.371 OA
HETATM    5  C4  UNL     1      30.868  49.142   6.863  1.00  0.00     0.169 C 
HETATM    6  C5  UNL     1      29.683  49.152   7.776  1.00  0.00     0.052 C 
HETATM    7  C6  UNL     1      29.394  47.704   8.036  1.00  0.00     0.013 C 
HETATM    8  C7  UNL     1      30.204  46.898   7.045  1.00  0.00     0.047 C 
HETATM    9  C8  UNL     1      31.412  47.737   6.836  1.00  0.00     0.140 C 
HETATM   10  O2  UNL     1      32.370  47.493   7.789  1.00  0.00    -0.333 OA
HETATM   11  C9  UNL     1      33.579  47.320   7.160  1.00  0.00     0.200 C 
HETATM   12  C10 UNL     1      34.432  48.523   7.459  1.00  0.00     0.072 C 
HETATM   13  C11 UNL     1      35.856  48.367   7.017  1.00  0.00     0.006 C 
HETATM   14  C12 UNL     1      36.171  47.060   6.397  1.00  0.00     0.012 C 
HETATM   15  C13 UNL     1      35.622  45.863   7.117  1.00  0.00     0.076 C 
HETATM   16  C14 UNL     1      36.609  45.256   8.083  1.00  0.00     0.151 C 
HETATM   17  C15 UNL     1      37.453  46.290   8.785  1.00  0.00     0.065 C 
HETATM   18 CL1  UNL     1      37.731  44.151   7.230  1.00  0.00    -0.087 Cl
HETATM   19  O3  UNL     1      35.959  44.498   9.091  1.00  0.00    -0.270 OA
HETATM   20  C16 UNL     1      34.992  45.195   9.839  1.00  0.00     0.409 C 
HETATM   21  O4  UNL     1      34.730  44.893  11.036  1.00  0.00    -0.229 OA
HETATM   22  O5  UNL     1      34.354  46.231   9.162  1.00  0.00    -0.281 OA
HETATM   23  C17 UNL     1      34.282  46.087   7.734  1.00  0.00     0.133 C 
HETATM   24  C18 UNL     1      33.379  44.896   7.486  1.00  0.00     0.053 C 
HETATM   25  O6  UNL     1      33.357  47.102   5.828  1.00  0.00    -0.319 OA
HETATM   26  C19 UNL     1      32.089  47.533   5.512  1.00  0.00     0.297 C 
ENDROOT
BRANCH  26  27
HETATM   27  O7  UNL     1      31.406  46.679   4.664  1.00  0.00    -0.368 OA
ATOM     28  H7  UNL     1      31.928  46.369   3.933  1.00  0.00     0.212 HD
ENDBRANCH  26  27
TORSDOF 1
ENDMDL
