MODEL 1
REMARK VINA RESULT: -7.776680263      0.000      0.000
REMARK  3 active torsions:
REMARK  status: ('A' for Active; 'I' for Inactive)
REMARK    1  A    between atoms: C2_2  and  N1_4 
REMARK       I    between atoms: N1_4  and  C4_6 
REMARK    2  A    between atoms: C4_6  and  C5_8 
REMARK       I    between atoms: N2_11  and  C8_12 
REMARK       I    between atoms: C8_12  and  N3_14 
REMARK    3  A    between atoms: N3_14  and  C9_16 
ROOT
HETATM    1  C5  UNL     1      -7.749  -2.364  10.496  1.00  0.00     0.081 C 
HETATM    2  C6  UNL     1      -9.156  -2.883  10.700  1.00  0.00     0.034 C 
HETATM    3  C7  UNL     1      -9.313  -3.051  12.221  1.00  0.00     0.128 C 
HETATM    4  N2  UNL     1      -8.027  -3.494  12.684  1.00  0.00    -0.334 N 
HETATM    5  C8  UNL     1      -7.764  -4.845  12.946  1.00  0.00     0.320 C 
HETATM    6  O2  UNL     1      -6.633  -5.238  13.371  1.00  0.00    -0.247 OA
HETATM    7  N3  UNL     1      -8.781  -5.808  12.734  1.00  0.00    -0.311 N 
ATOM      8  H3  UNL     1      -9.698  -5.526  12.387  1.00  0.00     0.167 HD
HETATM    9  C18 UNL     1      -7.024  -2.442  12.844  1.00  0.00     0.128 C 
HETATM   10  C19 UNL     1      -7.279  -1.498  11.658  1.00  0.00     0.034 C 
ENDROOT
BRANCH   7  11
HETATM   11  C9  UNL     1      -8.500  -7.199  13.016  1.00  0.00     0.139 C 
HETATM   12  C10 UNL     1      -8.198  -7.494  14.450  1.00  0.00     0.066 C 
HETATM   13  C11 UNL     1      -7.749  -8.942  14.551  1.00  0.00    -0.007 C 
HETATM   14  C12 UNL     1      -8.938  -9.801  14.220  1.00  0.00     0.009 C 
HETATM   15  C16 UNL     1      -6.586  -9.171  13.639  1.00  0.00     0.037 C 
HETATM   16  C13 UNL     1      -9.348  -9.483  12.804  1.00  0.00    -0.007 C 
HETATM   17  C14 UNL     1      -8.172  -9.795  11.902  1.00  0.00     0.037 C 
HETATM   18  C17 UNL     1      -9.689  -8.034  12.612  1.00  0.00     0.066 C 
HETATM   19  C15 UNL     1      -7.058  -8.849  12.233  1.00  0.00     0.125 C 
HETATM   20  O3  UNL     1      -7.411  -7.526  12.204  1.00  0.00    -0.355 OA
ENDBRANCH   7  11
BRANCH   1  21
HETATM   21  C4  UNL     1      -7.646  -1.572   9.246  1.00  0.00     0.222 C 
HETATM   22  N1  UNL     1      -7.404  -0.183   9.356  1.00  0.00    -0.357 N 
ATOM     23  H1  UNL     1      -7.303   0.253  10.273  1.00  0.00     0.162 HD
HETATM   24  O1  UNL     1      -7.772  -2.121   8.108  1.00  0.00    -0.273 OA
BRANCH  22  25
HETATM   25  C2  UNL     1      -7.300   0.612   8.149  1.00  0.00     0.076 C 
HETATM   26  C1  UNL     1      -8.180   1.847   8.387  1.00  0.00     0.032 C 
HETATM   27  C3  UNL     1      -5.845   1.024   8.015  1.00  0.00     0.032 C 
ENDBRANCH  22  25
ENDBRANCH   1  21
TORSDOF 3
ENDMDL
MODEL 2
REMARK VINA RESULT: -7.392272764      1.707      2.148
REMARK  3 active torsions:
REMARK  status: ('A' for Active; 'I' for Inactive)
REMARK    1  A    between atoms: C2_2  and  N1_4 
REMARK       I    between atoms: N1_4  and  C4_6 
REMARK    2  A    between atoms: C4_6  and  C5_8 
REMARK       I    between atoms: N2_11  and  C8_12 
REMARK       I    between atoms: C8_12  and  N3_14 
REMARK    3  A    between atoms: N3_14  and  C9_16 
ROOT
HETATM    1  C5  UNL     1      -6.594  -3.343  10.445  1.00  0.00     0.081 C 
HETATM    2  C6  UNL     1      -7.154  -4.341   9.456  1.00  0.00     0.034 C 
HETATM    3  C7  UNL     1      -8.596  -4.611   9.920  1.00  0.00     0.128 C 
HETATM    4  N2  UNL     1      -8.540  -4.578  11.356  1.00  0.00    -0.334 N 
HETATM    5  C8  UNL     1      -8.480  -5.752  12.117  1.00  0.00     0.320 C 
HETATM    6  O2  UNL     1      -8.447  -5.727  13.387  1.00  0.00    -0.247 OA
HETATM    7  N3  UNL     1      -8.455  -7.009  11.463  1.00  0.00    -0.311 N 
ATOM      8  H3  UNL     1      -8.474  -7.063  10.445  1.00  0.00     0.167 HD
HETATM    9  C18 UNL     1      -8.536  -3.242  11.949  1.00  0.00     0.128 C 
HETATM   10  C19 UNL     1      -7.666  -2.410  10.994  1.00  0.00     0.034 C 
ENDROOT
BRANCH   7  11
HETATM   11  C9  UNL     1      -8.401  -8.214  12.261  1.00  0.00     0.139 C 
HETATM   12  C10 UNL     1      -9.521  -8.362  13.240  1.00  0.00     0.066 C 
HETATM   13  C11 UNL     1      -9.227  -9.567  14.118  1.00  0.00    -0.007 C 
HETATM   14  C12 UNL     1      -9.312 -10.787  13.243  1.00  0.00     0.009 C 
HETATM   15  C16 UNL     1      -7.889  -9.400  14.765  1.00  0.00     0.037 C 
HETATM   16  C13 UNL     1      -8.258 -10.654  12.174  1.00  0.00    -0.007 C 
HETATM   17  C14 UNL     1      -6.911 -10.561  12.862  1.00  0.00     0.037 C 
HETATM   18  C17 UNL     1      -8.425  -9.412  11.347  1.00  0.00     0.066 C 
HETATM   19  C15 UNL     1      -6.869  -9.285  13.647  1.00  0.00     0.125 C 
HETATM   20  O3  UNL     1      -7.170  -8.164  12.922  1.00  0.00    -0.355 OA
ENDBRANCH   7  11
BRANCH   1  21
HETATM   21  C4  UNL     1      -5.524  -2.521   9.829  1.00  0.00     0.222 C 
HETATM   22  N1  UNL     1      -5.624  -1.114   9.929  1.00  0.00    -0.357 N 
ATOM     23  H1  UNL     1      -6.413  -0.685  10.413  1.00  0.00     0.162 HD
HETATM   24  O1  UNL     1      -4.544  -3.062   9.228  1.00  0.00    -0.273 OA
BRANCH  22  25
HETATM   25  C2  UNL     1      -4.591  -0.290   9.333  1.00  0.00     0.076 C 
HETATM   26  C1  UNL     1      -5.330   0.838   8.600  1.00  0.00     0.032 C 
HETATM   27  C3  UNL     1      -3.769   0.279  10.475  1.00  0.00     0.032 C 
ENDBRANCH  22  25
ENDBRANCH   1  21
TORSDOF 3
ENDMDL
MODEL 3
REMARK VINA RESULT: -7.358194805      0.701      1.578
REMARK  3 active torsions:
REMARK  status: ('A' for Active; 'I' for Inactive)
REMARK    1  A    between atoms: C2_2  and  N1_4 
REMARK       I    between atoms: N1_4  and  C4_6 
REMARK    2  A    between atoms: C4_6  and  C5_8 
REMARK       I    between atoms: N2_11  and  C8_12 
REMARK       I    between atoms: C8_12  and  N3_14 
REMARK    3  A    between atoms: N3_14  and  C9_16 
ROOT
HETATM    1  C5  UNL     1      -7.810  -2.213  10.770  1.00  0.00     0.081 C 
HETATM    2  C6  UNL     1      -9.213  -2.771  10.870  1.00  0.00     0.034 C 
HETATM    3  C7  UNL     1      -9.449  -3.017  12.370  1.00  0.00     0.128 C 
HETATM    4  N2  UNL     1      -8.180  -3.454  12.883  1.00  0.00    -0.334 N 
HETATM    5  C8  UNL     1      -7.900  -4.810  13.094  1.00  0.00     0.320 C 
HETATM    6  O2  UNL     1      -6.785  -5.200  13.563  1.00  0.00    -0.247 OA
HETATM    7  N3  UNL     1      -8.881  -5.784  12.780  1.00  0.00    -0.311 N 
ATOM      8  H3  UNL     1      -9.784  -5.504  12.397  1.00  0.00     0.167 HD
HETATM    9  C18 UNL     1      -7.214  -2.390  13.148  1.00  0.00     0.128 C 
HETATM   10  C19 UNL     1      -7.426  -1.395  11.997  1.00  0.00     0.034 C 
ENDROOT
BRANCH   7  11
HETATM   11  C9  UNL     1      -8.582  -7.181  13.011  1.00  0.00     0.139 C 
HETATM   12  C10 UNL     1      -9.543  -8.135  12.378  1.00  0.00     0.066 C 
HETATM   13  C11 UNL     1      -9.206  -9.536  12.859  1.00  0.00    -0.007 C 
HETATM   14  C12 UNL     1      -7.865  -9.895  12.281  1.00  0.00     0.009 C 
HETATM   15  C16 UNL     1      -9.230  -9.571  14.354  1.00  0.00     0.037 C 
HETATM   16  C13 UNL     1      -6.860  -8.906  12.817  1.00  0.00    -0.007 C 
HETATM   17  C14 UNL     1      -6.859  -9.021  14.327  1.00  0.00     0.037 C 
HETATM   18  C17 UNL     1      -7.207  -7.486  12.475  1.00  0.00     0.066 C 
HETATM   19  C15 UNL     1      -8.195  -8.571  14.837  1.00  0.00     0.125 C 
HETATM   20  O3  UNL     1      -8.579  -7.331  14.401  1.00  0.00    -0.355 OA
ENDBRANCH   7  11
BRANCH   1  21
HETATM   21  C4  UNL     1      -7.658  -1.359   9.567  1.00  0.00     0.222 C 
HETATM   22  N1  UNL     1      -7.344   0.007   9.756  1.00  0.00    -0.357 N 
ATOM     23  H1  UNL     1      -7.227   0.385  10.696  1.00  0.00     0.162 HD
HETATM   24  O1  UNL     1      -7.805  -1.837   8.399  1.00  0.00    -0.273 OA
BRANCH  22  25
HETATM   25  C2  UNL     1      -7.191   0.862   8.595  1.00  0.00     0.076 C 
HETATM   26  C1  UNL     1      -7.797   2.214   8.993  1.00  0.00     0.032 C 
HETATM   27  C3  UNL     1      -5.701   1.008   8.349  1.00  0.00     0.032 C 
ENDBRANCH  22  25
ENDBRANCH   1  21
TORSDOF 3
ENDMDL
MODEL 4
REMARK VINA RESULT: -7.163379971      2.561      8.264
REMARK  3 active torsions:
REMARK  status: ('A' for Active; 'I' for Inactive)
REMARK    1  A    between atoms: C2_2  and  N1_4 
REMARK       I    between atoms: N1_4  and  C4_6 
REMARK    2  A    between atoms: C4_6  and  C5_8 
REMARK       I    between atoms: N2_11  and  C8_12 
REMARK       I    between atoms: C8_12  and  N3_14 
REMARK    3  A    between atoms: N3_14  and  C9_16 
ROOT
HETATM    1  C5  UNL     1      -7.234  -9.321  12.238  1.00  0.00     0.081 C 
HETATM    2  C6  UNL     1      -6.755  -8.280  13.225  1.00  0.00     0.034 C 
HETATM    3  C7  UNL     1      -7.958  -7.348  13.453  1.00  0.00     0.128 C 
HETATM    4  N2  UNL     1      -8.613  -7.263  12.176  1.00  0.00    -0.334 N 
HETATM    5  C8  UNL     1      -8.416  -6.173  11.319  1.00  0.00     0.320 C 
HETATM    6  O2  UNL     1      -9.006  -6.086  10.197  1.00  0.00    -0.247 OA
HETATM    7  N3  UNL     1      -7.536  -5.131  11.705  1.00  0.00    -0.311 N 
ATOM      8  H3  UNL     1      -7.042  -5.173  12.596  1.00  0.00     0.167 HD
HETATM    9  C18 UNL     1      -9.476  -8.394  11.841  1.00  0.00     0.128 C 
HETATM   10  C19 UNL     1      -8.722  -9.616  12.388  1.00  0.00     0.034 C 
ENDROOT
BRANCH   7  11
HETATM   11  C9  UNL     1      -7.347  -4.006  10.814  1.00  0.00     0.139 C 
HETATM   12  C10 UNL     1      -8.613  -3.341  10.376  1.00  0.00     0.066 C 
HETATM   13  C11 UNL     1      -8.264  -2.311   9.314  1.00  0.00    -0.007 C 
HETATM   14  C12 UNL     1      -7.469  -1.228   9.990  1.00  0.00     0.009 C 
HETATM   15  C16 UNL     1      -7.522  -2.975   8.198  1.00  0.00     0.037 C 
HETATM   16  C13 UNL     1      -6.212  -1.858  10.534  1.00  0.00    -0.007 C 
HETATM   17  C14 UNL     1      -5.452  -2.455   9.368  1.00  0.00     0.037 C 
HETATM   18  C17 UNL     1      -6.495  -2.970  11.503  1.00  0.00     0.066 C 
HETATM   19  C15 UNL     1      -6.266  -3.578   8.799  1.00  0.00     0.125 C 
HETATM   20  O3  UNL     1      -6.652  -4.519   9.716  1.00  0.00    -0.355 OA
ENDBRANCH   7  11
BRANCH   1  21
HETATM   21  C4  UNL     1      -6.484 -10.591  12.393  1.00  0.00     0.222 C 
HETATM   22  N1  UNL     1      -5.078 -10.520  12.538  1.00  0.00    -0.357 N 
ATOM     23  H1  UNL     1      -4.603  -9.618  12.534  1.00  0.00     0.162 HD
HETATM   24  O1  UNL     1      -7.082 -11.712  12.398  1.00  0.00    -0.273 OA
BRANCH  22  25
HETATM   25  C2  UNL     1      -4.323 -11.748  12.690  1.00  0.00     0.076 C 
HETATM   26  C1  UNL     1      -3.761 -12.065  11.298  1.00  0.00     0.032 C 
HETATM   27  C3  UNL     1      -3.191 -11.452  13.657  1.00  0.00     0.032 C 
ENDBRANCH  22  25
ENDBRANCH   1  21
TORSDOF 3
ENDMDL
MODEL 5
REMARK VINA RESULT: -7.148410979      1.532      1.853
REMARK  3 active torsions:
REMARK  status: ('A' for Active; 'I' for Inactive)
REMARK    1  A    between atoms: C2_2  and  N1_4 
REMARK       I    between atoms: N1_4  and  C4_6 
REMARK    2  A    between atoms: C4_6  and  C5_8 
REMARK       I    between atoms: N2_11  and  C8_12 
REMARK       I    between atoms: C8_12  and  N3_14 
REMARK    3  A    between atoms: N3_14  and  C9_16 
ROOT
HETATM    1  C5  UNL     1      -6.824  -2.884  10.435  1.00  0.00     0.081 C 
HETATM    2  C6  UNL     1      -7.140  -3.983   9.445  1.00  0.00     0.034 C 
HETATM    3  C7  UNL     1      -8.574  -4.431   9.776  1.00  0.00     0.128 C 
HETATM    4  N2  UNL     1      -8.675  -4.339  11.207  1.00  0.00    -0.334 N 
HETATM    5  C8  UNL     1      -8.542  -5.466  12.028  1.00  0.00     0.320 C 
HETATM    6  O2  UNL     1      -8.647  -5.392  13.292  1.00  0.00    -0.247 OA
HETATM    7  N3  UNL     1      -8.282  -6.730  11.442  1.00  0.00    -0.311 N 
ATOM      8  H3  UNL     1      -8.187  -6.823  10.431  1.00  0.00     0.167 HD
HETATM    9  C18 UNL     1      -8.910  -2.995  11.731  1.00  0.00     0.128 C 
HETATM   10  C19 UNL     1      -8.062  -2.086  10.827  1.00  0.00     0.034 C 
ENDROOT
BRANCH   7  11
HETATM   11  C9  UNL     1      -8.155  -7.888  12.300  1.00  0.00     0.139 C 
HETATM   12  C10 UNL     1      -7.150  -7.742  13.398  1.00  0.00     0.066 C 
HETATM   13  C11 UNL     1      -7.001  -9.088  14.087  1.00  0.00    -0.007 C 
HETATM   14  C12 UNL     1      -8.302  -9.375  14.786  1.00  0.00     0.009 C 
HETATM   15  C16 UNL     1      -6.633 -10.129  13.078  1.00  0.00     0.037 C 
HETATM   16  C13 UNL     1      -9.378  -9.448  13.733  1.00  0.00    -0.007 C 
HETATM   17  C14 UNL     1      -9.010 -10.559  12.772  1.00  0.00     0.037 C 
HETATM   18  C17 UNL     1      -9.491  -8.182  12.933  1.00  0.00     0.066 C 
HETATM   19  C15 UNL     1      -7.753 -10.168  12.054  1.00  0.00     0.125 C 
HETATM   20  O3  UNL     1      -7.807  -8.941  11.448  1.00  0.00    -0.355 OA
ENDBRANCH   7  11
BRANCH   1  21
HETATM   21  C4  UNL     1      -5.812  -1.946   9.889  1.00  0.00     0.222 C 
HETATM   22  N1  UNL     1      -6.135  -0.570   9.848  1.00  0.00    -0.357 N 
ATOM     23  H1  UNL     1      -7.038  -0.240  10.186  1.00  0.00     0.162 HD
HETATM   24  O1  UNL     1      -4.689  -2.364   9.469  1.00  0.00    -0.273 OA
BRANCH  22  25
HETATM   25  C2  UNL     1      -5.163   0.365   9.317  1.00  0.00     0.076 C 
HETATM   26  C1  UNL     1      -5.825   1.001   8.088  1.00  0.00     0.032 C 
HETATM   27  C3  UNL     1      -4.931   1.416  10.388  1.00  0.00     0.032 C 
ENDBRANCH  22  25
ENDBRANCH   1  21
TORSDOF 3
ENDMDL
