MODEL 1
REMARK VINA RESULT: -8.136086069      0.000      0.000
REMARK  2 active torsions:
REMARK  status: ('A' for Active; 'I' for Inactive)
REMARK       I    between atoms: C1_2  and  N1_4 
REMARK    1  A    between atoms: C7_10  and  N2_11 
REMARK       I    between atoms: N2_11  and  C8_13 
REMARK    2  A    between atoms: C8_13  and  C9_15 
ROOT
HETATM    1  N2  UNL     1      -7.811  -6.396  11.457  1.00  0.00    -0.356 N 
ATOM      2  H2  UNL     1      -8.161  -6.705  10.550  1.00  0.00     0.162 HD
HETATM    3  C8  UNL     1      -7.206  -5.104  11.565  1.00  0.00     0.227 C 
HETATM    4  O3  UNL     1      -6.793  -4.768  12.689  1.00  0.00    -0.273 OA
ENDROOT
BRANCH   1   5
HETATM    5  C7  UNL     1      -7.943  -7.288  12.610  1.00  0.00     0.088 C 
HETATM    6  C6  UNL     1      -9.127  -8.198  12.328  1.00  0.00     0.050 C 
HETATM    7  C5  UNL     1      -9.131  -9.326  13.338  1.00  0.00     0.092 C 
HETATM    8  N1  UNL     1      -7.959 -10.135  13.070  1.00  0.00    -0.317 N 
HETATM    9  C4  UNL     1      -8.833  -8.794  14.725  1.00  0.00     0.028 C 
HETATM   10  C1  UNL     1      -7.906 -11.422  12.472  1.00  0.00     0.286 C 
HETATM   11  C2  UNL     1      -6.841  -9.333  13.552  1.00  0.00     0.092 C 
HETATM   12  O1  UNL     1      -6.831 -12.025  12.292  1.00  0.00    -0.630 OA
HETATM   13  O2  UNL     1      -9.103 -12.006  12.086  1.00  0.00    -0.630 OA
HETATM   14  C3  UNL     1      -7.337  -8.928  14.922  1.00  0.00     0.028 C 
HETATM   15  C19 UNL     1      -6.671  -8.096  12.732  1.00  0.00     0.050 C 
ENDBRANCH   1   5
BRANCH   3  16
HETATM   16  C9  UNL     1      -7.135  -4.307  10.330  1.00  0.00     0.045 C 
HETATM   17  C10 UNL     1      -5.798  -4.485   9.639  1.00  0.00     0.020 C 
HETATM   18  C11 UNL     1      -5.317  -3.036   9.259  1.00  0.00     0.006 C 
HETATM   19  C12 UNL     1      -6.645  -2.501   9.108  1.00  0.00    -0.009 C 
HETATM   20  C13 UNL     1      -7.343  -1.351   8.752  1.00  0.00     0.005 C 
HETATM   21  C17 UNL     1      -7.048  -2.819  10.557  1.00  0.00     0.008 C 
HETATM   22  C14 UNL     1      -8.813  -1.889   8.639  1.00  0.00     0.005 C 
HETATM   23  C15 UNL     1      -9.075  -2.984   9.616  1.00  0.00    -0.013 C 
HETATM   24  C16 UNL     1      -8.425  -2.434  10.904  1.00  0.00     0.011 C 
HETATM   25  C18 UNL     1      -8.391  -4.304   9.510  1.00  0.00     0.024 C 
ENDBRANCH   3  16
TORSDOF 2
ENDMDL
MODEL 2
REMARK VINA RESULT: -8.080542717      2.234      7.603
REMARK  2 active torsions:
REMARK  status: ('A' for Active; 'I' for Inactive)
REMARK       I    between atoms: C1_2  and  N1_4 
REMARK    1  A    between atoms: C7_10  and  N2_11 
REMARK       I    between atoms: N2_11  and  C8_13 
REMARK    2  A    between atoms: C8_13  and  C9_15 
ROOT
HETATM    1  N2  UNL     1      -7.267  -6.241  11.622  1.00  0.00    -0.356 N 
ATOM      2  H2  UNL     1      -8.245  -6.160  11.343  1.00  0.00     0.162 HD
HETATM    3  C8  UNL     1      -6.871  -7.332  12.459  1.00  0.00     0.227 C 
HETATM    4  O3  UNL     1      -5.670  -7.392  12.775  1.00  0.00    -0.273 OA
ENDROOT
BRANCH   1   5
HETATM    5  C7  UNL     1      -6.310  -5.237  11.155  1.00  0.00     0.088 C 
HETATM    6  C6  UNL     1      -6.868  -4.668   9.861  1.00  0.00     0.050 C 
HETATM    7  C5  UNL     1      -6.080  -3.430   9.489  1.00  0.00     0.092 C 
HETATM    8  N1  UNL     1      -6.366  -2.429  10.499  1.00  0.00    -0.317 N 
HETATM    9  C4  UNL     1      -4.598  -3.665   9.694  1.00  0.00     0.028 C 
HETATM   10  C1  UNL     1      -7.173  -1.268  10.371  1.00  0.00     0.286 C 
HETATM   11  C2  UNL     1      -5.638  -2.880  11.678  1.00  0.00     0.092 C 
HETATM   12  O1  UNL     1      -7.347  -0.475  11.316  1.00  0.00    -0.630 OA
HETATM   13  O2  UNL     1      -7.777  -1.031   9.146  1.00  0.00    -0.630 OA
HETATM   14  C3  UNL     1      -4.275  -3.173  11.090  1.00  0.00     0.028 C 
HETATM   15  C19 UNL     1      -6.204  -4.157  12.207  1.00  0.00     0.050 C 
ENDBRANCH   1   5
BRANCH   3  16
HETATM   16  C9  UNL     1      -7.932  -8.271  12.859  1.00  0.00     0.045 C 
HETATM   17  C10 UNL     1      -8.500  -7.908  14.217  1.00  0.00     0.020 C 
HETATM   18  C11 UNL     1      -8.565  -9.256  15.026  1.00  0.00     0.006 C 
HETATM   19  C12 UNL     1      -8.757 -10.087  13.866  1.00  0.00    -0.009 C 
HETATM   20  C13 UNL     1      -8.975 -11.402  13.468  1.00  0.00     0.005 C 
HETATM   21  C17 UNL     1      -7.437  -9.651  13.210  1.00  0.00     0.008 C 
HETATM   22  C14 UNL     1      -9.333 -11.225  11.951  1.00  0.00     0.005 C 
HETATM   23  C15 UNL     1      -8.598 -10.081  11.342  1.00  0.00    -0.013 C 
HETATM   24  C16 UNL     1      -7.172 -10.273  11.903  1.00  0.00     0.011 C 
HETATM   25  C18 UNL     1      -8.864  -8.674  11.756  1.00  0.00     0.024 C 
ENDBRANCH   3  16
TORSDOF 2
ENDMDL
MODEL 3
REMARK VINA RESULT: -8.078794927      2.426      7.657
REMARK  2 active torsions:
REMARK  status: ('A' for Active; 'I' for Inactive)
REMARK       I    between atoms: C1_2  and  N1_4 
REMARK    1  A    between atoms: C7_10  and  N2_11 
REMARK       I    between atoms: N2_11  and  C8_13 
REMARK    2  A    between atoms: C8_13  and  C9_15 
ROOT
HETATM    1  N2  UNL     1      -8.269  -4.748  11.688  1.00  0.00    -0.356 N 
ATOM      2  H2  UNL     1      -8.049  -4.285  12.571  1.00  0.00     0.162 HD
HETATM    3  C8  UNL     1      -8.695  -6.113  11.708  1.00  0.00     0.227 C 
HETATM    4  O3  UNL     1      -8.953  -6.638  10.611  1.00  0.00    -0.273 OA
ENDROOT
BRANCH   1   5
HETATM    5  C7  UNL     1      -8.140  -3.995  10.440  1.00  0.00     0.088 C 
HETATM    6  C6  UNL     1      -8.274  -2.524  10.799  1.00  0.00     0.050 C 
HETATM    7  C5  UNL     1      -7.859  -1.688   9.607  1.00  0.00     0.092 C 
HETATM    8  N1  UNL     1      -6.438  -1.904   9.416  1.00  0.00    -0.317 N 
HETATM    9  C4  UNL     1      -8.436  -2.264   8.330  1.00  0.00     0.028 C 
HETATM   10  C1  UNL     1      -5.373  -1.009   9.704  1.00  0.00     0.286 C 
HETATM   11  C2  UNL     1      -6.342  -3.249   8.862  1.00  0.00     0.092 C 
HETATM   12  O1  UNL     1      -4.182  -1.307   9.497  1.00  0.00    -0.630 OA
HETATM   13  O2  UNL     1      -5.697   0.232  10.233  1.00  0.00    -0.630 OA
HETATM   14  C3  UNL     1      -7.378  -3.188   7.761  1.00  0.00     0.028 C 
HETATM   15  C19 UNL     1      -6.774  -4.275   9.857  1.00  0.00     0.050 C 
ENDBRANCH   1   5
BRANCH   3  16
HETATM   16  C9  UNL     1      -8.782  -6.756  13.030  1.00  0.00     0.045 C 
HETATM   17  C10 UNL     1      -8.498  -5.764  14.140  1.00  0.00     0.020 C 
HETATM   18  C11 UNL     1      -7.493  -6.487  15.111  1.00  0.00     0.006 C 
HETATM   19  C12 UNL     1      -7.979  -7.812  14.827  1.00  0.00    -0.009 C 
HETATM   20  C13 UNL     1      -7.820  -9.149  15.177  1.00  0.00     0.005 C 
HETATM   21  C17 UNL     1      -7.660  -7.718  13.327  1.00  0.00     0.008 C 
HETATM   22  C14 UNL     1      -9.055  -9.815  14.474  1.00  0.00     0.005 C 
HETATM   23  C15 UNL     1      -9.400  -9.125  13.198  1.00  0.00    -0.013 C 
HETATM   24  C16 UNL     1      -8.012  -8.919  12.553  1.00  0.00     0.011 C 
HETATM   25  C18 UNL     1      -9.915  -7.726  13.183  1.00  0.00     0.024 C 
ENDBRANCH   3  16
TORSDOF 2
ENDMDL
MODEL 4
REMARK VINA RESULT: -8.038272981      2.081      3.055
REMARK  2 active torsions:
REMARK  status: ('A' for Active; 'I' for Inactive)
REMARK       I    between atoms: C1_2  and  N1_4 
REMARK    1  A    between atoms: C7_10  and  N2_11 
REMARK       I    between atoms: N2_11  and  C8_13 
REMARK    2  A    between atoms: C8_13  and  C9_15 
ROOT
HETATM    1  N2  UNL     1      -8.526  -5.282  12.014  1.00  0.00    -0.356 N 
ATOM      2  H2  UNL     1      -8.589  -4.695  12.846  1.00  0.00     0.162 HD
HETATM    3  C8  UNL     1      -8.477  -4.659  10.727  1.00  0.00     0.227 C 
HETATM    4  O3  UNL     1      -8.399  -5.412   9.740  1.00  0.00    -0.273 OA
ENDROOT
BRANCH   1   5
HETATM    5  C7  UNL     1      -8.488  -6.736  12.172  1.00  0.00     0.088 C 
HETATM    6  C6  UNL     1      -7.028  -7.119  12.361  1.00  0.00     0.050 C 
HETATM    7  C5  UNL     1      -6.954  -8.560  12.820  1.00  0.00     0.092 C 
HETATM    8  N1  UNL     1      -7.533  -8.608  14.149  1.00  0.00    -0.317 N 
HETATM    9  C4  UNL     1      -7.918  -9.418  12.028  1.00  0.00     0.028 C 
HETATM   10  C1  UNL     1      -6.859  -8.766  15.389  1.00  0.00     0.286 C 
HETATM   11  C2  UNL     1      -8.966  -8.458  13.929  1.00  0.00     0.092 C 
HETATM   12  O1  UNL     1      -7.468  -8.793  16.475  1.00  0.00    -0.630 OA
HETATM   13  O2  UNL     1      -5.479  -8.892  15.363  1.00  0.00    -0.630 OA
HETATM   14  C3  UNL     1      -9.203  -9.468  12.828  1.00  0.00     0.028 C 
HETATM   15  C19 UNL     1      -9.293  -7.101  13.398  1.00  0.00     0.050 C 
ENDBRANCH   1   5
BRANCH   3  16
HETATM   16  C9  UNL     1      -8.523  -3.188  10.706  1.00  0.00     0.045 C 
HETATM   17  C10 UNL     1      -9.079  -2.676   9.393  1.00  0.00     0.020 C 
HETATM   18  C11 UNL     1      -8.109  -1.525   8.938  1.00  0.00     0.006 C 
HETATM   19  C12 UNL     1      -7.738  -1.141  10.276  1.00  0.00    -0.009 C 
HETATM   20  C13 UNL     1      -6.986  -0.219  10.996  1.00  0.00     0.005 C 
HETATM   21  C17 UNL     1      -7.171  -2.526  10.625  1.00  0.00     0.008 C 
HETATM   22  C14 UNL     1      -7.474  -0.481  12.464  1.00  0.00     0.005 C 
HETATM   23  C15 UNL     1      -7.816  -1.915  12.682  1.00  0.00    -0.013 C 
HETATM   24  C16 UNL     1      -6.640  -2.640  11.993  1.00  0.00     0.011 C 
HETATM   25  C18 UNL     1      -8.971  -2.555  11.990  1.00  0.00     0.024 C 
ENDBRANCH   3  16
TORSDOF 2
ENDMDL
MODEL 5
REMARK VINA RESULT: -7.936125903      2.474      7.399
REMARK  2 active torsions:
REMARK  status: ('A' for Active; 'I' for Inactive)
REMARK       I    between atoms: C1_2  and  N1_4 
REMARK    1  A    between atoms: C7_10  and  N2_11 
REMARK       I    between atoms: N2_11  and  C8_13 
REMARK    2  A    between atoms: C8_13  and  C9_15 
ROOT
HETATM    1  N2  UNL     1      -7.372  -6.033  12.602  1.00  0.00    -0.356 N 
ATOM      2  H2  UNL     1      -6.989  -6.479  11.768  1.00  0.00     0.162 HD
HETATM    3  C8  UNL     1      -7.719  -6.845  13.727  1.00  0.00     0.227 C 
HETATM    4  O3  UNL     1      -8.182  -6.261  14.722  1.00  0.00    -0.273 OA
ENDROOT
BRANCH   1   5
HETATM    5  C7  UNL     1      -7.550  -4.580  12.612  1.00  0.00     0.088 C 
HETATM    6  C6  UNL     1      -6.188  -3.970  12.325  1.00  0.00     0.050 C 
HETATM    7  C5  UNL     1      -6.364  -2.494  12.032  1.00  0.00     0.092 C 
HETATM    8  N1  UNL     1      -7.094  -2.397  10.783  1.00  0.00    -0.317 N 
HETATM    9  C4  UNL     1      -7.338  -1.873  13.011  1.00  0.00     0.028 C 
HETATM   10  C1  UNL     1      -6.595  -2.017   9.509  1.00  0.00     0.286 C 
HETATM   11  C2  UNL     1      -8.458  -2.779  11.125  1.00  0.00     0.092 C 
HETATM   12  O1  UNL     1      -7.323  -1.970   8.499  1.00  0.00    -0.630 OA
HETATM   13  O2  UNL     1      -5.250  -1.691   9.411  1.00  0.00    -0.630 OA
HETATM   14  C3  UNL     1      -8.702  -1.932  12.355  1.00  0.00     0.028 C 
HETATM   15  C19 UNL     1      -8.534  -4.216  11.523  1.00  0.00     0.050 C 
ENDBRANCH   1   5
BRANCH   3  16
HETATM   16  C9  UNL     1      -7.491  -8.293  13.588  1.00  0.00     0.045 C 
HETATM   17  C10 UNL     1      -6.090  -8.581  13.085  1.00  0.00     0.020 C 
HETATM   18  C11 UNL     1      -6.259  -9.643  11.937  1.00  0.00     0.006 C 
HETATM   19  C12 UNL     1      -7.444 -10.242  12.496  1.00  0.00    -0.009 C 
HETATM   20  C13 UNL     1      -8.360 -11.271  12.307  1.00  0.00     0.005 C 
HETATM   21  C17 UNL     1      -8.249  -8.934  12.453  1.00  0.00     0.008 C 
HETATM   22  C14 UNL     1      -9.148 -11.254  13.664  1.00  0.00     0.005 C 
HETATM   23  C15 UNL     1      -9.258  -9.875  14.219  1.00  0.00    -0.013 C 
HETATM   24  C16 UNL     1      -9.623  -9.047  12.967  1.00  0.00     0.011 C 
HETATM   25  C18 UNL     1      -8.059  -9.129  14.696  1.00  0.00     0.024 C 
ENDBRANCH   3  16
TORSDOF 2
ENDMDL
