MODEL 1
REMARK VINA RESULT: -6.696263009      0.000      0.000
REMARK  9 active torsions:
REMARK  status: ('A' for Active; 'I' for Inactive)
REMARK    1  A    between atoms: C1_4  and  C2_5 
REMARK    2  A    between atoms: C1_4  and  N3_13 
REMARK    3  A    between atoms: C2_5  and  C3_6 
REMARK    4  A    between atoms: C8_15  and  C9_16 
REMARK    5  A    between atoms: C8_15  and  C10_21 
REMARK    6  A    between atoms: C10_21  and  O2_23 
REMARK    7  A    between atoms: O2_23  and  C11_24 
REMARK    8  A    between atoms: C11_24  and  C12_25 
REMARK    9  A    between atoms: C12_25  and  N6_26 
ROOT
HETATM    1  N3  UNL     1      28.366   1.289 288.974  1.00  0.00    -0.338 N 
ATOM      2  H3  UNL     1      29.378   1.194 289.064  1.00  0.00     0.167 HD
HETATM    3  C8  UNL     1      27.888   2.342 289.497  1.00  0.00     0.150 C 
ENDROOT
BRANCH   3   4
HETATM    4  C9  UNL     1      26.489   2.703 289.502  1.00  0.00     0.143 C 
HETATM    5  N4  UNL     1      25.979   3.737 288.989  1.00  0.00    -0.386 N 
ATOM      6  H42 UNL     1      26.664   4.344 288.539  1.00  0.00     0.157 HD
ATOM      7  H41 UNL     1      24.991   3.991 288.992  1.00  0.00     0.157 HD
HETATM    8  N5  UNL     1      25.512   1.839 290.143  1.00  0.00    -0.081 NA
ENDBRANCH   3   4
BRANCH   3   9
HETATM    9  C10 UNL     1      28.939   3.198 290.125  1.00  0.00     0.313 C 
HETATM   10  O1  UNL     1      29.172   4.338 289.707  1.00  0.00    -0.257 OA
BRANCH   9  11
HETATM   11  O2  UNL     1      29.694   2.755 291.196  1.00  0.00    -0.315 OA
BRANCH  11  12
HETATM   12  C11 UNL     1      29.118   2.427 292.407  1.00  0.00     0.206 C 
BRANCH  12  13
HETATM   13  C12 UNL     1      28.815   0.985 292.653  1.00  0.00     0.256 C 
BRANCH  13  14
HETATM   14  N6  UNL     1      29.896   0.230 291.990  1.00  0.00    -0.077 N 
ATOM     15  H63 UNL     1      29.560  -0.494 291.355  1.00  0.00     0.274 HD
ATOM     16  H62 UNL     1      30.407   0.774 291.295  1.00  0.00     0.274 HD
ATOM     17  H61 UNL     1      30.485  -0.127 292.743  1.00  0.00     0.274 HD
ENDBRANCH  13  14
ENDBRANCH  12  13
ENDBRANCH  11  12
ENDBRANCH   9  11
ENDBRANCH   3   9
BRANCH   1  18
HETATM   18  C1  UNL     1      27.755   0.257 288.308  1.00  0.00     0.081 C 
HETATM   19  N1  UNL     1      28.014  -0.965 288.702  1.00  0.00    -0.389 N 
ATOM     20  H12 UNL     1      27.559  -1.732 288.207  1.00  0.00     0.157 HD
ATOM     21  H11 UNL     1      28.634  -1.126 289.496  1.00  0.00     0.157 HD
BRANCH  18  22
HETATM   22  C2  UNL     1      26.840   0.494 287.137  1.00  0.00     0.133 C 
BRANCH  22  23
HETATM   23  C3  UNL     1      27.662   1.064 286.036  1.00  0.00     0.015 A 
HETATM   24  C4  UNL     1      28.756   0.365 285.525  1.00  0.00     0.025 A 
HETATM   25  C5  UNL     1      29.553   0.823 284.512  1.00  0.00     0.003 A 
HETATM   26  C6  UNL     1      29.242   2.055 283.973  1.00  0.00     0.017 A 
HETATM   27  C7  UNL     1      28.159   2.726 284.492  1.00  0.00     0.088 A 
HETATM   28  N2  UNL     1      27.393   2.259 285.484  1.00  0.00    -0.369 N 
ATOM     29  H2  UNL     1      26.604   2.809 285.821  1.00  0.00     0.165 HD
ENDBRANCH  22  23
ENDBRANCH  18  22
ENDBRANCH   1  18
TORSDOF 9
ENDMDL
MODEL 2
REMARK VINA RESULT: -6.656593129      2.711      3.117
REMARK  9 active torsions:
REMARK  status: ('A' for Active; 'I' for Inactive)
REMARK    1  A    between atoms: C1_4  and  C2_5 
REMARK    2  A    between atoms: C1_4  and  N3_13 
REMARK    3  A    between atoms: C2_5  and  C3_6 
REMARK    4  A    between atoms: C8_15  and  C9_16 
REMARK    5  A    between atoms: C8_15  and  C10_21 
REMARK    6  A    between atoms: C10_21  and  O2_23 
REMARK    7  A    between atoms: O2_23  and  C11_24 
REMARK    8  A    between atoms: C11_24  and  C12_25 
REMARK    9  A    between atoms: C12_25  and  N6_26 
ROOT
HETATM    1  N3  UNL     1      27.881  -0.628 288.992  1.00  0.00    -0.338 N 
ATOM      2  H3  UNL     1      28.250  -1.005 289.865  1.00  0.00     0.167 HD
HETATM    3  C8  UNL     1      27.373   0.531 289.092  1.00  0.00     0.150 C 
ENDROOT
BRANCH   3   4
HETATM    4  C9  UNL     1      26.786   1.275 288.001  1.00  0.00     0.143 C 
HETATM    5  N4  UNL     1      27.310   2.245 287.388  1.00  0.00    -0.386 N 
ATOM      6  H42 UNL     1      28.238   2.488 287.734  1.00  0.00     0.157 HD
ATOM      7  H41 UNL     1      26.895   2.770 286.618  1.00  0.00     0.157 HD
HETATM    8  N5  UNL     1      25.464   0.930 287.507  1.00  0.00    -0.081 NA
ENDBRANCH   3   4
BRANCH   3   9
HETATM    9  C10 UNL     1      27.442   1.068 290.484  1.00  0.00     0.313 C 
HETATM   10  O1  UNL     1      26.900   2.137 290.786  1.00  0.00    -0.257 OA
BRANCH   9  11
HETATM   11  O2  UNL     1      28.111   0.395 291.491  1.00  0.00    -0.315 OA
BRANCH  11  12
HETATM   12  C11 UNL     1      28.728   1.065 292.528  1.00  0.00     0.206 C 
BRANCH  12  13
HETATM   13  C12 UNL     1      28.068   1.011 293.867  1.00  0.00     0.256 C 
BRANCH  13  14
HETATM   14  N6  UNL     1      29.134   0.653 294.824  1.00  0.00    -0.077 N 
ATOM     15  H63 UNL     1      29.070   1.152 295.712  1.00  0.00     0.274 HD
ATOM     16  H62 UNL     1      29.041  -0.287 295.207  1.00  0.00     0.274 HD
ATOM     17  H61 UNL     1      30.012   0.809 294.330  1.00  0.00     0.274 HD
ENDBRANCH  13  14
ENDBRANCH  12  13
ENDBRANCH  11  12
ENDBRANCH   9  11
ENDBRANCH   3   9
BRANCH   1  18
HETATM   18  C1  UNL     1      28.018  -1.461 287.910  1.00  0.00     0.081 C 
HETATM   19  N1  UNL     1      29.124  -1.382 287.212  1.00  0.00    -0.389 N 
ATOM     20  H12 UNL     1      29.226  -2.001 286.409  1.00  0.00     0.157 HD
ATOM     21  H11 UNL     1      29.859  -0.732 287.491  1.00  0.00     0.157 HD
BRANCH  18  22
HETATM   22  C2  UNL     1      26.934  -2.420 287.499  1.00  0.00     0.133 C 
BRANCH  22  23
HETATM   23  C3  UNL     1      26.795  -2.330 286.020  1.00  0.00     0.015 A 
HETATM   24  C4  UNL     1      26.974  -3.456 285.215  1.00  0.00     0.025 A 
HETATM   25  C5  UNL     1      26.857  -3.450 283.853  1.00  0.00     0.003 A 
HETATM   26  C6  UNL     1      26.543  -2.247 283.251  1.00  0.00     0.017 A 
HETATM   27  C7  UNL     1      26.372  -1.151 284.065  1.00  0.00     0.088 A 
HETATM   28  N2  UNL     1      26.490  -1.180 285.397  1.00  0.00    -0.369 N 
ATOM     29  H2  UNL     1      26.349  -0.328 285.940  1.00  0.00     0.165 HD
ENDBRANCH  22  23
ENDBRANCH  18  22
ENDBRANCH   1  18
TORSDOF 9
ENDMDL
MODEL 3
REMARK VINA RESULT: -6.574083106      1.831      2.123
REMARK  9 active torsions:
REMARK  status: ('A' for Active; 'I' for Inactive)
REMARK    1  A    between atoms: C1_4  and  C2_5 
REMARK    2  A    between atoms: C1_4  and  N3_13 
REMARK    3  A    between atoms: C2_5  and  C3_6 
REMARK    4  A    between atoms: C8_15  and  C9_16 
REMARK    5  A    between atoms: C8_15  and  C10_21 
REMARK    6  A    between atoms: C10_21  and  O2_23 
REMARK    7  A    between atoms: O2_23  and  C11_24 
REMARK    8  A    between atoms: C11_24  and  C12_25 
REMARK    9  A    between atoms: C12_25  and  N6_26 
ROOT
HETATM    1  N3  UNL     1      28.003  -0.500 289.064  1.00  0.00    -0.338 N 
ATOM      2  H3  UNL     1      28.597  -0.819 289.829  1.00  0.00     0.167 HD
HETATM    3  C8  UNL     1      27.532   0.669 289.215  1.00  0.00     0.150 C 
ENDROOT
BRANCH   3   4
HETATM    4  C9  UNL     1      26.667   1.342 288.274  1.00  0.00     0.143 C 
HETATM    5  N4  UNL     1      26.893   2.445 287.704  1.00  0.00    -0.386 N 
ATOM      6  H42 UNL     1      27.787   2.860 287.968  1.00  0.00     0.157 HD
ATOM      7  H41 UNL     1      26.282   2.920 287.040  1.00  0.00     0.157 HD
HETATM    8  N5  UNL     1      25.394   0.752 287.898  1.00  0.00    -0.081 NA
ENDBRANCH   3   4
BRANCH   3   9
HETATM    9  C10 UNL     1      27.969   1.300 290.496  1.00  0.00     0.313 C 
HETATM   10  O1  UNL     1      27.811   2.509 290.702  1.00  0.00    -0.257 OA
BRANCH   9  11
HETATM   11  O2  UNL     1      28.566   0.564 291.504  1.00  0.00    -0.315 OA
BRANCH  11  12
HETATM   12  C11 UNL     1      29.010   1.153 292.671  1.00  0.00     0.206 C 
BRANCH  12  13
HETATM   13  C12 UNL     1      28.184   0.945 293.899  1.00  0.00     0.256 C 
BRANCH  13  14
HETATM   14  N6  UNL     1      29.136   0.570 294.962  1.00  0.00    -0.077 N 
ATOM     15  H63 UNL     1      30.037   0.247 294.609  1.00  0.00     0.274 HD
ATOM     16  H62 UNL     1      29.491   1.365 295.493  1.00  0.00     0.274 HD
ATOM     17  H61 UNL     1      28.651  -0.121 295.536  1.00  0.00     0.274 HD
ENDBRANCH  13  14
ENDBRANCH  12  13
ENDBRANCH  11  12
ENDBRANCH   9  11
ENDBRANCH   3   9
BRANCH   1  18
HETATM   18  C1  UNL     1      27.851  -1.408 288.046  1.00  0.00     0.081 C 
HETATM   19  N1  UNL     1      26.886  -2.287 288.149  1.00  0.00    -0.389 N 
ATOM     20  H12 UNL     1      26.773  -2.961 287.392  1.00  0.00     0.157 HD
ATOM     21  H11 UNL     1      26.263  -2.271 288.956  1.00  0.00     0.157 HD
BRANCH  18  22
HETATM   22  C2  UNL     1      28.771  -1.432 286.855  1.00  0.00     0.133 C 
BRANCH  22  23
HETATM   23  C3  UNL     1      28.218  -0.490 285.844  1.00  0.00     0.015 A 
HETATM   24  C4  UNL     1      28.981   0.576 285.367  1.00  0.00     0.025 A 
HETATM   25  C5  UNL     1      28.543   1.477 284.437  1.00  0.00     0.003 A 
HETATM   26  C6  UNL     1      27.262   1.307 283.949  1.00  0.00     0.017 A 
HETATM   27  C7  UNL     1      26.528   0.250 284.434  1.00  0.00     0.088 A 
HETATM   28  N2  UNL     1      26.978  -0.621 285.345  1.00  0.00    -0.369 N 
ATOM     29  H2  UNL     1      26.380  -1.384 285.660  1.00  0.00     0.165 HD
ENDBRANCH  22  23
ENDBRANCH  18  22
ENDBRANCH   1  18
TORSDOF 9
ENDMDL
MODEL 4
REMARK VINA RESULT: -6.570494057      0.999      1.115
REMARK  9 active torsions:
REMARK  status: ('A' for Active; 'I' for Inactive)
REMARK    1  A    between atoms: C1_4  and  C2_5 
REMARK    2  A    between atoms: C1_4  and  N3_13 
REMARK    3  A    between atoms: C2_5  and  C3_6 
REMARK    4  A    between atoms: C8_15  and  C9_16 
REMARK    5  A    between atoms: C8_15  and  C10_21 
REMARK    6  A    between atoms: C10_21  and  O2_23 
REMARK    7  A    between atoms: O2_23  and  C11_24 
REMARK    8  A    between atoms: C11_24  and  C12_25 
REMARK    9  A    between atoms: C12_25  and  N6_26 
ROOT
HETATM    1  N3  UNL     1      27.906   1.978 288.125  1.00  0.00    -0.338 N 
ATOM      2  H3  UNL     1      28.921   2.089 288.104  1.00  0.00     0.167 HD
HETATM    3  C8  UNL     1      27.319   2.675 289.009  1.00  0.00     0.150 C 
ENDROOT
BRANCH   3   4
HETATM    4  C9  UNL     1      25.893   2.691 289.238  1.00  0.00     0.143 C 
HETATM    5  N4  UNL     1      25.073   3.547 288.804  1.00  0.00    -0.386 N 
ATOM      6  H42 UNL     1      25.512   4.277 288.242  1.00  0.00     0.157 HD
ATOM      7  H41 UNL     1      24.066   3.558 288.966  1.00  0.00     0.157 HD
HETATM    8  N5  UNL     1      25.268   1.652 290.039  1.00  0.00    -0.081 NA
ENDBRANCH   3   4
BRANCH   3   9
HETATM    9  C10 UNL     1      28.270   3.500 289.812  1.00  0.00     0.313 C 
HETATM   10  O1  UNL     1      28.053   4.697 290.031  1.00  0.00    -0.257 OA
BRANCH   9  11
HETATM   11  O2  UNL     1      29.429   2.963 290.345  1.00  0.00    -0.315 OA
BRANCH  11  12
HETATM   12  C11 UNL     1      29.493   2.519 291.650  1.00  0.00     0.206 C 
BRANCH  12  13
HETATM   13  C12 UNL     1      28.841   1.211 291.961  1.00  0.00     0.256 C 
BRANCH  13  14
HETATM   14  N6  UNL     1      29.931   0.218 291.993  1.00  0.00    -0.077 N 
ATOM     15  H63 UNL     1      30.801   0.578 292.386  1.00  0.00     0.274 HD
ATOM     16  H62 UNL     1      29.787  -0.526 292.676  1.00  0.00     0.274 HD
ATOM     17  H61 UNL     1      30.025  -0.120 291.035  1.00  0.00     0.274 HD
ENDBRANCH  13  14
ENDBRANCH  12  13
ENDBRANCH  11  12
ENDBRANCH   9  11
ENDBRANCH   3   9
BRANCH   1  18
HETATM   18  C1  UNL     1      27.411   1.101 287.194  1.00  0.00     0.081 C 
HETATM   19  N1  UNL     1      27.476  -0.179 287.462  1.00  0.00    -0.389 N 
ATOM     20  H12 UNL     1      27.107  -0.831 286.770  1.00  0.00     0.157 HD
ATOM     21  H11 UNL     1      27.865  -0.497 288.350  1.00  0.00     0.157 HD
BRANCH  18  22
HETATM   22  C2  UNL     1      26.836   1.569 285.884  1.00  0.00     0.133 C 
BRANCH  22  23
HETATM   23  C3  UNL     1      27.977   1.950 285.008  1.00  0.00     0.015 A 
HETATM   24  C4  UNL     1      29.017   1.055 284.757  1.00  0.00     0.025 A 
HETATM   25  C5  UNL     1      30.092   1.332 283.960  1.00  0.00     0.003 A 
HETATM   26  C6  UNL     1      30.138   2.582 283.374  1.00  0.00     0.017 A 
HETATM   27  C7  UNL     1      29.102   3.449 283.636  1.00  0.00     0.088 A 
HETATM   28  N2  UNL     1      28.058   3.155 284.420  1.00  0.00    -0.369 N 
ATOM     29  H2  UNL     1      27.323   3.846 284.570  1.00  0.00     0.165 HD
ENDBRANCH  22  23
ENDBRANCH  18  22
ENDBRANCH   1  18
TORSDOF 9
ENDMDL
MODEL 5
REMARK VINA RESULT: -6.539223306      1.975      2.609
REMARK  9 active torsions:
REMARK  status: ('A' for Active; 'I' for Inactive)
REMARK    1  A    between atoms: C1_4  and  C2_5 
REMARK    2  A    between atoms: C1_4  and  N3_13 
REMARK    3  A    between atoms: C2_5  and  C3_6 
REMARK    4  A    between atoms: C8_15  and  C9_16 
REMARK    5  A    between atoms: C8_15  and  C10_21 
REMARK    6  A    between atoms: C10_21  and  O2_23 
REMARK    7  A    between atoms: O2_23  and  C11_24 
REMARK    8  A    between atoms: C11_24  and  C12_25 
REMARK    9  A    between atoms: C12_25  and  N6_26 
ROOT
HETATM    1  N3  UNL     1      27.845  -0.841 288.991  1.00  0.00    -0.338 N 
ATOM      2  H3  UNL     1      28.338  -1.272 289.773  1.00  0.00     0.167 HD
HETATM    3  C8  UNL     1      27.450   0.346 289.208  1.00  0.00     0.150 C 
ENDROOT
BRANCH   3   4
HETATM    4  C9  UNL     1      26.731   1.166 288.260  1.00  0.00     0.143 C 
HETATM    5  N4  UNL     1      27.091   2.291 287.817  1.00  0.00    -0.386 N 
ATOM      6  H42 UNL     1      27.985   2.607 288.196  1.00  0.00     0.157 HD
ATOM      7  H41 UNL     1      26.584   2.870 287.148  1.00  0.00     0.157 HD
HETATM    8  N5  UNL     1      25.459   0.717 287.720  1.00  0.00    -0.081 NA
ENDBRANCH   3   4
BRANCH   3   9
HETATM    9  C10 UNL     1      27.810   0.828 290.575  1.00  0.00     0.313 C 
HETATM   10  O1  UNL     1      28.573   0.182 291.302  1.00  0.00    -0.257 OA
BRANCH   9  11
HETATM   11  O2  UNL     1      27.310   2.013 291.083  1.00  0.00    -0.315 OA
BRANCH  11  12
HETATM   12  C11 UNL     1      28.138   3.048 291.468  1.00  0.00     0.206 C 
BRANCH  12  13
HETATM   13  C12 UNL     1      29.288   3.374 290.572  1.00  0.00     0.256 C 
BRANCH  13  14
HETATM   14  N6  UNL     1      28.854   4.535 289.771  1.00  0.00    -0.077 N 
ATOM     15  H63 UNL     1      29.229   5.424 290.102  1.00  0.00     0.274 HD
ATOM     16  H62 UNL     1      29.270   4.567 288.840  1.00  0.00     0.274 HD
ATOM     17  H61 UNL     1      27.835   4.499 289.762  1.00  0.00     0.274 HD
ENDBRANCH  13  14
ENDBRANCH  12  13
ENDBRANCH  11  12
ENDBRANCH   9  11
ENDBRANCH   3   9
BRANCH   1  18
HETATM   18  C1  UNL     1      27.722  -1.643 287.884  1.00  0.00     0.081 C 
HETATM   19  N1  UNL     1      26.696  -2.455 287.827  1.00  0.00    -0.389 N 
ATOM     20  H12 UNL     1      26.604  -3.051 287.005  1.00  0.00     0.157 HD
ATOM     21  H11 UNL     1      26.007  -2.462 288.579  1.00  0.00     0.157 HD
BRANCH  18  22
HETATM   22  C2  UNL     1      28.738  -1.632 286.775  1.00  0.00     0.133 C 
BRANCH  22  23
HETATM   23  C3  UNL     1      28.307  -0.609 285.784  1.00  0.00     0.015 A 
HETATM   24  C4  UNL     1      29.163   0.427 285.407  1.00  0.00     0.025 A 
HETATM   25  C5  UNL     1      28.839   1.397 284.501  1.00  0.00     0.003 A 
HETATM   26  C6  UNL     1      27.582   1.336 283.933  1.00  0.00     0.017 A 
HETATM   27  C7  UNL     1      26.755   0.307 284.320  1.00  0.00     0.088 A 
HETATM   28  N2  UNL     1      27.094  -0.634 285.209  1.00  0.00    -0.369 N 
ATOM     29  H2  UNL     1      26.431  -1.370 285.451  1.00  0.00     0.165 HD
ENDBRANCH  22  23
ENDBRANCH  18  22
ENDBRANCH   1  18
TORSDOF 9
ENDMDL
