MODEL 1
REMARK VINA RESULT: -7.979085164      0.000      0.000
REMARK  5 active torsions:
REMARK  status: ('A' for Active; 'I' for Inactive)
REMARK    1  A    between atoms: C2_2  and  C3_3 
REMARK    2  A    between atoms: C3_3  and  C4_4 
REMARK    3  A    between atoms: C4_4  and  N1_5 
REMARK       I    between atoms: N1_5  and  C6_7 
REMARK       I    between atoms: C6_7  and  N2_9 
REMARK    4  A    between atoms: N2_9  and  C7_11 
REMARK    5  A    between atoms: C20_24  and  C22_26 
ROOT
HETATM    1  C7  UNL     1      -0.687  -5.085  20.802  1.00  0.00     0.086 C 
HETATM    2  C8  UNL     1      -1.023  -4.770  22.225  1.00  0.00     0.026 C 
HETATM    3  C9  UNL     1      -0.811  -3.283  22.546  1.00  0.00     0.008 C 
HETATM    4  C10 UNL     1       0.467  -2.913  21.845  1.00  0.00    -0.002 C 
HETATM    5  C11 UNL     1       0.323  -2.808  20.356  1.00  0.00    -0.008 C 
HETATM    6  C12 UNL     1       1.733  -2.990  19.790  1.00  0.00     0.005 C 
HETATM    7  C13 UNL     1       2.771  -2.339  20.731  1.00  0.00     0.006 C 
HETATM    8  C14 UNL     1       2.106  -1.210  21.414  1.00  0.00     0.003 C 
HETATM    9  C15 UNL     1       1.170  -1.719  22.468  1.00  0.00    -0.036 C 
HETATM   10  C16 UNL     1       1.795  -2.224  23.724  1.00  0.00     0.016 C 
HETATM   11  C17 UNL     1       0.210  -0.565  22.710  1.00  0.00     0.010 C 
HETATM   12  C18 UNL     1       0.987   0.672  23.059  1.00  0.00     0.007 C 
HETATM   13  C19 UNL     1       1.952   1.123  21.973  1.00  0.00     0.011 C 
HETATM   14  C20 UNL     1       2.537   2.432  22.310  1.00  0.00     0.039 C 
HETATM   15  C21 UNL     1       2.767   3.230  21.009  1.00  0.00     0.025 C 
HETATM   16  C23 UNL     1       3.807   2.417  23.087  1.00  0.00     0.019 C 
HETATM   17  C24 UNL     1       4.651   1.201  22.930  1.00  0.00     0.002 C 
HETATM   18  C25 UNL     1       3.834  -0.101  22.925  1.00  0.00     0.010 C 
HETATM   19  C26 UNL     1       2.932  -0.015  21.768  1.00  0.00    -0.035 C 
HETATM   20  C27 UNL     1       3.819   0.170  20.543  1.00  0.00     0.016 C 
HETATM   21  C28 UNL     1      -0.608  -3.896  19.892  1.00  0.00     0.030 C 
ENDROOT
BRANCH   1  22
HETATM   22  N2  UNL     1      -1.683  -5.988  20.210  1.00  0.00    -0.338 N 
HETATM   23  C6  UNL     1      -1.580  -7.383  20.189  1.00  0.00     0.318 C 
HETATM   24  N1  UNL     1      -2.596  -8.154  19.603  1.00  0.00    -0.339 N 
HETATM   25  O1  UNL     1      -0.586  -7.948  20.691  1.00  0.00    -0.247 OA
HETATM   26  C5  UNL     1      -3.787  -7.512  19.029  1.00  0.00     0.154 C 
ATOM     27  H2  UNL     1      -2.508  -5.567  19.783  1.00  0.00     0.164 HD
BRANCH  24  28
HETATM   28  C4  UNL     1      -2.463  -9.595  19.578  1.00  0.00     0.127 C 
BRANCH  28  29
HETATM   29  C3  UNL     1      -2.035 -10.134  18.234  1.00  0.00     0.020 C 
BRANCH  29  30
HETATM   30  C2  UNL     1      -0.538 -10.354  18.298  1.00  0.00    -0.003 C 
HETATM   31  C1  UNL     1      -0.275 -11.140  19.574  1.00  0.00     0.005 C 
ENDBRANCH  29  30
ENDBRANCH  28  29
ENDBRANCH  24  28
ENDBRANCH   1  22
BRANCH  14  32
HETATM   32  C22 UNL     1       1.552   3.255  23.072  1.00  0.00     0.239 C 
HETATM   33  N3  UNL     1       0.373   3.809  22.542  1.00  0.00    -0.061 NA
HETATM   34  O2  UNL     1       1.766   3.487  24.295  1.00  0.00    -0.276 OA
ENDBRANCH  14  32
TORSDOF 5
ENDMDL
MODEL 2
REMARK VINA RESULT: -7.809584936      1.935      3.004
REMARK  5 active torsions:
REMARK  status: ('A' for Active; 'I' for Inactive)
REMARK    1  A    between atoms: C2_2  and  C3_3 
REMARK    2  A    between atoms: C3_3  and  C4_4 
REMARK    3  A    between atoms: C4_4  and  N1_5 
REMARK       I    between atoms: N1_5  and  C6_7 
REMARK       I    between atoms: C6_7  and  N2_9 
REMARK    4  A    between atoms: N2_9  and  C7_11 
REMARK    5  A    between atoms: C20_24  and  C22_26 
ROOT
HETATM    1  C7  UNL     1      -0.621  -6.614  19.884  1.00  0.00     0.086 C 
HETATM    2  C8  UNL     1      -0.973  -6.789  21.326  1.00  0.00     0.026 C 
HETATM    3  C9  UNL     1      -1.171  -5.439  22.033  1.00  0.00     0.008 C 
HETATM    4  C10 UNL     1      -0.077  -4.558  21.499  1.00  0.00    -0.002 C 
HETATM    5  C11 UNL     1      -0.304  -4.111  20.085  1.00  0.00    -0.008 C 
HETATM    6  C12 UNL     1       1.076  -3.737  19.542  1.00  0.00     0.005 C 
HETATM    7  C13 UNL     1       1.929  -3.091  20.656  1.00  0.00     0.006 C 
HETATM    8  C14 UNL     1       1.004  -2.412  21.588  1.00  0.00     0.003 C 
HETATM    9  C15 UNL     1       0.291  -3.420  22.437  1.00  0.00    -0.036 C 
HETATM   10  C16 UNL     1       1.083  -4.040  23.538  1.00  0.00     0.016 C 
HETATM   11  C17 UNL     1      -0.942  -2.686  22.940  1.00  0.00     0.010 C 
HETATM   12  C18 UNL     1      -0.528  -1.417  23.628  1.00  0.00     0.007 C 
HETATM   13  C19 UNL     1       0.229  -0.447  22.732  1.00  0.00     0.011 C 
HETATM   14  C20 UNL     1       0.438   0.838  23.421  1.00  0.00     0.039 C 
HETATM   15  C21 UNL     1       0.383   1.979  22.384  1.00  0.00     0.025 C 
HETATM   16  C23 UNL     1       1.693   0.976  24.212  1.00  0.00     0.019 C 
HETATM   17  C24 UNL     1       2.835   0.130  23.771  1.00  0.00     0.002 C 
HETATM   18  C25 UNL     1       2.414  -1.300  23.396  1.00  0.00     0.010 C 
HETATM   19  C26 UNL     1       1.478  -1.171  22.271  1.00  0.00    -0.035 C 
HETATM   20  C27 UNL     1       2.227  -0.431  21.169  1.00  0.00     0.016 C 
HETATM   21  C28 UNL     1      -0.913  -5.256  19.320  1.00  0.00     0.030 C 
ENDROOT
BRANCH   1  22
HETATM   22  N2  UNL     1      -1.348  -7.571  19.041  1.00  0.00    -0.338 N 
HETATM   23  C6  UNL     1      -2.683  -7.429  18.644  1.00  0.00     0.318 C 
HETATM   24  N1  UNL     1      -3.281  -8.403  17.828  1.00  0.00    -0.339 N 
HETATM   25  O1  UNL     1      -3.346  -6.438  19.013  1.00  0.00    -0.247 OA
HETATM   26  C5  UNL     1      -2.511  -9.565  17.360  1.00  0.00     0.154 C 
ATOM     27  H2  UNL     1      -0.845  -8.399  18.721  1.00  0.00     0.164 HD
BRANCH  24  28
HETATM   28  C4  UNL     1      -4.667  -8.245  17.441  1.00  0.00     0.127 C 
BRANCH  28  29
HETATM   29  C3  UNL     1      -4.885  -8.327  15.950  1.00  0.00     0.020 C 
BRANCH  29  30
HETATM   30  C2  UNL     1      -5.712  -7.122  15.553  1.00  0.00    -0.003 C 
HETATM   31  C1  UNL     1      -4.841  -5.902  15.807  1.00  0.00     0.005 C 
ENDBRANCH  29  30
ENDBRANCH  28  29
ENDBRANCH  24  28
ENDBRANCH   1  22
BRANCH  14  32
HETATM   32  C22 UNL     1      -0.705   1.124  24.337  1.00  0.00     0.239 C 
HETATM   33  N3  UNL     1      -2.024   1.394  23.931  1.00  0.00    -0.061 NA
HETATM   34  O2  UNL     1      -0.504   1.127  25.584  1.00  0.00    -0.276 OA
ENDBRANCH  14  32
TORSDOF 5
ENDMDL
MODEL 3
REMARK VINA RESULT: -7.727137353      1.139      1.667
REMARK  5 active torsions:
REMARK  status: ('A' for Active; 'I' for Inactive)
REMARK    1  A    between atoms: C2_2  and  C3_3 
REMARK    2  A    between atoms: C3_3  and  C4_4 
REMARK    3  A    between atoms: C4_4  and  N1_5 
REMARK       I    between atoms: N1_5  and  C6_7 
REMARK       I    between atoms: C6_7  and  N2_9 
REMARK    4  A    between atoms: N2_9  and  C7_11 
REMARK    5  A    between atoms: C20_24  and  C22_26 
ROOT
HETATM    1  C7  UNL     1      -0.949  -5.386  20.668  1.00  0.00     0.086 C 
HETATM    2  C8  UNL     1      -1.143  -5.177  22.136  1.00  0.00     0.026 C 
HETATM    3  C9  UNL     1      -0.879  -3.720  22.545  1.00  0.00     0.008 C 
HETATM    4  C10 UNL     1       0.331  -3.308  21.754  1.00  0.00    -0.002 C 
HETATM    5  C11 UNL     1       0.048  -3.089  20.298  1.00  0.00    -0.008 C 
HETATM    6  C12 UNL     1       1.395  -3.238  19.587  1.00  0.00     0.005 C 
HETATM    7  C13 UNL     1       2.527  -2.668  20.470  1.00  0.00     0.006 C 
HETATM    8  C14 UNL     1       1.947  -1.589  21.296  1.00  0.00     0.003 C 
HETATM    9  C15 UNL     1       1.108  -2.169  22.394  1.00  0.00    -0.036 C 
HETATM   10  C16 UNL     1       1.843  -2.773  23.543  1.00  0.00     0.016 C 
HETATM   11  C17 UNL     1       0.193  -1.030  22.813  1.00  0.00     0.010 C 
HETATM   12  C18 UNL     1       1.017   0.171  23.177  1.00  0.00     0.007 C 
HETATM   13  C19 UNL     1       1.882   0.695  22.040  1.00  0.00     0.011 C 
HETATM   14  C20 UNL     1       2.514   1.971  22.416  1.00  0.00     0.039 C 
HETATM   15  C21 UNL     1       2.631   2.863  21.162  1.00  0.00     0.025 C 
HETATM   16  C23 UNL     1       3.853   1.888  23.064  1.00  0.00     0.019 C 
HETATM   17  C24 UNL     1       4.660   0.681  22.737  1.00  0.00     0.002 C 
HETATM   18  C25 UNL     1       3.827  -0.611  22.713  1.00  0.00     0.010 C 
HETATM   19  C26 UNL     1       2.821  -0.431  21.658  1.00  0.00    -0.035 C 
HETATM   20  C27 UNL     1       3.589  -0.160  20.370  1.00  0.00     0.016 C 
HETATM   21  C28 UNL     1      -0.939  -4.132  19.846  1.00  0.00     0.030 C 
ENDROOT
BRANCH   1  22
HETATM   22  N2  UNL     1      -2.009  -6.233  20.108  1.00  0.00    -0.338 N 
HETATM   23  C6  UNL     1      -1.797  -7.286  19.211  1.00  0.00     0.318 C 
HETATM   24  N1  UNL     1      -2.884  -8.040  18.743  1.00  0.00    -0.339 N 
HETATM   25  O1  UNL     1      -0.642  -7.558  18.823  1.00  0.00    -0.247 OA
HETATM   26  C5  UNL     1      -4.250  -7.754  19.206  1.00  0.00     0.154 C 
ATOM     27  H2  UNL     1      -2.969  -6.041  20.395  1.00  0.00     0.164 HD
BRANCH  24  28
HETATM   28  C4  UNL     1      -2.645  -9.115  17.803  1.00  0.00     0.127 C 
BRANCH  28  29
HETATM   29  C3  UNL     1      -3.875  -9.511  17.022  1.00  0.00     0.020 C 
BRANCH  29  30
HETATM   30  C2  UNL     1      -4.007  -8.535  15.872  1.00  0.00    -0.003 C 
HETATM   31  C1  UNL     1      -5.456  -8.072  15.868  1.00  0.00     0.005 C 
ENDBRANCH  29  30
ENDBRANCH  28  29
ENDBRANCH  24  28
ENDBRANCH   1  22
BRANCH  14  32
HETATM   32  C22 UNL     1       1.619   2.741  23.329  1.00  0.00     0.239 C 
HETATM   33  N3  UNL     1       0.411   3.356  22.953  1.00  0.00    -0.061 NA
HETATM   34  O2  UNL     1       1.944   2.866  24.542  1.00  0.00    -0.276 OA
ENDBRANCH  14  32
TORSDOF 5
ENDMDL
MODEL 4
REMARK VINA RESULT: -7.498137386      4.272     11.329
REMARK  5 active torsions:
REMARK  status: ('A' for Active; 'I' for Inactive)
REMARK    1  A    between atoms: C2_2  and  C3_3 
REMARK    2  A    between atoms: C3_3  and  C4_4 
REMARK    3  A    between atoms: C4_4  and  N1_5 
REMARK       I    between atoms: N1_5  and  C6_7 
REMARK       I    between atoms: C6_7  and  N2_9 
REMARK    4  A    between atoms: N2_9  and  C7_11 
REMARK    5  A    between atoms: C20_24  and  C22_26 
ROOT
HETATM    1  C7  UNL     1       0.158  -5.700  22.815  1.00  0.00     0.086 C 
HETATM    2  C8  UNL     1      -1.307  -5.888  22.585  1.00  0.00     0.026 C 
HETATM    3  C9  UNL     1      -1.821  -7.195  23.209  1.00  0.00     0.008 C 
HETATM    4  C10 UNL     1      -0.750  -8.210  22.919  1.00  0.00    -0.002 C 
HETATM    5  C11 UNL     1       0.487  -8.030  23.748  1.00  0.00    -0.008 C 
HETATM    6  C12 UNL     1       1.609  -8.724  22.974  1.00  0.00     0.005 C 
HETATM    7  C13 UNL     1       1.067  -9.987  22.271  1.00  0.00     0.006 C 
HETATM    8  C14 UNL     1      -0.053 -10.504  23.084  1.00  0.00     0.003 C 
HETATM    9  C15 UNL     1      -1.265  -9.640  22.908  1.00  0.00    -0.036 C 
HETATM   10  C16 UNL     1      -2.011  -9.795  21.626  1.00  0.00     0.016 C 
HETATM   11  C17 UNL     1      -2.122  -9.938  24.128  1.00  0.00     0.010 C 
HETATM   12  C18 UNL     1      -2.373 -11.415  24.220  1.00  0.00     0.007 C 
HETATM   13  C19 UNL     1      -1.108 -12.250  24.355  1.00  0.00     0.011 C 
HETATM   14  C20 UNL     1      -1.443 -13.659  24.622  1.00  0.00     0.039 C 
HETATM   15  C21 UNL     1      -0.366 -14.266  25.545  1.00  0.00     0.025 C 
HETATM   16  C23 UNL     1      -1.603 -14.544  23.435  1.00  0.00     0.019 C 
HETATM   17  C24 UNL     1      -0.856 -14.135  22.214  1.00  0.00     0.002 C 
HETATM   18  C25 UNL     1      -0.912 -12.621  21.954  1.00  0.00     0.010 C 
HETATM   19  C26 UNL     1      -0.279 -11.982  23.116  1.00  0.00    -0.035 C 
HETATM   20  C27 UNL     1       1.133 -12.548  23.204  1.00  0.00     0.016 C 
HETATM   21  C28 UNL     1       0.744  -6.554  23.899  1.00  0.00     0.030 C 
ENDROOT
BRANCH   1  22
HETATM   22  N2  UNL     1       0.463  -4.311  23.180  1.00  0.00    -0.338 N 
HETATM   23  C6  UNL     1       0.625  -3.265  22.265  1.00  0.00     0.318 C 
HETATM   24  N1  UNL     1       0.907  -1.968  22.723  1.00  0.00    -0.339 N 
HETATM   25  O1  UNL     1       0.520  -3.479  21.039  1.00  0.00    -0.247 OA
HETATM   26  C5  UNL     1       1.010  -1.687  24.163  1.00  0.00     0.154 C 
ATOM     27  H2  UNL     1       0.563  -4.093  24.171  1.00  0.00     0.164 HD
BRANCH  24  28
HETATM   28  C4  UNL     1       1.087  -0.902  21.760  1.00  0.00     0.127 C 
BRANCH  28  29
HETATM   29  C3  UNL     1       2.502  -0.381  21.700  1.00  0.00     0.020 C 
BRANCH  29  30
HETATM   30  C2  UNL     1       3.175  -1.050  20.520  1.00  0.00    -0.003 C 
HETATM   31  C1  UNL     1       3.963  -2.223  21.084  1.00  0.00     0.005 C 
ENDBRANCH  29  30
ENDBRANCH  28  29
ENDBRANCH  24  28
ENDBRANCH   1  22
BRANCH  14  32
HETATM   32  C22 UNL     1      -2.700 -13.747  25.421  1.00  0.00     0.239 C 
HETATM   33  N3  UNL     1      -2.800 -13.520  26.806  1.00  0.00    -0.061 NA
HETATM   34  O2  UNL     1      -3.778 -14.046  24.835  1.00  0.00    -0.276 OA
ENDBRANCH  14  32
TORSDOF 5
ENDMDL
MODEL 5
REMARK VINA RESULT: -7.403216354      1.259      1.532
REMARK  5 active torsions:
REMARK  status: ('A' for Active; 'I' for Inactive)
REMARK    1  A    between atoms: C2_2  and  C3_3 
REMARK    2  A    between atoms: C3_3  and  C4_4 
REMARK    3  A    between atoms: C4_4  and  N1_5 
REMARK       I    between atoms: N1_5  and  C6_7 
REMARK       I    between atoms: C6_7  and  N2_9 
REMARK    4  A    between atoms: N2_9  and  C7_11 
REMARK    5  A    between atoms: C20_24  and  C22_26 
ROOT
HETATM    1  C7  UNL     1       0.123  -5.268  22.045  1.00  0.00     0.086 C 
HETATM    2  C8  UNL     1       0.407  -4.741  23.415  1.00  0.00     0.026 C 
HETATM    3  C9  UNL     1       0.390  -3.205  23.452  1.00  0.00     0.008 C 
HETATM    4  C10 UNL     1       1.083  -2.779  22.188  1.00  0.00    -0.002 C 
HETATM    5  C11 UNL     1       0.258  -2.988  20.953  1.00  0.00    -0.008 C 
HETATM    6  C12 UNL     1       1.256  -3.049  19.794  1.00  0.00     0.005 C 
HETATM    7  C13 UNL     1       2.424  -2.071  20.047  1.00  0.00     0.006 C 
HETATM    8  C14 UNL     1       1.900  -0.951  20.857  1.00  0.00     0.003 C 
HETATM    9  C15 UNL     1       1.693  -1.389  22.275  1.00  0.00    -0.036 C 
HETATM   10  C16 UNL     1       2.919  -1.535  23.112  1.00  0.00     0.016 C 
HETATM   11  C17 UNL     1       0.709  -0.379  22.843  1.00  0.00     0.010 C 
HETATM   12  C18 UNL     1       1.247   1.010  22.654  1.00  0.00     0.007 C 
HETATM   13  C19 UNL     1       1.479   1.390  21.198  1.00  0.00     0.011 C 
HETATM   14  C20 UNL     1       1.829   2.816  21.084  1.00  0.00     0.039 C 
HETATM   15  C21 UNL     1       1.250   3.372  19.767  1.00  0.00     0.025 C 
HETATM   16  C23 UNL     1       3.278   3.155  21.146  1.00  0.00     0.019 C 
HETATM   17  C24 UNL     1       4.215   2.083  20.714  1.00  0.00     0.002 C 
HETATM   18  C25 UNL     1       3.814   0.690  21.229  1.00  0.00     0.010 C 
HETATM   19  C26 UNL     1       2.493   0.405  20.652  1.00  0.00    -0.035 C 
HETATM   20  C27 UNL     1       2.655   0.489  19.139  1.00  0.00     0.016 C 
HETATM   21  C28 UNL     1      -0.499  -4.281  21.104  1.00  0.00     0.030 C 
ENDROOT
BRANCH   1  22
HETATM   22  N2  UNL     1      -0.791  -6.415  22.098  1.00  0.00    -0.338 N 
HETATM   23  C6  UNL     1      -1.282  -7.095  20.977  1.00  0.00     0.318 C 
HETATM   24  N1  UNL     1      -2.148  -8.188  21.142  1.00  0.00    -0.339 N 
HETATM   25  O1  UNL     1      -0.953  -6.733  19.829  1.00  0.00    -0.247 OA
HETATM   26  C5  UNL     1      -2.528  -8.648  22.485  1.00  0.00     0.154 C 
ATOM     27  H2  UNL     1      -1.091  -6.740  23.018  1.00  0.00     0.164 HD
BRANCH  24  28
HETATM   28  C4  UNL     1      -2.656  -8.868  19.969  1.00  0.00     0.127 C 
BRANCH  28  29
HETATM   29  C3  UNL     1      -2.030 -10.223  19.745  1.00  0.00     0.020 C 
BRANCH  29  30
HETATM   30  C2  UNL     1      -1.646 -10.301  18.283  1.00  0.00    -0.003 C 
HETATM   31  C1  UNL     1      -0.217  -9.790  18.187  1.00  0.00     0.005 C 
ENDBRANCH  29  30
ENDBRANCH  28  29
ENDBRANCH  24  28
ENDBRANCH   1  22
BRANCH  14  32
HETATM   32  C22 UNL     1       1.137   3.602  22.148  1.00  0.00     0.239 C 
HETATM   33  N3  UNL     1      -0.244   3.861  22.198  1.00  0.00    -0.061 NA
HETATM   34  O2  UNL     1       1.821   4.086  23.093  1.00  0.00    -0.276 OA
ENDBRANCH  14  32
TORSDOF 5
ENDMDL
