MODEL 1
REMARK VINA RESULT: -7.654128929      0.000      0.000
REMARK  6 active torsions:
REMARK  status: ('A' for Active; 'I' for Inactive)
REMARK    1  A    between atoms: C3_3  and  O1_4 
REMARK    2  A    between atoms: C4_6  and  O2_7 
REMARK    3  A    between atoms: C5_9  and  N1_10 
REMARK    4  A    between atoms: C9_17  and  O6_18 
REMARK    5  A    between atoms: C9_17  and  O7_20 
REMARK    6  A    between atoms: N3_26  and  O9_27 
ROOT
HETATM    1  C1  UNL     1     -10.259 -10.267  21.009  1.00  0.00     0.052 C 
HETATM    2  C2  UNL     1      -9.386 -10.766  19.919  1.00  0.00    -0.011 A 
HETATM    3  C3  UNL     1      -9.510 -11.992  19.317  1.00  0.00     0.108 A 
HETATM    4  C4  UNL     1      -8.668 -12.366  18.330  1.00  0.00     0.133 A 
HETATM    5  C5  UNL     1      -7.611 -11.542  17.845  1.00  0.00     0.152 A 
HETATM    6  C6  UNL     1      -7.485 -10.346  18.436  1.00  0.00     0.048 A 
HETATM    7  C7  UNL     1      -8.355  -9.940  19.460  1.00  0.00     0.040 A 
HETATM    8  C8  UNL     1      -8.247  -8.585  19.968  1.00  0.00     0.229 C 
HETATM    9  O5  UNL     1      -9.303  -7.979  20.314  1.00  0.00    -0.286 OA
HETATM   10  C9  UNL     1      -6.917  -7.963  20.064  1.00  0.00     0.277 C 
HETATM   11  C10 UNL     1      -6.104  -8.341  18.913  1.00  0.00     0.136 A 
HETATM   12  N2  UNL     1      -4.990  -7.771  18.361  1.00  0.00    -0.235 N 
ATOM     13  H2  UNL     1      -4.553  -6.903  18.671  1.00  0.00     0.197 HD
HETATM   14  O8  UNL     1      -4.594  -8.481  17.418  1.00  0.00    -0.128 OA
HETATM   15  N3  UNL     1      -5.355  -9.550  17.237  1.00  0.00    -0.099 N 
HETATM   16  C11 UNL     1      -6.312  -9.492  18.155  1.00  0.00     0.134 A 
ENDROOT
BRANCH  10  17
HETATM   17  O6  UNL     1      -7.035  -6.605  20.249  1.00  0.00    -0.354 OA
ATOM     18  H6  UNL     1      -6.248  -6.161  19.956  1.00  0.00     0.214 HD
ENDBRANCH  10  17
BRANCH  10  19
HETATM   19  O7  UNL     1      -6.252  -8.500  21.211  1.00  0.00    -0.354 OA
ATOM     20  H7  UNL     1      -5.350  -8.680  20.976  1.00  0.00     0.214 HD
ENDBRANCH  10  19
BRANCH  15  21
HETATM   21  O9  UNL     1      -5.026 -10.377  16.272  1.00  0.00    -0.261 OA
ATOM     22  H9  UNL     1      -5.409 -10.231  15.416  1.00  0.00     0.247 HD
ENDBRANCH  15  21
BRANCH   3  23
HETATM   23  O1  UNL     1     -10.502 -12.887  19.702  1.00  0.00    -0.357 OA
ATOM     24  H1  UNL     1     -10.323 -13.586  20.320  1.00  0.00     0.217 HD
ENDBRANCH   3  23
BRANCH   5  25
HETATM   25  N1  UNL     1      -6.942 -12.113  16.777  1.00  0.00    -0.112 N 
HETATM   26  O3  UNL     1      -6.001 -12.911  16.942  1.00  0.00    -0.532 OA
HETATM   27  O4  UNL     1      -7.400 -11.903  15.498  1.00  0.00    -0.532 OA
ENDBRANCH   5  25
BRANCH   4  28
HETATM   28  O2  UNL     1      -8.822 -13.615  17.740  1.00  0.00    -0.356 OA
ATOM     29  H2  UNL     1      -8.303 -13.836  16.976  1.00  0.00     0.218 HD
ENDBRANCH   4  28
TORSDOF 6
ENDMDL
MODEL 2
REMARK VINA RESULT: -7.193355470      2.579      4.744
REMARK  6 active torsions:
REMARK  status: ('A' for Active; 'I' for Inactive)
REMARK    1  A    between atoms: C3_3  and  O1_4 
REMARK    2  A    between atoms: C4_6  and  O2_7 
REMARK    3  A    between atoms: C5_9  and  N1_10 
REMARK    4  A    between atoms: C9_17  and  O6_18 
REMARK    5  A    between atoms: C9_17  and  O7_20 
REMARK    6  A    between atoms: N3_26  and  O9_27 
ROOT
HETATM    1  C1  UNL     1      -7.492 -12.542  13.460  1.00  0.00     0.052 C 
HETATM    2  C2  UNL     1      -8.104 -12.716  14.801  1.00  0.00    -0.011 A 
HETATM    3  C3  UNL     1      -9.298 -13.347  15.039  1.00  0.00     0.108 A 
HETATM    4  C4  UNL     1      -9.781 -13.459  16.295  1.00  0.00     0.133 A 
HETATM    5  C5  UNL     1      -9.110 -12.947  17.444  1.00  0.00     0.152 A 
HETATM    6  C6  UNL     1      -7.946 -12.326  17.211  1.00  0.00     0.048 A 
HETATM    7  C7  UNL     1      -7.427 -12.205  15.913  1.00  0.00     0.040 A 
HETATM    8  C8  UNL     1      -6.103 -11.637  15.743  1.00  0.00     0.229 C 
HETATM    9  O5  UNL     1      -5.357 -12.095  14.828  1.00  0.00    -0.286 OA
HETATM   10  C9  UNL     1      -5.673 -10.551  16.637  1.00  0.00     0.277 C 
HETATM   11  C10 UNL     1      -6.155 -10.796  17.992  1.00  0.00     0.136 A 
HETATM   12  N2  UNL     1      -5.744 -10.316  19.205  1.00  0.00    -0.235 N 
ATOM     13  H2  UNL     1      -4.946  -9.698  19.357  1.00  0.00     0.197 HD
HETATM   14  O8  UNL     1      -6.498 -10.754  20.092  1.00  0.00    -0.128 OA
HETATM   15  N3  UNL     1      -7.450 -11.536  19.607  1.00  0.00    -0.099 N 
HETATM   16  C11 UNL     1      -7.263 -11.587  18.294  1.00  0.00     0.134 A 
ENDROOT
BRANCH  10  17
HETATM   17  O6  UNL     1      -4.312 -10.366  16.548  1.00  0.00    -0.354 OA
ATOM     18  H6  UNL     1      -3.947 -10.171  17.403  1.00  0.00     0.214 HD
ENDBRANCH  10  17
BRANCH  10  19
HETATM   19  O7  UNL     1      -6.302  -9.339  16.207  1.00  0.00    -0.354 OA
ATOM     20  H7  UNL     1      -6.124  -9.224  15.281  1.00  0.00     0.214 HD
ENDBRANCH  10  19
BRANCH  15  21
HETATM   21  O9  UNL     1      -8.310 -12.050  20.455  1.00  0.00    -0.261 OA
ATOM     22  H9  UNL     1      -9.141 -12.355  20.111  1.00  0.00     0.247 HD
ENDBRANCH  15  21
BRANCH   3  23
HETATM   23  O1  UNL     1     -10.047 -13.888  14.001  1.00  0.00    -0.357 OA
ATOM     24  H1  UNL     1     -10.832 -13.457  13.682  1.00  0.00     0.217 HD
ENDBRANCH   3  23
BRANCH   5  25
HETATM   25  N1  UNL     1      -9.764 -13.260  18.622  1.00  0.00    -0.112 N 
HETATM   26  O3  UNL     1     -10.685 -12.553  19.070  1.00  0.00    -0.532 OA
HETATM   27  O4  UNL     1      -9.489 -14.447  19.257  1.00  0.00    -0.532 OA
ENDBRANCH   5  25
BRANCH   4  28
HETATM   28  O2  UNL     1     -10.994 -14.105  16.503  1.00  0.00    -0.356 OA
ATOM     29  H2  UNL     1     -10.997 -14.997  16.828  1.00  0.00     0.218 HD
ENDBRANCH   4  28
TORSDOF 6
ENDMDL
MODEL 3
REMARK VINA RESULT: -6.997292944      2.672      5.164
REMARK  6 active torsions:
REMARK  status: ('A' for Active; 'I' for Inactive)
REMARK    1  A    between atoms: C3_3  and  O1_4 
REMARK    2  A    between atoms: C4_6  and  O2_7 
REMARK    3  A    between atoms: C5_9  and  N1_10 
REMARK    4  A    between atoms: C9_17  and  O6_18 
REMARK    5  A    between atoms: C9_17  and  O7_20 
REMARK    6  A    between atoms: N3_26  and  O9_27 
ROOT
HETATM    1  C1  UNL     1     -10.205 -13.955  14.493  1.00  0.00     0.052 C 
HETATM    2  C2  UNL     1      -9.073 -13.141  14.999  1.00  0.00    -0.011 A 
HETATM    3  C3  UNL     1      -8.053 -12.652  14.224  1.00  0.00     0.108 A 
HETATM    4  C4  UNL     1      -7.060 -11.918  14.770  1.00  0.00     0.133 A 
HETATM    5  C5  UNL     1      -6.991 -11.599  16.158  1.00  0.00     0.152 A 
HETATM    6  C6  UNL     1      -7.985 -12.080  16.917  1.00  0.00     0.048 A 
HETATM    7  C7  UNL     1      -9.027 -12.841  16.364  1.00  0.00     0.040 A 
HETATM    8  C8  UNL     1     -10.138 -13.222  17.217  1.00  0.00     0.229 C 
HETATM    9  O5  UNL     1     -11.301 -13.263  16.718  1.00  0.00    -0.286 OA
HETATM   10  C9  UNL     1      -9.875 -13.547  18.627  1.00  0.00     0.277 C 
HETATM   11  C10 UNL     1      -8.861 -12.648  19.168  1.00  0.00     0.136 A 
HETATM   12  N2  UNL     1      -8.545 -12.301  20.453  1.00  0.00    -0.235 N 
ATOM     13  H2  UNL     1      -9.040 -12.612  21.289  1.00  0.00     0.197 HD
HETATM   14  O8  UNL     1      -7.556 -11.546  20.439  1.00  0.00    -0.128 OA
HETATM   15  N3  UNL     1      -7.118 -11.309  19.211  1.00  0.00    -0.099 N 
HETATM   16  C11 UNL     1      -7.915 -11.982  18.390  1.00  0.00     0.134 A 
ENDROOT
BRANCH  10  17
HETATM   17  O6  UNL     1     -11.051 -13.564  19.342  1.00  0.00    -0.354 OA
ATOM     18  H6  UNL     1     -11.083 -14.326  19.909  1.00  0.00     0.214 HD
ENDBRANCH  10  17
BRANCH  10  19
HETATM   19  O7  UNL     1      -9.313 -14.861  18.689  1.00  0.00    -0.354 OA
ATOM     20  H7  UNL     1      -9.997 -15.488  18.485  1.00  0.00     0.214 HD
ENDBRANCH  10  19
BRANCH  15  21
HETATM   21  O9  UNL     1      -6.072 -10.528  19.077  1.00  0.00    -0.261 OA
ATOM     22  H9  UNL     1      -5.687 -10.451  18.212  1.00  0.00     0.247 HD
ENDBRANCH  15  21
BRANCH   3  23
HETATM   23  O1  UNL     1      -8.008 -12.896  12.856  1.00  0.00    -0.357 OA
ATOM     24  H1  UNL     1      -8.280 -13.731  12.494  1.00  0.00     0.217 HD
ENDBRANCH   3  23
BRANCH   5  25
HETATM   25  N1  UNL     1      -5.927 -10.768  16.457  1.00  0.00    -0.112 N 
HETATM   26  O3  UNL     1      -4.772 -11.208  16.611  1.00  0.00    -0.532 OA
HETATM   27  O4  UNL     1      -6.109  -9.406  16.462  1.00  0.00    -0.532 OA
ENDBRANCH   5  25
BRANCH   4  28
HETATM   28  O2  UNL     1      -6.042 -11.437  13.956  1.00  0.00    -0.356 OA
ATOM     29  H2  UNL     1      -6.230 -10.743  13.336  1.00  0.00     0.218 HD
ENDBRANCH   4  28
TORSDOF 6
ENDMDL
MODEL 4
REMARK VINA RESULT: -6.932193112      2.198      4.344
REMARK  6 active torsions:
REMARK  status: ('A' for Active; 'I' for Inactive)
REMARK    1  A    between atoms: C3_3  and  O1_4 
REMARK    2  A    between atoms: C4_6  and  O2_7 
REMARK    3  A    between atoms: C5_9  and  N1_10 
REMARK    4  A    between atoms: C9_17  and  O6_18 
REMARK    5  A    between atoms: C9_17  and  O7_20 
REMARK    6  A    between atoms: N3_26  and  O9_27 
ROOT
HETATM    1  C1  UNL     1      -7.732 -12.822  14.535  1.00  0.00     0.052 C 
HETATM    2  C2  UNL     1      -8.187 -12.686  15.941  1.00  0.00    -0.011 A 
HETATM    3  C3  UNL     1      -9.362 -13.192  16.434  1.00  0.00     0.108 A 
HETATM    4  C4  UNL     1      -9.699 -13.020  17.730  1.00  0.00     0.133 A 
HETATM    5  C5  UNL     1      -8.884 -12.318  18.667  1.00  0.00     0.152 A 
HETATM    6  C6  UNL     1      -7.738 -11.818  18.184  1.00  0.00     0.048 A 
HETATM    7  C7  UNL     1      -7.371 -11.993  16.841  1.00  0.00     0.040 A 
HETATM    8  C8  UNL     1      -6.060 -11.541  16.413  1.00  0.00     0.229 C 
HETATM    9  O5  UNL     1      -5.439 -12.215  15.540  1.00  0.00    -0.286 OA
HETATM   10  C9  UNL     1      -5.499 -10.319  17.007  1.00  0.00     0.277 C 
HETATM   11  C10 UNL     1      -5.826 -10.255  18.427  1.00  0.00     0.136 A 
HETATM   12  N2  UNL     1      -5.263  -9.559  19.461  1.00  0.00    -0.235 N 
ATOM     13  H2  UNL     1      -4.436  -8.965  19.393  1.00  0.00     0.197 HD
HETATM   14  O8  UNL     1      -5.920  -9.765  20.497  1.00  0.00    -0.128 OA
HETATM   15  N3  UNL     1      -6.944 -10.581  20.293  1.00  0.00    -0.099 N 
HETATM   16  C11 UNL     1      -6.913 -10.909  19.007  1.00  0.00     0.134 A 
ENDROOT
BRANCH  10  17
HETATM   17  O6  UNL     1      -4.153 -10.227  16.735  1.00  0.00    -0.354 OA
ATOM     18  H6  UNL     1      -3.652 -10.211  17.542  1.00  0.00     0.214 HD
ENDBRANCH  10  17
BRANCH  10  19
HETATM   19  O7  UNL     1      -6.140  -9.191  16.403  1.00  0.00    -0.354 OA
ATOM     20  H7  UNL     1      -5.857  -8.407  16.861  1.00  0.00     0.214 HD
ENDBRANCH  10  19
BRANCH  15  21
HETATM   21  O9  UNL     1      -7.713 -10.864  21.318  1.00  0.00    -0.261 OA
ATOM     22  H9  UNL     1      -7.293 -11.138  22.124  1.00  0.00     0.247 HD
ENDBRANCH  15  21
BRANCH   3  23
HETATM   23  O1  UNL     1     -10.243 -13.896  15.620  1.00  0.00    -0.357 OA
ATOM     24  H1  UNL     1     -10.833 -13.446  15.027  1.00  0.00     0.217 HD
ENDBRANCH   3  23
BRANCH   5  25
HETATM   25  N1  UNL     1      -9.405 -12.348  19.948  1.00  0.00    -0.112 N 
HETATM   26  O3  UNL     1     -10.260 -11.528  20.329  1.00  0.00    -0.532 OA
HETATM   27  O4  UNL     1      -9.074 -13.382  20.791  1.00  0.00    -0.532 OA
ENDBRANCH   5  25
BRANCH   4  28
HETATM   28  O2  UNL     1     -10.896 -13.545  18.199  1.00  0.00    -0.356 OA
ATOM     29  H2  UNL     1     -10.930 -14.454  18.474  1.00  0.00     0.218 HD
ENDBRANCH   4  28
TORSDOF 6
ENDMDL
MODEL 5
REMARK VINA RESULT: -6.872429252      2.655      5.081
REMARK  6 active torsions:
REMARK  status: ('A' for Active; 'I' for Inactive)
REMARK    1  A    between atoms: C3_3  and  O1_4 
REMARK    2  A    between atoms: C4_6  and  O2_7 
REMARK    3  A    between atoms: C5_9  and  N1_10 
REMARK    4  A    between atoms: C9_17  and  O6_18 
REMARK    5  A    between atoms: C9_17  and  O7_20 
REMARK    6  A    between atoms: N3_26  and  O9_27 
ROOT
HETATM    1  C1  UNL     1      -5.005  -9.344  19.032  1.00  0.00     0.052 C 
HETATM    2  C2  UNL     1      -6.157 -10.222  19.349  1.00  0.00    -0.011 A 
HETATM    3  C3  UNL     1      -6.610 -10.491  20.616  1.00  0.00     0.108 A 
HETATM    4  C4  UNL     1      -7.668 -11.306  20.813  1.00  0.00     0.133 A 
HETATM    5  C5  UNL     1      -8.383 -11.936  19.753  1.00  0.00     0.152 A 
HETATM    6  C6  UNL     1      -7.938 -11.679  18.515  1.00  0.00     0.048 A 
HETATM    7  C7  UNL     1      -6.842 -10.830  18.293  1.00  0.00     0.040 A 
HETATM    8  C8  UNL     1      -6.492 -10.490  16.926  1.00  0.00     0.229 C 
HETATM    9  O5  UNL     1      -6.056  -9.327  16.681  1.00  0.00    -0.286 OA
HETATM   10  C9  UNL     1      -6.655 -11.506  15.874  1.00  0.00     0.277 C 
HETATM   11  C10 UNL     1      -7.870 -12.279  16.108  1.00  0.00     0.136 A 
HETATM   12  N2  UNL     1      -8.634 -13.047  15.274  1.00  0.00    -0.235 N 
ATOM     13  H2  UNL     1      -8.479 -13.168  14.273  1.00  0.00     0.197 HD
HETATM   14  O8  UNL     1      -9.550 -13.575  15.931  1.00  0.00    -0.128 OA
HETATM   15  N3  UNL     1      -9.511 -13.240  17.212  1.00  0.00    -0.099 N 
HETATM   16  C11 UNL     1      -8.472 -12.427  17.358  1.00  0.00     0.134 A 
ENDROOT
BRANCH  10  17
HETATM   17  O6  UNL     1      -6.590 -10.922  14.630  1.00  0.00    -0.354 OA
ATOM     18  H6  UNL     1      -6.317 -10.015  14.702  1.00  0.00     0.214 HD
ENDBRANCH  10  17
BRANCH  10  19
HETATM   19  O7  UNL     1      -5.571 -12.434  15.974  1.00  0.00    -0.354 OA
ATOM     20  H7  UNL     1      -4.820 -12.064  15.524  1.00  0.00     0.214 HD
ENDBRANCH  10  19
BRANCH  15  21
HETATM   21  O9  UNL     1     -10.427 -13.746  18.004  1.00  0.00    -0.261 OA
ATOM     22  H9  UNL     1     -10.154 -14.404  18.632  1.00  0.00     0.247 HD
ENDBRANCH  15  21
BRANCH   3  23
HETATM   23  O1  UNL     1      -5.997  -9.936  21.733  1.00  0.00    -0.357 OA
ATOM     24  H1  UNL     1      -5.843 -10.450  22.518  1.00  0.00     0.217 HD
ENDBRANCH   3  23
BRANCH   5  25
HETATM   25  N1  UNL     1      -9.476 -12.654  20.204  1.00  0.00    -0.112 N 
HETATM   26  O3  UNL     1      -9.370 -13.824  20.614  1.00  0.00    -0.532 OA
HETATM   27  O4  UNL     1     -10.694 -12.029  20.330  1.00  0.00    -0.532 OA
ENDBRANCH   5  25
BRANCH   4  28
HETATM   28  O2  UNL     1      -8.103 -11.557  22.109  1.00  0.00    -0.356 OA
ATOM     29  H2  UNL     1      -7.524 -11.373  22.838  1.00  0.00     0.218 HD
ENDBRANCH   4  28
TORSDOF 6
ENDMDL
