MODEL 1
REMARK VINA RESULT: -7.109996571      0.000      0.000
REMARK  8 active torsions:
REMARK  status: ('A' for Active; 'I' for Inactive)
REMARK    1  A    between atoms: N1_2  and  C3_4 
REMARK    2  A    between atoms: C3_4  and  C4_5 
REMARK    3  A    between atoms: C4_5  and  N2_6 
REMARK    4  A    between atoms: C7_9  and  C8_10 
REMARK    5  A    between atoms: C8_10  and  N3_11 
REMARK    6  A    between atoms: N3_11  and  C9_13 
REMARK    7  A    between atoms: C13_20  and  N6_21 
REMARK    8  A    between atoms: C14_23  and  C15_24 
ROOT
HETATM    1  C9  UNL     1      -4.406   4.365  12.594  1.00  0.00     0.679 A 
HETATM    2  N4  UNL     1      -4.510   3.779  11.394  1.00  0.00    -0.200 N 
ATOM      3  H4  UNL     1      -4.593   4.371  10.567  1.00  0.00     0.183 HD
HETATM    4  C10 UNL     1      -4.511   2.448  11.233  1.00  0.00     0.132 A 
HETATM    5  C11 UNL     1      -4.395   1.674  12.401  1.00  0.00     0.105 A 
HETATM    6  C12 UNL     1      -4.392   0.261  12.189  1.00  0.00     0.104 C 
HETATM    7  N5  UNL     1      -4.383  -0.888  11.983  1.00  0.00    -0.191 NA
HETATM    8  C13 UNL     1      -4.287   2.226  13.646  1.00  0.00     0.142 A 
HETATM    9  N8  UNL     1      -4.297   3.619  13.697  1.00  0.00    -0.175 N 
ATOM     10  H8  UNL     1      -4.219   4.081  14.603  1.00  0.00     0.186 HD
ENDROOT
BRANCH   8  11
HETATM   11  N6  UNL     1      -4.187   1.595  14.694  1.00  0.00    -0.354 N 
HETATM   12  C14 UNL     1      -4.535   1.614  16.002  1.00  0.00     0.069 C 
ATOM     13  H6  UNL     1      -3.646   0.750  14.513  1.00  0.00     0.166 HD
BRANCH  12  14
HETATM   14  C15 UNL     1      -5.870   0.947  16.327  1.00  0.00     0.051 C 
HETATM   15  C16 UNL     1      -6.944   1.969  16.091  1.00  0.00     0.039 C 
HETATM   16  C17 UNL     1      -6.819   2.838  17.323  1.00  0.00     0.233 C 
HETATM   17  N7  UNL     1      -6.292   2.032  18.388  1.00  0.00    -0.074 N 
HETATM   18  C18 UNL     1      -5.872   0.760  17.831  1.00  0.00     0.242 C 
ATOM     19  H72 UNL     1      -5.546   2.500  18.903  1.00  0.00     0.277 HD
ATOM     20  H71 UNL     1      -6.948   1.925  19.163  1.00  0.00     0.277 HD
ENDBRANCH  12  14
ENDBRANCH   8  11
BRANCH   1  21
HETATM   21  N3  UNL     1      -4.406   5.642  12.709  1.00  0.00    -0.226 N 
ATOM     22  H3  UNL     1      -4.924   6.004  13.509  1.00  0.00     0.177 HD
BRANCH  21  23
HETATM   23  C8  UNL     1      -3.798   6.623  11.895  1.00  0.00     0.142 C 
BRANCH  23  24
HETATM   24  C7  UNL     1      -4.775   7.574  11.217  1.00  0.00     0.007 C 
HETATM   25  C6  UNL     1      -4.593   7.462   9.730  1.00  0.00     0.036 C 
HETATM   26  C5  UNL     1      -5.660   8.314   9.084  1.00  0.00     0.273 C 
HETATM   27  N2  UNL     1      -6.983   7.828   9.325  1.00  0.00     0.090 N 
HETATM   28  C20 UNL     1      -7.140   7.033  10.494  1.00  0.00     0.273 C 
HETATM   29  C19 UNL     1      -6.161   7.200  11.582  1.00  0.00     0.036 C 
BRANCH  27  30
HETATM   30  C4  UNL     1      -7.604   7.256   8.149  1.00  0.00     0.302 C 
BRANCH  30  31
HETATM   31  C3  UNL     1      -9.007   7.743   8.064  1.00  0.00     0.301 C 
BRANCH  31  32
HETATM   32  N1  UNL     1      -9.129   9.092   7.568  1.00  0.00     0.081 N 
HETATM   33  C1  UNL     1     -10.471   9.508   7.307  1.00  0.00     0.309 C 
HETATM   34  C2  UNL     1      -8.306   9.288   6.389  1.00  0.00     0.309 C 
ENDBRANCH  31  32
ENDBRANCH  30  31
ENDBRANCH  27  30
ENDBRANCH  23  24
ENDBRANCH  21  23
ENDBRANCH   1  21
TORSDOF 8
ENDMDL
MODEL 2
REMARK VINA RESULT: -7.050670882      1.199      1.838
REMARK  8 active torsions:
REMARK  status: ('A' for Active; 'I' for Inactive)
REMARK    1  A    between atoms: N1_2  and  C3_4 
REMARK    2  A    between atoms: C3_4  and  C4_5 
REMARK    3  A    between atoms: C4_5  and  N2_6 
REMARK    4  A    between atoms: C7_9  and  C8_10 
REMARK    5  A    between atoms: C8_10  and  N3_11 
REMARK    6  A    between atoms: N3_11  and  C9_13 
REMARK    7  A    between atoms: C13_20  and  N6_21 
REMARK    8  A    between atoms: C14_23  and  C15_24 
ROOT
HETATM    1  C9  UNL     1      -4.369   4.912  11.690  1.00  0.00     0.679 A 
HETATM    2  N4  UNL     1      -4.310   3.992  10.718  1.00  0.00    -0.200 N 
ATOM      3  H4  UNL     1      -4.245   4.308   9.750  1.00  0.00     0.183 HD
HETATM    4  C10 UNL     1      -4.332   2.674  10.963  1.00  0.00     0.132 A 
HETATM    5  C11 UNL     1      -4.421   2.287  12.312  1.00  0.00     0.105 A 
HETATM    6  C12 UNL     1      -4.434   0.876  12.535  1.00  0.00     0.104 C 
HETATM    7  N5  UNL     1      -4.433  -0.282  12.684  1.00  0.00    -0.191 NA
HETATM    8  C13 UNL     1      -4.485   3.189  13.337  1.00  0.00     0.142 A 
HETATM    9  N8  UNL     1      -4.454   4.533  12.968  1.00  0.00    -0.175 N 
ATOM     10  H8  UNL     1      -4.499   5.246  13.695  1.00  0.00     0.186 HD
ENDROOT
BRANCH   8  11
HETATM   11  N6  UNL     1      -4.567   2.902  14.527  1.00  0.00    -0.354 N 
HETATM   12  C14 UNL     1      -5.360   3.034  15.617  1.00  0.00     0.069 C 
ATOM     13  H6  UNL     1      -3.735   2.374  14.791  1.00  0.00     0.166 HD
BRANCH  12  14
HETATM   14  C15 UNL     1      -6.390   1.922  15.805  1.00  0.00     0.051 C 
HETATM   15  C16 UNL     1      -7.127   2.213  17.080  1.00  0.00     0.039 C 
HETATM   16  C17 UNL     1      -6.124   1.774  18.124  1.00  0.00     0.233 C 
HETATM   17  N7  UNL     1      -5.298   0.749  17.548  1.00  0.00    -0.074 N 
HETATM   18  C18 UNL     1      -5.585   0.678  16.128  1.00  0.00     0.242 C 
ATOM     19  H72 UNL     1      -4.306   0.889  17.742  1.00  0.00     0.277 HD
ATOM     20  H71 UNL     1      -5.404  -0.152  18.016  1.00  0.00     0.277 HD
ENDBRANCH  12  14
ENDBRANCH   8  11
BRANCH   1  21
HETATM   21  N3  UNL     1      -4.343   6.165  11.417  1.00  0.00    -0.226 N 
ATOM     22  H3  UNL     1      -3.411   6.570  11.336  1.00  0.00     0.177 HD
BRANCH  21  23
HETATM   23  C8  UNL     1      -5.409   7.068  11.210  1.00  0.00     0.142 C 
BRANCH  23  24
HETATM   24  C7  UNL     1      -6.288   6.743  10.010  1.00  0.00     0.007 C 
HETATM   25  C6  UNL     1      -7.496   7.636  10.051  1.00  0.00     0.036 C 
HETATM   26  C5  UNL     1      -8.279   7.385   8.783  1.00  0.00     0.273 C 
HETATM   27  N2  UNL     1      -7.574   7.782   7.605  1.00  0.00     0.090 N 
HETATM   28  C20 UNL     1      -6.156   7.814   7.720  1.00  0.00     0.273 C 
HETATM   29  C19 UNL     1      -5.527   6.985   8.763  1.00  0.00     0.036 C 
BRANCH  27  30
HETATM   30  C4  UNL     1      -8.130   8.961   6.977  1.00  0.00     0.302 C 
BRANCH  30  31
HETATM   31  C3  UNL     1      -9.564   9.076   7.360  1.00  0.00     0.301 C 
BRANCH  31  32
HETATM   32  N1  UNL     1     -10.330   9.947   6.503  1.00  0.00     0.081 N 
HETATM   33  C1  UNL     1      -9.707  10.244   5.252  1.00  0.00     0.309 C 
HETATM   34  C2  UNL     1     -10.682  11.176   7.191  1.00  0.00     0.309 C 
ENDBRANCH  31  32
ENDBRANCH  30  31
ENDBRANCH  27  30
ENDBRANCH  23  24
ENDBRANCH  21  23
ENDBRANCH   1  21
TORSDOF 8
ENDMDL
MODEL 3
REMARK VINA RESULT: -6.964818373      1.093      1.677
REMARK  8 active torsions:
REMARK  status: ('A' for Active; 'I' for Inactive)
REMARK    1  A    between atoms: N1_2  and  C3_4 
REMARK    2  A    between atoms: C3_4  and  C4_5 
REMARK    3  A    between atoms: C4_5  and  N2_6 
REMARK    4  A    between atoms: C7_9  and  C8_10 
REMARK    5  A    between atoms: C8_10  and  N3_11 
REMARK    6  A    between atoms: N3_11  and  C9_13 
REMARK    7  A    between atoms: C13_20  and  N6_21 
REMARK    8  A    between atoms: C14_23  and  C15_24 
ROOT
HETATM    1  C9  UNL     1      -4.374   4.358  12.628  1.00  0.00     0.679 A 
HETATM    2  N4  UNL     1      -4.470   3.770  11.428  1.00  0.00    -0.200 N 
ATOM      3  H4  UNL     1      -4.543   4.361  10.599  1.00  0.00     0.183 HD
HETATM    4  C10 UNL     1      -4.474   2.438  11.270  1.00  0.00     0.132 A 
HETATM    5  C11 UNL     1      -4.370   1.666  12.440  1.00  0.00     0.105 A 
HETATM    6  C12 UNL     1      -4.370   0.253  12.232  1.00  0.00     0.104 C 
HETATM    7  N5  UNL     1      -4.364  -0.897  12.028  1.00  0.00    -0.191 NA
HETATM    8  C13 UNL     1      -4.271   2.221  13.685  1.00  0.00     0.142 A 
HETATM    9  N8  UNL     1      -4.276   3.614  13.733  1.00  0.00    -0.175 N 
ATOM     10  H8  UNL     1      -4.204   4.078  14.638  1.00  0.00     0.186 HD
ENDROOT
BRANCH   8  11
HETATM   11  N6  UNL     1      -4.182   1.592  14.735  1.00  0.00    -0.354 N 
HETATM   12  C14 UNL     1      -4.536   1.617  16.041  1.00  0.00     0.069 C 
ATOM     13  H6  UNL     1      -3.647   0.741  14.559  1.00  0.00     0.166 HD
BRANCH  12  14
HETATM   14  C15 UNL     1      -5.879   0.963  16.361  1.00  0.00     0.051 C 
HETATM   15  C16 UNL     1      -6.939   2.004  16.149  1.00  0.00     0.039 C 
HETATM   16  C17 UNL     1      -6.796   2.850  17.395  1.00  0.00     0.233 C 
HETATM   17  N7  UNL     1      -6.275   2.017  18.444  1.00  0.00    -0.074 N 
HETATM   18  C18 UNL     1      -5.876   0.750  17.862  1.00  0.00     0.242 C 
ATOM     19  H72 UNL     1      -5.520   2.466  18.963  1.00  0.00     0.277 HD
ATOM     20  H71 UNL     1      -6.929   1.906  19.219  1.00  0.00     0.277 HD
ENDBRANCH  12  14
ENDBRANCH   8  11
BRANCH   1  21
HETATM   21  N3  UNL     1      -4.370   5.635  12.739  1.00  0.00    -0.226 N 
ATOM     22  H3  UNL     1      -4.680   5.991  13.643  1.00  0.00     0.177 HD
BRANCH  21  23
HETATM   23  C8  UNL     1      -4.001   6.624  11.801  1.00  0.00     0.142 C 
BRANCH  23  24
HETATM   24  C7  UNL     1      -5.125   7.576  11.413  1.00  0.00     0.007 C 
HETATM   25  C6  UNL     1      -4.719   8.307  10.165  1.00  0.00     0.036 C 
HETATM   26  C5  UNL     1      -5.901   9.142   9.731  1.00  0.00     0.273 C 
HETATM   27  N2  UNL     1      -7.026   8.353   9.339  1.00  0.00     0.090 N 
HETATM   28  C20 UNL     1      -7.085   7.046   9.900  1.00  0.00     0.273 C 
HETATM   29  C19 UNL     1      -6.361   6.800  11.160  1.00  0.00     0.036 C 
BRANCH  27  30
HETATM   30  C4  UNL     1      -7.274   8.381   7.914  1.00  0.00     0.302 C 
BRANCH  30  31
HETATM   31  C3  UNL     1      -6.990   7.033   7.351  1.00  0.00     0.301 C 
BRANCH  31  32
HETATM   32  N1  UNL     1      -5.836   6.992   6.485  1.00  0.00     0.081 N 
HETATM   33  C1  UNL     1      -4.697   6.340   7.048  1.00  0.00     0.309 C 
HETATM   34  C2  UNL     1      -5.479   8.324   6.033  1.00  0.00     0.309 C 
ENDBRANCH  31  32
ENDBRANCH  30  31
ENDBRANCH  27  30
ENDBRANCH  23  24
ENDBRANCH  21  23
ENDBRANCH   1  21
TORSDOF 8
ENDMDL
MODEL 4
REMARK VINA RESULT: -6.919482679      3.992      5.346
REMARK  8 active torsions:
REMARK  status: ('A' for Active; 'I' for Inactive)
REMARK    1  A    between atoms: N1_2  and  C3_4 
REMARK    2  A    between atoms: C3_4  and  C4_5 
REMARK    3  A    between atoms: C4_5  and  N2_6 
REMARK    4  A    between atoms: C7_9  and  C8_10 
REMARK    5  A    between atoms: C8_10  and  N3_11 
REMARK    6  A    between atoms: N3_11  and  C9_13 
REMARK    7  A    between atoms: C13_20  and  N6_21 
REMARK    8  A    between atoms: C14_23  and  C15_24 
ROOT
HETATM    1  C9  UNL     1      -4.320   4.510  13.082  1.00  0.00     0.679 A 
HETATM    2  N4  UNL     1      -4.455   4.070  11.824  1.00  0.00    -0.200 N 
ATOM      3  H4  UNL     1      -4.527   4.756  11.071  1.00  0.00     0.183 HD
HETATM    4  C10 UNL     1      -4.500   2.767  11.511  1.00  0.00     0.132 A 
HETATM    5  C11 UNL     1      -4.396   1.860  12.580  1.00  0.00     0.105 A 
HETATM    6  C12 UNL     1      -4.439   0.482  12.208  1.00  0.00     0.104 C 
HETATM    7  N5  UNL     1      -4.469  -0.636  11.870  1.00  0.00    -0.191 NA
HETATM    8  C13 UNL     1      -4.257   2.262  13.879  1.00  0.00     0.142 A 
HETATM    9  N8  UNL     1      -4.223   3.639  14.090  1.00  0.00    -0.175 N 
ATOM     10  H8  UNL     1      -4.120   3.991  15.041  1.00  0.00     0.186 HD
ENDROOT
BRANCH   8  11
HETATM   11  N6  UNL     1      -4.166   1.511  14.845  1.00  0.00    -0.354 N 
HETATM   12  C14 UNL     1      -4.468   1.405  16.161  1.00  0.00     0.069 C 
ATOM     13  H6  UNL     1      -3.691   0.659  14.551  1.00  0.00     0.166 HD
BRANCH  12  14
HETATM   14  C15 UNL     1      -5.835   0.794  16.465  1.00  0.00     0.051 C 
HETATM   15  C16 UNL     1      -6.867   1.833  16.138  1.00  0.00     0.039 C 
HETATM   16  C17 UNL     1      -6.761   2.758  17.331  1.00  0.00     0.233 C 
HETATM   17  N7  UNL     1      -6.300   1.990  18.454  1.00  0.00    -0.074 N 
HETATM   18  C18 UNL     1      -5.899   0.681  17.975  1.00  0.00     0.242 C 
ATOM     19  H72 UNL     1      -5.560   2.461  18.974  1.00  0.00     0.277 HD
ATOM     20  H71 UNL     1      -6.988   1.940  19.206  1.00  0.00     0.277 HD
ENDBRANCH  12  14
ENDBRANCH   8  11
BRANCH   1  21
HETATM   21  N3  UNL     1      -4.278   5.765  13.342  1.00  0.00    -0.226 N 
ATOM     22  H3  UNL     1      -4.732   6.364  12.653  1.00  0.00     0.177 HD
BRANCH  21  23
HETATM   23  C8  UNL     1      -3.700   6.443  14.438  1.00  0.00     0.142 C 
BRANCH  23  24
HETATM   24  C7  UNL     1      -2.396   7.162  14.118  1.00  0.00     0.007 C 
HETATM   25  C6  UNL     1      -2.527   7.803  12.765  1.00  0.00     0.036 C 
HETATM   26  C5  UNL     1      -1.275   8.615  12.532  1.00  0.00     0.273 C 
HETATM   27  N2  UNL     1      -1.144   9.710  13.441  1.00  0.00     0.090 N 
HETATM   28  C20 UNL     1      -1.829   9.564  14.680  1.00  0.00     0.273 C 
HETATM   29  C19 UNL     1      -2.142   8.201  15.142  1.00  0.00     0.036 C 
BRANCH  27  30
HETATM   30  C4  UNL     1      -1.350  10.999  12.816  1.00  0.00     0.302 C 
BRANCH  30  31
HETATM   31  C3  UNL     1      -1.913  11.937  13.825  1.00  0.00     0.301 C 
BRANCH  31  32
HETATM   32  N1  UNL     1      -1.120  13.124  14.026  1.00  0.00     0.081 N 
HETATM   33  C1  UNL     1      -0.693  13.762  12.821  1.00  0.00     0.309 C 
HETATM   34  C2  UNL     1       0.022  12.848  14.878  1.00  0.00     0.309 C 
ENDBRANCH  31  32
ENDBRANCH  30  31
ENDBRANCH  27  30
ENDBRANCH  23  24
ENDBRANCH  21  23
ENDBRANCH   1  21
TORSDOF 8
ENDMDL
MODEL 5
REMARK VINA RESULT: -6.862257647      3.688      5.123
REMARK  8 active torsions:
REMARK  status: ('A' for Active; 'I' for Inactive)
REMARK    1  A    between atoms: N1_2  and  C3_4 
REMARK    2  A    between atoms: C3_4  and  C4_5 
REMARK    3  A    between atoms: C4_5  and  N2_6 
REMARK    4  A    between atoms: C7_9  and  C8_10 
REMARK    5  A    between atoms: C8_10  and  N3_11 
REMARK    6  A    between atoms: N3_11  and  C9_13 
REMARK    7  A    between atoms: C13_20  and  N6_21 
REMARK    8  A    between atoms: C14_23  and  C15_24 
ROOT
HETATM    1  C9  UNL     1      -4.494   4.350  13.024  1.00  0.00     0.679 A 
HETATM    2  N4  UNL     1      -4.583   3.881  11.773  1.00  0.00    -0.200 N 
ATOM      3  H4  UNL     1      -4.676   4.548  11.006  1.00  0.00     0.183 HD
HETATM    4  C10 UNL     1      -4.557   2.571  11.484  1.00  0.00     0.132 A 
HETATM    5  C11 UNL     1      -4.428   1.690  12.573  1.00  0.00     0.105 A 
HETATM    6  C12 UNL     1      -4.395   0.305  12.227  1.00  0.00     0.104 C 
HETATM    7  N5  UNL     1      -4.363  -0.819  11.911  1.00  0.00    -0.191 NA
HETATM    8  C13 UNL     1      -4.333   2.123  13.866  1.00  0.00     0.142 A 
HETATM    9  N8  UNL     1      -4.371   3.504  14.050  1.00  0.00    -0.175 N 
ATOM     10  H8  UNL     1      -4.304   3.878  14.997  1.00  0.00     0.186 HD
ENDROOT
BRANCH   8  11
HETATM   11  N6  UNL     1      -4.222   1.396  14.848  1.00  0.00    -0.354 N 
HETATM   12  C14 UNL     1      -4.489   1.325  16.174  1.00  0.00     0.069 C 
ATOM     13  H6  UNL     1      -3.762   0.532  14.562  1.00  0.00     0.166 HD
BRANCH  12  14
HETATM   14  C15 UNL     1      -5.852   0.735  16.529  1.00  0.00     0.051 C 
HETATM   15  C16 UNL     1      -6.888   1.753  16.151  1.00  0.00     0.039 C 
HETATM   16  C17 UNL     1      -6.770   2.750  17.282  1.00  0.00     0.233 C 
HETATM   17  N7  UNL     1      -6.296   2.052  18.446  1.00  0.00    -0.074 N 
HETATM   18  C18 UNL     1      -5.900   0.716  18.045  1.00  0.00     0.242 C 
ATOM     19  H72 UNL     1      -5.550   2.555  18.928  1.00  0.00     0.277 HD
ATOM     20  H71 UNL     1      -6.976   2.049  19.207  1.00  0.00     0.277 HD
ENDBRANCH  12  14
ENDBRANCH   8  11
BRANCH   1  21
HETATM   21  N3  UNL     1      -4.520   5.610  13.261  1.00  0.00    -0.226 N 
ATOM     22  H3  UNL     1      -5.168   6.145  12.683  1.00  0.00     0.177 HD
BRANCH  21  23
HETATM   23  C8  UNL     1      -3.788   6.369  14.200  1.00  0.00     0.142 C 
BRANCH  23  24
HETATM   24  C7  UNL     1      -2.835   7.385  13.584  1.00  0.00     0.007 C 
HETATM   25  C6  UNL     1      -1.432   6.867  13.728  1.00  0.00     0.036 C 
HETATM   26  C5  UNL     1      -0.524   7.827  12.995  1.00  0.00     0.273 C 
HETATM   27  N2  UNL     1      -0.760   7.850  11.585  1.00  0.00     0.090 N 
HETATM   28  C20 UNL     1      -2.062   7.450  11.175  1.00  0.00     0.273 C 
HETATM   29  C19 UNL     1      -3.160   7.560  12.150  1.00  0.00     0.036 C 
BRANCH  27  30
HETATM   30  C4  UNL     1       0.302   7.234  10.819  1.00  0.00     0.302 C 
BRANCH  30  31
HETATM   31  C3  UNL     1      -0.156   5.897  10.354  1.00  0.00     0.301 C 
BRANCH  31  32
HETATM   32  N1  UNL     1       0.346   4.799  11.144  1.00  0.00     0.081 N 
HETATM   33  C1  UNL     1       1.355   4.020  10.501  1.00  0.00     0.309 C 
HETATM   34  C2  UNL     1      -0.738   3.944  11.592  1.00  0.00     0.309 C 
ENDBRANCH  31  32
ENDBRANCH  30  31
ENDBRANCH  27  30
ENDBRANCH  23  24
ENDBRANCH  21  23
ENDBRANCH   1  21
TORSDOF 8
ENDMDL
