MODEL 1
REMARK VINA RESULT: -8.394813096      0.000      0.000
REMARK  9 active torsions:
REMARK  status: ('A' for Active; 'I' for Inactive)
REMARK    1  A    between atoms: C2_2  and  O1_3 
REMARK    2  A    between atoms: C2_2  and  C9_17 
REMARK    3  A    between atoms: O1_3  and  N1_4 
REMARK    4  A    between atoms: N2_6  and  O2_7 
REMARK    5  A    between atoms: N2_6  and  N3_9 
REMARK    6  A    between atoms: N3_9  and  C3_11 
REMARK       I    between atoms: C9_17  and  N4_19 
REMARK    7  A    between atoms: N4_19  and  C10_21 
REMARK    8  A    between atoms: C10_21  and  C11_22 
REMARK    9  A    between atoms: C10_21  and  C13_29 
REMARK       I    between atoms: C11_22  and  N5_24 
ROOT
HETATM    1  C1  UNL     1      -1.921   4.423  10.287  1.00  0.00     0.052 C 
HETATM    2  C2  UNL     1      -3.365   4.750  10.126  1.00  0.00     0.241 C 
ENDROOT
BRANCH   2   3
HETATM    3  O1  UNL     1      -3.778   4.388   8.829  1.00  0.00    -0.247 OA
BRANCH   3   4
HETATM    4  N1  UNL     1      -3.542   5.104   7.710  1.00  0.00    -0.165 N 
HETATM    5  N2  UNL     1      -4.195   6.081   7.282  1.00  0.00    -0.079 N 
ATOM      6  H1  UNL     1      -2.741   4.815   7.149  1.00  0.00     0.220 HD
BRANCH   5   7
HETATM    7  O2  UNL     1      -3.746   6.654   6.093  1.00  0.00    -0.252 OA
ATOM      8  H2  UNL     1      -4.408   7.047   5.537  1.00  0.00     0.248 HD
ENDBRANCH   5   7
BRANCH   5   9
HETATM    9  N3  UNL     1      -5.310   6.648   7.862  1.00  0.00    -0.289 N 
ATOM     10  H3  UNL     1      -5.313   6.753   8.877  1.00  0.00     0.184 HD
BRANCH   9  11
HETATM   11  C3  UNL     1      -6.471   7.102   7.141  1.00  0.00     0.103 C 
HETATM   12  C4  UNL     1      -7.742   6.581   7.773  1.00  0.00     0.027 C 
HETATM   13  C5  UNL     1      -8.289   7.639   8.712  1.00  0.00     0.002 C 
HETATM   14  C6  UNL     1      -8.763   8.800   7.890  1.00  0.00     0.000 C 
HETATM   15  C7  UNL     1      -7.946   8.971   6.643  1.00  0.00     0.002 C 
HETATM   16  C8  UNL     1      -6.489   8.592   6.937  1.00  0.00     0.027 C 
ENDBRANCH   9  11
ENDBRANCH   5   9
ENDBRANCH   3   4
ENDBRANCH   2   3
BRANCH   2  17
HETATM   17  C9  UNL     1      -4.222   4.205  11.182  1.00  0.00     0.249 C 
HETATM   18  O3  UNL     1      -5.082   3.345  10.844  1.00  0.00    -0.271 OA
HETATM   19  N4  UNL     1      -4.150   4.575  12.545  1.00  0.00    -0.345 N 
ATOM     20  H4  UNL     1      -3.458   5.269  12.827  1.00  0.00     0.163 HD
BRANCH  19  21
HETATM   21  C10 UNL     1      -5.018   4.010  13.553  1.00  0.00     0.184 C 
BRANCH  21  22
HETATM   22  C11 UNL     1      -4.303   3.015  14.393  1.00  0.00     0.247 C 
HETATM   23  O4  UNL     1      -3.350   3.383  15.129  1.00  0.00    -0.271 OA
HETATM   24  N5  UNL     1      -4.679   1.671  14.374  1.00  0.00    -0.302 N 
HETATM   25  C12 UNL     1      -4.399   0.791  15.252  1.00  0.00     0.203 C 
ATOM     26  H5  UNL     1      -5.235   1.361  13.576  1.00  0.00     0.171 HD
HETATM   27  N6  UNL     1      -4.880  -0.533  15.048  1.00  0.00    -0.066 NA
HETATM   28  N7  UNL     1      -3.638   1.047  16.421  1.00  0.00    -0.066 NA
ENDBRANCH  21  22
BRANCH  21  29
HETATM   29  C13 UNL     1      -5.648   5.091  14.410  1.00  0.00    -0.022 C 
HETATM   30  C14 UNL     1      -4.640   6.134  14.823  1.00  0.00     0.017 C 
HETATM   31  C15 UNL     1      -6.402   4.493  15.572  1.00  0.00     0.017 C 
HETATM   32  C16 UNL     1      -6.683   5.839  13.557  1.00  0.00     0.017 C 
ENDBRANCH  21  29
ENDBRANCH  19  21
ENDBRANCH   2  17
TORSDOF 9
ENDMDL
MODEL 2
REMARK VINA RESULT: -8.284479994      0.722      1.115
REMARK  9 active torsions:
REMARK  status: ('A' for Active; 'I' for Inactive)
REMARK    1  A    between atoms: C2_2  and  O1_3 
REMARK    2  A    between atoms: C2_2  and  C9_17 
REMARK    3  A    between atoms: O1_3  and  N1_4 
REMARK    4  A    between atoms: N2_6  and  O2_7 
REMARK    5  A    between atoms: N2_6  and  N3_9 
REMARK    6  A    between atoms: N3_9  and  C3_11 
REMARK       I    between atoms: C9_17  and  N4_19 
REMARK    7  A    between atoms: N4_19  and  C10_21 
REMARK    8  A    between atoms: C10_21  and  C11_22 
REMARK    9  A    between atoms: C10_21  and  C13_29 
REMARK       I    between atoms: C11_22  and  N5_24 
ROOT
HETATM    1  C1  UNL     1      -1.665   4.407  10.368  1.00  0.00     0.052 C 
HETATM    2  C2  UNL     1      -3.102   4.703  10.106  1.00  0.00     0.241 C 
ENDROOT
BRANCH   2   3
HETATM    3  O1  UNL     1      -3.427   4.289   8.800  1.00  0.00    -0.247 OA
BRANCH   3   4
HETATM    4  N1  UNL     1      -3.071   4.934   7.669  1.00  0.00    -0.165 N 
HETATM    5  N2  UNL     1      -3.787   5.675   6.960  1.00  0.00    -0.079 N 
ATOM      6  H1  UNL     1      -2.109   4.802   7.357  1.00  0.00     0.220 HD
BRANCH   5   7
HETATM    7  O2  UNL     1      -3.181   6.228   5.833  1.00  0.00    -0.252 OA
ATOM      8  H2  UNL     1      -3.496   7.081   5.560  1.00  0.00     0.248 HD
ENDBRANCH   5   7
BRANCH   5   9
HETATM    9  N3  UNL     1      -5.109   6.000   7.177  1.00  0.00    -0.289 N 
ATOM     10  H3  UNL     1      -5.818   5.405   6.747  1.00  0.00     0.184 HD
BRANCH   9  11
HETATM   11  C3  UNL     1      -5.564   7.116   7.964  1.00  0.00     0.103 C 
HETATM   12  C4  UNL     1      -6.593   7.929   7.211  1.00  0.00     0.027 C 
HETATM   13  C5  UNL     1      -7.977   7.467   7.624  1.00  0.00     0.002 C 
HETATM   14  C6  UNL     1      -8.201   7.865   9.053  1.00  0.00     0.000 C 
HETATM   15  C7  UNL     1      -6.924   7.854   9.840  1.00  0.00     0.002 C 
HETATM   16  C8  UNL     1      -6.028   6.716   9.336  1.00  0.00     0.027 C 
ENDBRANCH   9  11
ENDBRANCH   5   9
ENDBRANCH   3   4
ENDBRANCH   2   3
BRANCH   2  17
HETATM   17  C9  UNL     1      -4.014   4.179  11.126  1.00  0.00     0.249 C 
HETATM   18  O3  UNL     1      -4.874   3.333  10.754  1.00  0.00    -0.271 OA
HETATM   19  N4  UNL     1      -3.996   4.556  12.489  1.00  0.00    -0.345 N 
ATOM     20  H4  UNL     1      -3.305   5.239  12.798  1.00  0.00     0.163 HD
BRANCH  19  21
HETATM   21  C10 UNL     1      -4.918   4.012  13.460  1.00  0.00     0.184 C 
BRANCH  21  22
HETATM   22  C11 UNL     1      -4.257   3.018  14.343  1.00  0.00     0.247 C 
HETATM   23  O4  UNL     1      -3.352   3.385  15.138  1.00  0.00    -0.271 OA
HETATM   24  N5  UNL     1      -4.630   1.673  14.299  1.00  0.00    -0.302 N 
HETATM   25  C12 UNL     1      -4.405   0.792  15.192  1.00  0.00     0.203 C 
ATOM     26  H5  UNL     1      -5.133   1.363  13.468  1.00  0.00     0.171 HD
HETATM   27  N6  UNL     1      -4.870  -0.532  14.958  1.00  0.00    -0.066 NA
HETATM   28  N7  UNL     1      -3.719   1.048  16.408  1.00  0.00    -0.066 NA
ENDBRANCH  21  22
BRANCH  21  29
HETATM   29  C13 UNL     1      -5.574   5.110  14.276  1.00  0.00    -0.022 C 
HETATM   30  C14 UNL     1      -4.574   6.143  14.728  1.00  0.00     0.017 C 
HETATM   31  C15 UNL     1      -6.391   4.533  15.406  1.00  0.00     0.017 C 
HETATM   32  C16 UNL     1      -6.557   5.863  13.366  1.00  0.00     0.017 C 
ENDBRANCH  21  29
ENDBRANCH  19  21
ENDBRANCH   2  17
TORSDOF 9
ENDMDL
MODEL 3
REMARK VINA RESULT: -8.250917640      1.466      1.699
REMARK  9 active torsions:
REMARK  status: ('A' for Active; 'I' for Inactive)
REMARK    1  A    between atoms: C2_2  and  O1_3 
REMARK    2  A    between atoms: C2_2  and  C9_17 
REMARK    3  A    between atoms: O1_3  and  N1_4 
REMARK    4  A    between atoms: N2_6  and  O2_7 
REMARK    5  A    between atoms: N2_6  and  N3_9 
REMARK    6  A    between atoms: N3_9  and  C3_11 
REMARK       I    between atoms: C9_17  and  N4_19 
REMARK    7  A    between atoms: N4_19  and  C10_21 
REMARK    8  A    between atoms: C10_21  and  C11_22 
REMARK    9  A    between atoms: C10_21  and  C13_29 
REMARK       I    between atoms: C11_22  and  N5_24 
ROOT
HETATM    1  C1  UNL     1      -2.647   4.514   9.241  1.00  0.00     0.052 C 
HETATM    2  C2  UNL     1      -3.066   5.379  10.380  1.00  0.00     0.241 C 
ENDROOT
BRANCH   2   3
HETATM    3  O1  UNL     1      -3.522   6.613   9.878  1.00  0.00    -0.247 OA
BRANCH   3   4
HETATM    4  N1  UNL     1      -4.437   7.405  10.475  1.00  0.00    -0.165 N 
HETATM    5  N2  UNL     1      -5.672   7.421  10.275  1.00  0.00    -0.079 N 
ATOM      6  H1  UNL     1      -4.083   8.064  11.167  1.00  0.00     0.220 HD
BRANCH   5   7
HETATM    7  O2  UNL     1      -6.409   8.338  11.023  1.00  0.00    -0.252 OA
ATOM      8  H2  UNL     1      -6.838   8.001  11.801  1.00  0.00     0.248 HD
ENDBRANCH   5   7
BRANCH   5   9
HETATM    9  N3  UNL     1      -6.377   6.630   9.394  1.00  0.00    -0.289 N 
ATOM     10  H3  UNL     1      -6.612   5.683   9.693  1.00  0.00     0.184 HD
BRANCH   9  11
HETATM   11  C3  UNL     1      -6.808   7.040   8.083  1.00  0.00     0.103 C 
HETATM   12  C4  UNL     1      -8.275   6.742   7.873  1.00  0.00     0.027 C 
HETATM   13  C5  UNL     1      -9.076   7.990   8.192  1.00  0.00     0.002 C 
HETATM   14  C6  UNL     1      -8.781   9.021   7.143  1.00  0.00     0.000 C 
HETATM   15  C7  UNL     1      -7.378   8.902   6.625  1.00  0.00     0.002 C 
HETATM   16  C8  UNL     1      -6.451   8.466   7.768  1.00  0.00     0.027 C 
ENDBRANCH   9  11
ENDBRANCH   5   9
ENDBRANCH   3   4
ENDBRANCH   2   3
BRANCH   2  17
HETATM   17  C9  UNL     1      -4.013   4.739  11.298  1.00  0.00     0.249 C 
HETATM   18  O3  UNL     1      -5.010   4.157  10.788  1.00  0.00    -0.271 OA
HETATM   19  N4  UNL     1      -3.885   4.731  12.706  1.00  0.00    -0.345 N 
ATOM     20  H4  UNL     1      -3.082   5.199  13.126  1.00  0.00     0.163 HD
BRANCH  19  21
HETATM   21  C10 UNL     1      -4.845   4.088  13.573  1.00  0.00     0.184 C 
BRANCH  21  22
HETATM   22  C11 UNL     1      -4.205   3.052  14.424  1.00  0.00     0.247 C 
HETATM   23  O4  UNL     1      -3.283   3.373  15.218  1.00  0.00    -0.271 OA
HETATM   24  N5  UNL     1      -4.617   1.720  14.349  1.00  0.00    -0.302 N 
HETATM   25  C12 UNL     1      -4.409   0.811  15.218  1.00  0.00     0.203 C 
ATOM     26  H5  UNL     1      -5.137   1.446  13.516  1.00  0.00     0.171 HD
HETATM   27  N6  UNL     1      -4.914  -0.493  14.955  1.00  0.00    -0.066 NA
HETATM   28  N7  UNL     1      -3.705   1.016  16.433  1.00  0.00    -0.066 NA
ENDBRANCH  21  22
BRANCH  21  29
HETATM   29  C13 UNL     1      -5.593   5.100  14.420  1.00  0.00    -0.022 C 
HETATM   30  C14 UNL     1      -4.680   6.190  14.921  1.00  0.00     0.017 C 
HETATM   31  C15 UNL     1      -6.372   4.419  15.518  1.00  0.00     0.017 C 
HETATM   32  C16 UNL     1      -6.623   5.808  13.526  1.00  0.00     0.017 C 
ENDBRANCH  21  29
ENDBRANCH  19  21
ENDBRANCH   2  17
TORSDOF 9
ENDMDL
MODEL 4
REMARK VINA RESULT: -8.180924691      3.091      5.226
REMARK  9 active torsions:
REMARK  status: ('A' for Active; 'I' for Inactive)
REMARK    1  A    between atoms: C2_2  and  O1_3 
REMARK    2  A    between atoms: C2_2  and  C9_17 
REMARK    3  A    between atoms: O1_3  and  N1_4 
REMARK    4  A    between atoms: N2_6  and  O2_7 
REMARK    5  A    between atoms: N2_6  and  N3_9 
REMARK    6  A    between atoms: N3_9  and  C3_11 
REMARK       I    between atoms: C9_17  and  N4_19 
REMARK    7  A    between atoms: N4_19  and  C10_21 
REMARK    8  A    between atoms: C10_21  and  C11_22 
REMARK    9  A    between atoms: C10_21  and  C13_29 
REMARK       I    between atoms: C11_22  and  N5_24 
ROOT
HETATM    1  C1  UNL     1      -3.791   5.230   8.905  1.00  0.00     0.052 C 
HETATM    2  C2  UNL     1      -3.100   4.654  10.093  1.00  0.00     0.241 C 
ENDROOT
BRANCH   2   3
HETATM    3  O1  UNL     1      -2.175   5.592  10.588  1.00  0.00    -0.247 OA
BRANCH   3   4
HETATM    4  N1  UNL     1      -0.916   5.308  10.984  1.00  0.00    -0.165 N 
HETATM    5  N2  UNL     1      -0.347   5.684  12.032  1.00  0.00    -0.079 N 
ATOM      6  H1  UNL     1      -0.367   4.721  10.356  1.00  0.00     0.220 HD
BRANCH   5   7
HETATM    7  O2  UNL     1       0.967   5.254  12.213  1.00  0.00    -0.252 OA
ATOM      8  H2  UNL     1       1.375   5.478  13.040  1.00  0.00     0.248 HD
ENDBRANCH   5   7
BRANCH   5   9
HETATM    9  N3  UNL     1      -0.881   6.479  13.024  1.00  0.00    -0.289 N 
ATOM     10  H3  UNL     1      -1.300   6.012  13.828  1.00  0.00     0.184 HD
BRANCH   9  11
HETATM   11  C3  UNL     1      -0.892   7.919  13.008  1.00  0.00     0.103 C 
HETATM   12  C4  UNL     1      -1.989   8.464  13.894  1.00  0.00     0.027 C 
HETATM   13  C5  UNL     1      -1.402   8.788  15.254  1.00  0.00     0.002 C 
HETATM   14  C6  UNL     1      -0.471   9.954  15.101  1.00  0.00     0.000 C 
HETATM   15  C7  UNL     1       0.194   9.963  13.756  1.00  0.00     0.002 C 
HETATM   16  C8  UNL     1       0.453   8.519  13.309  1.00  0.00     0.027 C 
ENDBRANCH   9  11
ENDBRANCH   5   9
ENDBRANCH   3   4
ENDBRANCH   2   3
BRANCH   2  17
HETATM   17  C9  UNL     1      -4.010   4.137  11.119  1.00  0.00     0.249 C 
HETATM   18  O3  UNL     1      -4.874   3.292  10.755  1.00  0.00    -0.271 OA
HETATM   19  N4  UNL     1      -3.985   4.521  12.480  1.00  0.00    -0.345 N 
ATOM     20  H4  UNL     1      -3.290   5.203  12.783  1.00  0.00     0.163 HD
BRANCH  19  21
HETATM   21  C10 UNL     1      -4.904   3.985  13.458  1.00  0.00     0.184 C 
BRANCH  21  22
HETATM   22  C11 UNL     1      -4.242   2.993  14.344  1.00  0.00     0.247 C 
HETATM   23  O4  UNL     1      -3.327   3.361  15.126  1.00  0.00    -0.271 OA
HETATM   24  N5  UNL     1      -4.625   1.651  14.316  1.00  0.00    -0.302 N 
HETATM   25  C12 UNL     1      -4.398   0.777  15.215  1.00  0.00     0.203 C 
ATOM     26  H5  UNL     1      -5.139   1.337  13.493  1.00  0.00     0.171 HD
HETATM   27  N6  UNL     1      -4.875  -0.545  14.998  1.00  0.00    -0.066 NA
HETATM   28  N7  UNL     1      -3.698   1.039  16.422  1.00  0.00    -0.066 NA
ENDBRANCH  21  22
BRANCH  21  29
HETATM   29  C13 UNL     1      -5.555   5.088  14.270  1.00  0.00    -0.022 C 
HETATM   30  C14 UNL     1      -4.546   6.107  14.736  1.00  0.00     0.017 C 
HETATM   31  C15 UNL     1      -6.392   4.519  15.389  1.00  0.00     0.017 C 
HETATM   32  C16 UNL     1      -6.517   5.857  13.352  1.00  0.00     0.017 C 
ENDBRANCH  21  29
ENDBRANCH  19  21
ENDBRANCH   2  17
TORSDOF 9
ENDMDL
MODEL 5
REMARK VINA RESULT: -8.111706035      1.538      1.777
REMARK  9 active torsions:
REMARK  status: ('A' for Active; 'I' for Inactive)
REMARK    1  A    between atoms: C2_2  and  O1_3 
REMARK    2  A    between atoms: C2_2  and  C9_17 
REMARK    3  A    between atoms: O1_3  and  N1_4 
REMARK    4  A    between atoms: N2_6  and  O2_7 
REMARK    5  A    between atoms: N2_6  and  N3_9 
REMARK    6  A    between atoms: N3_9  and  C3_11 
REMARK       I    between atoms: C9_17  and  N4_19 
REMARK    7  A    between atoms: N4_19  and  C10_21 
REMARK    8  A    between atoms: C10_21  and  C11_22 
REMARK    9  A    between atoms: C10_21  and  C13_29 
REMARK       I    between atoms: C11_22  and  N5_24 
ROOT
HETATM    1  C1  UNL     1      -2.638   4.419   9.301  1.00  0.00     0.052 C 
HETATM    2  C2  UNL     1      -3.281   5.388  10.232  1.00  0.00     0.241 C 
ENDROOT
BRANCH   2   3
HETATM    3  O1  UNL     1      -3.873   6.424   9.483  1.00  0.00    -0.247 OA
BRANCH   3   4
HETATM    4  N1  UNL     1      -4.549   6.258   8.327  1.00  0.00    -0.165 N 
HETATM    5  N2  UNL     1      -5.779   6.388   8.143  1.00  0.00    -0.079 N 
ATOM      6  H1  UNL     1      -3.995   5.998   7.512  1.00  0.00     0.220 HD
BRANCH   5   7
HETATM    7  O2  UNL     1      -6.239   6.161   6.846  1.00  0.00    -0.252 OA
ATOM      8  H2  UNL     1      -6.939   5.525   6.751  1.00  0.00     0.248 HD
ENDBRANCH   5   7
BRANCH   5   9
HETATM    9  N3  UNL     1      -6.726   6.729   9.086  1.00  0.00    -0.289 N 
ATOM     10  H3  UNL     1      -7.162   5.972   9.613  1.00  0.00     0.184 HD
BRANCH   9  11
HETATM   11  C3  UNL     1      -7.143   8.074   9.382  1.00  0.00     0.103 C 
HETATM   12  C4  UNL     1      -6.516   8.569  10.666  1.00  0.00     0.027 C 
HETATM   13  C5  UNL     1      -5.267   9.358  10.325  1.00  0.00     0.002 C 
HETATM   14  C6  UNL     1      -5.682  10.624   9.635  1.00  0.00     0.000 C 
HETATM   15  C7  UNL     1      -6.933  10.433   8.827  1.00  0.00     0.002 C 
HETATM   16  C8  UNL     1      -6.940   9.020   8.231  1.00  0.00     0.027 C 
ENDBRANCH   9  11
ENDBRANCH   5   9
ENDBRANCH   3   4
ENDBRANCH   2   3
BRANCH   2  17
HETATM   17  C9  UNL     1      -4.197   4.772  11.195  1.00  0.00     0.249 C 
HETATM   18  O3  UNL     1      -5.264   4.272  10.742  1.00  0.00    -0.271 OA
HETATM   19  N4  UNL     1      -3.967   4.701  12.589  1.00  0.00    -0.345 N 
ATOM     20  H4  UNL     1      -3.107   5.102  12.964  1.00  0.00     0.163 HD
BRANCH  19  21
HETATM   21  C10 UNL     1      -4.901   4.083  13.503  1.00  0.00     0.184 C 
BRANCH  21  22
HETATM   22  C11 UNL     1      -4.237   3.064  14.355  1.00  0.00     0.247 C 
HETATM   23  O4  UNL     1      -3.300   3.402  15.125  1.00  0.00    -0.271 OA
HETATM   24  N5  UNL     1      -4.643   1.729  14.310  1.00  0.00    -0.302 N 
HETATM   25  C12 UNL     1      -4.412   0.834  15.187  1.00  0.00     0.203 C 
ATOM     26  H5  UNL     1      -5.179   1.440  13.491  1.00  0.00     0.171 HD
HETATM   27  N6  UNL     1      -4.915  -0.476  14.954  1.00  0.00    -0.066 NA
HETATM   28  N7  UNL     1      -3.683   1.061  16.384  1.00  0.00    -0.066 NA
ENDBRANCH  21  22
BRANCH  21  29
HETATM   29  C13 UNL     1      -5.613   5.119  14.351  1.00  0.00    -0.022 C 
HETATM   30  C14 UNL     1      -4.674   6.205  14.810  1.00  0.00     0.017 C 
HETATM   31  C15 UNL     1      -6.373   4.468  15.480  1.00  0.00     0.017 C 
HETATM   32  C16 UNL     1      -6.656   5.825  13.472  1.00  0.00     0.017 C 
ENDBRANCH  21  29
ENDBRANCH  19  21
ENDBRANCH   2  17
TORSDOF 9
ENDMDL
