MODEL 1
REMARK VINA RESULT: -7.080429948      0.000      0.000
REMARK  9 active torsions:
REMARK  status: ('A' for Active; 'I' for Inactive)
REMARK    1  A    between atoms: C2_2  and  O1_3 
REMARK    2  A    between atoms: O1_3  and  C3_4 
REMARK       I    between atoms: C3_4  and  N1_6 
REMARK    3  A    between atoms: N1_6  and  C4_8 
REMARK    4  A    between atoms: C4_8  and  C6_10 
REMARK       I    between atoms: C6_10  and  N2_12 
REMARK    5  A    between atoms: N2_12  and  C7_14 
REMARK    6  A    between atoms: C7_14  and  C9_16 
REMARK       I    between atoms: C9_16  and  N3_18 
REMARK    7  A    between atoms: N3_18  and  C10_20 
REMARK    8  A    between atoms: C10_20  and  C12_22 
REMARK    9  A    between atoms: C12_22  and  N4_23 
ROOT
HETATM    1  C7  UNL     1      -5.177   4.847  13.465  1.00  0.00     0.172 C 
HETATM    2  C8  UNL     1      -5.651   5.557  14.714  1.00  0.00     0.042 C 
ENDROOT
BRANCH   1   3
HETATM    3  N2  UNL     1      -4.629   3.573  13.872  1.00  0.00    -0.346 N 
HETATM    4  C6  UNL     1      -4.746   2.418  13.063  1.00  0.00     0.240 C 
HETATM    5  O3  UNL     1      -5.345   2.492  11.955  1.00  0.00    -0.271 OA
ATOM      6  H2  UNL     1      -4.145   3.506  14.768  1.00  0.00     0.163 HD
BRANCH   4   7
HETATM    7  C4  UNL     1      -4.188   1.116  13.474  1.00  0.00     0.174 C 
HETATM    8  C5  UNL     1      -4.275   0.100  12.333  1.00  0.00     0.042 C 
BRANCH   7   9
HETATM    9  N1  UNL     1      -4.881   0.594  14.619  1.00  0.00    -0.324 N 
HETATM   10  C3  UNL     1      -4.460   0.862  15.950  1.00  0.00     0.361 C 
HETATM   11  O2  UNL     1      -3.442   1.582  16.169  1.00  0.00    -0.238 OA
ATOM     12  H1  UNL     1      -5.704   0.010  14.472  1.00  0.00     0.165 HD
BRANCH  10  13
HETATM   13  O1  UNL     1      -5.138   0.352  17.042  1.00  0.00    -0.304 OA
BRANCH  13  14
HETATM   14  C2  UNL     1      -6.055   1.179  17.729  1.00  0.00     0.176 C 
HETATM   15  C1  UNL     1      -7.404   1.092  17.048  1.00  0.00     0.034 C 
ENDBRANCH  13  14
ENDBRANCH  10  13
ENDBRANCH   7   9
ENDBRANCH   4   7
ENDBRANCH   1   3
BRANCH   1  16
HETATM   16  C9  UNL     1      -4.171   5.651  12.740  1.00  0.00     0.240 C 
HETATM   17  O4  UNL     1      -4.307   5.765  11.491  1.00  0.00    -0.271 OA
HETATM   18  N3  UNL     1      -3.076   6.280  13.426  1.00  0.00    -0.353 N 
ATOM     19  H3  UNL     1      -2.993   6.168  14.437  1.00  0.00     0.163 HD
BRANCH  18  20
HETATM   20  C10 UNL     1      -2.089   7.068  12.719  1.00  0.00     0.119 C 
HETATM   21  C11 UNL     1      -0.809   6.283  12.671  1.00  0.00     0.035 C 
BRANCH  20  22
HETATM   22  C12 UNL     1      -1.934   8.402  13.407  1.00  0.00     0.178 A 
HETATM   23  C15 UNL     1      -0.624   8.618  14.105  1.00  0.00     0.044 A 
HETATM   24  C16 UNL     1      -1.272   8.590  15.465  1.00  0.00     0.005 A 
HETATM   25  C17 UNL     1      -2.619   8.504  14.743  1.00  0.00     0.044 A 
BRANCH  22  26
HETATM   26  N4  UNL     1      -2.229   9.479  12.486  1.00  0.00     0.091 N 
HETATM   27  C13 UNL     1      -1.068  10.267  12.139  1.00  0.00     0.310 C 
HETATM   28  C14 UNL     1      -2.815   8.980  11.251  1.00  0.00     0.310 C 
ENDBRANCH  22  26
ENDBRANCH  20  22
ENDBRANCH  18  20
ENDBRANCH   1  16
TORSDOF 9
ENDMDL
MODEL 2
REMARK VINA RESULT: -6.999876282      3.226      4.269
REMARK  9 active torsions:
REMARK  status: ('A' for Active; 'I' for Inactive)
REMARK    1  A    between atoms: C2_2  and  O1_3 
REMARK    2  A    between atoms: O1_3  and  C3_4 
REMARK       I    between atoms: C3_4  and  N1_6 
REMARK    3  A    between atoms: N1_6  and  C4_8 
REMARK    4  A    between atoms: C4_8  and  C6_10 
REMARK       I    between atoms: C6_10  and  N2_12 
REMARK    5  A    between atoms: N2_12  and  C7_14 
REMARK    6  A    between atoms: C7_14  and  C9_16 
REMARK       I    between atoms: C9_16  and  N3_18 
REMARK    7  A    between atoms: N3_18  and  C10_20 
REMARK    8  A    between atoms: C10_20  and  C12_22 
REMARK    9  A    between atoms: C12_22  and  N4_23 
ROOT
HETATM    1  C7  UNL     1      -4.381   5.077  12.385  1.00  0.00     0.172 C 
HETATM    2  C8  UNL     1      -3.263   6.031  12.745  1.00  0.00     0.042 C 
ENDROOT
BRANCH   1   3
HETATM    3  N2  UNL     1      -3.907   3.737  12.648  1.00  0.00    -0.346 N 
HETATM    4  C6  UNL     1      -4.725   2.766  13.273  1.00  0.00     0.240 C 
HETATM    5  O3  UNL     1      -5.901   3.069  13.615  1.00  0.00    -0.271 OA
ATOM      6  H2  UNL     1      -2.957   3.485  12.376  1.00  0.00     0.163 HD
BRANCH   4   7
HETATM    7  C4  UNL     1      -4.246   1.397  13.542  1.00  0.00     0.174 C 
HETATM    8  C5  UNL     1      -4.419   0.506  12.309  1.00  0.00     0.042 C 
BRANCH   7   9
HETATM    9  N1  UNL     1      -4.952   0.809  14.646  1.00  0.00    -0.324 N 
HETATM   10  C3  UNL     1      -4.476   0.892  15.983  1.00  0.00     0.361 C 
HETATM   11  O2  UNL     1      -3.395   1.496  16.244  1.00  0.00    -0.238 OA
ATOM     12  H1  UNL     1      -5.826   0.315  14.464  1.00  0.00     0.165 HD
BRANCH  10  13
HETATM   13  O1  UNL     1      -5.168   0.320  17.036  1.00  0.00    -0.304 OA
BRANCH  13  14
HETATM   14  C2  UNL     1      -6.091   1.108  17.759  1.00  0.00     0.176 C 
HETATM   15  C1  UNL     1      -7.433   1.062  17.060  1.00  0.00     0.034 C 
ENDBRANCH  13  14
ENDBRANCH  10  13
ENDBRANCH   7   9
ENDBRANCH   4   7
ENDBRANCH   1   3
BRANCH   1  16
HETATM   16  C9  UNL     1      -4.785   5.230  10.973  1.00  0.00     0.240 C 
HETATM   17  O4  UNL     1      -4.962   4.178  10.301  1.00  0.00    -0.271 OA
HETATM   18  N3  UNL     1      -4.970   6.527  10.381  1.00  0.00    -0.353 N 
ATOM     19  H3  UNL     1      -4.818   7.359  10.951  1.00  0.00     0.163 HD
BRANCH  18  20
HETATM   20  C10 UNL     1      -5.366   6.681   8.997  1.00  0.00     0.119 C 
HETATM   21  C11 UNL     1      -4.127   6.898   8.176  1.00  0.00     0.035 C 
BRANCH  20  22
HETATM   22  C12 UNL     1      -6.350   7.819   8.887  1.00  0.00     0.178 A 
HETATM   23  C15 UNL     1      -5.744   9.178   8.692  1.00  0.00     0.044 A 
HETATM   24  C16 UNL     1      -6.176   9.637  10.059  1.00  0.00     0.005 A 
HETATM   25  C17 UNL     1      -6.907   8.298  10.200  1.00  0.00     0.044 A 
BRANCH  22  26
HETATM   26  N4  UNL     1      -7.341   7.529   7.872  1.00  0.00     0.091 N 
HETATM   27  C13 UNL     1      -8.693   7.521   8.381  1.00  0.00     0.310 C 
HETATM   28  C14 UNL     1      -7.281   8.489   6.780  1.00  0.00     0.310 C 
ENDBRANCH  22  26
ENDBRANCH  20  22
ENDBRANCH  18  20
ENDBRANCH   1  16
TORSDOF 9
ENDMDL
MODEL 3
REMARK VINA RESULT: -6.934923218      3.166      4.337
REMARK  9 active torsions:
REMARK  status: ('A' for Active; 'I' for Inactive)
REMARK    1  A    between atoms: C2_2  and  O1_3 
REMARK    2  A    between atoms: O1_3  and  C3_4 
REMARK       I    between atoms: C3_4  and  N1_6 
REMARK    3  A    between atoms: N1_6  and  C4_8 
REMARK    4  A    between atoms: C4_8  and  C6_10 
REMARK       I    between atoms: C6_10  and  N2_12 
REMARK    5  A    between atoms: N2_12  and  C7_14 
REMARK    6  A    between atoms: C7_14  and  C9_16 
REMARK       I    between atoms: C9_16  and  N3_18 
REMARK    7  A    between atoms: N3_18  and  C10_20 
REMARK    8  A    between atoms: C10_20  and  C12_22 
REMARK    9  A    between atoms: C12_22  and  N4_23 
ROOT
HETATM    1  C7  UNL     1      -4.506   5.107  12.297  1.00  0.00     0.172 C 
HETATM    2  C8  UNL     1      -3.475   6.123  12.739  1.00  0.00     0.042 C 
ENDROOT
BRANCH   1   3
HETATM    3  N2  UNL     1      -3.973   3.796  12.589  1.00  0.00    -0.346 N 
HETATM    4  C6  UNL     1      -4.750   2.801  13.228  1.00  0.00     0.240 C 
HETATM    5  O3  UNL     1      -5.941   3.057  13.557  1.00  0.00    -0.271 OA
ATOM      6  H2  UNL     1      -3.011   3.582  12.327  1.00  0.00     0.163 HD
BRANCH   4   7
HETATM    7  C4  UNL     1      -4.212   1.461  13.528  1.00  0.00     0.174 C 
HETATM    8  C5  UNL     1      -4.317   0.544  12.305  1.00  0.00     0.042 C 
BRANCH   7   9
HETATM    9  N1  UNL     1      -4.910   0.856  14.627  1.00  0.00    -0.324 N 
HETATM   10  C3  UNL     1      -4.448   0.954  15.968  1.00  0.00     0.361 C 
HETATM   11  O2  UNL     1      -3.387   1.589  16.236  1.00  0.00    -0.238 OA
ATOM     12  H1  UNL     1      -5.768   0.337  14.439  1.00  0.00     0.165 HD
BRANCH  10  13
HETATM   13  O1  UNL     1      -5.133   0.365  17.016  1.00  0.00    -0.304 OA
BRANCH  13  14
HETATM   14  C2  UNL     1      -6.078   1.131  17.734  1.00  0.00     0.176 C 
HETATM   15  C1  UNL     1      -7.420   1.036  17.040  1.00  0.00     0.034 C 
ENDBRANCH  13  14
ENDBRANCH  10  13
ENDBRANCH   7   9
ENDBRANCH   4   7
ENDBRANCH   1   3
BRANCH   1  16
HETATM   16  C9  UNL     1      -4.815   5.247  10.859  1.00  0.00     0.240 C 
HETATM   17  O4  UNL     1      -4.843   4.194  10.165  1.00  0.00    -0.271 OA
HETATM   18  N3  UNL     1      -5.074   6.531  10.268  1.00  0.00    -0.353 N 
ATOM     19  H3  UNL     1      -5.043   7.364  10.856  1.00  0.00     0.163 HD
BRANCH  18  20
HETATM   20  C10 UNL     1      -5.378   6.671   8.859  1.00  0.00     0.119 C 
HETATM   21  C11 UNL     1      -4.091   6.913   8.124  1.00  0.00     0.035 C 
BRANCH  20  22
HETATM   22  C12 UNL     1      -6.377   7.786   8.677  1.00  0.00     0.178 A 
HETATM   23  C15 UNL     1      -7.505   7.810   9.667  1.00  0.00     0.044 A 
HETATM   24  C16 UNL     1      -8.519   7.444   8.615  1.00  0.00     0.005 A 
HETATM   25  C17 UNL     1      -7.389   7.554   7.588  1.00  0.00     0.044 A 
BRANCH  22  26
HETATM   26  N4  UNL     1      -5.699   9.064   8.617  1.00  0.00     0.091 N 
HETATM   27  C13 UNL     1      -6.035   9.834   7.442  1.00  0.00     0.310 C 
HETATM   28  C14 UNL     1      -5.995   9.880   9.785  1.00  0.00     0.310 C 
ENDBRANCH  22  26
ENDBRANCH  20  22
ENDBRANCH  18  20
ENDBRANCH   1  16
TORSDOF 9
ENDMDL
MODEL 4
REMARK VINA RESULT: -6.915296190      1.785      2.636
REMARK  9 active torsions:
REMARK  status: ('A' for Active; 'I' for Inactive)
REMARK    1  A    between atoms: C2_2  and  O1_3 
REMARK    2  A    between atoms: O1_3  and  C3_4 
REMARK       I    between atoms: C3_4  and  N1_6 
REMARK    3  A    between atoms: N1_6  and  C4_8 
REMARK    4  A    between atoms: C4_8  and  C6_10 
REMARK       I    between atoms: C6_10  and  N2_12 
REMARK    5  A    between atoms: N2_12  and  C7_14 
REMARK    6  A    between atoms: C7_14  and  C9_16 
REMARK       I    between atoms: C9_16  and  N3_18 
REMARK    7  A    between atoms: N3_18  and  C10_20 
REMARK    8  A    between atoms: C10_20  and  C12_22 
REMARK    9  A    between atoms: C12_22  and  N4_23 
ROOT
HETATM    1  C7  UNL     1      -5.523   5.008  13.970  1.00  0.00     0.172 C 
HETATM    2  C8  UNL     1      -6.270   5.481  15.198  1.00  0.00     0.042 C 
ENDROOT
BRANCH   1   3
HETATM    3  N2  UNL     1      -5.016   3.685  14.256  1.00  0.00    -0.346 N 
HETATM    4  C6  UNL     1      -4.754   2.749  13.227  1.00  0.00     0.240 C 
HETATM    5  O3  UNL     1      -4.968   3.068  12.025  1.00  0.00    -0.271 OA
ATOM      6  H2  UNL     1      -4.842   3.419  15.225  1.00  0.00     0.163 HD
BRANCH   4   7
HETATM    7  C4  UNL     1      -4.236   1.398  13.513  1.00  0.00     0.174 C 
HETATM    8  C5  UNL     1      -4.377   0.488  12.290  1.00  0.00     0.042 C 
BRANCH   7   9
HETATM    9  N1  UNL     1      -4.927   0.802  14.622  1.00  0.00    -0.324 N 
HETATM   10  C3  UNL     1      -4.461   0.919  15.960  1.00  0.00     0.361 C 
HETATM   11  O2  UNL     1      -3.403   1.563  16.217  1.00  0.00    -0.238 OA
ATOM     12  H1  UNL     1      -5.782   0.276  14.443  1.00  0.00     0.165 HD
BRANCH  10  13
HETATM   13  O1  UNL     1      -5.139   0.338  17.017  1.00  0.00    -0.304 OA
BRANCH  13  14
HETATM   14  C2  UNL     1      -6.080   1.110  17.735  1.00  0.00     0.176 C 
HETATM   15  C1  UNL     1      -7.415   1.047  17.025  1.00  0.00     0.034 C 
ENDBRANCH  13  14
ENDBRANCH  10  13
ENDBRANCH   7   9
ENDBRANCH   4   7
ENDBRANCH   1   3
BRANCH   1  16
HETATM   16  C9  UNL     1      -4.426   5.933  13.619  1.00  0.00     0.240 C 
HETATM   17  O4  UNL     1      -3.790   6.468  14.568  1.00  0.00    -0.271 OA
HETATM   18  N3  UNL     1      -4.093   6.218  12.251  1.00  0.00    -0.353 N 
ATOM     19  H3  UNL     1      -4.627   5.770  11.506  1.00  0.00     0.163 HD
BRANCH  18  20
HETATM   20  C10 UNL     1      -3.018   7.124  11.904  1.00  0.00     0.119 C 
HETATM   21  C11 UNL     1      -3.491   8.006  10.784  1.00  0.00     0.035 C 
BRANCH  20  22
HETATM   22  C12 UNL     1      -1.792   6.322  11.542  1.00  0.00     0.178 A 
HETATM   23  C15 UNL     1      -0.716   6.283  12.587  1.00  0.00     0.044 A 
HETATM   24  C16 UNL     1       0.222   7.105  11.742  1.00  0.00     0.005 A 
HETATM   25  C17 UNL     1      -0.827   7.026  10.628  1.00  0.00     0.044 A 
BRANCH  22  26
HETATM   26  N4  UNL     1      -2.170   4.989  11.120  1.00  0.00     0.091 N 
HETATM   27  C13 UNL     1      -1.934   4.746   9.716  1.00  0.00     0.310 C 
HETATM   28  C14 UNL     1      -1.457   3.970  11.876  1.00  0.00     0.310 C 
ENDBRANCH  22  26
ENDBRANCH  20  22
ENDBRANCH  18  20
ENDBRANCH   1  16
TORSDOF 9
ENDMDL
MODEL 5
REMARK VINA RESULT: -6.826407468      1.367      2.039
REMARK  9 active torsions:
REMARK  status: ('A' for Active; 'I' for Inactive)
REMARK    1  A    between atoms: C2_2  and  O1_3 
REMARK    2  A    between atoms: O1_3  and  C3_4 
REMARK       I    between atoms: C3_4  and  N1_6 
REMARK    3  A    between atoms: N1_6  and  C4_8 
REMARK    4  A    between atoms: C4_8  and  C6_10 
REMARK       I    between atoms: C6_10  and  N2_12 
REMARK    5  A    between atoms: N2_12  and  C7_14 
REMARK    6  A    between atoms: C7_14  and  C9_16 
REMARK       I    between atoms: C9_16  and  N3_18 
REMARK    7  A    between atoms: N3_18  and  C10_20 
REMARK    8  A    between atoms: C10_20  and  C12_22 
REMARK    9  A    between atoms: C12_22  and  N4_23 
ROOT
HETATM    1  C7  UNL     1      -3.908   4.918  13.774  1.00  0.00     0.172 C 
HETATM    2  C8  UNL     1      -5.003   5.377  14.713  1.00  0.00     0.042 C 
ENDROOT
BRANCH   1   3
HETATM    3  N2  UNL     1      -3.695   3.509  14.016  1.00  0.00    -0.346 N 
HETATM    4  C6  UNL     1      -4.338   2.514  13.243  1.00  0.00     0.240 C 
HETATM    5  O3  UNL     1      -5.123   2.855  12.316  1.00  0.00    -0.271 OA
ATOM      6  H2  UNL     1      -3.063   3.225  14.765  1.00  0.00     0.163 HD
BRANCH   4   7
HETATM    7  C4  UNL     1      -4.122   1.075  13.485  1.00  0.00     0.174 C 
HETATM    8  C5  UNL     1      -4.470   0.253  12.241  1.00  0.00     0.042 C 
BRANCH   7   9
HETATM    9  N1  UNL     1      -4.915   0.611  14.589  1.00  0.00    -0.324 N 
HETATM   10  C3  UNL     1      -4.501   0.762  15.940  1.00  0.00     0.361 C 
HETATM   11  O2  UNL     1      -3.398   1.320  16.215  1.00  0.00    -0.238 OA
ATOM     12  H1  UNL     1      -5.808   0.157  14.396  1.00  0.00     0.165 HD
BRANCH  10  13
HETATM   13  O1  UNL     1      -5.276   0.310  16.992  1.00  0.00    -0.304 OA
BRANCH  13  14
HETATM   14  C2  UNL     1      -6.148   1.213  17.640  1.00  0.00     0.176 C 
HETATM   15  C1  UNL     1      -7.508   1.147  16.979  1.00  0.00     0.034 C 
ENDBRANCH  13  14
ENDBRANCH  10  13
ENDBRANCH   7   9
ENDBRANCH   4   7
ENDBRANCH   1   3
BRANCH   1  16
HETATM   16  C9  UNL     1      -2.665   5.688  13.981  1.00  0.00     0.240 C 
HETATM   17  O4  UNL     1      -1.575   5.053  13.947  1.00  0.00    -0.271 OA
HETATM   18  N3  UNL     1      -2.689   7.106  14.213  1.00  0.00    -0.353 N 
ATOM     19  H3  UNL     1      -3.586   7.590  14.236  1.00  0.00     0.163 HD
BRANCH  18  20
HETATM   20  C10 UNL     1      -1.471   7.863  14.416  1.00  0.00     0.119 C 
HETATM   21  C11 UNL     1      -1.724   8.879  15.493  1.00  0.00     0.035 C 
BRANCH  20  22
HETATM   22  C12 UNL     1      -1.052   8.486  13.107  1.00  0.00     0.178 A 
HETATM   23  C15 UNL     1      -0.832   9.970  13.142  1.00  0.00     0.044 A 
HETATM   24  C16 UNL     1      -2.034  10.231  12.272  1.00  0.00     0.005 A 
HETATM   25  C17 UNL     1      -2.173   8.713  12.130  1.00  0.00     0.044 A 
BRANCH  22  26
HETATM   26  N4  UNL     1       0.098   7.792  12.566  1.00  0.00     0.091 N 
HETATM   27  C13 UNL     1      -0.140   7.223  11.260  1.00  0.00     0.310 C 
HETATM   28  C14 UNL     1       1.253   8.673  12.466  1.00  0.00     0.310 C 
ENDBRANCH  22  26
ENDBRANCH  20  22
ENDBRANCH  18  20
ENDBRANCH   1  16
TORSDOF 9
ENDMDL
