MODEL 1
REMARK VINA RESULT: -8.288182347      0.000      0.000
REMARK  5 active torsions:
REMARK  status: ('A' for Active; 'I' for Inactive)
REMARK    1  A    between atoms: S1_2  and  N1_5 
REMARK    2  A    between atoms: C3_10  and  N3_11 
REMARK    3  A    between atoms: N4_13  and  C4_15 
REMARK    4  A    between atoms: C6_21  and  O3_22 
REMARK    5  A    between atoms: C7_24  and  O4_25 
ROOT
HETATM    1  N1  UNL     1      13.153  -8.535  -9.244  1.00  0.00    -0.266 N 
ATOM      2  H1  UNL     1      13.279  -7.555  -9.500  1.00  0.00     0.180 HD
HETATM    3  C2  UNL     1      12.851  -8.687  -8.035  1.00  0.00     0.186 A 
HETATM    4  N2  UNL     1      12.737  -7.556  -7.253  1.00  0.00    -0.319 N 
ATOM      5  H2  UNL     1      12.899  -6.640  -7.670  1.00  0.00     0.169 HD
HETATM    6  C3  UNL     1      12.421  -7.639  -5.962  1.00  0.00     0.173 A 
HETATM    7  C7  UNL     1      12.208  -8.895  -5.430  1.00  0.00     0.189 A 
HETATM    8  N7  UNL     1      12.311 -10.007  -6.163  1.00  0.00    -0.298 N 
ATOM      9  H7  UNL     1      12.146 -10.918  -5.734  1.00  0.00     0.171 HD
HETATM   10  C8  UNL     1      12.633  -9.924  -7.477  1.00  0.00     0.292 A 
HETATM   11  O5  UNL     1      12.724 -11.010  -8.151  1.00  0.00    -0.264 OA
ENDROOT
BRANCH   6  12
HETATM   12  N3  UNL     1      12.293  -6.492  -5.118  1.00  0.00    -0.280 N 
HETATM   13  N4  UNL     1      13.087  -6.289  -4.147  1.00  0.00    -0.280 N 
ATOM     14  H4  UNL     1      13.834  -6.958  -3.960  1.00  0.00     0.188 HD
ATOM     15  H3  UNL     1      11.548  -5.820  -5.300  1.00  0.00     0.188 HD
BRANCH  13  16
HETATM   16  C4  UNL     1      12.945  -5.128  -3.307  1.00  0.00     0.173 A 
HETATM   17  N5  UNL     1      12.645  -3.883  -3.699  1.00  0.00    -0.334 N 
HETATM   18  C5  UNL     1      12.605  -3.086  -2.623  1.00  0.00     0.184 A 
ATOM     19  H5  UNL     1      12.475  -3.590  -4.660  1.00  0.00     0.168 HD
HETATM   20  N6  UNL     1      12.879  -3.815  -1.528  1.00  0.00    -0.330 N 
HETATM   21  C6  UNL     1      13.090  -5.075  -1.940  1.00  0.00     0.187 A 
ATOM     22  H6  UNL     1      12.918  -3.475  -0.567  1.00  0.00     0.168 HD
BRANCH  21  23
HETATM   23  O3  UNL     1      13.404  -6.136  -1.102  1.00  0.00    -0.343 OA
ATOM     24  H3  UNL     1      13.355  -6.140  -0.153  1.00  0.00     0.219 HD
ENDBRANCH  21  23
ENDBRANCH  13  16
ENDBRANCH   6  12
BRANCH   7  25
HETATM   25  O4  UNL     1      11.877  -8.976  -4.079  1.00  0.00    -0.343 OA
ATOM     26  H4  UNL     1      12.191  -9.730  -3.594  1.00  0.00     0.219 HD
ENDBRANCH   7  25
BRANCH   1  27
HETATM   27  S1  UNL     1      13.395  -9.577 -10.532  1.00  0.00     0.228 S 
HETATM   28  C1  UNL     1      14.764 -10.678 -10.360  1.00  0.00     0.186 C 
HETATM   29  O1  UNL     1      13.664  -8.753 -11.807  1.00  0.00    -0.206 OA
HETATM   30  O2  UNL     1      12.146 -10.388 -10.875  1.00  0.00    -0.206 OA
ENDBRANCH   1  27
TORSDOF 5
ENDMDL
MODEL 2
REMARK VINA RESULT: -8.279706402      1.787      1.917
REMARK  5 active torsions:
REMARK  status: ('A' for Active; 'I' for Inactive)
REMARK    1  A    between atoms: S1_2  and  N1_5 
REMARK    2  A    between atoms: C3_10  and  N3_11 
REMARK    3  A    between atoms: N4_13  and  C4_15 
REMARK    4  A    between atoms: C6_21  and  O3_22 
REMARK    5  A    between atoms: C7_24  and  O4_25 
ROOT
HETATM    1  N1  UNL     1      13.131  -8.531  -9.251  1.00  0.00    -0.266 N 
ATOM      2  H1  UNL     1      13.070  -7.562  -9.563  1.00  0.00     0.180 HD
HETATM    3  C2  UNL     1      12.842  -8.671  -8.037  1.00  0.00     0.186 A 
HETATM    4  N2  UNL     1      12.497  -7.542  -7.324  1.00  0.00    -0.319 N 
ATOM      5  H2  UNL     1      12.487  -6.636  -7.793  1.00  0.00     0.169 HD
HETATM    6  C3  UNL     1      12.178  -7.612  -6.033  1.00  0.00     0.173 A 
HETATM    7  C7  UNL     1      12.203  -8.853  -5.430  1.00  0.00     0.189 A 
HETATM    8  N7  UNL     1      12.532  -9.963  -6.095  1.00  0.00    -0.298 N 
ATOM      9  H7  UNL     1      12.538 -10.864  -5.615  1.00  0.00     0.171 HD
HETATM   10  C8  UNL     1      12.857  -9.893  -7.409  1.00  0.00     0.292 A 
HETATM   11  O5  UNL     1      13.168 -10.977  -8.018  1.00  0.00    -0.264 OA
ENDROOT
BRANCH   6  12
HETATM   12  N3  UNL     1      11.815  -6.465  -5.259  1.00  0.00    -0.280 N 
HETATM   13  N4  UNL     1      10.658  -6.348  -4.747  1.00  0.00    -0.280 N 
ATOM     14  H4  UNL     1       9.968  -7.085  -4.888  1.00  0.00     0.188 HD
ATOM     15  H3  UNL     1      12.501  -5.724  -5.115  1.00  0.00     0.188 HD
BRANCH  13  16
HETATM   16  C4  UNL     1      10.309  -5.187  -3.969  1.00  0.00     0.173 A 
HETATM   17  N5  UNL     1      10.812  -3.953  -4.095  1.00  0.00    -0.334 N 
HETATM   18  C5  UNL     1      10.233  -3.152  -3.191  1.00  0.00     0.184 A 
ATOM     19  H5  UNL     1      11.522  -3.669  -4.770  1.00  0.00     0.168 HD
HETATM   20  N6  UNL     1       9.350  -3.868  -2.476  1.00  0.00    -0.330 N 
HETATM   21  C6  UNL     1       9.389  -5.123  -2.948  1.00  0.00     0.187 A 
ATOM     22  H6  UNL     1       8.760  -3.522  -1.717  1.00  0.00     0.168 HD
BRANCH  21  23
HETATM   23  O3  UNL     1       8.617  -6.172  -2.467  1.00  0.00    -0.343 OA
ATOM     24  H3  UNL     1       7.999  -6.692  -2.965  1.00  0.00     0.219 HD
ENDBRANCH  21  23
ENDBRANCH  13  16
ENDBRANCH   6  12
BRANCH   7  25
HETATM   25  O4  UNL     1      11.867  -8.920  -4.079  1.00  0.00    -0.343 OA
ATOM     26  H4  UNL     1      11.090  -9.412  -3.843  1.00  0.00     0.219 HD
ENDBRANCH   7  25
BRANCH   1  27
HETATM   27  S1  UNL     1      13.594  -9.578 -10.474  1.00  0.00     0.228 S 
HETATM   28  C1  UNL     1      15.121 -10.421 -10.201  1.00  0.00     0.186 C 
HETATM   29  O1  UNL     1      13.772  -8.782 -11.782  1.00  0.00    -0.206 OA
HETATM   30  O2  UNL     1      12.514 -10.604 -10.810  1.00  0.00    -0.206 OA
ENDBRANCH   1  27
TORSDOF 5
ENDMDL
MODEL 3
REMARK VINA RESULT: -8.241713656      1.403      1.480
REMARK  5 active torsions:
REMARK  status: ('A' for Active; 'I' for Inactive)
REMARK    1  A    between atoms: S1_2  and  N1_5 
REMARK    2  A    between atoms: C3_10  and  N3_11 
REMARK    3  A    between atoms: N4_13  and  C4_15 
REMARK    4  A    between atoms: C6_21  and  O3_22 
REMARK    5  A    between atoms: C7_24  and  O4_25 
ROOT
HETATM    1  N1  UNL     1      12.999  -8.382  -9.063  1.00  0.00    -0.266 N 
ATOM      2  H1  UNL     1      13.746  -7.690  -9.118  1.00  0.00     0.180 HD
HETATM    3  C2  UNL     1      12.343  -8.306  -7.995  1.00  0.00     0.186 A 
HETATM    4  N2  UNL     1      12.709  -7.338  -7.082  1.00  0.00    -0.319 N 
ATOM      5  H2  UNL     1      13.491  -6.719  -7.295  1.00  0.00     0.169 HD
HETATM    6  C3  UNL     1      12.060  -7.198  -5.929  1.00  0.00     0.173 A 
HETATM    7  C7  UNL     1      11.006  -8.052  -5.673  1.00  0.00     0.189 A 
HETATM    8  N7  UNL     1      10.629  -8.998  -6.538  1.00  0.00    -0.298 N 
ATOM      9  H7  UNL     1       9.845  -9.611  -6.314  1.00  0.00     0.171 HD
HETATM   10  C8  UNL     1      11.289  -9.142  -7.713  1.00  0.00     0.292 A 
HETATM   11  O5  UNL     1      10.902 -10.060  -8.521  1.00  0.00    -0.264 OA
ENDROOT
BRANCH   6  12
HETATM   12  N3  UNL     1      12.408  -6.208  -4.957  1.00  0.00    -0.280 N 
HETATM   13  N4  UNL     1      13.027  -6.512  -3.890  1.00  0.00    -0.280 N 
ATOM     14  H4  UNL     1      13.283  -7.484  -3.717  1.00  0.00     0.188 HD
ATOM     15  H3  UNL     1      12.154  -5.234  -5.124  1.00  0.00     0.188 HD
BRANCH  13  16
HETATM   16  C4  UNL     1      13.371  -5.503  -2.922  1.00  0.00     0.173 A 
HETATM   17  N5  UNL     1      14.587  -5.244  -2.426  1.00  0.00    -0.334 N 
HETATM   18  C5  UNL     1      14.497  -4.233  -1.553  1.00  0.00     0.184 A 
ATOM     19  H5  UNL     1      15.445  -5.738  -2.674  1.00  0.00     0.168 HD
HETATM   20  N6  UNL     1      13.216  -3.831  -1.481  1.00  0.00    -0.330 N 
HETATM   21  C6  UNL     1      12.515  -4.608  -2.322  1.00  0.00     0.187 A 
ATOM     22  H6  UNL     1      12.847  -3.079  -0.899  1.00  0.00     0.168 HD
BRANCH  21  23
HETATM   23  O3  UNL     1      11.147  -4.507  -2.533  1.00  0.00    -0.343 OA
ATOM     24  H3  UNL     1      10.706  -3.867  -3.080  1.00  0.00     0.219 HD
ENDBRANCH  21  23
ENDBRANCH  13  16
ENDBRANCH   6  12
BRANCH   7  25
HETATM   25  O4  UNL     1      10.330  -7.901  -4.464  1.00  0.00    -0.343 OA
ATOM     26  H4  UNL     1      10.744  -8.247  -3.683  1.00  0.00     0.219 HD
ENDBRANCH   7  25
BRANCH   1  27
HETATM   27  S1  UNL     1      12.923  -9.363 -10.418  1.00  0.00     0.228 S 
HETATM   28  C1  UNL     1      13.436 -11.034 -10.164  1.00  0.00     0.186 C 
HETATM   29  O1  UNL     1      13.849  -8.791 -11.510  1.00  0.00    -0.206 OA
HETATM   30  O2  UNL     1      11.542  -9.362 -11.068  1.00  0.00    -0.206 OA
ENDBRANCH   1  27
TORSDOF 5
ENDMDL
MODEL 4
REMARK VINA RESULT: -8.066935391      3.107      4.077
REMARK  5 active torsions:
REMARK  status: ('A' for Active; 'I' for Inactive)
REMARK    1  A    between atoms: S1_2  and  N1_5 
REMARK    2  A    between atoms: C3_10  and  N3_11 
REMARK    3  A    between atoms: N4_13  and  C4_15 
REMARK    4  A    between atoms: C6_21  and  O3_22 
REMARK    5  A    between atoms: C7_24  and  O4_25 
ROOT
HETATM    1  N1  UNL     1      13.622 -11.424  -3.796  1.00  0.00    -0.266 N 
ATOM      2  H1  UNL     1      13.963 -11.196  -2.862  1.00  0.00     0.180 HD
HETATM    3  C2  UNL     1      12.944 -10.497  -4.305  1.00  0.00     0.186 A 
HETATM    4  N2  UNL     1      12.761  -9.350  -3.562  1.00  0.00    -0.319 N 
ATOM      5  H2  UNL     1      13.176  -9.284  -2.632  1.00  0.00     0.169 HD
HETATM    6  C3  UNL     1      12.055  -8.326  -4.036  1.00  0.00     0.173 A 
HETATM    7  C7  UNL     1      11.509  -8.449  -5.298  1.00  0.00     0.189 A 
HETATM    8  N7  UNL     1      11.668  -9.547  -6.041  1.00  0.00    -0.298 N 
ATOM      9  H7  UNL     1      11.250  -9.602  -6.969  1.00  0.00     0.171 HD
HETATM   10  C8  UNL     1      12.388 -10.591  -5.559  1.00  0.00     0.292 A 
HETATM   11  O5  UNL     1      12.522 -11.630  -6.297  1.00  0.00    -0.264 OA
ENDROOT
BRANCH   6  12
HETATM   12  N3  UNL     1      11.843  -7.120  -3.297  1.00  0.00    -0.280 N 
HETATM   13  N4  UNL     1      12.521  -6.070  -3.529  1.00  0.00    -0.280 N 
ATOM     14  H4  UNL     1      13.235  -6.083  -4.258  1.00  0.00     0.188 HD
ATOM     15  H3  UNL     1      11.132  -7.101  -2.567  1.00  0.00     0.188 HD
BRANCH  13  16
HETATM   16  C4  UNL     1      12.295  -4.863  -2.777  1.00  0.00     0.173 A 
HETATM   17  N5  UNL     1      12.631  -3.618  -3.134  1.00  0.00    -0.334 N 
HETATM   18  C5  UNL     1      12.251  -2.770  -2.169  1.00  0.00     0.184 A 
ATOM     19  H5  UNL     1      13.100  -3.356  -4.001  1.00  0.00     0.168 HD
HETATM   20  N6  UNL     1      11.666  -3.468  -1.181  1.00  0.00    -0.330 N 
HETATM   21  C6  UNL     1      11.688  -4.759  -1.547  1.00  0.00     0.187 A 
ATOM     22  H6  UNL     1      11.278  -3.088  -0.317  1.00  0.00     0.168 HD
BRANCH  21  23
HETATM   23  O3  UNL     1      11.175  -5.802  -0.788  1.00  0.00    -0.343 OA
ATOM     24  H3  UNL     1      11.078  -5.819   0.156  1.00  0.00     0.219 HD
ENDBRANCH  21  23
ENDBRANCH  13  16
ENDBRANCH   6  12
BRANCH   7  25
HETATM   25  O4  UNL     1      10.770  -7.374  -5.789  1.00  0.00    -0.343 OA
ATOM     26  H4  UNL     1      11.100  -6.500  -5.619  1.00  0.00     0.219 HD
ENDBRANCH   7  25
BRANCH   1  27
HETATM   27  S1  UNL     1      14.092 -12.948  -4.305  1.00  0.00     0.228 S 
HETATM   28  C1  UNL     1      12.774 -14.094  -4.561  1.00  0.00     0.186 C 
HETATM   29  O1  UNL     1      15.007 -13.579  -3.236  1.00  0.00    -0.206 OA
HETATM   30  O2  UNL     1      14.964 -12.907  -5.558  1.00  0.00    -0.206 OA
ENDBRANCH   1  27
TORSDOF 5
ENDMDL
MODEL 5
REMARK VINA RESULT: -7.961231935      1.372      1.381
REMARK  5 active torsions:
REMARK  status: ('A' for Active; 'I' for Inactive)
REMARK    1  A    between atoms: S1_2  and  N1_5 
REMARK    2  A    between atoms: C3_10  and  N3_11 
REMARK    3  A    between atoms: N4_13  and  C4_15 
REMARK    4  A    between atoms: C6_21  and  O3_22 
REMARK    5  A    between atoms: C7_24  and  O4_25 
ROOT
HETATM    1  N1  UNL     1      13.139  -8.393  -8.560  1.00  0.00    -0.266 N 
ATOM      2  H1  UNL     1      14.020  -7.889  -8.468  1.00  0.00     0.180 HD
HETATM    3  C2  UNL     1      12.388  -8.246  -7.564  1.00  0.00     0.186 A 
HETATM    4  N2  UNL     1      12.841  -7.455  -6.528  1.00  0.00    -0.319 N 
ATOM      5  H2  UNL     1      13.760  -7.018  -6.597  1.00  0.00     0.169 HD
HETATM    6  C3  UNL     1      12.101  -7.252  -5.440  1.00  0.00     0.173 A 
HETATM    7  C7  UNL     1      10.862  -7.859  -5.381  1.00  0.00     0.189 A 
HETATM    8  N7  UNL     1      10.397  -8.629  -6.368  1.00  0.00    -0.298 N 
ATOM      9  H7  UNL     1       9.476  -9.061  -6.289  1.00  0.00     0.171 HD
HETATM   10  C8  UNL     1      11.150  -8.837  -7.476  1.00  0.00     0.292 A 
HETATM   11  O5  UNL     1      10.675  -9.581  -8.405  1.00  0.00    -0.264 OA
ENDROOT
BRANCH   6  12
HETATM   12  N3  UNL     1      12.534  -6.440  -4.346  1.00  0.00    -0.280 N 
HETATM   13  N4  UNL     1      12.060  -5.277  -4.153  1.00  0.00    -0.280 N 
ATOM     14  H4  UNL     1      11.354  -4.909  -4.790  1.00  0.00     0.188 HD
ATOM     15  H3  UNL     1      13.240  -6.802  -3.706  1.00  0.00     0.188 HD
BRANCH  13  16
HETATM   16  C4  UNL     1      12.507  -4.472  -3.045  1.00  0.00     0.173 A 
HETATM   17  N5  UNL     1      12.323  -3.156  -2.881  1.00  0.00    -0.334 N 
HETATM   18  C5  UNL     1      12.884  -2.778  -1.725  1.00  0.00     0.184 A 
ATOM     19  H5  UNL     1      11.834  -2.541  -3.531  1.00  0.00     0.168 HD
HETATM   20  N6  UNL     1      13.435  -3.853  -1.135  1.00  0.00    -0.330 N 
HETATM   21  C6  UNL     1      13.207  -4.902  -1.941  1.00  0.00     0.187 A 
ATOM     22  H6  UNL     1      13.931  -3.869  -0.244  1.00  0.00     0.168 HD
BRANCH  21  23
HETATM   23  O3  UNL     1      13.622  -6.201  -1.682  1.00  0.00    -0.343 OA
ATOM     24  H3  UNL     1      13.182  -6.998  -1.952  1.00  0.00     0.219 HD
ENDBRANCH  21  23
ENDBRANCH  13  16
ENDBRANCH   6  12
BRANCH   7  25
HETATM   25  O4  UNL     1      10.092  -7.643  -4.240  1.00  0.00    -0.343 OA
ATOM     26  H4  UNL     1       9.788  -8.407  -3.764  1.00  0.00     0.219 HD
ENDBRANCH   7  25
BRANCH   1  27
HETATM   27  S1  UNL     1      13.019  -9.233 -10.004  1.00  0.00     0.228 S 
HETATM   28  C1  UNL     1      12.966 -10.991  -9.848  1.00  0.00     0.186 C 
HETATM   29  O1  UNL     1      14.249  -8.916 -10.877  1.00  0.00    -0.206 OA
HETATM   30  O2  UNL     1      11.835  -8.774 -10.853  1.00  0.00    -0.206 OA
ENDBRANCH   1  27
TORSDOF 5
ENDMDL
