MODEL 1
REMARK VINA RESULT: -7.587742222      0.000      0.000
REMARK  6 active torsions:
REMARK  status: ('A' for Active; 'I' for Inactive)
REMARK    1  A    between atoms: N1_1  and  C1_4 
REMARK    2  A    between atoms: C2_7  and  N3_8 
REMARK    3  A    between atoms: N3_8  and  O1_10 
REMARK    4  A    between atoms: C3_12  and  O2_13 
REMARK    5  A    between atoms: O2_13  and  N4_14 
REMARK    6  A    between atoms: N4_14  and  C4_16 
ROOT
HETATM    1  C1  UNL     1      11.205  -4.202  -1.464  1.00  0.00     0.680 A 
HETATM    2  N2  UNL     1      12.224  -4.928  -1.935  1.00  0.00    -0.172 N 
ATOM      3  H2  UNL     1      13.179  -4.642  -1.717  1.00  0.00     0.186 HD
HETATM    4  C2  UNL     1      12.025  -6.024  -2.687  1.00  0.00     0.182 A 
HETATM    5  C3  UNL     1      10.743  -6.449  -3.008  1.00  0.00     0.213 A 
HETATM    6  C6  UNL     1       9.698  -5.692  -2.517  1.00  0.00     0.299 A 
HETATM    7  O6  UNL     1       8.528  -6.052  -2.792  1.00  0.00    -0.264 OA
HETATM    8  N7  UNL     1       9.960  -4.604  -1.769  1.00  0.00    -0.154 N 
ATOM      9  H7  UNL     1       9.174  -4.058  -1.416  1.00  0.00     0.187 HD
ENDROOT
BRANCH   5  10
HETATM   10  O2  UNL     1      10.535  -7.583  -3.787  1.00  0.00    -0.226 OA
BRANCH  10  11
HETATM   11  N4  UNL     1      10.191  -7.551  -5.095  1.00  0.00    -0.239 N 
ATOM     12  H4  UNL     1       9.336  -7.062  -5.360  1.00  0.00     0.196 HD
BRANCH  11  13
HETATM   13  C4  UNL     1      10.982  -8.184  -6.142  1.00  0.00     0.206 A 
HETATM   14  N5  UNL     1      10.508  -9.208  -6.736  1.00  0.00    -0.246 N 
HETATM   15  S1  UNL     1      11.658  -9.720  -7.904  1.00  0.00     0.327 S 
ATOM     16  H5  UNL     1       9.605  -9.645  -6.551  1.00  0.00     0.182 HD
HETATM   17  O3  UNL     1      12.169 -11.095  -7.592  1.00  0.00    -0.182 OA
HETATM   18  O4  UNL     1      11.129  -9.622  -9.307  1.00  0.00    -0.182 OA
HETATM   19  N6  UNL     1      12.857  -8.513  -7.603  1.00  0.00    -0.230 N 
HETATM   20  C5  UNL     1      12.281  -7.741  -6.568  1.00  0.00     0.302 A 
ATOM     21  H6  UNL     1      13.760  -8.389  -8.061  1.00  0.00     0.183 HD
HETATM   22  O5  UNL     1      12.868  -6.726  -6.052  1.00  0.00    -0.263 OA
ENDBRANCH  11  13
ENDBRANCH  10  11
ENDBRANCH   5  10
BRANCH   4  23
HETATM   23  N3  UNL     1      13.106  -6.810  -3.196  1.00  0.00    -0.250 N 
ATOM     24  H3  UNL     1      13.899  -6.330  -3.622  1.00  0.00     0.196 HD
BRANCH  23  25
HETATM   25  O1  UNL     1      13.124  -8.048  -3.142  1.00  0.00    -0.288 OA
ATOM     26  H1  UNL     1      12.390  -8.587  -3.413  1.00  0.00     0.244 HD
ENDBRANCH  23  25
ENDBRANCH   4  23
BRANCH   1  27
HETATM   27  N1  UNL     1      11.417  -3.139  -0.734  1.00  0.00    -0.234 N 
ATOM     28  H12 UNL     1      11.593  -3.209   0.267  1.00  0.00     0.174 HD
ATOM     29  H11 UNL     1      11.412  -2.207  -1.150  1.00  0.00     0.174 HD
ENDBRANCH   1  27
TORSDOF 6
ENDMDL
MODEL 2
REMARK VINA RESULT: -7.552717812      1.372      1.873
REMARK  6 active torsions:
REMARK  status: ('A' for Active; 'I' for Inactive)
REMARK    1  A    between atoms: N1_1  and  C1_4 
REMARK    2  A    between atoms: C2_7  and  N3_8 
REMARK    3  A    between atoms: N3_8  and  O1_10 
REMARK    4  A    between atoms: C3_12  and  O2_13 
REMARK    5  A    between atoms: O2_13  and  N4_14 
REMARK    6  A    between atoms: N4_14  and  C4_16 
ROOT
HETATM    1  C1  UNL     1      10.995  -3.867  -1.208  1.00  0.00     0.680 A 
HETATM    2  N2  UNL     1      12.100  -4.559  -1.505  1.00  0.00    -0.172 N 
ATOM      3  H2  UNL     1      13.004  -4.210  -1.185  1.00  0.00     0.186 HD
HETATM    4  C2  UNL     1      12.053  -5.701  -2.213  1.00  0.00     0.182 A 
HETATM    5  C3  UNL     1      10.844  -6.210  -2.669  1.00  0.00     0.213 A 
HETATM    6  C6  UNL     1       9.710  -5.488  -2.357  1.00  0.00     0.299 A 
HETATM    7  O6  UNL     1       8.603  -5.924  -2.757  1.00  0.00    -0.264 OA
HETATM    8  N7  UNL     1       9.821  -4.351  -1.645  1.00  0.00    -0.154 N 
ATOM      9  H7  UNL     1       8.970  -3.832  -1.425  1.00  0.00     0.187 HD
ENDROOT
BRANCH   5  10
HETATM   10  O2  UNL     1      10.793  -7.392  -3.403  1.00  0.00    -0.226 OA
BRANCH  10  11
HETATM   11  N4  UNL     1      10.192  -7.509  -4.609  1.00  0.00    -0.239 N 
ATOM     12  H4  UNL     1       9.208  -7.252  -4.689  1.00  0.00     0.196 HD
BRANCH  11  13
HETATM   13  C4  UNL     1      10.884  -7.985  -5.799  1.00  0.00     0.206 A 
HETATM   14  N5  UNL     1      12.117  -7.694  -5.951  1.00  0.00    -0.246 N 
HETATM   15  S1  UNL     1      12.646  -8.388  -7.430  1.00  0.00     0.327 S 
ATOM     16  H5  UNL     1      12.688  -7.145  -5.307  1.00  0.00     0.182 HD
HETATM   17  O3  UNL     1      13.071  -7.329  -8.403  1.00  0.00    -0.182 OA
HETATM   18  O4  UNL     1      13.715  -9.424  -7.223  1.00  0.00    -0.182 OA
HETATM   19  N6  UNL     1      11.152  -9.119  -7.898  1.00  0.00    -0.230 N 
HETATM   20  C5  UNL     1      10.281  -8.773  -6.839  1.00  0.00     0.302 A 
ATOM     21  H6  UNL     1      10.948  -9.666  -8.733  1.00  0.00     0.183 HD
HETATM   22  O5  UNL     1       9.052  -9.132  -6.807  1.00  0.00    -0.263 OA
ENDBRANCH  11  13
ENDBRANCH  10  11
ENDBRANCH   5  10
BRANCH   4  23
HETATM   23  N3  UNL     1      13.227  -6.450  -2.536  1.00  0.00    -0.250 N 
ATOM     24  H3  UNL     1      13.743  -6.899  -1.779  1.00  0.00     0.196 HD
BRANCH  23  25
HETATM   25  O1  UNL     1      13.646  -6.580  -3.696  1.00  0.00    -0.288 OA
ATOM     26  H1  UNL     1      13.159  -7.035  -4.373  1.00  0.00     0.244 HD
ENDBRANCH  23  25
ENDBRANCH   4  23
BRANCH   1  27
HETATM   27  N1  UNL     1      11.061  -2.759  -0.519  1.00  0.00    -0.234 N 
ATOM     28  H12 UNL     1      11.549  -2.718   0.375  1.00  0.00     0.174 HD
ATOM     29  H11 UNL     1      10.622  -1.903  -0.858  1.00  0.00     0.174 HD
ENDBRANCH   1  27
TORSDOF 6
ENDMDL
MODEL 3
REMARK VINA RESULT: -7.508671559      5.086      7.741
REMARK  6 active torsions:
REMARK  status: ('A' for Active; 'I' for Inactive)
REMARK    1  A    between atoms: N1_1  and  C1_4 
REMARK    2  A    between atoms: C2_7  and  N3_8 
REMARK    3  A    between atoms: N3_8  and  O1_10 
REMARK    4  A    between atoms: C3_12  and  O2_13 
REMARK    5  A    between atoms: O2_13  and  N4_14 
REMARK    6  A    between atoms: N4_14  and  C4_16 
ROOT
HETATM    1  C1  UNL     1      12.549  -8.367  -6.892  1.00  0.00     0.680 A 
HETATM    2  N2  UNL     1      12.472  -8.241  -8.222  1.00  0.00    -0.172 N 
ATOM      3  H2  UNL     1      11.930  -7.472  -8.616  1.00  0.00     0.186 HD
HETATM    4  C2  UNL     1      13.089  -9.100  -9.052  1.00  0.00     0.182 A 
HETATM    5  C3  UNL     1      13.837 -10.160  -8.558  1.00  0.00     0.213 A 
HETATM    6  C6  UNL     1      13.909 -10.281  -7.185  1.00  0.00     0.299 A 
HETATM    7  O6  UNL     1      14.578 -11.230  -6.709  1.00  0.00    -0.264 OA
HETATM    8  N7  UNL     1      13.270  -9.389  -6.404  1.00  0.00    -0.154 N 
ATOM      9  H7  UNL     1      13.336  -9.496  -5.392  1.00  0.00     0.187 HD
ENDROOT
BRANCH   5  10
HETATM   10  O2  UNL     1      14.475 -11.051  -9.416  1.00  0.00    -0.226 OA
BRANCH  10  11
HETATM   11  N4  UNL     1      15.804 -11.304  -9.393  1.00  0.00    -0.239 N 
ATOM     12  H4  UNL     1      16.212 -11.682  -8.538  1.00  0.00     0.196 HD
BRANCH  11  13
HETATM   13  C4  UNL     1      16.679 -11.061 -10.532  1.00  0.00     0.206 A 
HETATM   14  N5  UNL     1      16.308 -10.230 -11.426  1.00  0.00    -0.246 N 
HETATM   15  S1  UNL     1      17.536 -10.160 -12.624  1.00  0.00     0.327 S 
ATOM     16  H5  UNL     1      15.436  -9.701 -11.428  1.00  0.00     0.182 HD
HETATM   17  O3  UNL     1      17.024 -10.636 -13.951  1.00  0.00    -0.182 OA
HETATM   18  O4  UNL     1      18.162  -8.797 -12.719  1.00  0.00    -0.182 OA
HETATM   19  N6  UNL     1      18.625 -11.299 -11.917  1.00  0.00    -0.230 N 
HETATM   20  C5  UNL     1      17.953 -11.694 -10.737  1.00  0.00     0.302 A 
ATOM     21  H6  UNL     1      19.531 -11.611 -12.265  1.00  0.00     0.183 HD
HETATM   22  O5  UNL     1      18.439 -12.547  -9.915  1.00  0.00    -0.263 OA
ENDBRANCH  11  13
ENDBRANCH  10  11
ENDBRANCH   5  10
BRANCH   4  23
HETATM   23  N3  UNL     1      13.015  -8.976 -10.475  1.00  0.00    -0.250 N 
ATOM     24  H3  UNL     1      12.114  -9.123 -10.930  1.00  0.00     0.196 HD
BRANCH  23  25
HETATM   25  O1  UNL     1      13.996  -8.698 -11.179  1.00  0.00    -0.288 OA
ATOM     26  H1  UNL     1      14.013  -8.836 -12.119  1.00  0.00     0.244 HD
ENDBRANCH  23  25
ENDBRANCH   4  23
BRANCH   1  27
HETATM   27  N1  UNL     1      11.943  -7.522  -6.101  1.00  0.00    -0.234 N 
ATOM     28  H12 UNL     1      12.415  -6.690  -5.749  1.00  0.00     0.174 HD
ATOM     29  H11 UNL     1      10.976  -7.675  -5.813  1.00  0.00     0.174 HD
ENDBRANCH   1  27
TORSDOF 6
ENDMDL
MODEL 4
REMARK VINA RESULT: -7.496705714      5.169      7.558
REMARK  6 active torsions:
REMARK  status: ('A' for Active; 'I' for Inactive)
REMARK    1  A    between atoms: N1_1  and  C1_4 
REMARK    2  A    between atoms: C2_7  and  N3_8 
REMARK    3  A    between atoms: N3_8  and  O1_10 
REMARK    4  A    between atoms: C3_12  and  O2_13 
REMARK    5  A    between atoms: O2_13  and  N4_14 
REMARK    6  A    between atoms: N4_14  and  C4_16 
ROOT
HETATM    1  C1  UNL     1      12.670  -8.216  -7.012  1.00  0.00     0.680 A 
HETATM    2  N2  UNL     1      13.132  -9.292  -6.366  1.00  0.00    -0.172 N 
ATOM      3  H2  UNL     1      12.965  -9.377  -5.363  1.00  0.00     0.186 HD
HETATM    4  C2  UNL     1      13.810 -10.264  -7.001  1.00  0.00     0.182 A 
HETATM    5  C3  UNL     1      14.059 -10.187  -8.365  1.00  0.00     0.213 A 
HETATM    6  C6  UNL     1      13.579  -9.073  -9.022  1.00  0.00     0.299 A 
HETATM    7  O6  UNL     1      13.790  -8.977 -10.255  1.00  0.00    -0.264 OA
HETATM    8  N7  UNL     1      12.907  -8.133  -8.332  1.00  0.00    -0.154 N 
ATOM      9  H7  UNL     1      12.560  -7.317  -8.836  1.00  0.00     0.187 HD
ENDROOT
BRANCH   5  10
HETATM   10  O2  UNL     1      14.762 -11.192  -9.024  1.00  0.00    -0.226 OA
BRANCH  10  11
HETATM   11  N4  UNL     1      16.110 -11.231  -9.127  1.00  0.00    -0.239 N 
ATOM     12  H4  UNL     1      16.658 -11.409  -8.285  1.00  0.00     0.196 HD
BRANCH  11  13
HETATM   13  C4  UNL     1      16.817 -11.029 -10.385  1.00  0.00     0.206 A 
HETATM   14  N5  UNL     1      16.359 -10.178 -11.217  1.00  0.00    -0.246 N 
HETATM   15  S1  UNL     1      17.397 -10.166 -12.586  1.00  0.00     0.327 S 
ATOM     16  H5  UNL     1      15.524  -9.605 -11.091  1.00  0.00     0.182 HD
HETATM   17  O3  UNL     1      16.669 -10.612 -13.819  1.00  0.00    -0.182 OA
HETATM   18  O4  UNL     1      18.070  -8.837 -12.779  1.00  0.00    -0.182 OA
HETATM   19  N6  UNL     1      18.520 -11.362 -12.044  1.00  0.00    -0.230 N 
HETATM   20  C5  UNL     1      18.012 -11.726 -10.775  1.00  0.00     0.302 A 
ATOM     21  H6  UNL     1      19.347 -11.718 -12.522  1.00  0.00     0.183 HD
HETATM   22  O5  UNL     1      18.572 -12.605 -10.030  1.00  0.00    -0.263 OA
ENDBRANCH  11  13
ENDBRANCH  10  11
ENDBRANCH   5  10
BRANCH   4  23
HETATM   23  N3  UNL     1      14.308 -11.419  -6.321  1.00  0.00    -0.250 N 
ATOM     24  H3  UNL     1      13.682 -11.921  -5.691  1.00  0.00     0.196 HD
BRANCH  23  25
HETATM   25  O1  UNL     1      15.466 -11.838  -6.464  1.00  0.00    -0.288 OA
ATOM     26  H1  UNL     1      15.665 -12.734  -6.711  1.00  0.00     0.244 HD
ENDBRANCH  23  25
ENDBRANCH   4  23
BRANCH   1  27
HETATM   27  N1  UNL     1      12.013  -7.281  -6.378  1.00  0.00    -0.234 N 
ATOM     28  H12 UNL     1      11.461  -6.586  -6.879  1.00  0.00     0.174 HD
ATOM     29  H11 UNL     1      12.035  -7.223  -5.360  1.00  0.00     0.174 HD
ENDBRANCH   1  27
TORSDOF 6
ENDMDL
MODEL 5
REMARK VINA RESULT: -7.428716174      4.461      6.905
REMARK  6 active torsions:
REMARK  status: ('A' for Active; 'I' for Inactive)
REMARK    1  A    between atoms: N1_1  and  C1_4 
REMARK    2  A    between atoms: C2_7  and  N3_8 
REMARK    3  A    between atoms: N3_8  and  O1_10 
REMARK    4  A    between atoms: C3_12  and  O2_13 
REMARK    5  A    between atoms: O2_13  and  N4_14 
REMARK    6  A    between atoms: N4_14  and  C4_16 
ROOT
HETATM    1  C1  UNL     1      12.607  -8.368  -5.717  1.00  0.00     0.680 A 
HETATM    2  N2  UNL     1      12.371  -7.794  -6.902  1.00  0.00    -0.172 N 
ATOM      3  H2  UNL     1      11.923  -6.878  -6.928  1.00  0.00     0.186 HD
HETATM    4  C2  UNL     1      12.709  -8.390  -8.059  1.00  0.00     0.182 A 
HETATM    5  C3  UNL     1      13.321  -9.637  -8.069  1.00  0.00     0.213 A 
HETATM    6  C6  UNL     1      13.559 -10.220  -6.841  1.00  0.00     0.299 A 
HETATM    7  O6  UNL     1      14.110 -11.348  -6.820  1.00  0.00    -0.264 OA
HETATM    8  N7  UNL     1      13.198  -9.574  -5.717  1.00  0.00    -0.154 N 
ATOM      9  H7  UNL     1      13.384 -10.023  -4.819  1.00  0.00     0.187 HD
ENDROOT
BRANCH   5  10
HETATM   10  O2  UNL     1      13.670 -10.256  -9.265  1.00  0.00    -0.226 OA
BRANCH  10  11
HETATM   11  N4  UNL     1      14.939 -10.567  -9.616  1.00  0.00    -0.239 N 
ATOM     12  H4  UNL     1      15.501 -11.116  -8.966  1.00  0.00     0.196 HD
BRANCH  11  13
HETATM   13  C4  UNL     1      15.539 -10.154 -10.877  1.00  0.00     0.206 A 
HETATM   14  N5  UNL     1      16.719 -10.552 -11.155  1.00  0.00    -0.246 N 
HETATM   15  S1  UNL     1      17.146  -9.910 -12.689  1.00  0.00     0.327 S 
ATOM     16  H5  UNL     1      17.305 -11.148 -10.569  1.00  0.00     0.182 HD
HETATM   17  O3  UNL     1      18.317  -8.979 -12.578  1.00  0.00    -0.182 OA
HETATM   18  O4  UNL     1      17.377 -10.985 -13.713  1.00  0.00    -0.182 OA
HETATM   19  N6  UNL     1      15.680  -9.052 -13.004  1.00  0.00    -0.230 N 
HETATM   20  C5  UNL     1      14.899  -9.318 -11.855  1.00  0.00     0.302 A 
ATOM     21  H6  UNL     1      15.436  -8.491 -13.820  1.00  0.00     0.183 HD
HETATM   22  O5  UNL     1      13.717  -8.853 -11.697  1.00  0.00    -0.263 OA
ENDBRANCH  11  13
ENDBRANCH  10  11
ENDBRANCH   5  10
BRANCH   4  23
HETATM   23  N3  UNL     1      12.463  -7.786  -9.331  1.00  0.00    -0.250 N 
ATOM     24  H3  UNL     1      13.007  -6.964  -9.594  1.00  0.00     0.196 HD
BRANCH  23  25
HETATM   25  O1  UNL     1      11.618  -8.217 -10.129  1.00  0.00    -0.288 OA
ATOM     26  H1  UNL     1      11.656  -8.048 -11.063  1.00  0.00     0.244 HD
ENDBRANCH  23  25
ENDBRANCH   4  23
BRANCH   1  27
HETATM   27  N1  UNL     1      12.272  -7.773  -4.603  1.00  0.00    -0.234 N 
ATOM     28  H12 UNL     1      12.976  -7.390  -3.973  1.00  0.00     0.174 HD
ATOM     29  H11 UNL     1      11.293  -7.677  -4.334  1.00  0.00     0.174 HD
ENDBRANCH   1  27
TORSDOF 6
ENDMDL
