MODEL 1
REMARK VINA RESULT: -7.217347088      0.000      0.000
REMARK  7 active torsions:
REMARK  status: ('A' for Active; 'I' for Inactive)
REMARK    1  A    between atoms: C2_2  and  C3_3 
REMARK    2  A    between atoms: C3_3  and  C4_4 
REMARK    3  A    between atoms: C4_4  and  C5_5 
REMARK    4  A    between atoms: C5_5  and  N1_6 
REMARK    5  A    between atoms: C10_14  and  C11_15 
REMARK    6  A    between atoms: C11_15  and  N3_17 
REMARK    7  A    between atoms: N5_24  and  C14_25 
ROOT
HETATM    1  N1  UNL     1     -11.917 -55.779 -31.579  1.00  0.00    -0.264 N 
HETATM    2  C6  UNL     1     -12.604 -56.085 -30.486  1.00  0.00     0.282 A 
HETATM    3  O1  UNL     1     -12.463 -55.554 -29.358  1.00  0.00    -0.265 OA
HETATM    4  C7  UNL     1     -13.572 -57.072 -30.572  1.00  0.00     0.146 A 
HETATM    5  N2  UNL     1     -14.280 -57.401 -29.480  1.00  0.00    -0.351 N 
ATOM      6  H2  UNL     1     -14.104 -56.927 -28.594  1.00  0.00     0.166 HD
HETATM    7  C8  UNL     1     -15.219 -58.357 -29.557  1.00  0.00     0.030 A 
HETATM    8  C9  UNL     1     -16.046 -58.777 -28.389  1.00  0.00     0.070 C 
HETATM    9  C10 UNL     1     -15.438 -58.985 -30.767  1.00  0.00     0.063 A 
HETATM   10  N4  UNL     1     -14.722 -58.647 -31.852  1.00  0.00    -0.340 N 
ATOM     11  H4  UNL     1     -14.891 -59.118 -32.741  1.00  0.00     0.167 HD
HETATM   12  C13 UNL     1     -13.780 -57.685 -31.766  1.00  0.00     0.145 A 
HETATM   13  N5  UNL     1     -13.102 -57.387 -32.866  1.00  0.00    -0.275 N 
HETATM   14  C24 UNL     1     -12.171 -56.432 -32.763  1.00  0.00     0.334 A 
HETATM   15  O2  UNL     1     -11.479 -56.087 -33.764  1.00  0.00    -0.246 OA
ENDROOT
BRANCH  13  16
HETATM   16  C14 UNL     1     -13.315 -58.047 -34.186  1.00  0.00     0.118 C 
HETATM   17  C15 UNL     1     -13.703 -57.034 -35.196  1.00  0.00    -0.005 C 
HETATM   18  C16 UNL     1     -15.018 -57.040 -35.833  1.00  0.00    -0.029 C 
HETATM   19  C17 UNL     1     -15.601 -58.130 -36.611  1.00  0.00     0.027 C 
HETATM   20  C18 UNL     1     -14.865 -58.779 -37.719  1.00  0.00     0.004 C 
HETATM   21  C19 UNL     1     -14.769 -60.263 -37.739  1.00  0.00     0.000 C 
HETATM   22  C20 UNL     1     -13.470 -60.884 -37.184  1.00  0.00     0.000 C 
HETATM   23  C21 UNL     1     -13.130 -59.998 -36.070  1.00  0.00     0.000 C 
HETATM   24  C22 UNL     1     -12.114 -60.165 -35.044  1.00  0.00     0.002 C 
HETATM   25  C23 UNL     1     -12.022 -58.769 -34.389  1.00  0.00     0.030 C 
ENDBRANCH  13  16
BRANCH   1  26
HETATM   26  C5  UNL     1     -10.865 -54.801 -31.589  1.00  0.00     0.137 C 
BRANCH  26  27
HETATM   27  C4  UNL     1      -9.572 -55.269 -31.048  1.00  0.00     0.020 C 
BRANCH  27  28
HETATM   28  C3  UNL     1      -8.745 -54.378 -30.220  1.00  0.00     0.001 C 
BRANCH  28  29
HETATM   29  C2  UNL     1      -9.352 -53.863 -28.957  1.00  0.00    -0.004 C 
HETATM   30  C1  UNL     1      -8.266 -53.442 -27.968  1.00  0.00     0.005 C 
ENDBRANCH  28  29
ENDBRANCH  27  28
ENDBRANCH  26  27
ENDBRANCH   1  26
BRANCH   9  31
HETATM   31  C11 UNL     1     -16.469 -60.041 -30.873  1.00  0.00     0.231 C 
HETATM   32  C12 UNL     1     -15.832 -61.338 -31.233  1.00  0.00     0.046 C 
BRANCH  31  33
HETATM   33  N3  UNL     1     -17.532 -59.690 -31.787  1.00  0.00    -0.070 N 
ATOM     34  H33 UNL     1     -18.408 -59.534 -31.288  1.00  0.00     0.275 HD
ATOM     35  H32 UNL     1     -17.393 -58.755 -32.171  1.00  0.00     0.275 HD
ATOM     36  H31 UNL     1     -17.653 -60.377 -32.532  1.00  0.00     0.275 HD
ENDBRANCH  31  33
ENDBRANCH   9  31
TORSDOF 7
ENDMDL
MODEL 2
REMARK VINA RESULT: -7.182557262      1.443      1.627
REMARK  7 active torsions:
REMARK  status: ('A' for Active; 'I' for Inactive)
REMARK    1  A    between atoms: C2_2  and  C3_3 
REMARK    2  A    between atoms: C3_3  and  C4_4 
REMARK    3  A    between atoms: C4_4  and  C5_5 
REMARK    4  A    between atoms: C5_5  and  N1_6 
REMARK    5  A    between atoms: C10_14  and  C11_15 
REMARK    6  A    between atoms: C11_15  and  N3_17 
REMARK    7  A    between atoms: N5_24  and  C14_25 
ROOT
HETATM    1  N1  UNL     1     -10.633 -55.156 -32.037  1.00  0.00    -0.264 N 
HETATM    2  C6  UNL     1     -11.211 -55.245 -30.845  1.00  0.00     0.282 A 
HETATM    3  O1  UNL     1     -10.877 -54.606 -29.819  1.00  0.00    -0.265 OA
HETATM    4  C7  UNL     1     -12.282 -56.111 -30.696  1.00  0.00     0.146 A 
HETATM    5  N2  UNL     1     -12.882 -56.220 -29.500  1.00  0.00    -0.351 N 
ATOM      6  H2  UNL     1     -12.550 -55.669 -28.709  1.00  0.00     0.166 HD
HETATM    7  C8  UNL     1     -13.921 -57.056 -29.350  1.00  0.00     0.030 A 
HETATM    8  C9  UNL     1     -14.639 -57.232 -28.054  1.00  0.00     0.070 C 
HETATM    9  C10 UNL     1     -14.352 -57.792 -30.435  1.00  0.00     0.063 A 
HETATM   10  N4  UNL     1     -13.742 -57.675 -31.626  1.00  0.00    -0.340 N 
ATOM     11  H4  UNL     1     -14.067 -58.223 -32.422  1.00  0.00     0.167 HD
HETATM   12  C13 UNL     1     -12.699 -56.831 -31.770  1.00  0.00     0.145 A 
HETATM   13  N5  UNL     1     -12.132 -56.749 -32.965  1.00  0.00    -0.275 N 
HETATM   14  C24 UNL     1     -11.099 -55.909 -33.090  1.00  0.00     0.334 A 
HETATM   15  O2  UNL     1     -10.501 -55.771 -34.196  1.00  0.00    -0.246 OA
ENDROOT
BRANCH  13  16
HETATM   16  C14 UNL     1     -12.574 -57.530 -34.156  1.00  0.00     0.118 C 
HETATM   17  C15 UNL     1     -13.266 -56.634 -35.114  1.00  0.00    -0.005 C 
HETATM   18  C16 UNL     1     -14.683 -56.788 -35.432  1.00  0.00    -0.029 C 
HETATM   19  C17 UNL     1     -15.325 -57.979 -35.985  1.00  0.00     0.027 C 
HETATM   20  C18 UNL     1     -14.800 -58.663 -37.187  1.00  0.00     0.004 C 
HETATM   21  C19 UNL     1     -14.578 -60.132 -37.133  1.00  0.00     0.000 C 
HETATM   22  C20 UNL     1     -13.138 -60.610 -36.851  1.00  0.00     0.000 C 
HETATM   23  C21 UNL     1     -12.640 -59.612 -35.903  1.00  0.00     0.000 C 
HETATM   24  C22 UNL     1     -11.410 -59.620 -35.128  1.00  0.00     0.002 C 
HETATM   25  C23 UNL     1     -11.299 -58.171 -34.603  1.00  0.00     0.030 C 
ENDBRANCH  13  16
BRANCH   1  26
HETATM   26  C5  UNL     1      -9.492 -54.321 -32.289  1.00  0.00     0.137 C 
BRANCH  26  27
HETATM   27  C4  UNL     1      -8.211 -54.842 -31.769  1.00  0.00     0.020 C 
BRANCH  27  28
HETATM   28  C3  UNL     1      -7.086 -53.929 -31.511  1.00  0.00     0.001 C 
BRANCH  28  29
HETATM   29  C2  UNL     1      -6.735 -53.667 -30.083  1.00  0.00    -0.004 C 
HETATM   30  C1  UNL     1      -5.256 -53.309 -29.948  1.00  0.00     0.005 C 
ENDBRANCH  28  29
ENDBRANCH  27  28
ENDBRANCH  26  27
ENDBRANCH   1  26
BRANCH   9  31
HETATM   31  C11 UNL     1     -15.494 -58.720 -30.290  1.00  0.00     0.231 C 
HETATM   32  C12 UNL     1     -15.605 -59.583 -31.499  1.00  0.00     0.046 C 
BRANCH  31  33
HETATM   33  N3  UNL     1     -16.734 -58.035 -30.001  1.00  0.00    -0.070 N 
ATOM     34  H33 UNL     1     -17.538 -58.609 -30.256  1.00  0.00     0.275 HD
ATOM     35  H32 UNL     1     -16.891 -57.969 -28.995  1.00  0.00     0.275 HD
ATOM     36  H31 UNL     1     -16.787 -57.116 -30.441  1.00  0.00     0.275 HD
ENDBRANCH  31  33
ENDBRANCH   9  31
TORSDOF 7
ENDMDL
MODEL 3
REMARK VINA RESULT: -7.171504336      1.416      2.281
REMARK  7 active torsions:
REMARK  status: ('A' for Active; 'I' for Inactive)
REMARK    1  A    between atoms: C2_2  and  C3_3 
REMARK    2  A    between atoms: C3_3  and  C4_4 
REMARK    3  A    between atoms: C4_4  and  C5_5 
REMARK    4  A    between atoms: C5_5  and  N1_6 
REMARK    5  A    between atoms: C10_14  and  C11_15 
REMARK    6  A    between atoms: C11_15  and  N3_17 
REMARK    7  A    between atoms: N5_24  and  C14_25 
ROOT
HETATM    1  N1  UNL     1     -10.826 -55.459 -32.189  1.00  0.00    -0.264 N 
HETATM    2  C6  UNL     1     -11.308 -55.473 -30.952  1.00  0.00     0.282 A 
HETATM    3  O1  UNL     1     -10.851 -54.827 -29.979  1.00  0.00    -0.265 OA
HETATM    4  C7  UNL     1     -12.417 -56.261 -30.687  1.00  0.00     0.146 A 
HETATM    5  N2  UNL     1     -12.922 -56.294 -29.444  1.00  0.00    -0.351 N 
ATOM      6  H2  UNL     1     -12.492 -55.743 -28.702  1.00  0.00     0.166 HD
HETATM    7  C8  UNL     1     -13.997 -57.055 -29.182  1.00  0.00     0.030 A 
HETATM    8  C9  UNL     1     -14.615 -57.144 -27.827  1.00  0.00     0.070 C 
HETATM    9  C10 UNL     1     -14.561 -57.793 -30.203  1.00  0.00     0.063 A 
HETATM   10  N4  UNL     1     -14.045 -57.752 -31.442  1.00  0.00    -0.340 N 
ATOM     11  H4  UNL     1     -14.469 -58.301 -32.190  1.00  0.00     0.167 HD
HETATM   12  C13 UNL     1     -12.966 -56.984 -31.698  1.00  0.00     0.145 A 
HETATM   13  N5  UNL     1     -12.495 -56.976 -32.938  1.00  0.00    -0.275 N 
HETATM   14  C24 UNL     1     -11.424 -56.211 -33.174  1.00  0.00     0.334 A 
HETATM   15  O2  UNL     1     -10.912 -56.146 -34.329  1.00  0.00    -0.246 OA
ENDROOT
BRANCH  13  16
HETATM   16  C14 UNL     1     -13.082 -57.761 -34.061  1.00  0.00     0.118 C 
HETATM   17  C15 UNL     1     -13.175 -59.190 -33.680  1.00  0.00    -0.005 C 
HETATM   18  C16 UNL     1     -12.402 -60.225 -34.363  1.00  0.00    -0.029 C 
HETATM   19  C17 UNL     1     -12.439 -60.538 -35.790  1.00  0.00     0.027 C 
HETATM   20  C18 UNL     1     -13.713 -60.769 -36.506  1.00  0.00     0.004 C 
HETATM   21  C19 UNL     1     -13.967 -60.025 -37.768  1.00  0.00     0.000 C 
HETATM   22  C20 UNL     1     -14.839 -58.756 -37.665  1.00  0.00     0.000 C 
HETATM   23  C21 UNL     1     -14.442 -58.187 -36.376  1.00  0.00     0.000 C 
HETATM   24  C22 UNL     1     -14.778 -56.894 -35.804  1.00  0.00     0.002 C 
HETATM   25  C23 UNL     1     -14.359 -57.028 -34.324  1.00  0.00     0.030 C 
ENDBRANCH  13  16
BRANCH   1  26
HETATM   26  C5  UNL     1      -9.659 -54.709 -32.560  1.00  0.00     0.137 C 
BRANCH  26  27
HETATM   27  C4  UNL     1      -8.420 -55.093 -31.852  1.00  0.00     0.020 C 
BRANCH  27  28
HETATM   28  C3  UNL     1      -7.285 -54.159 -31.778  1.00  0.00     0.001 C 
BRANCH  28  29
HETATM   29  C2  UNL     1      -6.875 -53.691 -30.420  1.00  0.00    -0.004 C 
HETATM   30  C1  UNL     1      -5.354 -53.690 -30.286  1.00  0.00     0.005 C 
ENDBRANCH  28  29
ENDBRANCH  27  28
ENDBRANCH  26  27
ENDBRANCH   1  26
BRANCH   9  31
HETATM   31  C11 UNL     1     -15.745 -58.638 -29.934  1.00  0.00     0.231 C 
HETATM   32  C12 UNL     1     -15.800 -59.760 -30.911  1.00  0.00     0.046 C 
BRANCH  31  33
HETATM   33  N3  UNL     1     -16.976 -57.880 -29.913  1.00  0.00    -0.070 N 
ATOM     34  H33 UNL     1     -16.801 -56.904 -29.676  1.00  0.00     0.275 HD
ATOM     35  H32 UNL     1     -17.347 -57.757 -30.855  1.00  0.00     0.275 HD
ATOM     36  H31 UNL     1     -17.676 -58.286 -29.292  1.00  0.00     0.275 HD
ENDBRANCH  31  33
ENDBRANCH   9  31
TORSDOF 7
ENDMDL
MODEL 4
REMARK VINA RESULT: -6.808917408      0.761      1.780
REMARK  7 active torsions:
REMARK  status: ('A' for Active; 'I' for Inactive)
REMARK    1  A    between atoms: C2_2  and  C3_3 
REMARK    2  A    between atoms: C3_3  and  C4_4 
REMARK    3  A    between atoms: C4_4  and  C5_5 
REMARK    4  A    between atoms: C5_5  and  N1_6 
REMARK    5  A    between atoms: C10_14  and  C11_15 
REMARK    6  A    between atoms: C11_15  and  N3_17 
REMARK    7  A    between atoms: N5_24  and  C14_25 
ROOT
HETATM    1  N1  UNL     1     -11.695 -55.719 -31.633  1.00  0.00    -0.264 N 
HETATM    2  C6  UNL     1     -12.302 -55.880 -30.464  1.00  0.00     0.282 A 
HETATM    3  O1  UNL     1     -12.031 -55.265 -29.406  1.00  0.00    -0.265 OA
HETATM    4  C7  UNL     1     -13.333 -56.802 -30.379  1.00  0.00     0.146 A 
HETATM    5  N2  UNL     1     -13.961 -56.985 -29.208  1.00  0.00    -0.351 N 
ATOM      6  H2  UNL     1     -13.681 -56.449 -28.387  1.00  0.00     0.166 HD
HETATM    7  C8  UNL     1     -14.961 -57.877 -29.120  1.00  0.00     0.030 A 
HETATM    8  C9  UNL     1     -15.707 -58.136 -27.855  1.00  0.00     0.070 C 
HETATM    9  C10 UNL     1     -15.323 -58.591 -30.244  1.00  0.00     0.063 A 
HETATM   10  N4  UNL     1     -14.685 -58.399 -31.411  1.00  0.00    -0.340 N 
ATOM     11  H4  UNL     1     -14.959 -58.933 -32.236  1.00  0.00     0.167 HD
HETATM   12  C13 UNL     1     -13.681 -57.501 -31.491  1.00  0.00     0.145 A 
HETATM   13  N5  UNL     1     -13.084 -57.347 -32.665  1.00  0.00    -0.275 N 
HETATM   14  C24 UNL     1     -12.091 -56.454 -32.727  1.00  0.00     0.334 A 
HETATM   15  O2  UNL     1     -11.469 -56.245 -33.808  1.00  0.00    -0.246 OA
ENDROOT
BRANCH  13  16
HETATM   16  C14 UNL     1     -13.451 -58.103 -33.896  1.00  0.00     0.118 C 
HETATM   17  C15 UNL     1     -13.699 -59.525 -33.558  1.00  0.00    -0.005 C 
HETATM   18  C16 UNL     1     -12.850 -60.601 -34.065  1.00  0.00    -0.029 C 
HETATM   19  C17 UNL     1     -12.590 -60.915 -35.468  1.00  0.00     0.027 C 
HETATM   20  C18 UNL     1     -13.688 -61.080 -36.447  1.00  0.00     0.004 C 
HETATM   21  C19 UNL     1     -13.622 -60.327 -37.727  1.00  0.00     0.000 C 
HETATM   22  C20 UNL     1     -14.428 -59.014 -37.805  1.00  0.00     0.000 C 
HETATM   23  C21 UNL     1     -14.293 -58.463 -36.456  1.00  0.00     0.000 C 
HETATM   24  C22 UNL     1     -14.679 -57.153 -35.959  1.00  0.00     0.002 C 
HETATM   25  C23 UNL     1     -14.601 -57.305 -34.425  1.00  0.00     0.030 C 
ENDBRANCH  13  16
BRANCH   1  26
HETATM   26  C5  UNL     1     -10.590 -54.820 -31.819  1.00  0.00     0.137 C 
BRANCH  26  27
HETATM   27  C4  UNL     1      -9.267 -55.375 -31.461  1.00  0.00     0.020 C 
BRANCH  27  28
HETATM   28  C3  UNL     1      -8.347 -54.611 -30.605  1.00  0.00     0.001 C 
BRANCH  28  29
HETATM   29  C2  UNL     1      -8.934 -53.921 -29.418  1.00  0.00    -0.004 C 
HETATM   30  C1  UNL     1      -7.851 -53.595 -28.392  1.00  0.00     0.005 C 
ENDBRANCH  28  29
ENDBRANCH  27  28
ENDBRANCH  26  27
ENDBRANCH   1  26
BRANCH   9  31
HETATM   31  C11 UNL     1     -16.421 -59.578 -30.169  1.00  0.00     0.231 C 
HETATM   32  C12 UNL     1     -15.888 -60.951 -30.387  1.00  0.00     0.046 C 
BRANCH  31  33
HETATM   33  N3  UNL     1     -17.508 -59.272 -31.072  1.00  0.00    -0.070 N 
ATOM     34  H33 UNL     1     -18.397 -59.233 -30.575  1.00  0.00     0.275 HD
ATOM     35  H32 UNL     1     -17.456 -58.305 -31.393  1.00  0.00     0.275 HD
ATOM     36  H31 UNL     1     -17.557 -59.917 -31.860  1.00  0.00     0.275 HD
ENDBRANCH  31  33
ENDBRANCH   9  31
TORSDOF 7
ENDMDL
MODEL 5
REMARK VINA RESULT: -6.715831006      2.597      4.010
REMARK  7 active torsions:
REMARK  status: ('A' for Active; 'I' for Inactive)
REMARK    1  A    between atoms: C2_2  and  C3_3 
REMARK    2  A    between atoms: C3_3  and  C4_4 
REMARK    3  A    between atoms: C4_4  and  C5_5 
REMARK    4  A    between atoms: C5_5  and  N1_6 
REMARK    5  A    between atoms: C10_14  and  C11_15 
REMARK    6  A    between atoms: C11_15  and  N3_17 
REMARK    7  A    between atoms: N5_24  and  C14_25 
ROOT
HETATM    1  N1  UNL     1     -10.628 -54.343 -27.645  1.00  0.00    -0.264 N 
HETATM    2  C6  UNL     1     -11.548 -54.777 -26.793  1.00  0.00     0.282 A 
HETATM    3  O1  UNL     1     -11.608 -54.494 -25.573  1.00  0.00    -0.265 OA
HETATM    4  C7  UNL     1     -12.543 -55.615 -27.269  1.00  0.00     0.146 A 
HETATM    5  N2  UNL     1     -13.484 -56.070 -26.427  1.00  0.00    -0.351 N 
ATOM      6  H2  UNL     1     -13.464 -55.799 -25.444  1.00  0.00     0.166 HD
HETATM    7  C8  UNL     1     -14.451 -56.882 -26.883  1.00  0.00     0.030 A 
HETATM    8  C9  UNL     1     -15.530 -57.427 -26.009  1.00  0.00     0.070 C 
HETATM    9  C10 UNL     1     -14.455 -57.235 -28.217  1.00  0.00     0.063 A 
HETATM   10  N4  UNL     1     -13.507 -56.775 -29.049  1.00  0.00    -0.340 N 
ATOM     11  H4  UNL     1     -13.519 -57.042 -30.034  1.00  0.00     0.167 HD
HETATM   12  C13 UNL     1     -12.539 -55.958 -28.584  1.00  0.00     0.145 A 
HETATM   13  N5  UNL     1     -11.627 -55.529 -29.446  1.00  0.00    -0.275 N 
HETATM   14  C24 UNL     1     -10.674 -54.722 -28.967  1.00  0.00     0.334 A 
HETATM   15  O2  UNL     1      -9.766 -54.267 -29.722  1.00  0.00    -0.246 OA
ENDROOT
BRANCH  13  16
HETATM   16  C14 UNL     1     -11.605 -55.892 -30.891  1.00  0.00     0.118 C 
HETATM   17  C15 UNL     1     -12.554 -55.032 -31.639  1.00  0.00    -0.005 C 
HETATM   18  C16 UNL     1     -13.738 -55.577 -32.298  1.00  0.00    -0.029 C 
HETATM   19  C17 UNL     1     -13.759 -56.608 -33.334  1.00  0.00     0.027 C 
HETATM   20  C18 UNL     1     -12.910 -56.518 -34.542  1.00  0.00     0.004 C 
HETATM   21  C19 UNL     1     -12.075 -57.690 -34.916  1.00  0.00     0.000 C 
HETATM   22  C20 UNL     1     -10.592 -57.654 -34.488  1.00  0.00     0.000 C 
HETATM   23  C21 UNL     1     -10.642 -56.992 -33.184  1.00  0.00     0.000 C 
HETATM   24  C22 UNL     1      -9.586 -56.831 -32.198  1.00  0.00     0.002 C 
HETATM   25  C23 UNL     1     -10.152 -55.775 -31.224  1.00  0.00     0.030 C 
ENDBRANCH  13  16
BRANCH   1  26
HETATM   26  C5  UNL     1      -9.532 -53.504 -27.248  1.00  0.00     0.137 C 
BRANCH  26  27
HETATM   27  C4  UNL     1      -8.190 -54.071 -27.498  1.00  0.00     0.020 C 
BRANCH  27  28
HETATM   28  C3  UNL     1      -7.225 -53.354 -28.347  1.00  0.00     0.001 C 
BRANCH  28  29
HETATM   29  C2  UNL     1      -5.941 -54.050 -28.657  1.00  0.00    -0.004 C 
HETATM   30  C1  UNL     1      -5.156 -53.286 -29.721  1.00  0.00     0.005 C 
ENDBRANCH  28  29
ENDBRANCH  27  28
ENDBRANCH  26  27
ENDBRANCH   1  26
BRANCH   9  31
HETATM   31  C11 UNL     1     -15.512 -58.129 -28.739  1.00  0.00     0.231 C 
HETATM   32  C12 UNL     1     -15.000 -59.524 -28.825  1.00  0.00     0.046 C 
BRANCH  31  33
HETATM   33  N3  UNL     1     -16.053 -57.674 -30.000  1.00  0.00    -0.070 N 
ATOM     34  H33 UNL     1     -15.339 -57.679 -30.728  1.00  0.00     0.275 HD
ATOM     35  H32 UNL     1     -16.695 -58.362 -30.393  1.00  0.00     0.275 HD
ATOM     36  H31 UNL     1     -16.496 -56.758 -29.929  1.00  0.00     0.275 HD
ENDBRANCH  31  33
ENDBRANCH   9  31
TORSDOF 7
ENDMDL
