MODEL 1
REMARK VINA RESULT: -6.861767720      0.000      0.000
REMARK  4 active torsions:
REMARK  status: ('A' for Active; 'I' for Inactive)
REMARK    1  A    between atoms: C4_4  and  O1_5 
REMARK    2  A    between atoms: O1_5  and  C5_6 
REMARK    3  A    between atoms: C5_6  and  C6_8 
REMARK    4  A    between atoms: C19_22  and  O4_23 
ROOT
HETATM    1  C1  UNL     1     -22.989  -1.757  -6.462  1.00  0.00     0.020 C 
HETATM    2  C2  UNL     1     -21.763  -0.912  -6.609  1.00  0.00     0.006 C 
HETATM    3  C3  UNL     1     -20.685  -1.489  -5.697  1.00  0.00     0.020 C 
HETATM    4  C4  UNL     1     -21.969   0.519  -6.180  1.00  0.00     0.145 C 
HETATM    5  C11 UNL     1     -22.784   1.207  -7.230  1.00  0.00     0.074 C 
HETATM    6  C12 UNL     1     -22.022   1.129  -8.538  1.00  0.00     0.091 C 
HETATM    7  C13 UNL     1     -21.700   2.476  -9.103  1.00  0.00     0.049 C 
HETATM    8  O3  UNL     1     -20.806   0.424  -8.376  1.00  0.00    -0.371 OA
HETATM    9  C14 UNL     1     -21.238  -0.865  -8.029  1.00  0.00     0.140 C 
HETATM   10  C15 UNL     1     -22.285  -1.143  -9.055  1.00  0.00     0.053 C 
HETATM   11  C16 UNL     1     -21.609  -1.772 -10.261  1.00  0.00     0.010 C 
HETATM   12  C17 UNL     1     -21.100  -0.618 -11.094  1.00  0.00     0.004 C 
HETATM   13  C18 UNL     1     -22.163   0.423 -10.904  1.00  0.00     0.041 C 
HETATM   14  C19 UNL     1     -22.729   0.225  -9.531  1.00  0.00     0.095 C 
ENDROOT
BRANCH   4  15
HETATM   15  O1  UNL     1     -22.475   0.648  -4.884  1.00  0.00    -0.315 OA
BRANCH  15  16
HETATM   16  C5  UNL     1     -22.340   1.839  -4.170  1.00  0.00     0.263 C 
HETATM   17  O2  UNL     1     -21.195   2.362  -4.187  1.00  0.00    -0.265 OA
BRANCH  16  18
HETATM   18  C6  UNL     1     -23.445   2.472  -3.434  1.00  0.00     0.085 C 
HETATM   19  C7  UNL     1     -23.092   2.774  -1.999  1.00  0.00     0.014 C 
HETATM   20  C8  UNL     1     -23.951   1.814  -1.207  1.00  0.00     0.001 C 
HETATM   21  C9  UNL     1     -25.247   1.853  -2.026  1.00  0.00     0.001 C 
HETATM   22  C10 UNL     1     -24.700   1.635  -3.421  1.00  0.00     0.014 C 
ENDBRANCH  16  18
ENDBRANCH  15  16
ENDBRANCH   4  15
BRANCH  14  23
HETATM   23  O4  UNL     1     -24.091   0.395  -9.486  1.00  0.00    -0.386 OA
ATOM     24  H4  UNL     1     -24.519  -0.022 -10.224  1.00  0.00     0.210 HD
ENDBRANCH  14  23
TORSDOF 4
ENDMDL
MODEL 2
REMARK VINA RESULT: -6.840875145      2.191      4.099
REMARK  4 active torsions:
REMARK  status: ('A' for Active; 'I' for Inactive)
REMARK    1  A    between atoms: C4_4  and  O1_5 
REMARK    2  A    between atoms: O1_5  and  C5_6 
REMARK    3  A    between atoms: C5_6  and  C6_8 
REMARK    4  A    between atoms: C19_22  and  O4_23 
ROOT
HETATM    1  C1  UNL     1     -20.577   1.755  -6.489  1.00  0.00     0.020 C 
HETATM    2  C2  UNL     1     -21.809   0.918  -6.629  1.00  0.00     0.006 C 
HETATM    3  C3  UNL     1     -22.881   1.507  -5.715  1.00  0.00     0.020 C 
HETATM    4  C4  UNL     1     -21.613  -0.513  -6.196  1.00  0.00     0.145 C 
HETATM    5  C11 UNL     1     -20.807  -1.210  -7.247  1.00  0.00     0.074 C 
HETATM    6  C12 UNL     1     -21.572  -1.131  -8.551  1.00  0.00     0.091 C 
HETATM    7  C13 UNL     1     -21.906  -2.477  -9.111  1.00  0.00     0.049 C 
HETATM    8  O3  UNL     1     -22.782  -0.416  -8.389  1.00  0.00    -0.371 OA
HETATM    9  C14 UNL     1     -22.340   0.870  -8.047  1.00  0.00     0.140 C 
HETATM   10  C15 UNL     1     -21.293   1.137  -9.078  1.00  0.00     0.053 C 
HETATM   11  C16 UNL     1     -21.969   1.768 -10.284  1.00  0.00     0.010 C 
HETATM   12  C17 UNL     1     -22.490   0.614 -11.111  1.00  0.00     0.004 C 
HETATM   13  C18 UNL     1     -21.434  -0.434 -10.921  1.00  0.00     0.041 C 
HETATM   14  C19 UNL     1     -20.861  -0.236  -9.550  1.00  0.00     0.095 C 
ENDROOT
BRANCH   4  15
HETATM   15  O1  UNL     1     -21.103  -0.641  -4.901  1.00  0.00    -0.315 OA
BRANCH  15  16
HETATM   16  C5  UNL     1     -21.244  -1.829  -4.184  1.00  0.00     0.263 C 
HETATM   17  O2  UNL     1     -22.393  -2.343  -4.193  1.00  0.00    -0.265 OA
BRANCH  16  18
HETATM   18  C6  UNL     1     -20.140  -2.468  -3.451  1.00  0.00     0.085 C 
HETATM   19  C7  UNL     1     -20.495  -2.782  -2.019  1.00  0.00     0.014 C 
HETATM   20  C8  UNL     1     -19.638  -1.828  -1.218  1.00  0.00     0.001 C 
HETATM   21  C9  UNL     1     -18.340  -1.861  -2.035  1.00  0.00     0.001 C 
HETATM   22  C10 UNL     1     -18.885  -1.631  -3.429  1.00  0.00     0.014 C 
ENDBRANCH  16  18
ENDBRANCH  15  16
ENDBRANCH   4  15
BRANCH  14  23
HETATM   23  O4  UNL     1     -19.501  -0.416  -9.509  1.00  0.00    -0.386 OA
ATOM     24  H4  UNL     1     -19.047   0.397  -9.321  1.00  0.00     0.210 HD
ENDBRANCH  14  23
TORSDOF 4
ENDMDL
MODEL 3
REMARK VINA RESULT: -6.703853290      2.408      4.176
REMARK  4 active torsions:
REMARK  status: ('A' for Active; 'I' for Inactive)
REMARK    1  A    between atoms: C4_4  and  O1_5 
REMARK    2  A    between atoms: O1_5  and  C5_6 
REMARK    3  A    between atoms: C5_6  and  C6_8 
REMARK    4  A    between atoms: C19_22  and  O4_23 
ROOT
HETATM    1  C1  UNL     1     -20.792   1.418  -5.394  1.00  0.00     0.020 C 
HETATM    2  C2  UNL     1     -22.022   0.709  -5.863  1.00  0.00     0.006 C 
HETATM    3  C3  UNL     1     -23.178   1.131  -4.961  1.00  0.00     0.020 C 
HETATM    4  C4  UNL     1     -21.922  -0.793  -5.761  1.00  0.00     0.145 C 
HETATM    5  C11 UNL     1     -21.015  -1.274  -6.850  1.00  0.00     0.074 C 
HETATM    6  C12 UNL     1     -21.614  -0.852  -8.176  1.00  0.00     0.091 C 
HETATM    7  C13 UNL     1     -21.917  -2.012  -9.071  1.00  0.00     0.049 C 
HETATM    8  O3  UNL     1     -22.813  -0.126  -7.985  1.00  0.00    -0.371 OA
HETATM    9  C14 UNL     1     -22.377   1.019  -7.303  1.00  0.00     0.140 C 
HETATM   10  C15 UNL     1     -21.207   1.457  -8.119  1.00  0.00     0.053 C 
HETATM   11  C16 UNL     1     -21.712   2.385  -9.209  1.00  0.00     0.010 C 
HETATM   12  C17 UNL     1     -22.162   1.486 -10.338  1.00  0.00     0.004 C 
HETATM   13  C18 UNL     1     -21.169   0.363 -10.284  1.00  0.00     0.041 C 
HETATM   14  C19 UNL     1     -20.761   0.207  -8.851  1.00  0.00     0.095 C 
ENDROOT
BRANCH   4  15
HETATM   15  O1  UNL     1     -21.577  -1.245  -4.484  1.00  0.00    -0.315 OA
BRANCH  15  16
HETATM   16  C5  UNL     1     -20.248  -1.481  -4.136  1.00  0.00     0.263 C 
HETATM   17  O2  UNL     1     -19.539  -2.036  -5.016  1.00  0.00    -0.265 OA
BRANCH  16  18
HETATM   18  C6  UNL     1     -19.677  -1.117  -2.830  1.00  0.00     0.085 C 
HETATM   19  C7  UNL     1     -18.168  -1.116  -2.833  1.00  0.00     0.014 C 
HETATM   20  C8  UNL     1     -17.805  -2.293  -1.956  1.00  0.00     0.001 C 
HETATM   21  C9  UNL     1     -18.877  -2.174  -0.865  1.00  0.00     0.001 C 
HETATM   22  C10 UNL     1     -20.122  -2.032  -1.716  1.00  0.00     0.014 C 
ENDBRANCH  16  18
ENDBRANCH  15  16
ENDBRANCH   4  15
BRANCH  14  23
HETATM   23  O4  UNL     1     -19.422  -0.055  -8.703  1.00  0.00    -0.386 OA
ATOM     24  H4  UNL     1     -19.268  -0.963  -8.472  1.00  0.00     0.210 HD
ENDBRANCH  14  23
TORSDOF 4
ENDMDL
MODEL 4
REMARK VINA RESULT: -6.681032713      1.305      1.885
REMARK  4 active torsions:
REMARK  status: ('A' for Active; 'I' for Inactive)
REMARK    1  A    between atoms: C4_4  and  O1_5 
REMARK    2  A    between atoms: O1_5  and  C5_6 
REMARK    3  A    between atoms: C5_6  and  C6_8 
REMARK    4  A    between atoms: C19_22  and  O4_23 
ROOT
HETATM    1  C1  UNL     1     -22.660  -1.273  -5.102  1.00  0.00     0.020 C 
HETATM    2  C2  UNL     1     -21.941   0.029  -5.267  1.00  0.00     0.006 C 
HETATM    3  C3  UNL     1     -21.195   0.319  -3.968  1.00  0.00     0.020 C 
HETATM    4  C4  UNL     1     -22.866   1.196  -5.504  1.00  0.00     0.145 C 
HETATM    5  C11 UNL     1     -23.385   1.102  -6.904  1.00  0.00     0.074 C 
HETATM    6  C12 UNL     1     -22.198   1.142  -7.845  1.00  0.00     0.091 C 
HETATM    7  C13 UNL     1     -22.253   2.292  -8.800  1.00  0.00     0.049 C 
HETATM    8  O3  UNL     1     -20.983   1.231  -7.127  1.00  0.00    -0.371 OA
HETATM    9  C14 UNL     1     -20.953   0.022  -6.416  1.00  0.00     0.140 C 
HETATM   10  C15 UNL     1     -21.279  -0.983  -7.470  1.00  0.00     0.053 C 
HETATM   11  C16 UNL     1     -19.980  -1.419  -8.124  1.00  0.00     0.010 C 
HETATM   12  C17 UNL     1     -19.693  -0.390  -9.194  1.00  0.00     0.004 C 
HETATM   13  C18 UNL     1     -21.064  -0.043  -9.696  1.00  0.00     0.041 C 
HETATM   14  C19 UNL     1     -22.005  -0.194  -8.540  1.00  0.00     0.095 C 
ENDROOT
BRANCH   4  15
HETATM   15  O1  UNL     1     -23.860   1.329  -4.530  1.00  0.00    -0.315 OA
BRANCH  15  16
HETATM   16  C5  UNL     1     -23.612   2.001  -3.333  1.00  0.00     0.263 C 
HETATM   17  O2  UNL     1     -22.913   3.043  -3.422  1.00  0.00    -0.265 OA
BRANCH  16  18
HETATM   18  C6  UNL     1     -24.123   1.547  -2.030  1.00  0.00     0.085 C 
HETATM   19  C7  UNL     1     -25.625   1.410  -2.008  1.00  0.00     0.014 C 
HETATM   20  C8  UNL     1     -26.075   2.522  -1.087  1.00  0.00     0.001 C 
HETATM   21  C9  UNL     1     -24.975   2.466  -0.019  1.00  0.00     0.001 C 
HETATM   22  C10 UNL     1     -23.740   2.463  -0.895  1.00  0.00     0.014 C 
ENDBRANCH  16  18
ENDBRANCH  15  16
ENDBRANCH   4  15
BRANCH  14  23
HETATM   23  O4  UNL     1     -23.206  -0.753  -8.900  1.00  0.00    -0.386 OA
ATOM     24  H4  UNL     1     -23.271  -0.864  -9.841  1.00  0.00     0.210 HD
ENDBRANCH  14  23
TORSDOF 4
ENDMDL
MODEL 5
REMARK VINA RESULT: -6.384646549      2.821      4.600
REMARK  4 active torsions:
REMARK  status: ('A' for Active; 'I' for Inactive)
REMARK    1  A    between atoms: C4_4  and  O1_5 
REMARK    2  A    between atoms: O1_5  and  C5_6 
REMARK    3  A    between atoms: C5_6  and  C6_8 
REMARK    4  A    between atoms: C19_22  and  O4_23 
ROOT
HETATM    1  C1  UNL     1     -20.434   2.001  -5.385  1.00  0.00     0.020 C 
HETATM    2  C2  UNL     1     -21.707   1.342  -4.956  1.00  0.00     0.006 C 
HETATM    3  C3  UNL     1     -22.390   2.257  -3.944  1.00  0.00     0.020 C 
HETATM    4  C4  UNL     1     -21.491   0.020  -4.264  1.00  0.00     0.145 C 
HETATM    5  C11 UNL     1     -21.109  -0.991  -5.299  1.00  0.00     0.074 C 
HETATM    6  C12 UNL     1     -22.238  -1.076  -6.306  1.00  0.00     0.091 C 
HETATM    7  C13 UNL     1     -22.830  -2.447  -6.400  1.00  0.00     0.049 C 
HETATM    8  O3  UNL     1     -23.279  -0.176  -5.980  1.00  0.00    -0.371 OA
HETATM    9  C14 UNL     1     -22.658   1.076  -6.105  1.00  0.00     0.140 C 
HETATM   10  C15 UNL     1     -21.971   0.967  -7.426  1.00  0.00     0.053 C 
HETATM   11  C16 UNL     1     -22.943   1.422  -8.501  1.00  0.00     0.010 C 
HETATM   12  C17 UNL     1     -23.781   0.209  -8.837  1.00  0.00     0.004 C 
HETATM   13  C18 UNL     1     -22.800  -0.918  -8.710  1.00  0.00     0.041 C 
HETATM   14  C19 UNL     1     -21.812  -0.523  -7.654  1.00  0.00     0.095 C 
ENDROOT
BRANCH   4  15
HETATM   15  O1  UNL     1     -20.611   0.092  -3.179  1.00  0.00    -0.315 OA
BRANCH  15  16
HETATM   16  C5  UNL     1     -20.683  -0.822  -2.128  1.00  0.00     0.263 C 
HETATM   17  O2  UNL     1     -21.593  -0.616  -1.283  1.00  0.00    -0.265 OA
BRANCH  16  18
HETATM   18  C6  UNL     1     -19.769  -1.965  -1.986  1.00  0.00     0.085 C 
HETATM   19  C7  UNL     1     -19.730  -2.509  -0.580  1.00  0.00     0.014 C 
HETATM   20  C8  UNL     1     -18.344  -2.150  -0.093  1.00  0.00     0.001 C 
HETATM   21  C9  UNL     1     -17.524  -2.400  -1.365  1.00  0.00     0.001 C 
HETATM   22  C10 UNL     1     -18.350  -1.639  -2.380  1.00  0.00     0.014 C 
ENDBRANCH  16  18
ENDBRANCH  15  16
ENDBRANCH   4  15
BRANCH  14  23
HETATM   23  O4  UNL     1     -20.526  -0.886  -7.964  1.00  0.00    -0.386 OA
ATOM     24  H4  UNL     1     -19.946  -0.133  -7.982  1.00  0.00     0.210 HD
ENDBRANCH  14  23
TORSDOF 4
ENDMDL
