MODEL 1
REMARK VINA RESULT: -7.824504755      0.000      0.000
REMARK  3 active torsions:
REMARK  status: ('A' for Active; 'I' for Inactive)
REMARK    1  A    between atoms: C3_5  and  N2_6 
REMARK    2  A    between atoms: C7_10  and  C8_11 
REMARK    3  A    between atoms: C8_11  and  O1_12 
ROOT
HETATM    1  C1  UNL     1      18.131 -26.839   0.356  1.00  0.00     0.069 C 
HETATM    2  C2  UNL     1      17.415 -27.821   1.186  1.00  0.00     0.032 A 
HETATM    3  N1  UNL     1      16.725 -27.465   2.255  1.00  0.00    -0.195 N 
ATOM      4  H1  UNL     1      16.701 -26.473   2.495  1.00  0.00     0.184 HD
HETATM    5  C3  UNL     1      16.052 -28.316   3.050  1.00  0.00     0.681 A 
HETATM    6  N3  UNL     1      16.102 -29.613   2.708  1.00  0.00    -0.185 N 
ATOM      7  H3  UNL     1      15.609 -30.302   3.277  1.00  0.00     0.185 HD
HETATM    8  C10 UNL     1      16.785 -30.015   1.639  1.00  0.00     0.094 A 
HETATM    9  C11 UNL     1      17.479 -29.179   0.811  1.00  0.00    -0.001 A 
HETATM   10  C12 UNL     1      18.151 -29.830  -0.328  1.00  0.00     0.054 C 
HETATM   11  C13 UNL     1      18.568 -31.229   0.047  1.00  0.00     0.085 C 
HETATM   12  S1  UNL     1      17.037 -31.683   0.984  1.00  0.00    -0.111 SA
ENDROOT
BRANCH   5  13
HETATM   13  N2  UNL     1      15.333 -27.862   4.180  1.00  0.00    -0.217 N 
HETATM   14  C4  UNL     1      15.334 -26.494   4.538  1.00  0.00     0.141 C 
HETATM   15  C5  UNL     1      14.094 -25.977   5.161  1.00  0.00     0.021 C 
HETATM   16  C6  UNL     1      13.186 -27.002   5.740  1.00  0.00     0.010 C 
HETATM   17  C7  UNL     1      13.156 -28.299   5.010  1.00  0.00     0.028 C 
HETATM   18  C9  UNL     1      14.598 -28.822   4.961  1.00  0.00     0.148 C 
BRANCH  17  19
HETATM   19  C8  UNL     1      12.376 -29.313   5.830  1.00  0.00     0.170 C 
BRANCH  19  20
HETATM   20  O1  UNL     1      13.163 -29.741   6.869  1.00  0.00    -0.400 OA
ATOM     21  H1  UNL     1      12.904 -30.623   7.105  1.00  0.00     0.209 HD
ENDBRANCH  19  20
ENDBRANCH  17  19
ENDBRANCH   5  13
TORSDOF 3
ENDMDL
MODEL 2
REMARK VINA RESULT: -7.773405555      1.705      2.272
REMARK  3 active torsions:
REMARK  status: ('A' for Active; 'I' for Inactive)
REMARK    1  A    between atoms: C3_5  and  N2_6 
REMARK    2  A    between atoms: C7_10  and  C8_11 
REMARK    3  A    between atoms: C8_11  and  O1_12 
ROOT
HETATM    1  C1  UNL     1      18.138 -26.523   0.402  1.00  0.00     0.069 C 
HETATM    2  C2  UNL     1      17.577 -27.754   0.981  1.00  0.00     0.032 A 
HETATM    3  N1  UNL     1      16.714 -27.729   1.982  1.00  0.00    -0.195 N 
ATOM      4  H1  UNL     1      16.442 -26.816   2.349  1.00  0.00     0.184 HD
HETATM    5  C3  UNL     1      16.170 -28.819   2.551  1.00  0.00     0.681 A 
HETATM    6  N3  UNL     1      16.547 -30.004   2.045  1.00  0.00    -0.185 N 
ATOM      7  H3  UNL     1      16.165 -30.863   2.440  1.00  0.00     0.185 HD
HETATM    8  C10 UNL     1      17.414 -30.075   1.037  1.00  0.00     0.094 A 
HETATM    9  C11 UNL     1      17.985 -28.989   0.437  1.00  0.00    -0.001 A 
HETATM   10  C12 UNL     1      18.905 -29.291  -0.675  1.00  0.00     0.054 C 
HETATM   11  C13 UNL     1      19.585 -30.616  -0.440  1.00  0.00     0.085 C 
HETATM   12  S1  UNL     1      18.105 -31.524   0.202  1.00  0.00    -0.111 SA
ENDROOT
BRANCH   5  13
HETATM   13  N2  UNL     1      15.251 -28.715   3.620  1.00  0.00    -0.217 N 
HETATM   14  C4  UNL     1      14.696 -29.873   4.214  1.00  0.00     0.141 C 
HETATM   15  C5  UNL     1      14.401 -29.791   5.663  1.00  0.00     0.021 C 
HETATM   16  C6  UNL     1      14.292 -28.419   6.224  1.00  0.00     0.010 C 
HETATM   17  C7  UNL     1      15.193 -27.412   5.599  1.00  0.00     0.028 C 
HETATM   18  C9  UNL     1      14.889 -27.406   4.095  1.00  0.00     0.148 C 
BRANCH  17  19
HETATM   19  C8  UNL     1      14.818 -26.029   6.103  1.00  0.00     0.170 C 
BRANCH  19  20
HETATM   20  O1  UNL     1      15.525 -25.092   5.393  1.00  0.00    -0.400 OA
ATOM     21  H1  UNL     1      15.048 -24.271   5.409  1.00  0.00     0.209 HD
ENDBRANCH  19  20
ENDBRANCH  17  19
ENDBRANCH   5  13
TORSDOF 3
ENDMDL
MODEL 3
REMARK VINA RESULT: -7.630299356      1.283      2.119
REMARK  3 active torsions:
REMARK  status: ('A' for Active; 'I' for Inactive)
REMARK    1  A    between atoms: C3_5  and  N2_6 
REMARK    2  A    between atoms: C7_10  and  C8_11 
REMARK    3  A    between atoms: C8_11  and  O1_12 
ROOT
HETATM    1  C1  UNL     1      16.682 -31.575   1.434  1.00  0.00     0.069 C 
HETATM    2  C2  UNL     1      16.691 -30.133   1.726  1.00  0.00     0.032 A 
HETATM    3  N1  UNL     1      16.060 -29.624   2.769  1.00  0.00    -0.195 N 
ATOM      4  H1  UNL     1      15.557 -30.270   3.379  1.00  0.00     0.184 HD
HETATM    5  C3  UNL     1      16.033 -28.318   3.085  1.00  0.00     0.681 A 
HETATM    6  N3  UNL     1      16.704 -27.494   2.265  1.00  0.00    -0.185 N 
ATOM      7  H3  UNL     1      16.716 -26.492   2.457  1.00  0.00     0.185 HD
HETATM    8  C10 UNL     1      17.354 -27.964   1.202  1.00  0.00     0.094 A 
HETATM    9  C11 UNL     1      17.402 -29.283   0.852  1.00  0.00    -0.001 A 
HETATM   10  C12 UNL     1      18.194 -29.591  -0.353  1.00  0.00     0.054 C 
HETATM   11  C13 UNL     1      18.140 -28.435  -1.318  1.00  0.00     0.085 C 
HETATM   12  S1  UNL     1      18.297 -27.081  -0.065  1.00  0.00    -0.111 SA
ENDROOT
BRANCH   5  13
HETATM   13  N2  UNL     1      15.336 -27.844   4.220  1.00  0.00    -0.217 N 
HETATM   14  C4  UNL     1      15.345 -26.470   4.556  1.00  0.00     0.141 C 
HETATM   15  C5  UNL     1      14.116 -25.941   5.192  1.00  0.00     0.021 C 
HETATM   16  C6  UNL     1      13.218 -26.955   5.805  1.00  0.00     0.010 C 
HETATM   17  C7  UNL     1      13.174 -28.264   5.097  1.00  0.00     0.028 C 
HETATM   18  C9  UNL     1      14.614 -28.790   5.031  1.00  0.00     0.148 C 
BRANCH  17  19
HETATM   19  C8  UNL     1      12.407 -29.263   5.947  1.00  0.00     0.170 C 
BRANCH  19  20
HETATM   20  O1  UNL     1      13.245 -29.752   6.917  1.00  0.00    -0.400 OA
ATOM     21  H1  UNL     1      12.831 -30.501   7.330  1.00  0.00     0.209 HD
ENDBRANCH  19  20
ENDBRANCH  17  19
ENDBRANCH   5  13
TORSDOF 3
ENDMDL
MODEL 4
REMARK VINA RESULT: -7.324954509      1.841      2.911
REMARK  3 active torsions:
REMARK  status: ('A' for Active; 'I' for Inactive)
REMARK    1  A    between atoms: C3_5  and  N2_6 
REMARK    2  A    between atoms: C7_10  and  C8_11 
REMARK    3  A    between atoms: C8_11  and  O1_12 
ROOT
HETATM    1  C1  UNL     1      17.421 -31.651   0.996  1.00  0.00     0.069 C 
HETATM    2  C2  UNL     1      17.028 -30.303   1.436  1.00  0.00     0.032 A 
HETATM    3  N1  UNL     1      16.153 -30.109   2.407  1.00  0.00    -0.195 N 
ATOM      4  H1  UNL     1      15.749 -30.934   2.852  1.00  0.00     0.184 HD
HETATM    5  C3  UNL     1      15.756 -28.903   2.851  1.00  0.00     0.681 A 
HETATM    6  N3  UNL     1      16.305 -27.837   2.246  1.00  0.00    -0.185 N 
ATOM      7  H3  UNL     1      16.039 -26.899   2.543  1.00  0.00     0.185 HD
HETATM    8  C10 UNL     1      17.191 -27.987   1.263  1.00  0.00     0.094 A 
HETATM    9  C11 UNL     1      17.615 -29.195   0.789  1.00  0.00    -0.001 A 
HETATM   10  C12 UNL     1      18.616 -29.136  -0.292  1.00  0.00     0.054 C 
HETATM   11  C13 UNL     1      18.406 -27.897  -1.125  1.00  0.00     0.085 C 
HETATM   12  S1  UNL     1      18.046 -26.738   0.272  1.00  0.00    -0.111 SA
ENDROOT
BRANCH   5  13
HETATM   13  N2  UNL     1      14.814 -28.772   3.896  1.00  0.00    -0.217 N 
HETATM   14  C4  UNL     1      14.075 -29.889   4.351  1.00  0.00     0.141 C 
HETATM   15  C5  UNL     1      13.730 -29.906   5.791  1.00  0.00     0.021 C 
HETATM   16  C6  UNL     1      13.790 -28.593   6.486  1.00  0.00     0.010 C 
HETATM   17  C7  UNL     1      14.852 -27.672   5.996  1.00  0.00     0.028 C 
HETATM   18  C9  UNL     1      14.620 -27.476   4.492  1.00  0.00     0.148 C 
BRANCH  17  19
HETATM   19  C8  UNL     1      14.653 -26.305   6.628  1.00  0.00     0.170 C 
BRANCH  19  20
HETATM   20  O1  UNL     1      13.973 -26.458   7.809  1.00  0.00    -0.400 OA
ATOM     21  H1  UNL     1      13.984 -27.377   8.051  1.00  0.00     0.209 HD
ENDBRANCH  19  20
ENDBRANCH  17  19
ENDBRANCH   5  13
TORSDOF 3
ENDMDL
MODEL 5
REMARK VINA RESULT: -7.317867388      1.675      2.735
REMARK  3 active torsions:
REMARK  status: ('A' for Active; 'I' for Inactive)
REMARK    1  A    between atoms: C3_5  and  N2_6 
REMARK    2  A    between atoms: C7_10  and  C8_11 
REMARK    3  A    between atoms: C8_11  and  O1_12 
ROOT
HETATM    1  C1  UNL     1      16.781 -32.043   1.769  1.00  0.00     0.069 C 
HETATM    2  C2  UNL     1      16.608 -30.582   1.765  1.00  0.00     0.032 A 
HETATM    3  N1  UNL     1      15.674 -29.984   2.484  1.00  0.00    -0.195 N 
ATOM      4  H1  UNL     1      15.065 -30.573   3.053  1.00  0.00     0.184 HD
HETATM    5  C3  UNL     1      15.469 -28.655   2.520  1.00  0.00     0.681 A 
HETATM    6  N3  UNL     1      16.286 -27.908   1.762  1.00  0.00    -0.185 N 
ATOM      7  H3  UNL     1      16.174 -26.894   1.751  1.00  0.00     0.185 HD
HETATM    8  C10 UNL     1      17.241 -28.469   1.022  1.00  0.00     0.094 A 
HETATM    9  C11 UNL     1      17.476 -29.813   0.962  1.00  0.00    -0.001 A 
HETATM   10  C12 UNL     1      18.595 -30.222   0.094  1.00  0.00     0.054 C 
HETATM   11  C13 UNL     1      18.736 -29.260  -1.058  1.00  0.00     0.085 C 
HETATM   12  S1  UNL     1      18.439 -27.705  -0.098  1.00  0.00    -0.111 SA
ENDROOT
BRANCH   5  13
HETATM   13  N2  UNL     1      14.449 -28.085   3.315  1.00  0.00    -0.217 N 
HETATM   14  C4  UNL     1      13.113 -28.539   3.215  1.00  0.00     0.141 C 
HETATM   15  C5  UNL     1      12.311 -28.500   4.460  1.00  0.00     0.021 C 
HETATM   16  C6  UNL     1      12.821 -27.603   5.530  1.00  0.00     0.010 C 
HETATM   17  C7  UNL     1      14.304 -27.499   5.607  1.00  0.00     0.028 C 
HETATM   18  C9  UNL     1      14.796 -27.030   4.231  1.00  0.00     0.148 C 
BRANCH  17  19
HETATM   19  C8  UNL     1      14.674 -26.390   6.578  1.00  0.00     0.170 C 
BRANCH  19  20
HETATM   20  O1  UNL     1      13.939 -26.545   7.727  1.00  0.00    -0.400 OA
ATOM     21  H1  UNL     1      14.461 -27.022   8.361  1.00  0.00     0.209 HD
ENDBRANCH  19  20
ENDBRANCH  17  19
ENDBRANCH   5  13
TORSDOF 3
ENDMDL
