MODEL 1
REMARK VINA RESULT: -7.960527611      0.000      0.000
REMARK  3 active torsions:
REMARK  status: ('A' for Active; 'I' for Inactive)
REMARK    1  A    between atoms: C6_6  and  N1_7 
REMARK    2  A    between atoms: C9_11  and  C10_12 
REMARK    3  A    between atoms: N3_13  and  O1_15 
ROOT
HETATM    1  N1  UNL     1      15.092 -28.500   1.921  1.00  0.00    -0.380 N 
HETATM    2  C7  UNL     1      13.757 -28.753   2.307  1.00  0.00     0.143 C 
HETATM    3  C8  UNL     1      13.523 -28.748   3.797  1.00  0.00     0.151 C 
HETATM    4  N2  UNL     1      14.167 -27.611   4.427  1.00  0.00    -0.328 N 
HETATM    5  C9  UNL     1      13.738 -26.832   5.446  1.00  0.00     0.069 A 
HETATM    6  C11 UNL     1      14.754 -25.905   5.622  1.00  0.00     0.121 A 
HETATM    7  N4  UNL     1      15.715 -26.179   4.712  1.00  0.00    -0.349 N 
ATOM      8  H4  UNL     1      16.586 -25.659   4.605  1.00  0.00     0.167 HD
HETATM    9  C12 UNL     1      15.349 -27.250   3.961  1.00  0.00     0.123 A 
HETATM   10  C13 UNL     1      15.989 -27.959   2.862  1.00  0.00     0.135 C 
ENDROOT
BRANCH   1  11
HETATM   11  C6  UNL     1      15.661 -29.468   1.025  1.00  0.00     0.084 C 
HETATM   12  C5  UNL     1      17.027 -29.845   1.578  1.00  0.00     0.026 C 
HETATM   13  C4  UNL     1      17.465 -31.001   0.667  1.00  0.00     0.011 C 
HETATM   14  C2  UNL     1      17.867 -30.360  -0.633  1.00  0.00    -0.048 C 
HETATM   15  C1  UNL     1      19.288 -29.822  -0.430  1.00  0.00     0.015 C 
HETATM   16  C3  UNL     1      18.006 -31.505  -1.639  1.00  0.00     0.015 C 
HETATM   17  C15 UNL     1      16.975 -29.293  -1.125  1.00  0.00     0.011 C 
HETATM   18  C14 UNL     1      15.736 -29.008  -0.395  1.00  0.00     0.026 C 
ENDBRANCH   1  11
BRANCH   5  19
HETATM   19  C10 UNL     1      12.494 -26.957   6.177  1.00  0.00     0.144 C 
HETATM   20  N3  UNL     1      12.212 -27.895   6.975  1.00  0.00    -0.278 N 
ATOM     21  H3  UNL     1      11.293 -27.839   7.414  1.00  0.00     0.193 HD
BRANCH  20  22
HETATM   22  O1  UNL     1      12.959 -28.961   7.324  1.00  0.00    -0.290 OA
ATOM     23  H1  UNL     1      13.567 -29.462   6.793  1.00  0.00     0.244 HD
ENDBRANCH  20  22
ENDBRANCH   5  19
TORSDOF 3
ENDMDL
MODEL 2
REMARK VINA RESULT: -7.929367488      3.450      7.230
REMARK  3 active torsions:
REMARK  status: ('A' for Active; 'I' for Inactive)
REMARK    1  A    between atoms: C6_6  and  N1_7 
REMARK    2  A    between atoms: C9_11  and  C10_12 
REMARK    3  A    between atoms: N3_13  and  O1_15 
ROOT
HETATM    1  N1  UNL     1      14.565 -30.889   3.162  1.00  0.00    -0.380 N 
HETATM    2  C7  UNL     1      14.780 -30.347   1.876  1.00  0.00     0.143 C 
HETATM    3  C8  UNL     1      16.164 -30.578   1.322  1.00  0.00     0.151 C 
HETATM    4  N2  UNL     1      16.588 -31.951   1.517  1.00  0.00    -0.328 N 
HETATM    5  C9  UNL     1      17.298 -32.759   0.698  1.00  0.00     0.069 A 
HETATM    6  C11 UNL     1      17.401 -33.952   1.396  1.00  0.00     0.121 A 
HETATM    7  N4  UNL     1      16.756 -33.790   2.573  1.00  0.00    -0.349 N 
ATOM      8  H4  UNL     1      16.666 -34.506   3.295  1.00  0.00     0.167 HD
HETATM    9  C12 UNL     1      16.246 -32.535   2.651  1.00  0.00     0.123 A 
HETATM   10  C13 UNL     1      15.475 -31.835   3.671  1.00  0.00     0.135 C 
ENDROOT
BRANCH   1  11
HETATM   11  C6  UNL     1      14.042 -29.966   4.132  1.00  0.00     0.084 C 
HETATM   12  C5  UNL     1      13.694 -28.685   3.391  1.00  0.00     0.026 C 
HETATM   13  C4  UNL     1      12.984 -27.845   4.464  1.00  0.00     0.011 C 
HETATM   14  C2  UNL     1      14.074 -27.345   5.372  1.00  0.00    -0.048 C 
HETATM   15  C1  UNL     1      14.703 -26.137   4.670  1.00  0.00     0.015 C 
HETATM   16  C3  UNL     1      13.364 -26.776   6.602  1.00  0.00     0.015 C 
HETATM   17  C15 UNL     1      15.110 -28.331   5.733  1.00  0.00     0.011 C 
HETATM   18  C14 UNL     1      14.959 -29.720   5.286  1.00  0.00     0.026 C 
ENDBRANCH   1  11
BRANCH   5  19
HETATM   19  C10 UNL     1      17.826 -32.432  -0.611  1.00  0.00     0.144 C 
HETATM   20  N3  UNL     1      18.830 -31.696  -0.825  1.00  0.00    -0.278 N 
ATOM     21  H3  UNL     1      19.078 -31.563  -1.805  1.00  0.00     0.193 HD
BRANCH  20  22
HETATM   22  O1  UNL     1      19.619 -31.062   0.065  1.00  0.00    -0.290 OA
ATOM     23  H1  UNL     1      20.544 -30.857   0.001  1.00  0.00     0.244 HD
ENDBRANCH  20  22
ENDBRANCH   5  19
TORSDOF 3
ENDMDL
MODEL 3
REMARK VINA RESULT: -7.764669618      0.875      1.438
REMARK  3 active torsions:
REMARK  status: ('A' for Active; 'I' for Inactive)
REMARK    1  A    between atoms: C6_6  and  N1_7 
REMARK    2  A    between atoms: C9_11  and  C10_12 
REMARK    3  A    between atoms: N3_13  and  O1_15 
ROOT
HETATM    1  N1  UNL     1      15.089 -28.531   1.869  1.00  0.00    -0.380 N 
HETATM    2  C7  UNL     1      13.758 -28.789   2.266  1.00  0.00     0.143 C 
HETATM    3  C8  UNL     1      13.537 -28.786   3.758  1.00  0.00     0.151 C 
HETATM    4  N2  UNL     1      14.184 -27.648   4.385  1.00  0.00    -0.328 N 
HETATM    5  C9  UNL     1      13.762 -26.872   5.408  1.00  0.00     0.069 A 
HETATM    6  C11 UNL     1      14.777 -25.944   5.577  1.00  0.00     0.121 A 
HETATM    7  N4  UNL     1      15.731 -26.214   4.659  1.00  0.00    -0.349 N 
ATOM      8  H4  UNL     1      16.600 -25.692   4.545  1.00  0.00     0.167 HD
HETATM    9  C12 UNL     1      15.361 -27.284   3.910  1.00  0.00     0.123 A 
HETATM   10  C13 UNL     1      15.993 -27.991   2.803  1.00  0.00     0.135 C 
ENDROOT
BRANCH   1  11
HETATM   11  C6  UNL     1      15.653 -29.498   0.967  1.00  0.00     0.084 C 
HETATM   12  C5  UNL     1      15.236 -30.874   1.464  1.00  0.00     0.026 C 
HETATM   13  C4  UNL     1      15.724 -31.809   0.348  1.00  0.00     0.011 C 
HETATM   14  C2  UNL     1      17.216 -31.899   0.520  1.00  0.00    -0.048 C 
HETATM   15  C1  UNL     1      17.462 -32.913   1.643  1.00  0.00     0.015 C 
HETATM   16  C3  UNL     1      17.744 -32.566  -0.752  1.00  0.00     0.015 C 
HETATM   17  C15 UNL     1      17.906 -30.628   0.811  1.00  0.00     0.011 C 
HETATM   18  C14 UNL     1      17.134 -29.381   0.806  1.00  0.00     0.026 C 
ENDBRANCH   1  11
BRANCH   5  19
HETATM   19  C10 UNL     1      12.524 -27.000   6.150  1.00  0.00     0.144 C 
HETATM   20  N3  UNL     1      12.261 -27.926   6.968  1.00  0.00    -0.278 N 
ATOM     21  H3  UNL     1      11.345 -27.875   7.412  1.00  0.00     0.193 HD
BRANCH  20  22
HETATM   22  O1  UNL     1      13.026 -28.974   7.333  1.00  0.00    -0.290 OA
ATOM     23  H1  UNL     1      13.309 -29.230   8.203  1.00  0.00     0.244 HD
ENDBRANCH  20  22
ENDBRANCH   5  19
TORSDOF 3
ENDMDL
MODEL 4
REMARK VINA RESULT: -7.744821108      3.604      7.398
REMARK  3 active torsions:
REMARK  status: ('A' for Active; 'I' for Inactive)
REMARK    1  A    between atoms: C6_6  and  N1_7 
REMARK    2  A    between atoms: C9_11  and  C10_12 
REMARK    3  A    between atoms: N3_13  and  O1_15 
ROOT
HETATM    1  N1  UNL     1      15.637 -29.983   3.383  1.00  0.00    -0.380 N 
HETATM    2  C7  UNL     1      15.592 -31.387   3.532  1.00  0.00     0.143 C 
HETATM    3  C8  UNL     1      15.726 -32.159   2.244  1.00  0.00     0.151 C 
HETATM    4  N2  UNL     1      16.804 -31.636   1.426  1.00  0.00    -0.328 N 
HETATM    5  C9  UNL     1      17.698 -32.294   0.654  1.00  0.00     0.069 A 
HETATM    6  C11 UNL     1      18.488 -31.292   0.112  1.00  0.00     0.121 A 
HETATM    7  N4  UNL     1      18.028 -30.112   0.585  1.00  0.00    -0.349 N 
ATOM      8  H4  UNL     1      18.418 -29.197   0.357  1.00  0.00     0.167 HD
HETATM    9  C12 UNL     1      16.970 -30.326   1.409  1.00  0.00     0.123 A 
HETATM   10  C13 UNL     1      16.110 -29.435   2.176  1.00  0.00     0.135 C 
ENDROOT
BRANCH   1  11
HETATM   11  C6  UNL     1      14.543 -29.272   3.986  1.00  0.00     0.084 C 
HETATM   12  C5  UNL     1      14.935 -27.803   4.037  1.00  0.00     0.026 C 
HETATM   13  C4  UNL     1      13.649 -27.116   4.519  1.00  0.00     0.011 C 
HETATM   14  C2  UNL     1      13.554 -27.422   5.989  1.00  0.00    -0.048 C 
HETATM   15  C1  UNL     1      14.489 -26.436   6.698  1.00  0.00     0.015 C 
HETATM   16  C3  UNL     1      12.140 -27.015   6.410  1.00  0.00     0.015 C 
HETATM   17  C15 UNL     1      13.872 -28.809   6.377  1.00  0.00     0.011 C 
HETATM   18  C14 UNL     1      14.148 -29.797   5.328  1.00  0.00     0.026 C 
ENDBRANCH   1  11
BRANCH   5  19
HETATM   19  C10 UNL     1      17.792 -33.725   0.451  1.00  0.00     0.144 C 
HETATM   20  N3  UNL     1      18.306 -34.283  -0.560  1.00  0.00    -0.278 N 
ATOM     21  H3  UNL     1      18.296 -35.302  -0.553  1.00  0.00     0.193 HD
BRANCH  20  22
HETATM   22  O1  UNL     1      18.864 -33.714  -1.645  1.00  0.00    -0.290 OA
ATOM     23  H1  UNL     1      19.525 -34.067  -2.229  1.00  0.00     0.244 HD
ENDBRANCH  20  22
ENDBRANCH   5  19
TORSDOF 3
ENDMDL
MODEL 5
REMARK VINA RESULT: -7.613879235      3.362      7.243
REMARK  3 active torsions:
REMARK  status: ('A' for Active; 'I' for Inactive)
REMARK    1  A    between atoms: C6_6  and  N1_7 
REMARK    2  A    between atoms: C9_11  and  C10_12 
REMARK    3  A    between atoms: N3_13  and  O1_15 
ROOT
HETATM    1  N1  UNL     1      16.099 -28.618   2.837  1.00  0.00    -0.380 N 
HETATM    2  C7  UNL     1      16.244 -29.959   2.417  1.00  0.00     0.143 C 
HETATM    3  C8  UNL     1      16.465 -30.131   0.935  1.00  0.00     0.151 C 
HETATM    4  N2  UNL     1      17.453 -29.194   0.436  1.00  0.00    -0.328 N 
HETATM    5  C9  UNL     1      18.417 -29.371  -0.495  1.00  0.00     0.069 A 
HETATM    6  C11 UNL     1      19.060 -28.145  -0.563  1.00  0.00     0.121 A 
HETATM    7  N4  UNL     1      18.452 -27.319   0.318  1.00  0.00    -0.349 N 
ATOM      8  H4  UNL     1      18.713 -26.347   0.487  1.00  0.00     0.167 HD
HETATM    9  C12 UNL     1      17.443 -27.976   0.946  1.00  0.00     0.123 A 
HETATM   10  C13 UNL     1      16.481 -27.579   1.966  1.00  0.00     0.135 C 
ENDROOT
BRANCH   1  11
HETATM   11  C6  UNL     1      14.928 -28.350   3.625  1.00  0.00     0.084 C 
HETATM   12  C5  UNL     1      15.013 -26.901   4.079  1.00  0.00     0.026 C 
HETATM   13  C4  UNL     1      13.650 -26.665   4.746  1.00  0.00     0.011 C 
HETATM   14  C2  UNL     1      13.723 -27.369   6.074  1.00  0.00    -0.048 C 
HETATM   15  C1  UNL     1      14.483 -26.432   7.019  1.00  0.00     0.015 C 
HETATM   16  C3  UNL     1      12.289 -27.407   6.607  1.00  0.00     0.015 C 
HETATM   17  C15 UNL     1      14.347 -28.706   6.058  1.00  0.00     0.011 C 
HETATM   18  C14 UNL     1      14.745 -29.290   4.773  1.00  0.00     0.026 C 
ENDBRANCH   1  11
BRANCH   5  19
HETATM   19  C10 UNL     1      18.698 -30.579  -1.243  1.00  0.00     0.144 C 
HETATM   20  N3  UNL     1      19.841 -31.101  -1.377  1.00  0.00    -0.278 N 
ATOM     21  H3  UNL     1      19.873 -31.954  -1.935  1.00  0.00     0.193 HD
BRANCH  20  22
HETATM   22  O1  UNL     1      21.023 -30.683  -0.885  1.00  0.00    -0.290 OA
ATOM     23  H1  UNL     1      21.795 -31.195  -0.674  1.00  0.00     0.244 HD
ENDBRANCH  20  22
ENDBRANCH   5  19
TORSDOF 3
ENDMDL
