MODEL 1
REMARK VINA RESULT: -8.766224998      0.000      0.000
REMARK  21 active torsions:
REMARK  status: ('A' for Active; 'I' for Inactive)
REMARK    1  A    between atoms: C2_2  and  O1_3 
REMARK    2  A    between atoms: O1_3  and  C3_4 
REMARK    3  A    between atoms: C6_9  and  O2_10 
REMARK    4  A    between atoms: O2_10  and  C7_11 
REMARK    5  A    between atoms: C9_13  and  O3_14 
REMARK    6  A    between atoms: O3_14  and  C10_15 
REMARK    7  A    between atoms: C11_17  and  C12_18 
REMARK    8  A    between atoms: C12_18  and  N1_19 
REMARK    9  A    between atoms: C13_23  and  O5_24 
REMARK   10  A    between atoms: O5_24  and  C14_25 
REMARK   11  A    between atoms: C15_26  and  O6_27 
REMARK   12  A    between atoms: C16_29  and  O7_30 
REMARK   13  A    between atoms: C17_32  and  N2_33 
REMARK   14  A    between atoms: C18_37  and  O8_38 
REMARK   15  A    between atoms: C19_40  and  O9_41 
REMARK   16  A    between atoms: C20_43  and  C21_44 
REMARK   17  A    between atoms: C21_44  and  N3_45 
REMARK   18  A    between atoms: C22_50  and  N4_51 
REMARK   19  A    between atoms: C24_56  and  N5_57 
REMARK   20  A    between atoms: C25_62  and  C26_63 
REMARK   21  A    between atoms: C26_63  and  O12_64 
ROOT
HETATM    1  C10 UNL     1       4.313 -15.335  -5.796  1.00  0.00     0.414 C 
HETATM    2  O4  UNL     1       4.141 -14.205  -5.007  1.00  0.00    -0.329 OA
HETATM    3  C11 UNL     1       2.832 -13.844  -4.817  1.00  0.00     0.183 C 
HETATM    4  C13 UNL     1       2.063 -15.029  -4.198  1.00  0.00     0.183 C 
HETATM    5  C20 UNL     1       2.895 -16.278  -4.196  1.00  0.00     0.183 C 
HETATM    6  O10 UNL     1       3.528 -16.382  -5.429  1.00  0.00    -0.329 OA
ENDROOT
BRANCH   1   7
HETATM    7  O3  UNL     1       5.660 -15.715  -5.718  1.00  0.00    -0.331 OA
BRANCH   7   8
HETATM    8  C9  UNL     1       6.554 -14.675  -5.900  1.00  0.00     0.160 C 
HETATM    9  C8  UNL     1       6.809 -14.360  -7.357  1.00  0.00     0.068 C 
HETATM   10  C7  UNL     1       7.908 -13.358  -7.536  1.00  0.00     0.157 C 
HETATM   11  C24 UNL     1       9.144 -13.722  -6.734  1.00  0.00     0.214 C 
HETATM   12  C23 UNL     1       8.818 -13.974  -5.297  1.00  0.00     0.070 C 
HETATM   13  C22 UNL     1       7.830 -15.106  -5.213  1.00  0.00     0.214 C 
BRANCH  10  14
HETATM   14  O2  UNL     1       8.181 -13.087  -8.862  1.00  0.00    -0.348 OA
BRANCH  14  15
HETATM   15  C6  UNL     1       9.415 -13.597  -9.256  1.00  0.00     0.333 C 
HETATM   16  C5  UNL     1      10.274 -12.485  -9.734  1.00  0.00     0.294 C 
HETATM   17  C4  UNL     1      11.238 -12.855 -10.802  1.00  0.00     0.119 C 
HETATM   18  F1  UNL     1      10.937 -11.909  -8.651  1.00  0.00    -0.201 F 
HETATM   19  F2  UNL     1       9.469 -11.441 -10.230  1.00  0.00    -0.201 F 
HETATM   20  C3  UNL     1      11.537 -14.345 -10.640  1.00  0.00     0.158 C 
HETATM   21  C25 UNL     1      10.267 -15.097 -10.815  1.00  0.00     0.177 C 
HETATM   22  O11 UNL     1       9.189 -14.610 -10.140  1.00  0.00    -0.345 OA
BRANCH  20  23
HETATM   23  O1  UNL     1      12.126 -14.587  -9.426  1.00  0.00    -0.383 OA
BRANCH  23  24
HETATM   24  C2  UNL     1      13.509 -14.485  -9.421  1.00  0.00     0.163 C 
HETATM   25  C1  UNL     1      14.115 -15.844  -9.548  1.00  0.00     0.033 C 
ENDBRANCH  23  24
ENDBRANCH  20  23
BRANCH  21  26
HETATM   26  C26 UNL     1       9.948 -15.188 -12.292  1.00  0.00     0.198 C 
BRANCH  26  27
HETATM   27  O12 UNL     1       8.607 -14.808 -12.469  1.00  0.00    -0.398 OA
ATOM     28  H12 UNL     1       8.422 -14.813 -13.401  1.00  0.00     0.209 HD
ENDBRANCH  26  27
ENDBRANCH  21  26
ENDBRANCH  14  15
ENDBRANCH  10  14
BRANCH  11  29
HETATM   29  N5  UNL     1       9.741 -14.894  -7.309  1.00  0.00    -0.072 N 
ATOM     30  H53 UNL     1       9.091 -15.413  -7.899  1.00  0.00     0.274 HD
ATOM     31  H52 UNL     1      10.432 -14.667  -8.026  1.00  0.00     0.274 HD
ATOM     32  H51 UNL     1      10.131 -15.466  -6.560  1.00  0.00     0.274 HD
ENDBRANCH  11  29
BRANCH  13  33
HETATM   33  N4  UNL     1       7.504 -15.306  -3.802  1.00  0.00    -0.072 N 
ATOM     34  H43 UNL     1       6.632 -14.854  -3.523  1.00  0.00     0.274 HD
ATOM     35  H42 UNL     1       7.227 -16.263  -3.584  1.00  0.00     0.274 HD
ATOM     36  H41 UNL     1       8.311 -14.988  -3.265  1.00  0.00     0.274 HD
ENDBRANCH  13  33
ENDBRANCH   7   8
ENDBRANCH   1   7
BRANCH   3  37
HETATM   37  C12 UNL     1       2.255 -13.463  -6.161  1.00  0.00     0.264 C 
BRANCH  37  38
HETATM   38  N1  UNL     1       1.626 -12.157  -6.174  1.00  0.00    -0.077 N 
ATOM     39  H13 UNL     1       0.760 -12.181  -6.711  1.00  0.00     0.274 HD
ATOM     40  H12 UNL     1       1.250 -11.929  -5.254  1.00  0.00     0.274 HD
ATOM     41  H11 UNL     1       2.237 -11.412  -6.509  1.00  0.00     0.274 HD
ENDBRANCH  37  38
ENDBRANCH   3  37
BRANCH   5  42
HETATM   42  C21 UNL     1       3.767 -16.624  -3.099  1.00  0.00     0.264 C 
BRANCH  42  43
HETATM   43  N3  UNL     1       4.172 -15.699  -2.114  1.00  0.00    -0.077 N 
ATOM     44  H33 UNL     1       4.653 -16.223  -1.383  1.00  0.00     0.274 HD
ATOM     45  H32 UNL     1       4.925 -15.139  -2.513  1.00  0.00     0.274 HD
ATOM     46  H31 UNL     1       3.528 -15.056  -1.653  1.00  0.00     0.274 HD
ENDBRANCH  42  43
ENDBRANCH   5  42
BRANCH   4  47
HETATM   47  O5  UNL     1       1.225 -14.771  -3.298  1.00  0.00    -0.370 OA
BRANCH  47  48
HETATM   48  C14 UNL     1       0.457 -14.424  -2.399  1.00  0.00     0.184 C 
HETATM   49  C15 UNL     1       0.952 -13.093  -1.768  1.00  0.00     0.180 C 
HETATM   50  C16 UNL     1       0.571 -12.958  -0.327  1.00  0.00     0.182 C 
HETATM   51  C17 UNL     1       1.155 -14.022   0.549  1.00  0.00     0.245 C 
HETATM   52  C18 UNL     1       1.368 -15.314  -0.213  1.00  0.00     0.182 C 
HETATM   53  C19 UNL     1       0.327 -15.473  -1.277  1.00  0.00     0.180 C 
BRANCH  49  54
HETATM   54  O6  UNL     1       0.359 -12.001  -2.425  1.00  0.00    -0.390 OA
ATOM     55  H6  UNL     1      -0.170 -11.502  -1.812  1.00  0.00     0.210 HD
ENDBRANCH  49  54
BRANCH  50  56
HETATM   56  O7  UNL     1      -0.790 -12.740  -0.145  1.00  0.00    -0.391 OA
ATOM     57  H7  UNL     1      -0.974 -12.003   0.425  1.00  0.00     0.210 HD
ENDBRANCH  50  56
BRANCH  51  58
HETATM   58  N2  UNL     1       2.479 -13.609   1.006  1.00  0.00    -0.070 N 
ATOM     59  H23 UNL     1       3.067 -13.283   0.239  1.00  0.00     0.274 HD
ATOM     60  H22 UNL     1       2.448 -12.743   1.544  1.00  0.00     0.274 HD
ATOM     61  H21 UNL     1       2.914 -14.370   1.528  1.00  0.00     0.274 HD
ENDBRANCH  51  58
BRANCH  52  62
HETATM   62  O8  UNL     1       1.235 -16.391   0.655  1.00  0.00    -0.391 OA
ATOM     63  H8  UNL     1       1.451 -17.195   0.198  1.00  0.00     0.210 HD
ENDBRANCH  52  62
BRANCH  53  64
HETATM   64  O9  UNL     1      -0.964 -15.539  -0.766  1.00  0.00    -0.390 OA
ATOM     65  H9  UNL     1      -1.623 -15.435  -1.441  1.00  0.00     0.210 HD
ENDBRANCH  53  64
ENDBRANCH  47  48
ENDBRANCH   4  47
TORSDOF 21
ENDMDL
MODEL 2
REMARK VINA RESULT: -8.227416635      3.638     10.300
REMARK  21 active torsions:
REMARK  status: ('A' for Active; 'I' for Inactive)
REMARK    1  A    between atoms: C2_2  and  O1_3 
REMARK    2  A    between atoms: O1_3  and  C3_4 
REMARK    3  A    between atoms: C6_9  and  O2_10 
REMARK    4  A    between atoms: O2_10  and  C7_11 
REMARK    5  A    between atoms: C9_13  and  O3_14 
REMARK    6  A    between atoms: O3_14  and  C10_15 
REMARK    7  A    between atoms: C11_17  and  C12_18 
REMARK    8  A    between atoms: C12_18  and  N1_19 
REMARK    9  A    between atoms: C13_23  and  O5_24 
REMARK   10  A    between atoms: O5_24  and  C14_25 
REMARK   11  A    between atoms: C15_26  and  O6_27 
REMARK   12  A    between atoms: C16_29  and  O7_30 
REMARK   13  A    between atoms: C17_32  and  N2_33 
REMARK   14  A    between atoms: C18_37  and  O8_38 
REMARK   15  A    between atoms: C19_40  and  O9_41 
REMARK   16  A    between atoms: C20_43  and  C21_44 
REMARK   17  A    between atoms: C21_44  and  N3_45 
REMARK   18  A    between atoms: C22_50  and  N4_51 
REMARK   19  A    between atoms: C24_56  and  N5_57 
REMARK   20  A    between atoms: C25_62  and  C26_63 
REMARK   21  A    between atoms: C26_63  and  O12_64 
ROOT
HETATM    1  C10 UNL     1       8.026 -13.956  -5.428  1.00  0.00     0.414 C 
HETATM    2  O4  UNL     1       8.884 -14.862  -6.037  1.00  0.00    -0.329 OA
HETATM    3  C11 UNL     1       8.630 -15.071  -7.368  1.00  0.00     0.183 C 
HETATM    4  C13 UNL     1       8.687 -13.723  -8.114  1.00  0.00     0.183 C 
HETATM    5  C20 UNL     1       8.774 -12.572  -7.155  1.00  0.00     0.183 C 
HETATM    6  O10 UNL     1       7.873 -12.797  -6.120  1.00  0.00    -0.329 OA
ENDROOT
BRANCH   1   7
HETATM    7  O3  UNL     1       8.535 -13.672  -4.152  1.00  0.00    -0.331 OA
BRANCH   7   8
HETATM    8  C9  UNL     1       8.344 -14.682  -3.227  1.00  0.00     0.160 C 
HETATM    9  C8  UNL     1       6.960 -15.287  -3.287  1.00  0.00     0.068 C 
HETATM   10  C7  UNL     1       6.714 -16.250  -2.167  1.00  0.00     0.157 C 
HETATM   11  C24 UNL     1       7.098 -15.665  -0.820  1.00  0.00     0.214 C 
HETATM   12  C23 UNL     1       8.494 -15.129  -0.828  1.00  0.00     0.070 C 
HETATM   13  C22 UNL     1       8.597 -14.054  -1.875  1.00  0.00     0.214 C 
BRANCH  10  14
HETATM   14  O2  UNL     1       5.440 -16.785  -2.183  1.00  0.00    -0.348 OA
BRANCH  14  15
HETATM   15  C6  UNL     1       4.625 -16.163  -3.126  1.00  0.00     0.333 C 
HETATM   16  C5  UNL     1       3.223 -16.164  -2.637  1.00  0.00     0.294 C 
HETATM   17  C4  UNL     1       2.191 -16.239  -3.703  1.00  0.00     0.119 C 
HETATM   18  F1  UNL     1       3.012 -15.051  -1.825  1.00  0.00    -0.201 F 
HETATM   19  F2  UNL     1       3.022 -17.257  -1.771  1.00  0.00    -0.201 F 
HETATM   20  C3  UNL     1       2.804 -15.636  -4.965  1.00  0.00     0.158 C 
HETATM   21  C25 UNL     1       3.989 -16.451  -5.344  1.00  0.00     0.177 C 
HETATM   22  O11 UNL     1       4.846 -16.761  -4.332  1.00  0.00    -0.345 OA
BRANCH  20  23
HETATM   23  O1  UNL     1       3.119 -14.318  -4.764  1.00  0.00    -0.383 OA
BRANCH  23  24
HETATM   24  C2  UNL     1       2.078 -13.431  -4.991  1.00  0.00     0.163 C 
HETATM   25  C1  UNL     1       1.771 -13.377  -6.452  1.00  0.00     0.033 C 
ENDBRANCH  23  24
ENDBRANCH  20  23
BRANCH  21  26
HETATM   26  C26 UNL     1       3.517 -17.720  -6.021  1.00  0.00     0.198 C 
BRANCH  26  27
HETATM   27  O12 UNL     1       3.601 -17.526  -7.411  1.00  0.00    -0.398 OA
ATOM     28  H12 UNL     1       2.771 -17.172  -7.707  1.00  0.00     0.209 HD
ENDBRANCH  26  27
ENDBRANCH  21  26
ENDBRANCH  14  15
ENDBRANCH  10  14
BRANCH  11  29
HETATM   29  N5  UNL     1       6.176 -14.616  -0.491  1.00  0.00    -0.072 N 
ATOM     30  H53 UNL     1       5.354 -14.961   0.006  1.00  0.00     0.274 HD
ATOM     31  H52 UNL     1       6.533 -13.999   0.239  1.00  0.00     0.274 HD
ATOM     32  H51 UNL     1       5.933 -14.111  -1.343  1.00  0.00     0.274 HD
ENDBRANCH  11  29
BRANCH  13  33
HETATM   33  N4  UNL     1       9.978 -13.574  -1.884  1.00  0.00    -0.072 N 
ATOM     34  H43 UNL     1      10.160 -12.862  -1.177  1.00  0.00     0.274 HD
ATOM     35  H42 UNL     1      10.646 -14.266  -1.544  1.00  0.00     0.274 HD
ATOM     36  H41 UNL     1      10.174 -13.258  -2.833  1.00  0.00     0.274 HD
ENDBRANCH  13  33
ENDBRANCH   7   8
ENDBRANCH   1   7
BRANCH   3  37
HETATM   37  C12 UNL     1       7.262 -15.701  -7.487  1.00  0.00     0.264 C 
BRANCH  37  38
HETATM   38  N1  UNL     1       7.235 -17.105  -7.125  1.00  0.00    -0.077 N 
ATOM     39  H13 UNL     1       6.650 -17.632  -7.772  1.00  0.00     0.274 HD
ATOM     40  H12 UNL     1       8.137 -17.543  -7.313  1.00  0.00     0.274 HD
ATOM     41  H11 UNL     1       6.946 -17.273  -6.161  1.00  0.00     0.274 HD
ENDBRANCH  37  38
ENDBRANCH   3  37
BRANCH   5  42
HETATM   42  C21 UNL     1      10.036 -12.053  -6.682  1.00  0.00     0.264 C 
BRANCH  42  43
HETATM   43  N3  UNL     1      11.215 -12.826  -6.627  1.00  0.00    -0.077 N 
ATOM     44  H33 UNL     1      10.982 -13.761  -6.959  1.00  0.00     0.274 HD
ATOM     45  H32 UNL     1      11.838 -12.483  -7.359  1.00  0.00     0.274 HD
ATOM     46  H31 UNL     1      11.773 -12.934  -5.780  1.00  0.00     0.274 HD
ENDBRANCH  42  43
ENDBRANCH   5  42
BRANCH   4  47
HETATM   47  O5  UNL     1       9.236 -13.706  -9.244  1.00  0.00    -0.370 OA
BRANCH  47  48
HETATM   48  C14 UNL     1       9.866 -13.727 -10.303  1.00  0.00     0.184 C 
HETATM   49  C15 UNL     1      10.030 -15.193 -10.789  1.00  0.00     0.180 C 
HETATM   50  C16 UNL     1      11.279 -15.404 -11.586  1.00  0.00     0.182 C 
HETATM   51  C17 UNL     1      12.533 -15.128 -10.817  1.00  0.00     0.245 C 
HETATM   52  C18 UNL     1      12.309 -14.080  -9.746  1.00  0.00     0.182 C 
HETATM   53  C19 UNL     1      11.268 -13.097 -10.184  1.00  0.00     0.180 C 
BRANCH  49  54
HETATM   54  O6  UNL     1       8.968 -15.536 -11.645  1.00  0.00    -0.390 OA
ATOM     55  H6  UNL     1       9.306 -15.787 -12.497  1.00  0.00     0.210 HD
ENDBRANCH  49  54
BRANCH  50  56
HETATM   56  O7  UNL     1      11.227 -14.810 -12.842  1.00  0.00    -0.391 OA
ATOM     57  H7  UNL     1      11.305 -15.436 -13.551  1.00  0.00     0.210 HD
ENDBRANCH  50  56
BRANCH  51  58
HETATM   58  N2  UNL     1      12.949 -16.335 -10.108  1.00  0.00    -0.070 N 
ATOM     59  H23 UNL     1      12.173 -16.783  -9.622  1.00  0.00     0.274 HD
ATOM     60  H22 UNL     1      13.180 -17.096 -10.747  1.00  0.00     0.274 HD
ATOM     61  H21 UNL     1      13.721 -16.114  -9.480  1.00  0.00     0.274 HD
ENDBRANCH  51  58
BRANCH  52  62
HETATM   62  O8  UNL     1      13.485 -13.368  -9.541  1.00  0.00    -0.391 OA
ATOM     63  H8  UNL     1      13.718 -13.400  -8.621  1.00  0.00     0.210 HD
ENDBRANCH  52  62
BRANCH  53  64
HETATM   64  O9  UNL     1      11.630 -12.400 -11.331  1.00  0.00    -0.390 OA
ATOM     65  H9  UNL     1      11.564 -12.936 -12.112  1.00  0.00     0.210 HD
ENDBRANCH  53  64
ENDBRANCH  47  48
ENDBRANCH   4  47
TORSDOF 21
ENDMDL
MODEL 3
REMARK VINA RESULT: -8.220090093      3.867     11.125
REMARK  21 active torsions:
REMARK  status: ('A' for Active; 'I' for Inactive)
REMARK    1  A    between atoms: C2_2  and  O1_3 
REMARK    2  A    between atoms: O1_3  and  C3_4 
REMARK    3  A    between atoms: C6_9  and  O2_10 
REMARK    4  A    between atoms: O2_10  and  C7_11 
REMARK    5  A    between atoms: C9_13  and  O3_14 
REMARK    6  A    between atoms: O3_14  and  C10_15 
REMARK    7  A    between atoms: C11_17  and  C12_18 
REMARK    8  A    between atoms: C12_18  and  N1_19 
REMARK    9  A    between atoms: C13_23  and  O5_24 
REMARK   10  A    between atoms: O5_24  and  C14_25 
REMARK   11  A    between atoms: C15_26  and  O6_27 
REMARK   12  A    between atoms: C16_29  and  O7_30 
REMARK   13  A    between atoms: C17_32  and  N2_33 
REMARK   14  A    between atoms: C18_37  and  O8_38 
REMARK   15  A    between atoms: C19_40  and  O9_41 
REMARK   16  A    between atoms: C20_43  and  C21_44 
REMARK   17  A    between atoms: C21_44  and  N3_45 
REMARK   18  A    between atoms: C22_50  and  N4_51 
REMARK   19  A    between atoms: C24_56  and  N5_57 
REMARK   20  A    between atoms: C25_62  and  C26_63 
REMARK   21  A    between atoms: C26_63  and  O12_64 
ROOT
HETATM    1  C10 UNL     1       5.510 -15.695  -4.221  1.00  0.00     0.414 C 
HETATM    2  O4  UNL     1       5.897 -14.468  -4.742  1.00  0.00    -0.329 OA
HETATM    3  C11 UNL     1       7.250 -14.246  -4.717  1.00  0.00     0.183 C 
HETATM    4  C13 UNL     1       7.965 -15.380  -5.479  1.00  0.00     0.183 C 
HETATM    5  C20 UNL     1       7.016 -16.491  -5.820  1.00  0.00     0.183 C 
HETATM    6  O10 UNL     1       6.223 -16.745  -4.707  1.00  0.00    -0.329 OA
ENDROOT
BRANCH   1   7
HETATM    7  O3  UNL     1       4.152 -15.880  -4.514  1.00  0.00    -0.331 OA
BRANCH   7   8
HETATM    8  C9  UNL     1       3.303 -15.022  -3.838  1.00  0.00     0.160 C 
HETATM    9  C8  UNL     1       2.648 -15.661  -2.635  1.00  0.00     0.068 C 
HETATM   10  C7  UNL     1       1.604 -14.779  -2.024  1.00  0.00     0.157 C 
HETATM   11  C24 UNL     1       0.640 -14.236  -3.063  1.00  0.00     0.214 C 
HETATM   12  C23 UNL     1       1.361 -13.581  -4.198  1.00  0.00     0.070 C 
HETATM   13  C22 UNL     1       2.265 -14.591  -4.849  1.00  0.00     0.214 C 
BRANCH  10  14
HETATM   14  O2  UNL     1       0.967 -15.362  -0.945  1.00  0.00    -0.348 OA
BRANCH  14  15
HETATM   15  C6  UNL     1       1.846 -15.617   0.104  1.00  0.00     0.333 C 
HETATM   16  C5  UNL     1       1.676 -17.022   0.553  1.00  0.00     0.294 C 
HETATM   17  C4  UNL     1       1.931 -17.250   1.999  1.00  0.00     0.119 C 
HETATM   18  F1  UNL     1       2.473 -17.860  -0.225  1.00  0.00    -0.201 F 
HETATM   19  F2  UNL     1       0.363 -17.453   0.278  1.00  0.00    -0.201 F 
HETATM   20  C3  UNL     1       2.908 -16.169   2.458  1.00  0.00     0.158 C 
HETATM   21  C25 UNL     1       2.267 -14.843   2.256  1.00  0.00     0.177 C 
HETATM   22  O11 UNL     1       1.663 -14.653   1.050  1.00  0.00    -0.345 OA
BRANCH  20  23
HETATM   23  O1  UNL     1       4.098 -16.283   1.789  1.00  0.00    -0.383 OA
BRANCH  23  24
HETATM   24  C2  UNL     1       4.954 -17.254   2.286  1.00  0.00     0.163 C 
HETATM   25  C1  UNL     1       6.371 -16.861   2.020  1.00  0.00     0.033 C 
ENDBRANCH  23  24
ENDBRANCH  20  23
BRANCH  21  26
HETATM   26  C26 UNL     1       1.273 -14.602   3.371  1.00  0.00     0.198 C 
BRANCH  26  27
HETATM   27  O12 UNL     1       1.050 -13.217   3.460  1.00  0.00    -0.398 OA
ATOM     28  H12 UNL     1       0.136 -13.054   3.257  1.00  0.00     0.209 HD
ENDBRANCH  26  27
ENDBRANCH  21  26
ENDBRANCH  14  15
ENDBRANCH  10  14
BRANCH  11  29
HETATM   29  N5  UNL     1      -0.165 -15.316  -3.558  1.00  0.00    -0.072 N 
ATOM     30  H53 UNL     1      -0.776 -15.028  -4.323  1.00  0.00     0.274 HD
ATOM     31  H52 UNL     1       0.384 -16.008  -4.069  1.00  0.00     0.274 HD
ATOM     32  H51 UNL     1      -0.681 -15.726  -2.780  1.00  0.00     0.274 HD
ENDBRANCH  11  29
BRANCH  13  33
HETATM   33  N4  UNL     1       2.981 -13.915  -5.929  1.00  0.00    -0.072 N 
ATOM     34  H43 UNL     1       3.950 -13.698  -5.695  1.00  0.00     0.274 HD
ATOM     35  H42 UNL     1       3.174 -14.522  -6.726  1.00  0.00     0.274 HD
ATOM     36  H41 UNL     1       2.433 -13.091  -6.176  1.00  0.00     0.274 HD
ENDBRANCH  13  33
ENDBRANCH   7   8
ENDBRANCH   1   7
BRANCH   3  37
HETATM   37  C12 UNL     1       7.687 -14.201  -3.271  1.00  0.00     0.264 C 
BRANCH  37  38
HETATM   38  N1  UNL     1       9.102 -13.937  -3.099  1.00  0.00    -0.077 N 
ATOM     39  H13 UNL     1       9.538 -13.719  -3.994  1.00  0.00     0.274 HD
ATOM     40  H12 UNL     1       9.246 -13.049  -2.617  1.00  0.00     0.274 HD
ATOM     41  H11 UNL     1       9.604 -14.689  -2.627  1.00  0.00     0.274 HD
ENDBRANCH  37  38
ENDBRANCH   3  37
BRANCH   5  42
HETATM   42  C21 UNL     1       6.259 -16.510  -7.050  1.00  0.00     0.264 C 
BRANCH  42  43
HETATM   43  N3  UNL     1       5.150 -17.357  -7.261  1.00  0.00    -0.077 N 
ATOM     44  H33 UNL     1       4.834 -17.212  -8.219  1.00  0.00     0.274 HD
ATOM     45  H32 UNL     1       5.500 -18.315  -7.289  1.00  0.00     0.274 HD
ATOM     46  H31 UNL     1       4.323 -17.353  -6.664  1.00  0.00     0.274 HD
ENDBRANCH  42  43
ENDBRANCH   5  42
BRANCH   4  47
HETATM   47  O5  UNL     1       8.932 -15.064  -6.216  1.00  0.00    -0.370 OA
BRANCH  47  48
HETATM   48  C14 UNL     1       9.941 -14.747  -6.848  1.00  0.00     0.184 C 
HETATM   49  C15 UNL     1      10.201 -13.223  -6.695  1.00  0.00     0.180 C 
HETATM   50  C16 UNL     1      10.890 -12.630  -7.884  1.00  0.00     0.182 C 
HETATM   51  C17 UNL     1      10.102 -12.746  -9.151  1.00  0.00     0.245 C 
HETATM   52  C18 UNL     1       9.207 -13.969  -9.141  1.00  0.00     0.182 C 
HETATM   53  C19 UNL     1       9.839 -15.073  -8.351  1.00  0.00     0.180 C 
BRANCH  49  54
HETATM   54  O6  UNL     1      11.054 -12.989  -5.602  1.00  0.00    -0.390 OA
ATOM     55  H6  UNL     1      11.774 -13.610  -5.615  1.00  0.00     0.210 HD
ENDBRANCH  49  54
BRANCH  50  56
HETATM   56  O7  UNL     1      12.219 -13.023  -7.991  1.00  0.00    -0.391 OA
ATOM     57  H7  UNL     1      12.423 -13.415  -8.831  1.00  0.00     0.210 HD
ENDBRANCH  50  56
BRANCH  51  58
HETATM   58  N2  UNL     1       9.205 -11.601  -9.277  1.00  0.00    -0.070 N 
ATOM     59  H23 UNL     1       9.419 -11.032 -10.096  1.00  0.00     0.274 HD
ATOM     60  H22 UNL     1       8.258 -11.879  -9.537  1.00  0.00     0.274 HD
ATOM     61  H21 UNL     1       9.222 -11.056  -8.415  1.00  0.00     0.274 HD
ENDBRANCH  51  58
BRANCH  52  62
HETATM   62  O8  UNL     1       9.045 -14.435 -10.440  1.00  0.00    -0.391 OA
ATOM     63  H8  UNL     1       8.418 -13.886 -10.897  1.00  0.00     0.210 HD
ENDBRANCH  52  62
BRANCH  53  64
HETATM   64  O9  UNL     1      11.054 -15.492  -8.882  1.00  0.00    -0.390 OA
ATOM     65  H9  UNL     1      10.940 -16.103  -9.600  1.00  0.00     0.210 HD
ENDBRANCH  53  64
ENDBRANCH  47  48
ENDBRANCH   4  47
TORSDOF 21
ENDMDL
MODEL 4
REMARK VINA RESULT: -8.185857475      2.568      3.544
REMARK  21 active torsions:
REMARK  status: ('A' for Active; 'I' for Inactive)
REMARK    1  A    between atoms: C2_2  and  O1_3 
REMARK    2  A    between atoms: O1_3  and  C3_4 
REMARK    3  A    between atoms: C6_9  and  O2_10 
REMARK    4  A    between atoms: O2_10  and  C7_11 
REMARK    5  A    between atoms: C9_13  and  O3_14 
REMARK    6  A    between atoms: O3_14  and  C10_15 
REMARK    7  A    between atoms: C11_17  and  C12_18 
REMARK    8  A    between atoms: C12_18  and  N1_19 
REMARK    9  A    between atoms: C13_23  and  O5_24 
REMARK   10  A    between atoms: O5_24  and  C14_25 
REMARK   11  A    between atoms: C15_26  and  O6_27 
REMARK   12  A    between atoms: C16_29  and  O7_30 
REMARK   13  A    between atoms: C17_32  and  N2_33 
REMARK   14  A    between atoms: C18_37  and  O8_38 
REMARK   15  A    between atoms: C19_40  and  O9_41 
REMARK   16  A    between atoms: C20_43  and  C21_44 
REMARK   17  A    between atoms: C21_44  and  N3_45 
REMARK   18  A    between atoms: C22_50  and  N4_51 
REMARK   19  A    between atoms: C24_56  and  N5_57 
REMARK   20  A    between atoms: C25_62  and  C26_63 
REMARK   21  A    between atoms: C26_63  and  O12_64 
ROOT
HETATM    1  C10 UNL     1       6.103 -17.470  -2.785  1.00  0.00     0.414 C 
HETATM    2  O4  UNL     1       5.654 -16.160  -2.678  1.00  0.00    -0.329 OA
HETATM    3  C11 UNL     1       4.340 -16.044  -2.305  1.00  0.00     0.183 C 
HETATM    4  C13 UNL     1       4.125 -16.775  -0.965  1.00  0.00     0.183 C 
HETATM    5  C20 UNL     1       5.334 -17.577  -0.581  1.00  0.00     0.183 C 
HETATM    6  O10 UNL     1       5.792 -18.244  -1.712  1.00  0.00    -0.329 OA
ENDROOT
BRANCH   1   7
HETATM    7  O3  UNL     1       7.496 -17.437  -2.945  1.00  0.00    -0.331 OA
BRANCH   7   8
HETATM    8  C9  UNL     1       7.921 -17.635  -4.247  1.00  0.00     0.160 C 
HETATM    9  C8  UNL     1       7.931 -16.365  -5.066  1.00  0.00     0.068 C 
HETATM   10  C7  UNL     1       8.221 -16.626  -6.512  1.00  0.00     0.157 C 
HETATM   11  C24 UNL     1       7.358 -17.742  -7.072  1.00  0.00     0.214 C 
HETATM   12  C23 UNL     1       7.436 -18.977  -6.232  1.00  0.00     0.070 C 
HETATM   13  C22 UNL     1       6.970 -18.649  -4.840  1.00  0.00     0.214 C 
BRANCH  10  14
HETATM   14  O2  UNL     1       8.197 -15.481  -7.285  1.00  0.00    -0.348 OA
BRANCH  14  15
HETATM   15  C6  UNL     1       9.393 -15.289  -7.971  1.00  0.00     0.333 C 
HETATM   16  C5  UNL     1      10.072 -14.080  -7.441  1.00  0.00     0.294 C 
HETATM   17  C4  UNL     1      10.886 -13.334  -8.435  1.00  0.00     0.119 C 
HETATM   18  F1  UNL     1      10.845 -14.426  -6.334  1.00  0.00    -0.201 F 
HETATM   19  F2  UNL     1       9.115 -13.188  -6.918  1.00  0.00    -0.201 F 
HETATM   20  C3  UNL     1      11.329 -14.339  -9.496  1.00  0.00     0.158 C 
HETATM   21  C25 UNL     1      10.114 -14.898 -10.146  1.00  0.00     0.177 C 
HETATM   22  O11 UNL     1       9.118 -15.291  -9.306  1.00  0.00    -0.345 OA
BRANCH  20  23
HETATM   23  O1  UNL     1      12.117 -15.311  -8.938  1.00  0.00    -0.383 OA
BRANCH  23  24
HETATM   24  C2  UNL     1      13.413 -14.912  -8.648  1.00  0.00     0.163 C 
HETATM   25  C1  UNL     1      14.383 -15.791  -9.368  1.00  0.00     0.033 C 
ENDBRANCH  23  24
ENDBRANCH  20  23
BRANCH  21  26
HETATM   26  C26 UNL     1       9.579 -13.889 -11.139  1.00  0.00     0.198 C 
BRANCH  26  27
HETATM   27  O12 UNL     1       8.766 -14.575 -12.058  1.00  0.00    -0.398 OA
ATOM     28  H12 UNL     1       9.000 -14.282 -12.931  1.00  0.00     0.209 HD
ENDBRANCH  26  27
ENDBRANCH  21  26
ENDBRANCH  14  15
ENDBRANCH  10  14
BRANCH  11  29
HETATM   29  N5  UNL     1       5.999 -17.286  -7.140  1.00  0.00    -0.072 N 
ATOM     30  H53 UNL     1       5.466 -17.757  -7.872  1.00  0.00     0.274 HD
ATOM     31  H52 UNL     1       5.444 -17.593  -6.341  1.00  0.00     0.274 HD
ATOM     32  H51 UNL     1       5.996 -16.271  -7.249  1.00  0.00     0.274 HD
ENDBRANCH  11  29
BRANCH  13  33
HETATM   33  N4  UNL     1       7.090 -19.864  -4.035  1.00  0.00    -0.072 N 
ATOM     34  H43 UNL     1       6.713 -19.760  -3.093  1.00  0.00     0.274 HD
ATOM     35  H42 UNL     1       6.469 -20.613  -4.340  1.00  0.00     0.274 HD
ATOM     36  H41 UNL     1       8.075 -20.128  -4.047  1.00  0.00     0.274 HD
ENDBRANCH  13  33
ENDBRANCH   7   8
ENDBRANCH   1   7
BRANCH   3  37
HETATM   37  C12 UNL     1       3.491 -16.651  -3.398  1.00  0.00     0.264 C 
BRANCH  37  38
HETATM   38  N1  UNL     1       2.300 -15.883  -3.704  1.00  0.00    -0.077 N 
ATOM     39  H13 UNL     1       2.019 -15.321  -2.901  1.00  0.00     0.274 HD
ATOM     40  H12 UNL     1       2.512 -15.138  -4.368  1.00  0.00     0.274 HD
ATOM     41  H11 UNL     1       1.521 -16.451  -4.036  1.00  0.00     0.274 HD
ENDBRANCH  37  38
ENDBRANCH   3  37
BRANCH   5  42
HETATM   42  C21 UNL     1       6.411 -17.024   0.205  1.00  0.00     0.264 C 
BRANCH  42  43
HETATM   43  N3  UNL     1       6.533 -15.647   0.487  1.00  0.00    -0.077 N 
ATOM     44  H33 UNL     1       6.528 -15.152  -0.405  1.00  0.00     0.274 HD
ATOM     45  H32 UNL     1       5.655 -15.344   0.909  1.00  0.00     0.274 HD
ATOM     46  H31 UNL     1       7.291 -15.257   1.047  1.00  0.00     0.274 HD
ENDBRANCH  42  43
ENDBRANCH   5  42
BRANCH   4  47
HETATM   47  O5  UNL     1       3.380 -16.225  -0.116  1.00  0.00    -0.370 OA
BRANCH  47  48
HETATM   48  C14 UNL     1       2.643 -15.600   0.649  1.00  0.00     0.184 C 
HETATM   49  C15 UNL     1       1.249 -16.283   0.712  1.00  0.00     0.180 C 
HETATM   50  C16 UNL     1       0.141 -15.317   0.993  1.00  0.00     0.182 C 
HETATM   51  C17 UNL     1      -0.012 -14.262  -0.057  1.00  0.00     0.245 C 
HETATM   52  C18 UNL     1       1.309 -13.953  -0.733  1.00  0.00     0.182 C 
HETATM   53  C19 UNL     1       2.443 -14.130   0.228  1.00  0.00     0.180 C 
BRANCH  49  54
HETATM   54  O6  UNL     1       1.219 -17.216   1.765  1.00  0.00    -0.390 OA
ATOM     55  H6  UNL     1       0.379 -17.177   2.208  1.00  0.00     0.210 HD
ENDBRANCH  49  54
BRANCH  50  56
HETATM   56  O7  UNL     1       0.159 -14.837   2.298  1.00  0.00    -0.391 OA
ATOM     57  H7  UNL     1       0.916 -14.295   2.482  1.00  0.00     0.210 HD
ENDBRANCH  50  56
BRANCH  51  58
HETATM   58  N2  UNL     1      -0.893 -14.747  -1.115  1.00  0.00    -0.070 N 
ATOM     59  H23 UNL     1      -0.396 -14.895  -1.993  1.00  0.00     0.274 HD
ATOM     60  H22 UNL     1      -1.195 -15.709  -0.954  1.00  0.00     0.274 HD
ATOM     61  H21 UNL     1      -1.683 -14.110  -1.223  1.00  0.00     0.274 HD
ENDBRANCH  51  58
BRANCH  52  62
HETATM   62  O8  UNL     1       1.321 -12.624  -1.140  1.00  0.00    -0.391 OA
ATOM     63  H8  UNL     1       0.643 -12.487  -1.791  1.00  0.00     0.210 HD
ENDBRANCH  52  62
BRANCH  53  64
HETATM   64  O9  UNL     1       2.364 -13.276   1.323  1.00  0.00    -0.390 OA
ATOM     65  H9  UNL     1       2.839 -12.466   1.181  1.00  0.00     0.210 HD
ENDBRANCH  53  64
ENDBRANCH  47  48
ENDBRANCH   4  47
TORSDOF 21
ENDMDL
MODEL 5
REMARK VINA RESULT: -8.132533460      4.309      5.359
REMARK  21 active torsions:
REMARK  status: ('A' for Active; 'I' for Inactive)
REMARK    1  A    between atoms: C2_2  and  O1_3 
REMARK    2  A    between atoms: O1_3  and  C3_4 
REMARK    3  A    between atoms: C6_9  and  O2_10 
REMARK    4  A    between atoms: O2_10  and  C7_11 
REMARK    5  A    between atoms: C9_13  and  O3_14 
REMARK    6  A    between atoms: O3_14  and  C10_15 
REMARK    7  A    between atoms: C11_17  and  C12_18 
REMARK    8  A    between atoms: C12_18  and  N1_19 
REMARK    9  A    between atoms: C13_23  and  O5_24 
REMARK   10  A    between atoms: O5_24  and  C14_25 
REMARK   11  A    between atoms: C15_26  and  O6_27 
REMARK   12  A    between atoms: C16_29  and  O7_30 
REMARK   13  A    between atoms: C17_32  and  N2_33 
REMARK   14  A    between atoms: C18_37  and  O8_38 
REMARK   15  A    between atoms: C19_40  and  O9_41 
REMARK   16  A    between atoms: C20_43  and  C21_44 
REMARK   17  A    between atoms: C21_44  and  N3_45 
REMARK   18  A    between atoms: C22_50  and  N4_51 
REMARK   19  A    between atoms: C24_56  and  N5_57 
REMARK   20  A    between atoms: C25_62  and  C26_63 
REMARK   21  A    between atoms: C26_63  and  O12_64 
ROOT
HETATM    1  C10 UNL     1       7.390 -17.676  -6.966  1.00  0.00     0.414 C 
HETATM    2  O4  UNL     1       6.072 -17.240  -6.958  1.00  0.00    -0.329 OA
HETATM    3  C11 UNL     1       5.151 -18.226  -7.201  1.00  0.00     0.183 C 
HETATM    4  C13 UNL     1       5.329 -19.354  -6.166  1.00  0.00     0.183 C 
HETATM    5  C20 UNL     1       6.577 -19.159  -5.355  1.00  0.00     0.183 C 
HETATM    6  O10 UNL     1       7.603 -18.789  -6.216  1.00  0.00    -0.329 OA
ENDROOT
BRANCH   1   7
HETATM    7  O3  UNL     1       8.194 -16.632  -6.486  1.00  0.00    -0.331 OA
BRANCH   7   8
HETATM    8  C9  UNL     1       7.792 -15.373  -6.896  1.00  0.00     0.160 C 
HETATM    9  C8  UNL     1       8.454 -14.928  -8.180  1.00  0.00     0.068 C 
HETATM   10  C7  UNL     1       8.146 -13.500  -8.511  1.00  0.00     0.157 C 
HETATM   11  C24 UNL     1       8.370 -12.581  -7.325  1.00  0.00     0.214 C 
HETATM   12  C23 UNL     1       7.648 -13.063  -6.107  1.00  0.00     0.070 C 
HETATM   13  C22 UNL     1       8.145 -14.440  -5.759  1.00  0.00     0.214 C 
BRANCH  10  14
HETATM   14  O2  UNL     1       8.773 -13.064  -9.663  1.00  0.00    -0.348 OA
BRANCH  14  15
HETATM   15  C6  UNL     1       9.775 -13.939 -10.073  1.00  0.00     0.333 C 
HETATM   16  C5  UNL     1      10.951 -13.156 -10.530  1.00  0.00     0.294 C 
HETATM   17  C4  UNL     1      11.745 -13.794 -11.611  1.00  0.00     0.119 C 
HETATM   18  F1  UNL     1      11.761 -12.852  -9.438  1.00  0.00    -0.201 F 
HETATM   19  F2  UNL     1      10.529 -11.895 -10.998  1.00  0.00    -0.201 F 
HETATM   20  C3  UNL     1      11.543 -15.303 -11.485  1.00  0.00     0.158 C 
HETATM   21  C25 UNL     1      10.098 -15.598 -11.671  1.00  0.00     0.177 C 
HETATM   22  O11 UNL     1       9.235 -14.803 -10.980  1.00  0.00    -0.345 OA
BRANCH  20  23
HETATM   23  O1  UNL     1      12.017 -15.752 -10.280  1.00  0.00    -0.383 OA
BRANCH  23  24
HETATM   24  C2  UNL     1      13.394 -15.907 -10.219  1.00  0.00     0.163 C 
HETATM   25  C1  UNL     1      13.917 -15.273  -8.972  1.00  0.00     0.033 C 
ENDBRANCH  23  24
ENDBRANCH  20  23
BRANCH  21  26
HETATM   26  C26 UNL     1       9.771 -15.546 -13.148  1.00  0.00     0.198 C 
BRANCH  26  27
HETATM   27  O12 UNL     1       8.546 -14.872 -13.297  1.00  0.00    -0.398 OA
ATOM     28  H12 UNL     1       8.117 -15.213 -14.072  1.00  0.00     0.209 HD
ENDBRANCH  26  27
ENDBRANCH  21  26
ENDBRANCH  14  15
ENDBRANCH  10  14
BRANCH  11  29
HETATM   29  N5  UNL     1       9.778 -12.505  -7.057  1.00  0.00    -0.072 N 
ATOM     30  H53 UNL     1       9.994 -11.879  -6.280  1.00  0.00     0.274 HD
ATOM     31  H52 UNL     1      10.144 -13.367  -6.650  1.00  0.00     0.274 HD
ATOM     32  H51 UNL     1      10.263 -12.243  -7.915  1.00  0.00     0.274 HD
ENDBRANCH  11  29
BRANCH  13  33
HETATM   33  N4  UNL     1       7.398 -14.898  -4.589  1.00  0.00    -0.072 N 
ATOM     34  H43 UNL     1       7.678 -15.826  -4.272  1.00  0.00     0.274 HD
ATOM     35  H42 UNL     1       7.638 -14.393  -3.736  1.00  0.00     0.274 HD
ATOM     36  H41 UNL     1       6.408 -14.836  -4.828  1.00  0.00     0.274 HD
ENDBRANCH  13  33
ENDBRANCH   7   8
ENDBRANCH   1   7
BRANCH   3  37
HETATM   37  C12 UNL     1       5.376 -18.736  -8.606  1.00  0.00     0.264 C 
BRANCH  37  38
HETATM   38  N1  UNL     1       4.886 -20.083  -8.821  1.00  0.00    -0.077 N 
ATOM     39  H13 UNL     1       5.589 -20.769  -8.548  1.00  0.00     0.274 HD
ATOM     40  H12 UNL     1       4.154 -20.312  -8.149  1.00  0.00     0.274 HD
ATOM     41  H11 UNL     1       4.567 -20.255  -9.775  1.00  0.00     0.274 HD
ENDBRANCH  37  38
ENDBRANCH   3  37
BRANCH   5  42
HETATM   42  C21 UNL     1       6.589 -18.400  -4.127  1.00  0.00     0.264 C 
BRANCH  42  43
HETATM   43  N3  UNL     1       5.486 -17.644  -3.675  1.00  0.00    -0.077 N 
ATOM     44  H33 UNL     1       4.657 -18.229  -3.771  1.00  0.00     0.274 HD
ATOM     45  H32 UNL     1       5.574 -17.552  -2.663  1.00  0.00     0.274 HD
ATOM     46  H31 UNL     1       5.253 -16.722  -4.045  1.00  0.00     0.274 HD
ENDBRANCH  42  43
ENDBRANCH   5  42
BRANCH   4  47
HETATM   47  O5  UNL     1       4.289 -19.879  -5.694  1.00  0.00    -0.370 OA
BRANCH  47  48
HETATM   48  C14 UNL     1       3.334 -20.469  -5.186  1.00  0.00     0.184 C 
HETATM   49  C15 UNL     1       3.502 -20.511  -3.642  1.00  0.00     0.180 C 
HETATM   50  C16 UNL     1       2.864 -21.714  -3.022  1.00  0.00     0.182 C 
HETATM   51  C17 UNL     1       3.447 -23.010  -3.492  1.00  0.00     0.245 C 
HETATM   52  C18 UNL     1       3.985 -22.898  -4.904  1.00  0.00     0.182 C 
HETATM   53  C19 UNL     1       3.179 -21.916  -5.696  1.00  0.00     0.180 C 
BRANCH  49  54
HETATM   54  O6  UNL     1       2.867 -19.398  -3.061  1.00  0.00    -0.390 OA
ATOM     55  H6  UNL     1       3.246 -18.596  -3.402  1.00  0.00     0.210 HD
ENDBRANCH  49  54
BRANCH  50  56
HETATM   56  O7  UNL     1       1.474 -21.662  -3.045  1.00  0.00    -0.391 OA
ATOM     57  H7  UNL     1       1.069 -22.450  -2.703  1.00  0.00     0.210 HD
ENDBRANCH  50  56
BRANCH  51  58
HETATM   58  N2  UNL     1       4.592 -23.363  -2.659  1.00  0.00    -0.070 N 
ATOM     59  H23 UNL     1       4.461 -24.255  -2.183  1.00  0.00     0.274 HD
ATOM     60  H22 UNL     1       5.411 -23.612  -3.214  1.00  0.00     0.274 HD
ATOM     61  H21 UNL     1       4.788 -22.603  -2.006  1.00  0.00     0.274 HD
ENDBRANCH  51  58
BRANCH  52  62
HETATM   62  O8  UNL     1       3.873 -24.128  -5.541  1.00  0.00    -0.391 OA
ATOM     63  H8  UNL     1       4.103 -24.032  -6.458  1.00  0.00     0.210 HD
ENDBRANCH  52  62
BRANCH  53  64
HETATM   64  O9  UNL     1       1.845 -22.288  -5.823  1.00  0.00    -0.390 OA
ATOM     65  H9  UNL     1       1.284 -21.829  -5.209  1.00  0.00     0.210 HD
ENDBRANCH  53  64
ENDBRANCH  47  48
ENDBRANCH   4  47
TORSDOF 21
ENDMDL
