MODEL 1
REMARK VINA RESULT: -8.376212694      0.000      0.000
REMARK  5 active torsions:
REMARK  status: ('A' for Active; 'I' for Inactive)
REMARK    1  A    between atoms: N1_1  and  C1_4 
REMARK    2  A    between atoms: N3_8  and  C3_10 
REMARK    3  A    between atoms: C3_10  and  C4_11 
REMARK    4  A    between atoms: C4_11  and  C5_12 
REMARK    5  A    between atoms: C5_12  and  C6_13 
ROOT
HETATM    1  C1  UNL     1     -25.287  -9.863  -3.434  1.00  0.00     0.131 A 
HETATM    2  N2  UNL     1     -24.624  -9.671  -4.566  1.00  0.00    -0.321 N 
ATOM      3  H2  UNL     1     -24.022  -8.849  -4.591  1.00  0.00     0.169 HD
HETATM    4  C2  UNL     1     -24.641 -10.406  -5.674  1.00  0.00     0.148 A 
HETATM    5  N3  UNL     1     -23.971 -10.154  -6.720  1.00  0.00    -0.370 N 
ATOM      6  H3  UNL     1     -24.054 -10.784  -7.519  1.00  0.00     0.161 HD
HETATM    7  S1  UNL     1     -25.695 -11.780  -5.531  1.00  0.00    -0.034 SA
HETATM    8  C9  UNL     1     -26.475 -11.896  -4.025  1.00  0.00     0.109 A 
HETATM    9  N7  UNL     1     -27.352 -12.714  -3.401  1.00  0.00    -0.345 N 
ATOM     10  H7  UNL     1     -27.766 -13.552  -3.809  1.00  0.00     0.167 HD
HETATM   11  C10 UNL     1     -27.598 -12.255  -2.158  1.00  0.00     0.182 A 
HETATM   12  N8  UNL     1     -26.871 -11.136  -1.991  1.00  0.00    -0.347 N 
ATOM     13  H8  UNL     1     -26.851 -10.563  -1.148  1.00  0.00     0.167 HD
HETATM   14  C11 UNL     1     -26.159 -10.889  -3.141  1.00  0.00     0.111 A 
ENDROOT
BRANCH   5  15
HETATM   15  C3  UNL     1     -23.103  -9.022  -6.828  1.00  0.00     0.122 C 
BRANCH  15  16
HETATM   16  C4  UNL     1     -21.682  -9.355  -7.026  1.00  0.00     0.026 C 
BRANCH  16  17
HETATM   17  C5  UNL     1     -20.800  -8.936  -5.900  1.00  0.00     0.066 C 
BRANCH  17  18
HETATM   18  C6  UNL     1     -20.448  -9.985  -4.924  1.00  0.00     0.094 A 
HETATM   19  N4  UNL     1     -19.410 -10.833  -5.239  1.00  0.00    -0.295 N 
HETATM   20  N5  UNL     1     -19.081 -11.811  -4.436  1.00  0.00    -0.251 N 
ATOM     21  H4  UNL     1     -18.893 -10.697  -6.108  1.00  0.00     0.187 HD
HETATM   22  C7  UNL     1     -19.728 -12.034  -3.278  1.00  0.00     0.341 A 
ATOM     23  H5  UNL     1     -18.309 -12.424  -4.696  1.00  0.00     0.191 HD
HETATM   24  O1  UNL     1     -19.385 -12.977  -2.537  1.00  0.00    -0.245 OA
HETATM   25  N6  UNL     1     -20.748 -11.242  -2.911  1.00  0.00    -0.273 N 
HETATM   26  C8  UNL     1     -21.084 -10.229  -3.752  1.00  0.00     0.273 A 
ATOM     27  H6  UNL     1     -21.251 -11.396  -2.038  1.00  0.00     0.173 HD
HETATM   28  O2  UNL     1     -22.043  -9.496  -3.376  1.00  0.00    -0.266 OA
ENDBRANCH  17  18
ENDBRANCH  16  17
ENDBRANCH  15  16
ENDBRANCH   5  15
BRANCH   1  29
HETATM   29  N1  UNL     1     -25.104  -8.989  -2.468  1.00  0.00    -0.383 N 
ATOM     30  H12 UNL     1     -24.553  -8.170  -2.722  1.00  0.00     0.157 HD
ATOM     31  H11 UNL     1     -25.522  -9.196  -1.561  1.00  0.00     0.157 HD
ENDBRANCH   1  29
TORSDOF 5
ENDMDL
MODEL 2
REMARK VINA RESULT: -8.254226253      3.451      7.163
REMARK  5 active torsions:
REMARK  status: ('A' for Active; 'I' for Inactive)
REMARK    1  A    between atoms: N1_1  and  C1_4 
REMARK    2  A    between atoms: N3_8  and  C3_10 
REMARK    3  A    between atoms: C3_10  and  C4_11 
REMARK    4  A    between atoms: C4_11  and  C5_12 
REMARK    5  A    between atoms: C5_12  and  C6_13 
ROOT
HETATM    1  C1  UNL     1     -22.320 -10.063  -6.504  1.00  0.00     0.131 A 
HETATM    2  N2  UNL     1     -22.900 -10.797  -5.566  1.00  0.00    -0.321 N 
ATOM      3  H2  UNL     1     -23.915 -10.872  -5.629  1.00  0.00     0.169 HD
HETATM    4  C2  UNL     1     -22.336 -11.449  -4.554  1.00  0.00     0.148 A 
HETATM    5  N3  UNL     1     -22.966 -12.137  -3.695  1.00  0.00    -0.370 N 
ATOM      6  H3  UNL     1     -22.437 -12.600  -2.956  1.00  0.00     0.161 HD
HETATM    7  S1  UNL     1     -20.609 -11.260  -4.535  1.00  0.00    -0.034 SA
HETATM    8  C9  UNL     1     -20.008 -10.293  -5.798  1.00  0.00     0.109 A 
HETATM    9  N7  UNL     1     -18.816  -9.837  -6.243  1.00  0.00    -0.345 N 
ATOM     10  H7  UNL     1     -17.913 -10.037  -5.812  1.00  0.00     0.167 HD
HETATM   11  C10 UNL     1     -18.999  -9.079  -7.342  1.00  0.00     0.182 A 
HETATM   12  N8  UNL     1     -20.320  -9.052  -7.596  1.00  0.00    -0.347 N 
ATOM     13  H8  UNL     1     -20.764  -8.555  -8.367  1.00  0.00     0.167 HD
HETATM   14  C11 UNL     1     -20.974  -9.803  -6.648  1.00  0.00     0.111 A 
ENDROOT
BRANCH   5  15
HETATM   15  C3  UNL     1     -24.389 -12.290  -3.720  1.00  0.00     0.122 C 
BRANCH  15  16
HETATM   16  C4  UNL     1     -25.116 -11.418  -2.783  1.00  0.00     0.026 C 
BRANCH  16  17
HETATM   17  C5  UNL     1     -26.337 -10.792  -3.364  1.00  0.00     0.066 C 
BRANCH  17  18
HETATM   18  C6  UNL     1     -26.850  -9.596  -2.668  1.00  0.00     0.094 A 
HETATM   19  N4  UNL     1     -25.934  -8.760  -2.069  1.00  0.00    -0.295 N 
HETATM   20  N5  UNL     1     -26.330  -7.710  -1.397  1.00  0.00    -0.251 N 
ATOM     21  H4  UNL     1     -24.937  -8.962  -2.148  1.00  0.00     0.187 HD
HETATM   22  C7  UNL     1     -27.631  -7.396  -1.262  1.00  0.00     0.341 A 
ATOM     23  H5  UNL     1     -25.629  -7.110  -0.963  1.00  0.00     0.191 HD
HETATM   24  O1  UNL     1     -27.970  -6.386  -0.614  1.00  0.00    -0.245 OA
HETATM   25  N6  UNL     1     -28.574  -8.169  -1.823  1.00  0.00    -0.273 N 
HETATM   26  C8  UNL     1     -28.153  -9.258  -2.518  1.00  0.00     0.273 A 
ATOM     27  H6  UNL     1     -29.565  -7.948  -1.731  1.00  0.00     0.173 HD
HETATM   28  O2  UNL     1     -29.064  -9.963  -3.042  1.00  0.00    -0.266 OA
ENDBRANCH  17  18
ENDBRANCH  16  17
ENDBRANCH  15  16
ENDBRANCH   5  15
BRANCH   1  29
HETATM   29  N1  UNL     1     -23.097  -9.511  -7.411  1.00  0.00    -0.383 N 
ATOM     30  H12 UNL     1     -24.096  -9.549  -7.209  1.00  0.00     0.157 HD
ATOM     31  H11 UNL     1     -22.647  -9.096  -8.227  1.00  0.00     0.157 HD
ENDBRANCH   1  29
TORSDOF 5
ENDMDL
MODEL 3
REMARK VINA RESULT: -8.052173452      2.674      3.966
REMARK  5 active torsions:
REMARK  status: ('A' for Active; 'I' for Inactive)
REMARK    1  A    between atoms: N1_1  and  C1_4 
REMARK    2  A    between atoms: N3_8  and  C3_10 
REMARK    3  A    between atoms: C3_10  and  C4_11 
REMARK    4  A    between atoms: C4_11  and  C5_12 
REMARK    5  A    between atoms: C5_12  and  C6_13 
ROOT
HETATM    1  C1  UNL     1     -24.125  -9.522  -2.359  1.00  0.00     0.131 A 
HETATM    2  N2  UNL     1     -23.405 -10.436  -2.994  1.00  0.00    -0.321 N 
ATOM      3  H2  UNL     1     -22.402 -10.413  -2.813  1.00  0.00     0.169 HD
HETATM    4  C2  UNL     1     -23.817 -11.379  -3.836  1.00  0.00     0.148 A 
HETATM    5  N3  UNL     1     -23.059 -12.223  -4.404  1.00  0.00    -0.370 N 
ATOM      6  H3  UNL     1     -23.476 -12.908  -5.034  1.00  0.00     0.161 HD
HETATM    7  S1  UNL     1     -25.536 -11.335  -4.078  1.00  0.00    -0.034 SA
HETATM    8  C9  UNL     1     -26.324 -10.111  -3.199  1.00  0.00     0.109 A 
HETATM    9  N7  UNL     1     -27.581  -9.645  -3.018  1.00  0.00    -0.345 N 
ATOM     10  H7  UNL     1     -28.417 -10.023  -3.465  1.00  0.00     0.167 HD
HETATM   11  C10 UNL     1     -27.562  -8.606  -2.161  1.00  0.00     0.182 A 
HETATM   12  N8  UNL     1     -26.283  -8.410  -1.794  1.00  0.00    -0.347 N 
ATOM     13  H8  UNL     1     -25.955  -7.691  -1.151  1.00  0.00     0.167 HD
HETATM   14  C11 UNL     1     -25.488  -9.337  -2.427  1.00  0.00     0.111 A 
ENDROOT
BRANCH   5  15
HETATM   15  C3  UNL     1     -21.644 -12.254  -4.196  1.00  0.00     0.122 C 
BRANCH  15  16
HETATM   16  C4  UNL     1     -20.842 -11.923  -5.386  1.00  0.00     0.026 C 
BRANCH  16  17
HETATM   17  C5  UNL     1     -20.624 -10.461  -5.579  1.00  0.00     0.066 C 
BRANCH  17  18
HETATM   18  C6  UNL     1     -20.909  -9.933  -6.927  1.00  0.00     0.094 A 
HETATM   19  N4  UNL     1     -19.839  -9.666  -7.752  1.00  0.00    -0.295 N 
HETATM   20  N5  UNL     1     -20.025  -9.153  -8.940  1.00  0.00    -0.251 N 
ATOM     21  H4  UNL     1     -18.892  -9.869  -7.432  1.00  0.00     0.187 HD
HETATM   22  C7  UNL     1     -21.252  -8.868  -9.412  1.00  0.00     0.341 A 
ATOM     23  H5  UNL     1     -19.214  -8.965  -9.528  1.00  0.00     0.191 HD
HETATM   24  O1  UNL     1     -21.389  -8.380 -10.552  1.00  0.00    -0.245 OA
HETATM   25  N6  UNL     1     -22.337  -9.106  -8.659  1.00  0.00    -0.273 N 
HETATM   26  C8  UNL     1     -22.134  -9.638  -7.425  1.00  0.00     0.273 A 
ATOM     27  H6  UNL     1     -23.275  -8.896  -8.999  1.00  0.00     0.173 HD
HETATM   28  O2  UNL     1     -23.176  -9.859  -6.742  1.00  0.00    -0.266 OA
ENDBRANCH  17  18
ENDBRANCH  16  17
ENDBRANCH  15  16
ENDBRANCH   5  15
BRANCH   1  29
HETATM   29  N1  UNL     1     -23.484  -8.687  -1.568  1.00  0.00    -0.383 N 
ATOM     30  H12 UNL     1     -22.473  -8.663  -1.690  1.00  0.00     0.157 HD
ATOM     31  H11 UNL     1     -24.041  -8.143  -0.910  1.00  0.00     0.157 HD
ENDBRANCH   1  29
TORSDOF 5
ENDMDL
MODEL 4
REMARK VINA RESULT: -7.980698027      3.216      7.491
REMARK  5 active torsions:
REMARK  status: ('A' for Active; 'I' for Inactive)
REMARK    1  A    between atoms: N1_1  and  C1_4 
REMARK    2  A    between atoms: N3_8  and  C3_10 
REMARK    3  A    between atoms: C3_10  and  C4_11 
REMARK    4  A    between atoms: C4_11  and  C5_12 
REMARK    5  A    between atoms: C5_12  and  C6_13 
ROOT
HETATM    1  C1  UNL     1     -22.117 -10.178  -6.642  1.00  0.00     0.131 A 
HETATM    2  N2  UNL     1     -22.689 -10.785  -5.612  1.00  0.00    -0.321 N 
ATOM      3  H2  UNL     1     -23.697 -10.927  -5.686  1.00  0.00     0.169 HD
HETATM    4  C2  UNL     1     -22.126 -11.233  -4.494  1.00  0.00     0.148 A 
HETATM    5  N3  UNL     1     -22.748 -11.809  -3.551  1.00  0.00    -0.370 N 
ATOM      6  H3  UNL     1     -22.220 -12.116  -2.733  1.00  0.00     0.161 HD
HETATM    7  S1  UNL     1     -20.413 -10.944  -4.464  1.00  0.00    -0.034 SA
HETATM    8  C9  UNL     1     -19.822 -10.159  -5.851  1.00  0.00     0.109 A 
HETATM    9  N7  UNL     1     -18.641  -9.713  -6.335  1.00  0.00    -0.345 N 
ATOM     10  H7  UNL     1     -17.744  -9.789  -5.855  1.00  0.00     0.167 HD
HETATM   11  C10 UNL     1     -18.827  -9.153  -7.546  1.00  0.00     0.182 A 
HETATM   12  N8  UNL     1     -20.138  -9.243  -7.833  1.00  0.00    -0.347 N 
ATOM     13  H8  UNL     1     -20.582  -8.902  -8.686  1.00  0.00     0.167 HD
HETATM   14  C11 UNL     1     -20.783  -9.868  -6.793  1.00  0.00     0.111 A 
ENDROOT
BRANCH   5  15
HETATM   15  C3  UNL     1     -24.158 -12.045  -3.586  1.00  0.00     0.122 C 
BRANCH  15  16
HETATM   16  C4  UNL     1     -24.979 -10.936  -3.072  1.00  0.00     0.026 C 
BRANCH  16  17
HETATM   17  C5  UNL     1     -25.992 -11.352  -2.061  1.00  0.00     0.066 C 
BRANCH  17  18
HETATM   18  C6  UNL     1     -27.364 -11.563  -2.562  1.00  0.00     0.094 A 
HETATM   19  N4  UNL     1     -27.754 -12.855  -2.839  1.00  0.00    -0.295 N 
HETATM   20  N5  UNL     1     -28.941 -13.102  -3.329  1.00  0.00    -0.251 N 
ATOM     21  H4  UNL     1     -27.111 -13.626  -2.660  1.00  0.00     0.187 HD
HETATM   22  C7  UNL     1     -29.828 -12.123  -3.582  1.00  0.00     0.341 A 
ATOM     23  H5  UNL     1     -29.202 -14.068  -3.525  1.00  0.00     0.191 HD
HETATM   24  O1  UNL     1     -30.952 -12.398  -4.049  1.00  0.00    -0.245 OA
HETATM   25  N6  UNL     1     -29.510 -10.843  -3.333  1.00  0.00    -0.273 N 
HETATM   26  C8  UNL     1     -28.275 -10.595  -2.824  1.00  0.00     0.273 A 
ATOM     27  H6  UNL     1     -30.169 -10.087  -3.519  1.00  0.00     0.173 HD
HETATM   28  O2  UNL     1     -28.008  -9.381  -2.593  1.00  0.00    -0.266 OA
ENDBRANCH  17  18
ENDBRANCH  16  17
ENDBRANCH  15  16
ENDBRANCH   5  15
BRANCH   1  29
HETATM   29  N1  UNL     1     -22.892  -9.824  -7.645  1.00  0.00    -0.383 N 
ATOM     30  H12 UNL     1     -22.957 -10.502  -8.404  1.00  0.00     0.157 HD
ATOM     31  H11 UNL     1     -23.357  -8.919  -7.583  1.00  0.00     0.157 HD
ENDBRANCH   1  29
TORSDOF 5
ENDMDL
MODEL 5
REMARK VINA RESULT: -7.977951546      2.474      3.715
REMARK  5 active torsions:
REMARK  status: ('A' for Active; 'I' for Inactive)
REMARK    1  A    between atoms: N1_1  and  C1_4 
REMARK    2  A    between atoms: N3_8  and  C3_10 
REMARK    3  A    between atoms: C3_10  and  C4_11 
REMARK    4  A    between atoms: C4_11  and  C5_12 
REMARK    5  A    between atoms: C5_12  and  C6_13 
ROOT
HETATM    1  C1  UNL     1     -25.472 -11.758  -2.156  1.00  0.00     0.131 A 
HETATM    2  N2  UNL     1     -24.353 -11.774  -2.865  1.00  0.00    -0.321 N 
ATOM      3  H2  UNL     1     -23.491 -11.648  -2.333  1.00  0.00     0.169 HD
HETATM    4  C2  UNL     1     -24.202 -11.931  -4.177  1.00  0.00     0.148 A 
HETATM    5  N3  UNL     1     -23.087 -11.937  -4.781  1.00  0.00    -0.370 N 
ATOM      6  H3  UNL     1     -23.080 -12.067  -5.793  1.00  0.00     0.161 HD
HETATM    7  S1  UNL     1     -25.723 -12.138  -4.990  1.00  0.00    -0.034 SA
HETATM    8  C9  UNL     1     -27.070 -12.096  -3.953  1.00  0.00     0.109 A 
HETATM    9  N7  UNL     1     -28.415 -12.197  -4.038  1.00  0.00    -0.345 N 
ATOM     10  H7  UNL     1     -28.939 -12.343  -4.901  1.00  0.00     0.167 HD
HETATM   11  C10 UNL     1     -28.960 -12.077  -2.812  1.00  0.00     0.182 A 
HETATM   12  N8  UNL     1     -27.952 -11.897  -1.940  1.00  0.00    -0.347 N 
ATOM     13  H8  UNL     1     -28.055 -11.773  -0.933  1.00  0.00     0.167 HD
HETATM   14  C11 UNL     1     -26.760 -11.905  -2.625  1.00  0.00     0.111 A 
ENDROOT
BRANCH   5  15
HETATM   15  C3  UNL     1     -21.839 -11.770  -4.103  1.00  0.00     0.122 C 
BRANCH  15  16
HETATM   16  C4  UNL     1     -20.686 -11.535  -4.988  1.00  0.00     0.026 C 
BRANCH  16  17
HETATM   17  C5  UNL     1     -20.457 -10.098  -5.313  1.00  0.00     0.066 C 
BRANCH  17  18
HETATM   18  C6  UNL     1     -20.859  -9.664  -6.665  1.00  0.00     0.094 A 
HETATM   19  N4  UNL     1     -19.904  -9.688  -7.657  1.00  0.00    -0.295 N 
HETATM   20  N5  UNL     1     -20.187  -9.272  -8.864  1.00  0.00    -0.251 N 
ATOM     21  H4  UNL     1     -18.967 -10.032  -7.449  1.00  0.00     0.187 HD
HETATM   22  C7  UNL     1     -21.406  -8.809  -9.194  1.00  0.00     0.341 A 
ATOM     23  H5  UNL     1     -19.460  -9.299  -9.578  1.00  0.00     0.191 HD
HETATM   24  O1  UNL     1     -21.639  -8.421 -10.357  1.00  0.00    -0.245 OA
HETATM   25  N6  UNL     1     -22.382  -8.762  -8.274  1.00  0.00    -0.273 N 
HETATM   26  C8  UNL     1     -22.079  -9.195  -7.022  1.00  0.00     0.273 A 
ATOM     27  H6  UNL     1     -23.313  -8.414  -8.504  1.00  0.00     0.173 HD
HETATM   28  O2  UNL     1     -23.021  -9.146  -6.179  1.00  0.00    -0.266 OA
ENDBRANCH  17  18
ENDBRANCH  16  17
ENDBRANCH  15  16
ENDBRANCH   5  15
BRANCH   1  29
HETATM   29  N1  UNL     1     -25.366 -11.585  -0.856  1.00  0.00    -0.383 N 
ATOM     30  H12 UNL     1     -25.002 -12.386  -0.340  1.00  0.00     0.157 HD
ATOM     31  H11 UNL     1     -25.649 -10.682  -0.477  1.00  0.00     0.157 HD
ENDBRANCH   1  29
TORSDOF 5
ENDMDL
