MODEL 1
REMARK VINA RESULT: -8.711299314      0.000      0.000
REMARK  14 active torsions:
REMARK  status: ('A' for Active; 'I' for Inactive)
REMARK    1  A    between atoms: O1_2  and  C2_3 
REMARK    2  A    between atoms: C2_3  and  C3_5 
REMARK    3  A    between atoms: C3_5  and  N1_6 
REMARK    4  A    between atoms: C3_5  and  C24_38 
REMARK       I    between atoms: N1_6  and  C4_8 
REMARK    5  A    between atoms: C4_8  and  C5_10 
REMARK    6  A    between atoms: C5_10  and  C6_11 
REMARK    7  A    between atoms: C5_10  and  N2_18 
REMARK    8  A    between atoms: C6_11  and  C7_12 
REMARK       I    between atoms: N2_18  and  C13_20 
REMARK    9  A    between atoms: C13_20  and  C14_22 
REMARK   10  A    between atoms: C14_22  and  N3_23 
REMARK   11  A    between atoms: C14_22  and  C21_35 
REMARK       I    between atoms: N3_23  and  C15_25 
REMARK   12  A    between atoms: C15_25  and  C16_27 
REMARK       I    between atoms: C16_27  and  N4_29 
REMARK   13  A    between atoms: N4_29  and  C17_31 
REMARK   14  A    between atoms: C24_38  and  N5_40 
ROOT
HETATM    1  C5  UNL     1      11.967  20.035  15.539  1.00  0.00     0.177 C 
ENDROOT
BRANCH   1   2
HETATM    2  C4  UNL     1      10.895  18.998  15.259  1.00  0.00     0.241 C 
HETATM    3  N1  UNL     1      11.158  17.646  15.085  1.00  0.00    -0.343 N 
ATOM      4  H1  UNL     1      12.134  17.356  15.147  1.00  0.00     0.163 HD
HETATM    5  O3  UNL     1       9.694  19.391  15.185  1.00  0.00    -0.271 OA
BRANCH   3   6
HETATM    6  C3  UNL     1      10.186  16.608  14.825  1.00  0.00     0.217 C 
BRANCH   6   7
HETATM    7  C2  UNL     1      10.564  15.696  13.757  1.00  0.00     0.283 C 
HETATM    8  O2  UNL     1       9.789  15.201  12.900  1.00  0.00    -0.263 OA
BRANCH   7   9
HETATM    9  O1  UNL     1      11.906  15.331  13.669  1.00  0.00    -0.325 OA
HETATM   10  C1  UNL     1      12.737  15.644  12.572  1.00  0.00     0.213 C 
ENDBRANCH   7   9
ENDBRANCH   6   7
BRANCH   6  11
HETATM   11  C24 UNL     1       9.910  15.818  16.102  1.00  0.00     0.251 C 
HETATM   12  C25 UNL     1      11.253  15.887  16.857  1.00  0.00     0.045 C 
BRANCH  11  13
HETATM   13  N5  UNL     1       9.619  14.456  15.885  1.00  0.00     0.099 N 
HETATM   14  C26 UNL     1      10.294  13.638  16.904  1.00  0.00     0.299 C 
HETATM   15  C27 UNL     1       9.645  13.769  18.258  1.00  0.00     0.198 C 
HETATM   16  O7  UNL     1       8.317  13.319  18.183  1.00  0.00    -0.388 OA
HETATM   17  C28 UNL     1       7.672  14.252  17.358  1.00  0.00     0.198 C 
HETATM   18  C29 UNL     1       8.245  14.040  15.961  1.00  0.00     0.299 C 
ENDBRANCH  11  13
ENDBRANCH   6  11
ENDBRANCH   3   6
ENDBRANCH   1   2
BRANCH   1  19
HETATM   19  C6  UNL     1      11.639  21.334  14.911  1.00  0.00     0.039 C 
BRANCH  19  20
HETATM   20  C7  UNL     1      12.724  21.993  14.133  1.00  0.00    -0.012 C 
HETATM   21  C8  UNL     1      13.487  23.048  14.882  1.00  0.00     0.005 C 
HETATM   22  C9  UNL     1      14.773  22.477  15.481  1.00  0.00     0.000 C 
HETATM   23  C10 UNL     1      15.738  22.019  14.439  1.00  0.00     0.000 C 
HETATM   24  C11 UNL     1      14.940  21.614  13.202  1.00  0.00     0.000 C 
HETATM   25  C12 UNL     1      13.715  20.880  13.752  1.00  0.00     0.005 C 
ENDBRANCH  19  20
ENDBRANCH   1  19
BRANCH   1  26
HETATM   26  N2  UNL     1      12.137  20.170  16.975  1.00  0.00    -0.346 N 
HETATM   27  C13 UNL     1      13.332  19.834  17.647  1.00  0.00     0.241 C 
HETATM   28  O4  UNL     1      14.264  19.394  16.878  1.00  0.00    -0.271 OA
ATOM     29  H2  UNL     1      11.355  20.526  17.525  1.00  0.00     0.163 HD
BRANCH  27  30
HETATM   30  C14 UNL     1      13.592  19.935  19.086  1.00  0.00     0.180 C 
BRANCH  30  31
HETATM   31  N3  UNL     1      14.975  20.320  19.267  1.00  0.00    -0.339 N 
HETATM   32  C15 UNL     1      15.489  21.632  19.181  1.00  0.00     0.310 C 
HETATM   33  O5  UNL     1      14.750  22.613  18.930  1.00  0.00    -0.262 OA
ATOM     34  H3  UNL     1      15.639  19.575  19.476  1.00  0.00     0.163 HD
BRANCH  32  35
HETATM   35  C16 UNL     1      16.914  21.901  19.383  1.00  0.00     0.309 C 
HETATM   36  O6  UNL     1      17.753  20.988  19.073  1.00  0.00    -0.262 OA
HETATM   37  N4  UNL     1      17.387  23.118  19.899  1.00  0.00    -0.345 N 
ATOM     38  H4  UNL     1      16.726  23.852  20.152  1.00  0.00     0.163 HD
BRANCH  37  39
HETATM   39  C17 UNL     1      18.827  23.340  20.077  1.00  0.00     0.022 C 
HETATM   40  C18 UNL     1      19.407  23.963  18.803  1.00  0.00     0.037 C 
HETATM   41  C19 UNL     1      19.541  22.060  20.349  1.00  0.00     0.037 C 
HETATM   42  C20 UNL     1      19.043  24.269  21.258  1.00  0.00     0.037 C 
ENDBRANCH  37  39
ENDBRANCH  32  35
ENDBRANCH  30  31
BRANCH  30  43
HETATM   43  C21 UNL     1      13.372  18.694  19.883  1.00  0.00     0.009 C 
HETATM   44  C22 UNL     1      11.925  18.269  19.924  1.00  0.00     0.012 C 
HETATM   45  C23 UNL     1      14.046  18.653  21.224  1.00  0.00     0.012 C 
ENDBRANCH  30  43
ENDBRANCH  27  30
ENDBRANCH   1  26
TORSDOF 14
ENDMDL
MODEL 2
REMARK VINA RESULT: -8.658421925      4.841      8.425
REMARK  14 active torsions:
REMARK  status: ('A' for Active; 'I' for Inactive)
REMARK    1  A    between atoms: O1_2  and  C2_3 
REMARK    2  A    between atoms: C2_3  and  C3_5 
REMARK    3  A    between atoms: C3_5  and  N1_6 
REMARK    4  A    between atoms: C3_5  and  C24_38 
REMARK       I    between atoms: N1_6  and  C4_8 
REMARK    5  A    between atoms: C4_8  and  C5_10 
REMARK    6  A    between atoms: C5_10  and  C6_11 
REMARK    7  A    between atoms: C5_10  and  N2_18 
REMARK    8  A    between atoms: C6_11  and  C7_12 
REMARK       I    between atoms: N2_18  and  C13_20 
REMARK    9  A    between atoms: C13_20  and  C14_22 
REMARK   10  A    between atoms: C14_22  and  N3_23 
REMARK   11  A    between atoms: C14_22  and  C21_35 
REMARK       I    between atoms: N3_23  and  C15_25 
REMARK   12  A    between atoms: C15_25  and  C16_27 
REMARK       I    between atoms: C16_27  and  N4_29 
REMARK   13  A    between atoms: N4_29  and  C17_31 
REMARK   14  A    between atoms: C24_38  and  N5_40 
ROOT
HETATM    1  C5  UNL     1      18.802  25.253  15.555  1.00  0.00     0.177 C 
ENDROOT
BRANCH   1   2
HETATM    2  C4  UNL     1      17.376  24.735  15.516  1.00  0.00     0.241 C 
HETATM    3  N1  UNL     1      17.031  23.410  15.741  1.00  0.00    -0.343 N 
ATOM      4  H1  UNL     1      17.795  22.763  15.936  1.00  0.00     0.163 HD
HETATM    5  O3  UNL     1      16.451  25.563  15.268  1.00  0.00    -0.271 OA
BRANCH   3   6
HETATM    6  C3  UNL     1      15.697  22.855  15.727  1.00  0.00     0.217 C 
BRANCH   6   7
HETATM    7  C2  UNL     1      15.503  21.801  14.744  1.00  0.00     0.283 C 
HETATM    8  O2  UNL     1      16.117  21.686  13.653  1.00  0.00    -0.263 OA
BRANCH   7   9
HETATM    9  O1  UNL     1      14.552  20.824  15.029  1.00  0.00    -0.325 OA
HETATM   10  C1  UNL     1      13.691  20.258  14.065  1.00  0.00     0.213 C 
ENDBRANCH   7   9
ENDBRANCH   6   7
BRANCH   6  11
HETATM   11  C24 UNL     1      15.331  22.335  17.116  1.00  0.00     0.251 C 
HETATM   12  C25 UNL     1      14.779  23.587  17.827  1.00  0.00     0.045 C 
BRANCH  11  13
HETATM   13  N5  UNL     1      16.431  21.875  17.867  1.00  0.00     0.099 N 
HETATM   14  C26 UNL     1      16.138  22.003  19.302  1.00  0.00     0.299 C 
HETATM   15  C27 UNL     1      15.134  20.982  19.770  1.00  0.00     0.198 C 
HETATM   16  O7  UNL     1      15.653  19.693  19.571  1.00  0.00    -0.388 OA
HETATM   17  C28 UNL     1      15.723  19.550  18.177  1.00  0.00     0.198 C 
HETATM   18  C29 UNL     1      16.823  20.500  17.715  1.00  0.00     0.299 C 
ENDBRANCH  11  13
ENDBRANCH   6  11
ENDBRANCH   3   6
ENDBRANCH   1   2
BRANCH   1  19
HETATM   19  C6  UNL     1      18.942  26.513  14.792  1.00  0.00     0.039 C 
BRANCH  19  20
HETATM   20  C7  UNL     1      20.324  26.920  14.420  1.00  0.00    -0.012 C 
HETATM   21  C8  UNL     1      20.827  28.154  15.114  1.00  0.00     0.005 C 
HETATM   22  C9  UNL     1      21.663  27.793  16.342  1.00  0.00     0.000 C 
HETATM   23  C10 UNL     1      22.912  27.055  15.991  1.00  0.00     0.000 C 
HETATM   24  C11 UNL     1      22.661  26.298  14.688  1.00  0.00     0.000 C 
HETATM   25  C12 UNL     1      21.239  25.750  14.823  1.00  0.00     0.005 C 
ENDBRANCH  19  20
ENDBRANCH   1  19
BRANCH   1  26
HETATM   26  N2  UNL     1      19.211  25.425  16.938  1.00  0.00    -0.346 N 
HETATM   27  C13 UNL     1      19.628  24.356  17.760  1.00  0.00     0.241 C 
HETATM   28  O4  UNL     1      19.616  23.208  17.179  1.00  0.00    -0.271 OA
ATOM     29  H2  UNL     1      19.196  26.364  17.335  1.00  0.00     0.163 HD
BRANCH  27  30
HETATM   30  C14 UNL     1      20.054  24.434  19.160  1.00  0.00     0.180 C 
BRANCH  30  31
HETATM   31  N3  UNL     1      21.466  24.127  19.220  1.00  0.00    -0.339 N 
HETATM   32  C15 UNL     1      22.508  25.055  19.435  1.00  0.00     0.310 C 
HETATM   33  O5  UNL     1      22.277  26.276  19.601  1.00  0.00    -0.262 OA
ATOM     34  H3  UNL     1      21.733  23.151  19.094  1.00  0.00     0.163 HD
BRANCH  32  35
HETATM   35  C16 UNL     1      23.907  24.626  19.473  1.00  0.00     0.309 C 
HETATM   36  O6  UNL     1      24.797  25.487  19.788  1.00  0.00    -0.262 OA
HETATM   37  N4  UNL     1      24.301  23.310  19.180  1.00  0.00    -0.345 N 
ATOM     38  H4  UNL     1      23.599  22.616  18.925  1.00  0.00     0.163 HD
BRANCH  37  39
HETATM   39  C17 UNL     1      25.717  22.929  19.238  1.00  0.00     0.022 C 
HETATM   40  C18 UNL     1      26.247  23.155  20.658  1.00  0.00     0.037 C 
HETATM   41  C19 UNL     1      26.534  23.739  18.290  1.00  0.00     0.037 C 
HETATM   42  C20 UNL     1      25.852  21.466  18.857  1.00  0.00     0.037 C 
ENDBRANCH  37  39
ENDBRANCH  32  35
ENDBRANCH  30  31
BRANCH  30  43
HETATM   43  C21 UNL     1      19.362  23.515  20.109  1.00  0.00     0.009 C 
HETATM   44  C22 UNL     1      18.520  24.243  21.127  1.00  0.00     0.012 C 
HETATM   45  C23 UNL     1      20.215  22.430  20.703  1.00  0.00     0.012 C 
ENDBRANCH  30  43
ENDBRANCH  27  30
ENDBRANCH   1  26
TORSDOF 14
ENDMDL
MODEL 3
REMARK VINA RESULT: -8.572242793      6.008     14.268
REMARK  14 active torsions:
REMARK  status: ('A' for Active; 'I' for Inactive)
REMARK    1  A    between atoms: O1_2  and  C2_3 
REMARK    2  A    between atoms: C2_3  and  C3_5 
REMARK    3  A    between atoms: C3_5  and  N1_6 
REMARK    4  A    between atoms: C3_5  and  C24_38 
REMARK       I    between atoms: N1_6  and  C4_8 
REMARK    5  A    between atoms: C4_8  and  C5_10 
REMARK    6  A    between atoms: C5_10  and  C6_11 
REMARK    7  A    between atoms: C5_10  and  N2_18 
REMARK    8  A    between atoms: C6_11  and  C7_12 
REMARK       I    between atoms: N2_18  and  C13_20 
REMARK    9  A    between atoms: C13_20  and  C14_22 
REMARK   10  A    between atoms: C14_22  and  N3_23 
REMARK   11  A    between atoms: C14_22  and  C21_35 
REMARK       I    between atoms: N3_23  and  C15_25 
REMARK   12  A    between atoms: C15_25  and  C16_27 
REMARK       I    between atoms: C16_27  and  N4_29 
REMARK   13  A    between atoms: N4_29  and  C17_31 
REMARK   14  A    between atoms: C24_38  and  N5_40 
ROOT
HETATM    1  C5  UNL     1      21.599  25.534  19.347  1.00  0.00     0.177 C 
ENDROOT
BRANCH   1   2
HETATM    2  C4  UNL     1      22.957  26.210  19.382  1.00  0.00     0.241 C 
HETATM    3  N1  UNL     1      24.018  25.852  18.562  1.00  0.00    -0.343 N 
ATOM      4  H1  UNL     1      23.856  25.084  17.911  1.00  0.00     0.163 HD
HETATM    5  O3  UNL     1      23.126  27.158  20.204  1.00  0.00    -0.271 OA
BRANCH   3   6
HETATM    6  C3  UNL     1      25.329  26.458  18.539  1.00  0.00     0.217 C 
BRANCH   6   7
HETATM    7  C2  UNL     1      26.424  25.508  18.645  1.00  0.00     0.283 C 
HETATM    8  O2  UNL     1      27.469  25.657  19.327  1.00  0.00    -0.263 OA
BRANCH   7   9
HETATM    9  O1  UNL     1      26.314  24.319  17.926  1.00  0.00    -0.325 OA
HETATM   10  C1  UNL     1      26.339  23.037  18.515  1.00  0.00     0.213 C 
ENDBRANCH   7   9
ENDBRANCH   6   7
BRANCH   6  11
HETATM   11  C24 UNL     1      25.497  27.296  17.273  1.00  0.00     0.251 C 
HETATM   12  C25 UNL     1      24.649  26.536  16.233  1.00  0.00     0.045 C 
BRANCH  11  13
HETATM   13  N5  UNL     1      26.818  27.345  16.786  1.00  0.00     0.099 N 
HETATM   14  C26 UNL     1      26.799  27.470  15.321  1.00  0.00     0.299 C 
HETATM   15  C27 UNL     1      26.369  28.843  14.873  1.00  0.00     0.198 C 
HETATM   16  O7  UNL     1      27.280  29.797  15.355  1.00  0.00    -0.388 OA
HETATM   17  C28 UNL     1      27.111  29.778  16.748  1.00  0.00     0.198 C 
HETATM   18  C29 UNL     1      27.655  28.432  17.215  1.00  0.00     0.299 C 
ENDBRANCH  11  13
ENDBRANCH   6  11
ENDBRANCH   3   6
ENDBRANCH   1   2
BRANCH   1  19
HETATM   19  C6  UNL     1      20.926  25.601  20.663  1.00  0.00     0.039 C 
BRANCH  19  20
HETATM   20  C7  UNL     1      20.432  24.316  21.228  1.00  0.00    -0.012 C 
HETATM   21  C8  UNL     1      18.960  24.072  21.049  1.00  0.00     0.005 C 
HETATM   22  C9  UNL     1      18.691  23.205  19.819  1.00  0.00     0.000 C 
HETATM   23  C10 UNL     1      19.261  21.832  19.947  1.00  0.00     0.000 C 
HETATM   24  C11 UNL     1      20.470  21.908  20.877  1.00  0.00     0.000 C 
HETATM   25  C12 UNL     1      21.185  23.201  20.481  1.00  0.00     0.005 C 
ENDBRANCH  19  20
ENDBRANCH   1  19
BRANCH   1  26
HETATM   26  N2  UNL     1      20.788  26.144  18.307  1.00  0.00    -0.346 N 
HETATM   27  C13 UNL     1      20.231  25.416  17.234  1.00  0.00     0.241 C 
HETATM   28  O4  UNL     1      20.503  24.159  17.252  1.00  0.00    -0.271 OA
ATOM     29  H2  UNL     1      20.612  27.147  18.355  1.00  0.00     0.163 HD
BRANCH  27  30
HETATM   30  C14 UNL     1      19.406  25.945  16.144  1.00  0.00     0.180 C 
BRANCH  30  31
HETATM   31  N3  UNL     1      18.584  24.868  15.637  1.00  0.00    -0.339 N 
HETATM   32  C15 UNL     1      17.381  24.402  16.210  1.00  0.00     0.310 C 
HETATM   33  O5  UNL     1      16.908  24.913  17.253  1.00  0.00    -0.262 OA
ATOM     34  H3  UNL     1      18.904  24.402  14.788  1.00  0.00     0.163 HD
BRANCH  32  35
HETATM   35  C16 UNL     1      16.633  23.298  15.606  1.00  0.00     0.309 C 
HETATM   36  O6  UNL     1      17.291  22.325  15.101  1.00  0.00    -0.262 OA
HETATM   37  N4  UNL     1      15.230  23.270  15.565  1.00  0.00    -0.345 N 
ATOM     38  H4  UNL     1      14.696  24.042  15.963  1.00  0.00     0.163 HD
BRANCH  37  39
HETATM   39  C17 UNL     1      14.527  22.136  14.952  1.00  0.00     0.022 C 
HETATM   40  C18 UNL     1      14.419  20.995  15.969  1.00  0.00     0.037 C 
HETATM   41  C19 UNL     1      15.254  21.635  13.752  1.00  0.00     0.037 C 
HETATM   42  C20 UNL     1      13.143  22.585  14.521  1.00  0.00     0.037 C 
ENDBRANCH  37  39
ENDBRANCH  32  35
ENDBRANCH  30  31
BRANCH  30  43
HETATM   43  C21 UNL     1      20.143  26.522  14.983  1.00  0.00     0.009 C 
HETATM   44  C22 UNL     1      21.310  25.674  14.545  1.00  0.00     0.012 C 
HETATM   45  C23 UNL     1      20.468  27.986  15.081  1.00  0.00     0.012 C 
ENDBRANCH  30  43
ENDBRANCH  27  30
ENDBRANCH   1  26
TORSDOF 14
ENDMDL
MODEL 4
REMARK VINA RESULT: -8.561211614      5.514     13.472
REMARK  14 active torsions:
REMARK  status: ('A' for Active; 'I' for Inactive)
REMARK    1  A    between atoms: O1_2  and  C2_3 
REMARK    2  A    between atoms: C2_3  and  C3_5 
REMARK    3  A    between atoms: C3_5  and  N1_6 
REMARK    4  A    between atoms: C3_5  and  C24_38 
REMARK       I    between atoms: N1_6  and  C4_8 
REMARK    5  A    between atoms: C4_8  and  C5_10 
REMARK    6  A    between atoms: C5_10  and  C6_11 
REMARK    7  A    between atoms: C5_10  and  N2_18 
REMARK    8  A    between atoms: C6_11  and  C7_12 
REMARK       I    between atoms: N2_18  and  C13_20 
REMARK    9  A    between atoms: C13_20  and  C14_22 
REMARK   10  A    between atoms: C14_22  and  N3_23 
REMARK   11  A    between atoms: C14_22  and  C21_35 
REMARK       I    between atoms: N3_23  and  C15_25 
REMARK   12  A    between atoms: C15_25  and  C16_27 
REMARK       I    between atoms: C16_27  and  N4_29 
REMARK   13  A    between atoms: N4_29  and  C17_31 
REMARK   14  A    between atoms: C24_38  and  N5_40 
ROOT
HETATM    1  C5  UNL     1      21.273  25.199  18.882  1.00  0.00     0.177 C 
ENDROOT
BRANCH   1   2
HETATM    2  C4  UNL     1      22.628  25.822  18.604  1.00  0.00     0.241 C 
HETATM    3  N1  UNL     1      23.835  25.229  18.950  1.00  0.00    -0.343 N 
ATOM      4  H1  UNL     1      23.784  24.327  19.423  1.00  0.00     0.163 HD
HETATM    5  O3  UNL     1      22.657  26.944  18.018  1.00  0.00    -0.271 OA
BRANCH   3   6
HETATM    6  C3  UNL     1      25.155  25.763  18.707  1.00  0.00     0.217 C 
BRANCH   6   7
HETATM    7  C2  UNL     1      25.538  26.835  19.612  1.00  0.00     0.283 C 
HETATM    8  O2  UNL     1      25.597  26.758  20.866  1.00  0.00    -0.263 OA
BRANCH   7   9
HETATM    9  O1  UNL     1      25.870  28.064  19.047  1.00  0.00    -0.325 OA
HETATM   10  C1  UNL     1      26.037  28.276  17.662  1.00  0.00     0.213 C 
ENDBRANCH   7   9
ENDBRANCH   6   7
BRANCH   6  11
HETATM   11  C24 UNL     1      26.193  24.643  18.770  1.00  0.00     0.251 C 
HETATM   12  C25 UNL     1      26.723  24.572  17.324  1.00  0.00     0.045 C 
BRANCH  11  13
HETATM   13  N5  UNL     1      25.656  23.379  19.086  1.00  0.00     0.099 N 
HETATM   14  C26 UNL     1      26.626  22.330  18.735  1.00  0.00     0.299 C 
HETATM   15  C27 UNL     1      27.794  22.296  19.685  1.00  0.00     0.198 C 
HETATM   16  O7  UNL     1      27.333  22.012  20.981  1.00  0.00    -0.388 OA
HETATM   17  C28 UNL     1      26.578  23.137  21.344  1.00  0.00     0.198 C 
HETATM   18  C29 UNL     1      25.335  23.107  20.460  1.00  0.00     0.299 C 
ENDBRANCH  11  13
ENDBRANCH   6  11
ENDBRANCH   3   6
ENDBRANCH   1   2
BRANCH   1  19
HETATM   19  C6  UNL     1      20.897  25.336  20.307  1.00  0.00     0.039 C 
BRANCH  19  20
HETATM   20  C7  UNL     1      20.381  24.114  20.983  1.00  0.00    -0.012 C 
HETATM   21  C8  UNL     1      18.900  23.899  20.853  1.00  0.00     0.005 C 
HETATM   22  C9  UNL     1      18.581  22.945  19.702  1.00  0.00     0.000 C 
HETATM   23  C10 UNL     1      19.116  21.570  19.929  1.00  0.00     0.000 C 
HETATM   24  C11 UNL     1      20.347  21.686  20.826  1.00  0.00     0.000 C 
HETATM   25  C12 UNL     1      21.088  22.923  20.313  1.00  0.00     0.005 C 
ENDBRANCH  19  20
ENDBRANCH   1  19
BRANCH   1  26
HETATM   26  N2  UNL     1      20.280  25.806  18.013  1.00  0.00    -0.346 N 
HETATM   27  C13 UNL     1      19.751  25.162  16.874  1.00  0.00     0.241 C 
HETATM   28  O4  UNL     1      20.225  23.984  16.668  1.00  0.00    -0.271 OA
ATOM     29  H2  UNL     1      19.949  26.745  18.237  1.00  0.00     0.163 HD
BRANCH  27  30
HETATM   30  C14 UNL     1      18.753  25.696  15.943  1.00  0.00     0.180 C 
BRANCH  30  31
HETATM   31  N3  UNL     1      17.970  24.589  15.440  1.00  0.00    -0.339 N 
HETATM   32  C15 UNL     1      16.896  23.961  16.109  1.00  0.00     0.310 C 
HETATM   33  O5  UNL     1      16.522  24.334  17.245  1.00  0.00    -0.262 OA
ATOM     34  H3  UNL     1      18.215  24.229  14.518  1.00  0.00     0.163 HD
BRANCH  32  35
HETATM   35  C16 UNL     1      16.175  22.842  15.498  1.00  0.00     0.309 C 
HETATM   36  O6  UNL     1      16.831  21.785  15.207  1.00  0.00    -0.262 OA
HETATM   37  N4  UNL     1      14.799  22.891  15.225  1.00  0.00    -0.345 N 
ATOM     38  H4  UNL     1      14.266  23.731  15.452  1.00  0.00     0.163 HD
BRANCH  37  39
HETATM   39  C17 UNL     1      14.121  21.740  14.616  1.00  0.00     0.022 C 
HETATM   40  C18 UNL     1      14.864  21.329  13.341  1.00  0.00     0.037 C 
HETATM   41  C19 UNL     1      12.712  22.069  14.261  1.00  0.00     0.037 C 
HETATM   42  C20 UNL     1      14.110  20.591  15.607  1.00  0.00     0.037 C 
ENDBRANCH  37  39
ENDBRANCH  32  35
ENDBRANCH  30  31
BRANCH  30  43
HETATM   43  C21 UNL     1      19.286  26.433  14.761  1.00  0.00     0.009 C 
HETATM   44  C22 UNL     1      20.228  27.548  15.137  1.00  0.00     0.012 C 
HETATM   45  C23 UNL     1      18.268  26.830  13.729  1.00  0.00     0.012 C 
ENDBRANCH  30  43
ENDBRANCH  27  30
ENDBRANCH   1  26
TORSDOF 14
ENDMDL
MODEL 5
REMARK VINA RESULT: -8.522477972      2.146      9.271
REMARK  14 active torsions:
REMARK  status: ('A' for Active; 'I' for Inactive)
REMARK    1  A    between atoms: O1_2  and  C2_3 
REMARK    2  A    between atoms: C2_3  and  C3_5 
REMARK    3  A    between atoms: C3_5  and  N1_6 
REMARK    4  A    between atoms: C3_5  and  C24_38 
REMARK       I    between atoms: N1_6  and  C4_8 
REMARK    5  A    between atoms: C4_8  and  C5_10 
REMARK    6  A    between atoms: C5_10  and  C6_11 
REMARK    7  A    between atoms: C5_10  and  N2_18 
REMARK    8  A    between atoms: C6_11  and  C7_12 
REMARK       I    between atoms: N2_18  and  C13_20 
REMARK    9  A    between atoms: C13_20  and  C14_22 
REMARK   10  A    between atoms: C14_22  and  N3_23 
REMARK   11  A    between atoms: C14_22  and  C21_35 
REMARK       I    between atoms: N3_23  and  C15_25 
REMARK   12  A    between atoms: C15_25  and  C16_27 
REMARK       I    between atoms: C16_27  and  N4_29 
REMARK   13  A    between atoms: N4_29  and  C17_31 
REMARK   14  A    between atoms: C24_38  and  N5_40 
ROOT
HETATM    1  C5  UNL     1      14.619  20.951  15.887  1.00  0.00     0.177 C 
ENDROOT
BRANCH   1   2
HETATM    2  C4  UNL     1      15.891  21.752  16.098  1.00  0.00     0.241 C 
HETATM    3  N1  UNL     1      16.154  22.494  17.240  1.00  0.00    -0.343 N 
ATOM      4  H1  UNL     1      15.436  22.492  17.964  1.00  0.00     0.163 HD
HETATM    5  O3  UNL     1      16.762  21.735  15.178  1.00  0.00    -0.271 OA
BRANCH   3   6
HETATM    6  C3  UNL     1      17.344  23.269  17.507  1.00  0.00     0.217 C 
BRANCH   6   7
HETATM    7  C2  UNL     1      17.092  24.680  17.748  1.00  0.00     0.283 C 
HETATM    8  O2  UNL     1      16.316  25.154  18.616  1.00  0.00    -0.263 OA
BRANCH   7   9
HETATM    9  O1  UNL     1      17.767  25.599  16.947  1.00  0.00    -0.325 OA
HETATM   10  C1  UNL     1      18.321  25.289  15.687  1.00  0.00     0.213 C 
ENDBRANCH   7   9
ENDBRANCH   6   7
BRANCH   6  11
HETATM   11  C24 UNL     1      18.102  22.673  18.692  1.00  0.00     0.251 C 
HETATM   12  C25 UNL     1      16.993  21.978  19.507  1.00  0.00     0.045 C 
BRANCH  11  13
HETATM   13  N5  UNL     1      18.704  23.632  19.531  1.00  0.00     0.099 N 
HETATM   14  C26 UNL     1      19.067  23.008  20.812  1.00  0.00     0.299 C 
HETATM   15  C27 UNL     1      20.252  22.086  20.679  1.00  0.00     0.198 C 
HETATM   16  O7  UNL     1      21.368  22.821  20.249  1.00  0.00    -0.388 OA
HETATM   17  C28 UNL     1      21.047  23.223  18.944  1.00  0.00     0.198 C 
HETATM   18  C29 UNL     1      19.925  24.246  19.086  1.00  0.00     0.299 C 
ENDBRANCH  11  13
ENDBRANCH   6  11
ENDBRANCH   3   6
ENDBRANCH   1   2
BRANCH   1  19
HETATM   19  C6  UNL     1      14.447  20.573  14.467  1.00  0.00     0.039 C 
BRANCH  19  20
HETATM   20  C7  UNL     1      13.080  20.721  13.896  1.00  0.00    -0.012 C 
HETATM   21  C8  UNL     1      12.364  19.428  13.628  1.00  0.00     0.005 C 
HETATM   22  C9  UNL     1      11.437  19.062  14.787  1.00  0.00     0.000 C 
HETATM   23  C10 UNL     1      10.328  20.045  14.970  1.00  0.00     0.000 C 
HETATM   24  C11 UNL     1      10.813  21.401  14.460  1.00  0.00     0.000 C 
HETATM   25  C12 UNL     1      12.262  21.502  14.940  1.00  0.00     0.005 C 
ENDBRANCH  19  20
ENDBRANCH   1  19
BRANCH   1  26
HETATM   26  N2  UNL     1      14.643  19.780  16.746  1.00  0.00    -0.346 N 
HETATM   27  C13 UNL     1      14.149  19.781  18.068  1.00  0.00     0.241 C 
HETATM   28  O4  UNL     1      13.672  20.912  18.452  1.00  0.00    -0.271 OA
ATOM     29  H2  UNL     1      15.037  18.915  16.376  1.00  0.00     0.163 HD
BRANCH  27  30
HETATM   30  C14 UNL     1      14.133  18.653  19.004  1.00  0.00     0.180 C 
BRANCH  30  31
HETATM   31  N3  UNL     1      13.263  17.631  18.465  1.00  0.00    -0.339 N 
HETATM   32  C15 UNL     1      11.895  17.788  18.151  1.00  0.00     0.310 C 
HETATM   33  O5  UNL     1      11.302  18.879  18.324  1.00  0.00    -0.262 OA
ATOM     34  H3  UNL     1      13.675  16.714  18.296  1.00  0.00     0.163 HD
BRANCH  32  35
HETATM   35  C16 UNL     1      11.112  16.676  17.610  1.00  0.00     0.309 C 
HETATM   36  O6  UNL     1      10.098  16.269  18.273  1.00  0.00    -0.262 OA
HETATM   37  N4  UNL     1      11.432  16.048  16.395  1.00  0.00    -0.345 N 
ATOM     38  H4  UNL     1      12.240  16.364  15.859  1.00  0.00     0.163 HD
BRANCH  37  39
HETATM   39  C17 UNL     1      10.611  14.940  15.892  1.00  0.00     0.022 C 
HETATM   40  C18 UNL     1      10.621  13.797  16.913  1.00  0.00     0.037 C 
HETATM   41  C19 UNL     1      11.133  14.425  14.596  1.00  0.00     0.037 C 
HETATM   42  C20 UNL     1       9.192  15.434  15.676  1.00  0.00     0.037 C 
ENDBRANCH  37  39
ENDBRANCH  32  35
ENDBRANCH  30  31
BRANCH  30  43
HETATM   43  C21 UNL     1      13.659  18.953  20.386  1.00  0.00     0.009 C 
HETATM   44  C22 UNL     1      14.684  19.684  21.215  1.00  0.00     0.012 C 
HETATM   45  C23 UNL     1      13.004  17.812  21.111  1.00  0.00     0.012 C 
ENDBRANCH  30  43
ENDBRANCH  27  30
ENDBRANCH   1  26
TORSDOF 14
ENDMDL
