MODEL 1
REMARK VINA RESULT: -11.347550183      0.000      0.000
REMARK  2 active torsions:
REMARK  status: ('A' for Active; 'I' for Inactive)
REMARK    1  A    between atoms: N2_12  and  C11_13 
REMARK    2  A    between atoms: C17_20  and  N3_21 
ROOT
HETATM    1  C1  UNL     1      -5.132   7.577 -12.077  1.00  0.00     0.070 C 
HETATM    2  C2  UNL     1      -3.682   7.594 -11.773  1.00  0.00     0.035 A 
HETATM    3  C3  UNL     1      -3.137   7.342 -10.522  1.00  0.00     0.079 A 
HETATM    4  C4  UNL     1      -3.797   7.026  -9.296  1.00  0.00     0.102 C 
HETATM    5  N1  UNL     1      -4.346   6.755  -8.310  1.00  0.00    -0.191 NA
HETATM    6  C5  UNL     1      -1.746   7.458 -10.668  1.00  0.00     0.014 A 
HETATM    7  C6  UNL     1      -0.709   7.313  -9.763  1.00  0.00     0.015 A 
HETATM    8  C7  UNL     1       0.594   7.483 -10.169  1.00  0.00     0.001 A 
HETATM    9  C8  UNL     1       0.839   7.796 -11.488  1.00  0.00     0.002 A 
HETATM   10  C9  UNL     1      -0.191   7.940 -12.390  1.00  0.00     0.031 A 
HETATM   11  C10 UNL     1      -1.502   7.771 -11.988  1.00  0.00     0.051 A 
HETATM   12  N2  UNL     1      -2.691   7.850 -12.643  1.00  0.00    -0.314 N 
ENDROOT
BRANCH  12  13
HETATM   13  C11 UNL     1      -2.784   8.164 -14.052  1.00  0.00     0.042 A 
HETATM   14  C12 UNL     1      -2.689   9.467 -14.482  1.00  0.00     0.031 A 
HETATM   15  C13 UNL     1      -2.776   9.781 -15.820  1.00  0.00     0.020 A 
HETATM   16  C14 UNL     1      -2.960   8.789 -16.760  1.00  0.00     0.042 A 
HETATM   17  C15 UNL     1      -3.032   9.215 -18.061  1.00  0.00     0.199 C 
HETATM   18  C22 UNL     1      -3.053   7.493 -16.311  1.00  0.00     0.051 A 
HETATM   19  O1  UNL     1      -3.092  10.452 -18.204  1.00  0.00    -0.286 OA
HETATM   20  C16 UNL     1      -3.048   8.504 -19.252  1.00  0.00     0.074 A 
HETATM   21  C17 UNL     1      -3.019   9.281 -20.386  1.00  0.00     0.114 A 
HETATM   22  C20 UNL     1      -3.090   7.138 -19.371  1.00  0.00     0.051 A 
HETATM   23  N4  UNL     1      -3.030   8.736 -21.620  1.00  0.00    -0.352 N 
HETATM   24  C18 UNL     1      -3.071   7.413 -21.771  1.00  0.00     0.090 A 
ATOM     25  H4  UNL     1      -3.007   9.341 -22.441  1.00  0.00     0.166 HD
HETATM   26  C19 UNL     1      -3.101   6.608 -20.646  1.00  0.00     0.035 A 
HETATM   27  C21 UNL     1      -3.123   6.202 -18.376  1.00  0.00     0.257 C 
HETATM   28  O2  UNL     1      -3.033   5.020 -18.766  1.00  0.00    -0.267 OA
HETATM   29  N5  UNL     1      -3.236   6.364 -17.057  1.00  0.00    -0.322 N 
ATOM     30  H5  UNL     1      -3.494   5.528 -16.533  1.00  0.00     0.169 HD
HETATM   31  C23 UNL     1      -2.968   7.177 -14.982  1.00  0.00     0.060 A 
BRANCH  21  32
HETATM   32  N3  UNL     1      -2.981  10.561 -20.216  1.00  0.00    -0.385 N 
ATOM     33  H32 UNL     1      -3.329  10.994 -19.360  1.00  0.00     0.157 HD
ATOM     34  H31 UNL     1      -2.589  11.116 -20.976  1.00  0.00     0.157 HD
ENDBRANCH  21  32
ENDBRANCH  12  13
TORSDOF 2
ENDMDL
MODEL 2
REMARK VINA RESULT: -11.129059472      1.210      1.319
REMARK  2 active torsions:
REMARK  status: ('A' for Active; 'I' for Inactive)
REMARK    1  A    between atoms: N2_12  and  C11_13 
REMARK    2  A    between atoms: C17_20  and  N3_21 
ROOT
HETATM    1  C1  UNL     1      -5.027   7.037 -12.093  1.00  0.00     0.070 C 
HETATM    2  C2  UNL     1      -3.591   7.221 -11.780  1.00  0.00     0.035 A 
HETATM    3  C3  UNL     1      -3.058   7.215 -10.499  1.00  0.00     0.079 A 
HETATM    4  C4  UNL     1      -3.720   7.042  -9.246  1.00  0.00     0.102 C 
HETATM    5  N1  UNL     1      -4.269   6.885  -8.235  1.00  0.00    -0.191 NA
HETATM    6  C5  UNL     1      -1.677   7.420 -10.645  1.00  0.00     0.014 A 
HETATM    7  C6  UNL     1      -0.654   7.505  -9.718  1.00  0.00     0.015 A 
HETATM    8  C7  UNL     1       0.641   7.715 -10.132  1.00  0.00     0.001 A 
HETATM    9  C8  UNL     1       0.892   7.837 -11.481  1.00  0.00     0.002 A 
HETATM   10  C9  UNL     1      -0.125   7.752 -12.406  1.00  0.00     0.031 A 
HETATM   11  C10 UNL     1      -1.428   7.541 -11.997  1.00  0.00     0.051 A 
HETATM   12  N2  UNL     1      -2.603   7.418 -12.669  1.00  0.00    -0.314 N 
ENDROOT
BRANCH  12  13
HETATM   13  C11 UNL     1      -2.687   7.498 -14.110  1.00  0.00     0.042 A 
HETATM   14  C12 UNL     1      -3.346   8.546 -14.711  1.00  0.00     0.031 A 
HETATM   15  C13 UNL     1      -3.434   8.635 -16.082  1.00  0.00     0.020 A 
HETATM   16  C14 UNL     1      -2.860   7.671 -16.884  1.00  0.00     0.042 A 
HETATM   17  C15 UNL     1      -3.009   7.861 -18.234  1.00  0.00     0.199 C 
HETATM   18  C22 UNL     1      -2.206   6.633 -16.266  1.00  0.00     0.051 A 
HETATM   19  O1  UNL     1      -3.787   8.782 -18.551  1.00  0.00    -0.286 OA
HETATM   20  C16 UNL     1      -2.440   7.202 -19.314  1.00  0.00     0.074 A 
HETATM   21  C17 UNL     1      -2.743   7.741 -20.541  1.00  0.00     0.114 A 
HETATM   22  C20 UNL     1      -1.631   6.096 -19.244  1.00  0.00     0.051 A 
HETATM   23  N4  UNL     1      -2.266   7.212 -21.687  1.00  0.00    -0.352 N 
HETATM   24  C18 UNL     1      -1.477   6.138 -21.655  1.00  0.00     0.090 A 
ATOM     25  H4  UNL     1      -2.509   7.637 -22.582  1.00  0.00     0.166 HD
HETATM   26  C19 UNL     1      -1.157   5.575 -20.432  1.00  0.00     0.035 A 
HETATM   27  C21 UNL     1      -1.217   5.418 -18.132  1.00  0.00     0.257 C 
HETATM   28  O2  UNL     1      -0.382   4.516 -18.349  1.00  0.00    -0.267 OA
HETATM   29  N5  UNL     1      -1.571   5.577 -16.856  1.00  0.00    -0.322 N 
ATOM     30  H5  UNL     1      -1.335   4.804 -16.235  1.00  0.00     0.169 HD
HETATM   31  C23 UNL     1      -2.116   6.540 -14.903  1.00  0.00     0.060 A 
BRANCH  21  32
HETATM   32  N3  UNL     1      -3.510   8.781 -20.549  1.00  0.00    -0.385 N 
ATOM     33  H32 UNL     1      -4.182   8.951 -19.801  1.00  0.00     0.157 HD
ATOM     34  H31 UNL     1      -3.411   9.422 -21.337  1.00  0.00     0.157 HD
ENDBRANCH  21  32
ENDBRANCH  12  13
TORSDOF 2
ENDMDL
MODEL 3
REMARK VINA RESULT: -11.088033193      1.215      2.438
REMARK  2 active torsions:
REMARK  status: ('A' for Active; 'I' for Inactive)
REMARK    1  A    between atoms: N2_12  and  C11_13 
REMARK    2  A    between atoms: C17_20  and  N3_21 
ROOT
HETATM    1  C1  UNL     1      -4.936   6.419 -11.933  1.00  0.00     0.070 C 
HETATM    2  C2  UNL     1      -3.585   6.882 -11.539  1.00  0.00     0.035 A 
HETATM    3  C3  UNL     1      -3.194   7.146 -10.235  1.00  0.00     0.079 A 
HETATM    4  C4  UNL     1      -3.949   7.045  -9.027  1.00  0.00     0.102 C 
HETATM    5  N1  UNL     1      -4.570   6.944  -8.051  1.00  0.00    -0.191 NA
HETATM    6  C5  UNL     1      -1.853   7.556 -10.301  1.00  0.00     0.014 A 
HETATM    7  C6  UNL     1      -0.958   7.941  -9.319  1.00  0.00     0.015 A 
HETATM    8  C7  UNL     1       0.327   8.302  -9.656  1.00  0.00     0.001 A 
HETATM    9  C8  UNL     1       0.695   8.271 -10.983  1.00  0.00     0.002 A 
HETATM   10  C9  UNL     1      -0.195   7.887 -11.961  1.00  0.00     0.031 A 
HETATM   11  C10 UNL     1      -1.486   7.523 -11.630  1.00  0.00     0.051 A 
HETATM   12  N2  UNL     1      -2.552   7.112 -12.366  1.00  0.00    -0.314 N 
ENDROOT
BRANCH  12  13
HETATM   13  C11 UNL     1      -2.497   6.971 -13.804  1.00  0.00     0.042 A 
HETATM   14  C12 UNL     1      -2.154   5.766 -14.372  1.00  0.00     0.031 A 
HETATM   15  C13 UNL     1      -2.097   5.617 -15.740  1.00  0.00     0.020 A 
HETATM   16  C14 UNL     1      -2.386   6.678 -16.571  1.00  0.00     0.042 A 
HETATM   17  C15 UNL     1      -2.298   6.417 -17.914  1.00  0.00     0.199 C 
HETATM   18  C22 UNL     1      -2.727   7.874 -15.986  1.00  0.00     0.051 A 
HETATM   19  O1  UNL     1      -1.805   5.308 -18.201  1.00  0.00    -0.286 OA
HETATM   20  C16 UNL     1      -2.667   7.176 -19.015  1.00  0.00     0.074 A 
HETATM   21  C17 UNL     1      -2.526   6.539 -20.226  1.00  0.00     0.114 A 
HETATM   22  C20 UNL     1      -3.140   8.463 -18.981  1.00  0.00     0.051 A 
HETATM   23  N4  UNL     1      -2.843   7.146 -21.388  1.00  0.00    -0.352 N 
HETATM   24  C18 UNL     1      -3.305   8.396 -21.391  1.00  0.00     0.090 A 
ATOM     25  H4  UNL     1      -2.728   6.645 -22.269  1.00  0.00     0.166 HD
HETATM   26  C19 UNL     1      -3.455   9.060 -20.186  1.00  0.00     0.035 A 
HETATM   27  C21 UNL     1      -3.348   9.260 -17.891  1.00  0.00     0.257 C 
HETATM   28  O2  UNL     1      -3.904  10.350 -18.137  1.00  0.00    -0.267 OA
HETATM   29  N5  UNL     1      -3.049   9.046 -16.609  1.00  0.00    -0.322 N 
ATOM     30  H5  UNL     1      -3.061   9.872 -16.011  1.00  0.00     0.169 HD
HETATM   31  C23 UNL     1      -2.785   8.027 -14.627  1.00  0.00     0.060 A 
BRANCH  21  32
HETATM   32  N3  UNL     1      -2.076   5.329 -20.200  1.00  0.00    -0.385 N 
ATOM     33  H32 UNL     1      -1.926   4.836 -19.319  1.00  0.00     0.157 HD
ATOM     34  H31 UNL     1      -1.878   4.890 -21.100  1.00  0.00     0.157 HD
ENDBRANCH  21  32
ENDBRANCH  12  13
TORSDOF 2
ENDMDL
MODEL 4
REMARK VINA RESULT: -10.973581371      2.745      8.691
REMARK  2 active torsions:
REMARK  status: ('A' for Active; 'I' for Inactive)
REMARK    1  A    between atoms: N2_12  and  C11_13 
REMARK    2  A    between atoms: C17_20  and  N3_21 
ROOT
HETATM    1  C1  UNL     1      -1.860   5.035 -16.787  1.00  0.00     0.070 C 
HETATM    2  C2  UNL     1      -2.268   6.394 -17.214  1.00  0.00     0.035 A 
HETATM    3  C3  UNL     1      -2.292   6.832 -18.530  1.00  0.00     0.079 A 
HETATM    4  C4  UNL     1      -1.948   6.126 -19.723  1.00  0.00     0.102 C 
HETATM    5  N1  UNL     1      -1.679   5.535 -20.686  1.00  0.00    -0.191 NA
HETATM    6  C5  UNL     1      -2.733   8.163 -18.495  1.00  0.00     0.014 A 
HETATM    7  C6  UNL     1      -2.946   9.090 -19.500  1.00  0.00     0.015 A 
HETATM    8  C7  UNL     1      -3.392  10.355 -19.192  1.00  0.00     0.001 A 
HETATM    9  C8  UNL     1      -3.618  10.673 -17.871  1.00  0.00     0.002 A 
HETATM   10  C9  UNL     1      -3.407   9.751 -16.870  1.00  0.00     0.031 A 
HETATM   11  C10 UNL     1      -2.960   8.479 -17.172  1.00  0.00     0.051 A 
HETATM   12  N2  UNL     1      -2.671   7.392 -16.410  1.00  0.00    -0.314 N 
ENDROOT
BRANCH  12  13
HETATM   13  C11 UNL     1      -2.805   7.393 -14.970  1.00  0.00     0.042 A 
HETATM   14  C12 UNL     1      -3.963   6.941 -14.379  1.00  0.00     0.031 A 
HETATM   15  C13 UNL     1      -4.104   6.937 -13.009  1.00  0.00     0.020 A 
HETATM   16  C14 UNL     1      -3.083   7.386 -12.199  1.00  0.00     0.042 A 
HETATM   17  C15 UNL     1      -3.332   7.336 -10.852  1.00  0.00     0.199 C 
HETATM   18  C22 UNL     1      -1.934   7.833 -12.807  1.00  0.00     0.051 A 
HETATM   19  O1  UNL     1      -4.508   7.053 -10.547  1.00  0.00    -0.286 OA
HETATM   20  C16 UNL     1      -2.498   7.546  -9.763  1.00  0.00     0.074 A 
HETATM   21  C17 UNL     1      -3.078   7.303  -8.540  1.00  0.00     0.114 A 
HETATM   22  C20 UNL     1      -1.192   7.962  -9.821  1.00  0.00     0.051 A 
HETATM   23  N4  UNL     1      -2.395   7.462  -7.387  1.00  0.00    -0.352 N 
HETATM   24  C18 UNL     1      -1.125   7.865  -7.407  1.00  0.00     0.090 A 
ATOM     25  H4  UNL     1      -2.854   7.272  -6.496  1.00  0.00     0.166 HD
HETATM   26  C19 UNL     1      -0.518   8.116  -8.625  1.00  0.00     0.035 A 
HETATM   27  C21 UNL     1      -0.444   8.253 -10.926  1.00  0.00     0.257 C 
HETATM   28  O2  UNL     1       0.759   8.491 -10.696  1.00  0.00    -0.267 OA
HETATM   29  N5  UNL     1      -0.807   8.318 -12.208  1.00  0.00    -0.322 N 
ATOM     30  H5  UNL     1      -0.153   8.797 -12.826  1.00  0.00     0.169 HD
HETATM   31  C23 UNL     1      -1.789   7.839 -14.168  1.00  0.00     0.060 A 
BRANCH  21  32
HETATM   32  N3  UNL     1      -4.310   6.914  -8.544  1.00  0.00    -0.385 N 
ATOM     33  H32 UNL     1      -5.053   7.510  -8.909  1.00  0.00     0.157 HD
ATOM     34  H31 UNL     1      -4.503   5.987  -8.166  1.00  0.00     0.157 HD
ENDBRANCH  21  32
ENDBRANCH  12  13
TORSDOF 2
ENDMDL
MODEL 5
REMARK VINA RESULT: -10.883660893      3.201      8.659
REMARK  2 active torsions:
REMARK  status: ('A' for Active; 'I' for Inactive)
REMARK    1  A    between atoms: N2_12  and  C11_13 
REMARK    2  A    between atoms: C17_20  and  N3_21 
ROOT
HETATM    1  C1  UNL     1      -3.065   5.234 -15.246  1.00  0.00     0.070 C 
HETATM    2  C2  UNL     1      -3.075   6.500 -16.015  1.00  0.00     0.035 A 
HETATM    3  C3  UNL     1      -3.112   6.579 -17.400  1.00  0.00     0.079 A 
HETATM    4  C4  UNL     1      -3.146   5.526 -18.364  1.00  0.00     0.102 C 
HETATM    5  N1  UNL     1      -3.188   4.661 -19.137  1.00  0.00    -0.191 NA
HETATM    6  C5  UNL     1      -3.109   7.946 -17.717  1.00  0.00     0.014 A 
HETATM    7  C6  UNL     1      -3.137   8.611 -18.930  1.00  0.00     0.015 A 
HETATM    8  C7  UNL     1      -3.126   9.986 -18.966  1.00  0.00     0.001 A 
HETATM    9  C8  UNL     1      -3.089  10.679 -17.776  1.00  0.00     0.002 A 
HETATM   10  C9  UNL     1      -3.062  10.018 -16.568  1.00  0.00     0.031 A 
HETATM   11  C10 UNL     1      -3.072   8.637 -16.524  1.00  0.00     0.051 A 
HETATM   12  N2  UNL     1      -3.051   7.741 -15.502  1.00  0.00    -0.314 N 
ENDROOT
BRANCH  12  13
HETATM   13  C11 UNL     1      -3.011   8.145 -14.114  1.00  0.00     0.042 A 
HETATM   14  C12 UNL     1      -4.177   8.405 -13.432  1.00  0.00     0.031 A 
HETATM   15  C13 UNL     1      -4.153   8.790 -12.110  1.00  0.00     0.020 A 
HETATM   16  C14 UNL     1      -2.955   8.922 -11.440  1.00  0.00     0.042 A 
HETATM   17  C15 UNL     1      -3.051   9.309 -10.129  1.00  0.00     0.199 C 
HETATM   18  C22 UNL     1      -1.801   8.656 -12.138  1.00  0.00     0.051 A 
HETATM   19  O1  UNL     1      -4.193   9.655  -9.767  1.00  0.00    -0.286 OA
HETATM   20  C16 UNL     1      -2.092   9.382  -9.129  1.00  0.00     0.074 A 
HETATM   21  C17 UNL     1      -2.580   9.719  -7.888  1.00  0.00     0.114 A 
HETATM   22  C20 UNL     1      -0.749   9.152  -9.286  1.00  0.00     0.051 A 
HETATM   23  N4  UNL     1      -1.772   9.830  -6.814  1.00  0.00    -0.352 N 
HETATM   24  C18 UNL     1      -0.462   9.613  -6.932  1.00  0.00     0.090 A 
ATOM     25  H4  UNL     1      -2.166  10.080  -5.907  1.00  0.00     0.166 HD
HETATM   26  C19 UNL     1       0.055   9.274  -8.170  1.00  0.00     0.035 A 
HETATM   27  C21 UNL     1      -0.076   8.811 -10.425  1.00  0.00     0.257 C 
HETATM   28  O2  UNL     1       1.131   8.541 -10.259  1.00  0.00    -0.267 OA
HETATM   29  N5  UNL     1      -0.516   8.722 -11.681  1.00  0.00    -0.322 N 
ATOM     30  H5  UNL     1       0.207   8.701 -12.400  1.00  0.00     0.169 HD
HETATM   31  C23 UNL     1      -1.819   8.274 -13.453  1.00  0.00     0.060 A 
BRANCH  21  32
HETATM   32  N3  UNL     1      -3.852   9.925  -7.797  1.00  0.00    -0.385 N 
ATOM     33  H32 UNL     1      -4.478   9.736  -8.580  1.00  0.00     0.157 HD
ATOM     34  H31 UNL     1      -4.199  10.283  -6.907  1.00  0.00     0.157 HD
ENDBRANCH  21  32
ENDBRANCH  12  13
TORSDOF 2
ENDMDL
