MODEL 1
REMARK VINA RESULT: -10.575019782      0.000      0.000
REMARK  5 active torsions:
REMARK  status: ('A' for Active; 'I' for Inactive)
REMARK    1  A    between atoms: C4_4  and  C5_5 
REMARK    2  A    between atoms: C8_11  and  C9_12 
REMARK    3  A    between atoms: C10_13  and  C11_14 
REMARK    4  A    between atoms: C20_30  and  C21_31 
REMARK    5  A    between atoms: C22_32  and  N5_33 
ROOT
HETATM    1  C5  UNL     1      -2.368   7.960 -14.613  1.00  0.00     0.121 C 
HETATM    2  N1  UNL     1      -1.175   7.798 -14.210  1.00  0.00    -0.339 N 
ATOM      3  H1  UNL     1      -0.530   7.556 -14.962  1.00  0.00     0.167 HD
HETATM    4  C6  UNL     1      -0.528   7.884 -12.908  1.00  0.00     0.069 A 
HETATM    5  C7  UNL     1       0.752   7.382 -12.827  1.00  0.00     0.083 A 
HETATM    6  S1  UNL     1       1.168   7.651 -11.198  1.00  0.00    -0.088 SA
HETATM    7  C8  UNL     1      -0.271   8.384 -10.661  1.00  0.00     0.087 A 
HETATM    8  C17 UNL     1      -1.049   8.398 -11.790  1.00  0.00     0.089 A 
HETATM    9  N2  UNL     1      -2.377   8.979 -11.659  1.00  0.00    -0.305 N 
ATOM     10  H2  UNL     1      -2.538   9.507 -10.802  1.00  0.00     0.171 HD
HETATM   11  C18 UNL     1      -3.478   8.918 -12.546  1.00  0.00     0.326 C 
HETATM   12  O1  UNL     1      -4.548   9.459 -12.177  1.00  0.00    -0.247 OA
HETATM   13  N3  UNL     1      -3.498   8.306 -13.821  1.00  0.00    -0.294 N 
ATOM     14  H3  UNL     1      -4.415   8.091 -14.212  1.00  0.00     0.172 HD
ENDROOT
BRANCH   1  15
HETATM   15  C4  UNL     1      -2.616   7.779 -16.039  1.00  0.00     0.024 A 
HETATM   16  C3  UNL     1      -2.418   6.599 -16.707  1.00  0.00     0.026 A 
HETATM   17  C2  UNL     1      -2.678   6.509 -18.060  1.00  0.00    -0.025 A 
HETATM   18  C1  UNL     1      -2.463   5.238 -18.764  1.00  0.00     0.051 C 
HETATM   19  C20 UNL     1      -3.143   7.588 -18.802  1.00  0.00     0.094 A 
HETATM   20  N4  UNL     1      -3.329   8.737 -18.124  1.00  0.00    -0.358 N 
HETATM   21  C19 UNL     1      -3.084   8.851 -16.806  1.00  0.00     0.104 A 
ATOM     22  H4  UNL     1      -3.669   9.554 -18.631  1.00  0.00     0.166 HD
BRANCH  19  23
HETATM   23  C21 UNL     1      -3.410   7.493 -20.213  1.00  0.00    -0.026 C 
HETATM   24  C22 UNL     1      -3.622   7.429 -21.402  1.00  0.00     0.010 C 
BRANCH  24  25
HETATM   25  N5  UNL     1      -3.851   7.363 -22.781  1.00  0.00    -0.359 N 
ATOM     26  H52 UNL     1      -3.179   7.522 -22.030  1.00  0.00     0.166 HD
ATOM     27  H51 UNL     1      -4.030   7.312 -23.784  1.00  0.00     0.166 HD
ENDBRANCH  24  25
ENDBRANCH  19  23
ENDBRANCH   1  15
BRANCH   7  28
HETATM   28  C9  UNL     1      -0.581   8.871  -9.324  1.00  0.00    -0.051 C 
HETATM   29  C10 UNL     1      -0.836   9.289  -8.221  1.00  0.00    -0.061 C 
BRANCH  29  30
HETATM   30  C11 UNL     1      -1.138   9.800  -6.917  1.00  0.00     0.018 A 
HETATM   31  C12 UNL     1      -0.554   9.200  -5.824  1.00  0.00     0.020 A 
HETATM   32  C13 UNL     1      -0.826   9.670  -4.561  1.00  0.00     0.001 A 
HETATM   33  C14 UNL     1      -1.678  10.739  -4.351  1.00  0.00     0.000 A 
HETATM   34  C15 UNL     1      -2.267  11.346  -5.432  1.00  0.00     0.001 A 
HETATM   35  C16 UNL     1      -1.982  10.862  -6.687  1.00  0.00     0.020 A 
ENDBRANCH  29  30
ENDBRANCH   7  28
TORSDOF 5
ENDMDL
MODEL 2
REMARK VINA RESULT: -10.480075616      0.693      1.548
REMARK  5 active torsions:
REMARK  status: ('A' for Active; 'I' for Inactive)
REMARK    1  A    between atoms: C4_4  and  C5_5 
REMARK    2  A    between atoms: C8_11  and  C9_12 
REMARK    3  A    between atoms: C10_13  and  C11_14 
REMARK    4  A    between atoms: C20_30  and  C21_31 
REMARK    5  A    between atoms: C22_32  and  N5_33 
ROOT
HETATM    1  C5  UNL     1      -2.457   8.137 -14.648  1.00  0.00     0.121 C 
HETATM    2  N1  UNL     1      -1.261   7.935 -14.274  1.00  0.00    -0.339 N 
ATOM      3  H1  UNL     1      -0.633   7.716 -15.047  1.00  0.00     0.167 HD
HETATM    4  C6  UNL     1      -0.591   7.949 -12.980  1.00  0.00     0.069 A 
HETATM    5  C7  UNL     1       0.680   7.421 -12.944  1.00  0.00     0.083 A 
HETATM    6  S1  UNL     1       1.128   7.606 -11.312  1.00  0.00    -0.088 SA
HETATM    7  C8  UNL     1      -0.287   8.341 -10.718  1.00  0.00     0.087 A 
HETATM    8  C17 UNL     1      -1.083   8.421 -11.832  1.00  0.00     0.089 A 
HETATM    9  N2  UNL     1      -2.398   9.020 -11.651  1.00  0.00    -0.305 N 
ATOM     10  H2  UNL     1      -2.535   9.512 -10.768  1.00  0.00     0.171 HD
HETATM   11  C18 UNL     1      -3.514   9.021 -12.521  1.00  0.00     0.326 C 
HETATM   12  O1  UNL     1      -4.568   9.563 -12.110  1.00  0.00    -0.247 OA
HETATM   13  N3  UNL     1      -3.567   8.468 -13.822  1.00  0.00    -0.294 N 
ATOM     14  H3  UNL     1      -4.494   8.288 -14.206  1.00  0.00     0.172 HD
ENDROOT
BRANCH   1  15
HETATM   15  C4  UNL     1      -2.731   8.026 -16.076  1.00  0.00     0.024 A 
HETATM   16  C3  UNL     1      -3.047   9.089 -16.880  1.00  0.00     0.026 A 
HETATM   17  C2  UNL     1      -3.294   8.900 -18.226  1.00  0.00    -0.025 A 
HETATM   18  C1  UNL     1      -3.629  10.049 -19.077  1.00  0.00     0.051 C 
HETATM   19  C20 UNL     1      -3.237   7.648 -18.824  1.00  0.00     0.094 A 
HETATM   20  N4  UNL     1      -2.925   6.618 -18.013  1.00  0.00    -0.358 N 
HETATM   21  C19 UNL     1      -2.681   6.775 -16.700  1.00  0.00     0.104 A 
ATOM     22  H4  UNL     1      -2.873   5.681 -18.412  1.00  0.00     0.166 HD
BRANCH  19  23
HETATM   23  C21 UNL     1      -3.497   7.453 -20.227  1.00  0.00    -0.026 C 
HETATM   24  C22 UNL     1      -3.703   7.306 -21.409  1.00  0.00     0.010 C 
BRANCH  24  25
HETATM   25  N5  UNL     1      -3.928   7.146 -22.781  1.00  0.00    -0.359 N 
ATOM     26  H52 UNL     1      -3.947   7.772 -21.976  1.00  0.00     0.166 HD
ATOM     27  H51 UNL     1      -4.088   7.017 -23.780  1.00  0.00     0.166 HD
ENDBRANCH  24  25
ENDBRANCH  19  23
ENDBRANCH   1  15
BRANCH   7  28
HETATM   28  C9  UNL     1      -0.567   8.772  -9.355  1.00  0.00    -0.051 C 
HETATM   29  C10 UNL     1      -0.798   9.144  -8.231  1.00  0.00    -0.061 C 
BRANCH  29  30
HETATM   30  C11 UNL     1      -1.077   9.600  -6.901  1.00  0.00     0.018 A 
HETATM   31  C12 UNL     1      -1.946  10.655  -6.735  1.00  0.00     0.020 A 
HETATM   32  C13 UNL     1      -2.231  11.112  -5.470  1.00  0.00     0.001 A 
HETATM   33  C14 UNL     1      -1.666  10.538  -4.345  1.00  0.00     0.000 A 
HETATM   34  C15 UNL     1      -0.798   9.486  -4.497  1.00  0.00     0.001 A 
HETATM   35  C16 UNL     1      -0.526   9.043  -5.770  1.00  0.00     0.020 A 
ENDBRANCH  29  30
ENDBRANCH   7  28
TORSDOF 5
ENDMDL
MODEL 3
REMARK VINA RESULT: -9.968665612      2.690     10.631
REMARK  5 active torsions:
REMARK  status: ('A' for Active; 'I' for Inactive)
REMARK    1  A    between atoms: C4_4  and  C5_5 
REMARK    2  A    between atoms: C8_11  and  C9_12 
REMARK    3  A    between atoms: C10_13  and  C11_14 
REMARK    4  A    between atoms: C20_30  and  C21_31 
REMARK    5  A    between atoms: C22_32  and  N5_33 
ROOT
HETATM    1  C5  UNL     1      -1.623   8.835  -9.945  1.00  0.00     0.121 C 
HETATM    2  N1  UNL     1      -0.727   7.951 -10.104  1.00  0.00    -0.339 N 
ATOM      3  H1  UNL     1      -0.237   7.719  -9.240  1.00  0.00     0.167 HD
HETATM    4  C6  UNL     1      -0.246   7.195 -11.253  1.00  0.00     0.069 A 
HETATM    5  C7  UNL     1       0.932   6.504 -11.080  1.00  0.00     0.083 A 
HETATM    6  S1  UNL     1       1.170   5.763 -12.595  1.00  0.00    -0.088 SA
HETATM    7  C8  UNL     1      -0.212   6.339 -13.405  1.00  0.00     0.087 A 
HETATM    8  C17 UNL     1      -0.829   7.107 -12.451  1.00  0.00     0.089 A 
HETATM    9  N2  UNL     1      -2.074   7.755 -12.842  1.00  0.00    -0.305 N 
ATOM     10  H2  UNL     1      -2.483   7.420 -13.714  1.00  0.00     0.171 HD
HETATM   11  C18 UNL     1      -2.798   8.780 -12.190  1.00  0.00     0.326 C 
HETATM   12  O1  UNL     1      -3.826   9.217 -12.762  1.00  0.00    -0.247 OA
HETATM   13  N3  UNL     1      -2.482   9.372 -10.944  1.00  0.00    -0.294 N 
ATOM     14  H3  UNL     1      -2.914  10.273 -10.742  1.00  0.00     0.172 HD
ENDROOT
BRANCH   1  15
HETATM   15  C4  UNL     1      -1.803   9.361  -8.596  1.00  0.00     0.024 A 
HETATM   16  C3  UNL     1      -0.926   9.144  -7.567  1.00  0.00     0.026 A 
HETATM   17  C2  UNL     1      -1.169   9.678  -6.316  1.00  0.00    -0.025 A 
HETATM   18  C1  UNL     1      -0.219   9.439  -5.222  1.00  0.00     0.051 C 
HETATM   19  C20 UNL     1      -2.292  10.446  -6.040  1.00  0.00     0.094 A 
HETATM   20  N4  UNL     1      -3.140  10.645  -7.068  1.00  0.00    -0.358 N 
HETATM   21  C19 UNL     1      -2.927  10.137  -8.295  1.00  0.00     0.104 A 
ATOM     22  H4  UNL     1      -3.979  11.204  -6.909  1.00  0.00     0.166 HD
BRANCH  19  23
HETATM   23  C21 UNL     1      -2.545  11.000  -4.736  1.00  0.00    -0.026 C 
HETATM   24  C22 UNL     1      -2.778  11.464  -3.643  1.00  0.00     0.010 C 
BRANCH  24  25
HETATM   25  N5  UNL     1      -3.063  11.994  -2.381  1.00  0.00    -0.359 N 
ATOM     26  H52 UNL     1      -3.334  11.921  -3.361  1.00  0.00     0.166 HD
ATOM     27  H51 UNL     1      -3.261  12.376  -1.455  1.00  0.00     0.166 HD
ENDBRANCH  24  25
ENDBRANCH  19  23
ENDBRANCH   1  15
BRANCH   7  28
HETATM   28  C9  UNL     1      -0.621   6.071 -14.777  1.00  0.00    -0.051 C 
HETATM   29  C10 UNL     1      -0.969   5.862 -15.913  1.00  0.00    -0.061 C 
BRANCH  29  30
HETATM   30  C11 UNL     1      -1.389   5.627 -17.263  1.00  0.00     0.018 A 
HETATM   31  C12 UNL     1      -2.734   5.480 -17.518  1.00  0.00     0.020 A 
HETATM   32  C13 UNL     1      -3.164   5.255 -18.804  1.00  0.00     0.001 A 
HETATM   33  C14 UNL     1      -2.277   5.170 -19.863  1.00  0.00     0.000 A 
HETATM   34  C15 UNL     1      -0.934   5.315 -19.621  1.00  0.00     0.001 A 
HETATM   35  C16 UNL     1      -0.524   5.540 -18.329  1.00  0.00     0.020 A 
ENDBRANCH  29  30
ENDBRANCH   7  28
TORSDOF 5
ENDMDL
MODEL 4
REMARK VINA RESULT: -9.828321463      2.748     10.742
REMARK  5 active torsions:
REMARK  status: ('A' for Active; 'I' for Inactive)
REMARK    1  A    between atoms: C4_4  and  C5_5 
REMARK    2  A    between atoms: C8_11  and  C9_12 
REMARK    3  A    between atoms: C10_13  and  C11_14 
REMARK    4  A    between atoms: C20_30  and  C21_31 
REMARK    5  A    between atoms: C22_32  and  N5_33 
ROOT
HETATM    1  C5  UNL     1      -2.252   8.729 -10.550  1.00  0.00     0.121 C 
HETATM    2  N1  UNL     1      -3.042   7.780 -10.841  1.00  0.00    -0.339 N 
ATOM      3  H1  UNL     1      -3.623   7.489 -10.054  1.00  0.00     0.167 HD
HETATM    4  C6  UNL     1      -3.300   7.014 -12.053  1.00  0.00     0.069 A 
HETATM    5  C7  UNL     1      -4.059   5.875 -11.908  1.00  0.00     0.083 A 
HETATM    6  S1  UNL     1      -4.145   5.264 -13.495  1.00  0.00    -0.088 SA
HETATM    7  C8  UNL     1      -3.227   6.451 -14.299  1.00  0.00     0.087 A 
HETATM    8  C17 UNL     1      -2.874   7.305 -13.286  1.00  0.00     0.089 A 
HETATM    9  N2  UNL     1      -2.064   8.457 -13.657  1.00  0.00    -0.305 N 
ATOM     10  H2  UNL     1      -2.003   8.641 -14.658  1.00  0.00     0.171 HD
HETATM   11  C18 UNL     1      -1.350   9.359 -12.833  1.00  0.00     0.326 C 
HETATM   12  O1  UNL     1      -0.672  10.248 -13.401  1.00  0.00    -0.247 OA
HETATM   13  N3  UNL     1      -1.321   9.362 -11.419  1.00  0.00    -0.294 N 
ATOM     14  H3  UNL     1      -0.555   9.871 -10.978  1.00  0.00     0.172 HD
ENDROOT
BRANCH   1  15
HETATM   15  C4  UNL     1      -2.300   9.236  -9.183  1.00  0.00     0.024 A 
HETATM   16  C3  UNL     1      -1.347   8.974  -8.235  1.00  0.00     0.026 A 
HETATM   17  C2  UNL     1      -1.465   9.493  -6.961  1.00  0.00    -0.025 A 
HETATM   18  C1  UNL     1      -0.435   9.205  -5.955  1.00  0.00     0.051 C 
HETATM   19  C20 UNL     1      -2.536  10.291  -6.579  1.00  0.00     0.094 A 
HETATM   20  N4  UNL     1      -3.461  10.534  -7.528  1.00  0.00    -0.358 N 
HETATM   21  C19 UNL     1      -3.369  10.042  -8.776  1.00  0.00     0.104 A 
ATOM     22  H4  UNL     1      -4.264  11.116  -7.290  1.00  0.00     0.166 HD
BRANCH  19  23
HETATM   23  C21 UNL     1      -2.659  10.829  -5.249  1.00  0.00    -0.026 C 
HETATM   24  C22 UNL     1      -2.780  11.270  -4.130  1.00  0.00     0.010 C 
BRANCH  24  25
HETATM   25  N5  UNL     1      -2.930  11.766  -2.830  1.00  0.00    -0.359 N 
ATOM     26  H52 UNL     1      -3.340  11.233  -3.597  1.00  0.00     0.166 HD
ATOM     27  H51 UNL     1      -3.027  12.132  -1.883  1.00  0.00     0.166 HD
ENDBRANCH  24  25
ENDBRANCH  19  23
ENDBRANCH   1  15
BRANCH   7  28
HETATM   28  C9  UNL     1      -2.906   6.524 -15.717  1.00  0.00    -0.051 C 
HETATM   29  C10 UNL     1      -2.627   6.574 -16.890  1.00  0.00    -0.061 C 
BRANCH  29  30
HETATM   30  C11 UNL     1      -2.287   6.622 -18.281  1.00  0.00     0.018 A 
HETATM   31  C12 UNL     1      -1.413   5.681 -18.778  1.00  0.00     0.020 A 
HETATM   32  C13 UNL     1      -1.070   5.704 -20.109  1.00  0.00     0.001 A 
HETATM   33  C14 UNL     1      -1.582   6.653 -20.976  1.00  0.00     0.000 A 
HETATM   34  C15 UNL     1      -2.454   7.596 -20.493  1.00  0.00     0.001 A 
HETATM   35  C16 UNL     1      -2.785   7.557 -19.160  1.00  0.00     0.020 A 
ENDBRANCH  29  30
ENDBRANCH   7  28
TORSDOF 5
ENDMDL
MODEL 5
REMARK VINA RESULT: -9.650528627      2.401     10.640
REMARK  5 active torsions:
REMARK  status: ('A' for Active; 'I' for Inactive)
REMARK    1  A    between atoms: C4_4  and  C5_5 
REMARK    2  A    between atoms: C8_11  and  C9_12 
REMARK    3  A    between atoms: C10_13  and  C11_14 
REMARK    4  A    between atoms: C20_30  and  C21_31 
REMARK    5  A    between atoms: C22_32  and  N5_33 
ROOT
HETATM    1  C5  UNL     1      -2.547   9.021 -10.471  1.00  0.00     0.121 C 
HETATM    2  N1  UNL     1      -1.540   8.384 -10.908  1.00  0.00    -0.339 N 
ATOM      3  H1  UNL     1      -0.810   8.260 -10.206  1.00  0.00     0.167 HD
HETATM    4  C6  UNL     1      -1.199   7.792 -12.195  1.00  0.00     0.069 A 
HETATM    5  C7  UNL     1       0.111   7.404 -12.362  1.00  0.00     0.083 A 
HETATM    6  S1  UNL     1       0.128   6.774 -13.944  1.00  0.00    -0.088 SA
HETATM    7  C8  UNL     1      -1.506   7.013 -14.355  1.00  0.00     0.087 A 
HETATM    8  C17 UNL     1      -2.026   7.589 -13.224  1.00  0.00     0.089 A 
HETATM    9  N2  UNL     1      -3.443   7.923 -13.256  1.00  0.00    -0.305 N 
ATOM     10  H2  UNL     1      -3.969   7.517 -14.030  1.00  0.00     0.171 HD
HETATM   11  C18 UNL     1      -4.199   8.728 -12.371  1.00  0.00     0.326 C 
HETATM   12  O1  UNL     1      -5.408   8.913 -12.647  1.00  0.00    -0.247 OA
HETATM   13  N3  UNL     1      -3.727   9.353 -11.192  1.00  0.00    -0.294 N 
ATOM     14  H3  UNL     1      -4.290  10.118 -10.822  1.00  0.00     0.172 HD
ENDROOT
BRANCH   1  15
HETATM   15  C4  UNL     1      -2.501   9.459  -9.080  1.00  0.00     0.024 A 
HETATM   16  C3  UNL     1      -1.517   9.101  -8.197  1.00  0.00     0.026 A 
HETATM   17  C2  UNL     1      -1.546   9.560  -6.895  1.00  0.00    -0.025 A 
HETATM   18  C1  UNL     1      -0.484   9.170  -5.958  1.00  0.00     0.051 C 
HETATM   19  C20 UNL     1      -2.553  10.390  -6.419  1.00  0.00     0.094 A 
HETATM   20  N4  UNL     1      -3.509  10.727  -7.307  1.00  0.00    -0.358 N 
HETATM   21  C19 UNL     1      -3.505  10.295  -8.580  1.00  0.00     0.104 A 
ATOM     22  H4  UNL     1      -4.268  11.335  -6.999  1.00  0.00     0.166 HD
BRANCH  19  23
HETATM   23  C21 UNL     1      -2.582  10.865  -5.061  1.00  0.00    -0.026 C 
HETATM   24  C22 UNL     1      -2.627  11.269  -3.922  1.00  0.00     0.010 C 
BRANCH  24  25
HETATM   25  N5  UNL     1      -2.697  11.734  -2.604  1.00  0.00    -0.359 N 
ATOM     26  H52 UNL     1      -2.103  11.454  -3.385  1.00  0.00     0.166 HD
ATOM     27  H51 UNL     1      -2.760  12.073  -1.644  1.00  0.00     0.166 HD
ENDBRANCH  24  25
ENDBRANCH  19  23
ENDBRANCH   1  15
BRANCH   7  28
HETATM   28  C9  UNL     1      -2.171   6.682 -15.607  1.00  0.00    -0.051 C 
HETATM   29  C10 UNL     1      -2.729   6.422 -16.645  1.00  0.00    -0.061 C 
BRANCH  29  30
HETATM   30  C11 UNL     1      -3.397   6.127 -17.878  1.00  0.00     0.018 A 
HETATM   31  C12 UNL     1      -4.029   7.152 -18.545  1.00  0.00     0.020 A 
HETATM   32  C13 UNL     1      -4.677   6.897 -19.731  1.00  0.00     0.001 A 
HETATM   33  C14 UNL     1      -4.715   5.627 -20.281  1.00  0.00     0.000 A 
HETATM   34  C15 UNL     1      -4.089   4.597 -19.625  1.00  0.00     0.001 A 
HETATM   35  C16 UNL     1      -3.446   4.872 -18.442  1.00  0.00     0.020 A 
ENDBRANCH  29  30
ENDBRANCH   7  28
TORSDOF 5
ENDMDL
