MODEL 1
REMARK VINA RESULT: -6.584291474      0.000      0.000
REMARK  4 active torsions:
REMARK  status: ('A' for Active; 'I' for Inactive)
REMARK    1  A    between atoms: N2_4  and  N3_6 
REMARK       I    between atoms: N3_6  and  C1_8 
REMARK       I    between atoms: C1_8  and  N5_12 
REMARK    2  A    between atoms: N5_12  and  N6_14 
REMARK    3  A    between atoms: N6_14  and  O1_16 
REMARK    4  A    between atoms: O1_16  and  C2_17 
ROOT
HETATM    1  N3  UNL     1      57.839  69.505  61.802  1.00  0.00    -0.117 N 
ATOM      2  H3  UNL     1      58.723  69.391  61.306  1.00  0.00     0.207 HD
HETATM    3  C1  UNL     1      56.882  68.450  61.766  1.00  0.00     0.707 C 
HETATM    4  N4  UNL     1      55.692  68.623  62.181  1.00  0.00    -0.232 N 
ATOM      5  H41 UNL     1      55.008  67.867  62.156  1.00  0.00     0.174 HD
ATOM      6  H42 UNL     1      55.404  69.530  62.549  1.00  0.00     0.174 HD
HETATM    7  N5  UNL     1      57.282  67.189  61.255  1.00  0.00    -0.111 N 
ATOM      8  H5  UNL     1      58.200  66.810  61.486  1.00  0.00     0.207 HD
ENDROOT
BRANCH   1   9
HETATM    9  N2  UNL     1      57.598  70.688  62.495  1.00  0.00    -0.235 N 
HETATM   10  N1  UNL     1      58.363  71.668  62.313  1.00  0.00    -0.330 N 
ATOM     11  H12 UNL     1      59.144  71.582  61.664  1.00  0.00     0.178 HD
ATOM     12  H11 UNL     1      58.186  72.535  62.821  1.00  0.00     0.178 HD
ATOM     13  H2  UNL     1      56.812  70.758  63.141  1.00  0.00     0.208 HD
ENDBRANCH   1   9
BRANCH   7  14
HETATM   14  N6  UNL     1      56.480  66.527  60.499  1.00  0.00    -0.184 N 
ATOM     15  H6  UNL     1      55.499  66.374  60.731  1.00  0.00     0.217 HD
BRANCH  14  16
HETATM   16  O1  UNL     1      57.069  66.035  59.334  1.00  0.00    -0.189 OA
BRANCH  16  17
HETATM   17  C2  UNL     1      58.229  66.673  58.920  1.00  0.00     0.251 C 
HETATM   18  N7  UNL     1      58.117  67.493  57.926  1.00  0.00    -0.366 N 
ATOM     19  H72 UNL     1      57.210  67.645  57.485  1.00  0.00     0.159 HD
ATOM     20  H71 UNL     1      58.971  67.963  57.622  1.00  0.00     0.159 HD
HETATM   21  N8  UNL     1      59.492  66.462  59.534  1.00  0.00    -0.055 NA
ENDBRANCH  16  17
ENDBRANCH  14  16
ENDBRANCH   7  14
TORSDOF 4
ENDMDL
MODEL 2
REMARK VINA RESULT: -6.531692376      1.569      2.106
REMARK  4 active torsions:
REMARK  status: ('A' for Active; 'I' for Inactive)
REMARK    1  A    between atoms: N2_4  and  N3_6 
REMARK       I    between atoms: N3_6  and  C1_8 
REMARK       I    between atoms: C1_8  and  N5_12 
REMARK    2  A    between atoms: N5_12  and  N6_14 
REMARK    3  A    between atoms: N6_14  and  O1_16 
REMARK    4  A    between atoms: O1_16  and  C2_17 
ROOT
HETATM    1  N3  UNL     1      57.892  70.087  62.275  1.00  0.00    -0.117 N 
ATOM      2  H3  UNL     1      57.151  69.650  62.823  1.00  0.00     0.207 HD
HETATM    3  C1  UNL     1      58.698  69.275  61.426  1.00  0.00     0.707 C 
HETATM    4  N4  UNL     1      59.760  69.728  60.893  1.00  0.00    -0.232 N 
ATOM      5  H41 UNL     1      60.336  69.146  60.285  1.00  0.00     0.174 HD
ATOM      6  H42 UNL     1      60.052  70.689  61.068  1.00  0.00     0.174 HD
HETATM    7  N5  UNL     1      58.292  67.939  61.183  1.00  0.00    -0.111 N 
ATOM      8  H5  UNL     1      57.308  67.721  61.029  1.00  0.00     0.207 HD
ENDROOT
BRANCH   1   9
HETATM    9  N2  UNL     1      58.091  71.461  62.377  1.00  0.00    -0.235 N 
HETATM   10  N1  UNL     1      57.169  72.239  62.021  1.00  0.00    -0.330 N 
ATOM     11  H12 UNL     1      56.295  71.852  61.666  1.00  0.00     0.178 HD
ATOM     12  H11 UNL     1      57.314  73.246  62.095  1.00  0.00     0.178 HD
ATOM     13  H2  UNL     1      58.971  71.832  62.734  1.00  0.00     0.208 HD
ENDBRANCH   1   9
BRANCH   7  14
HETATM   14  N6  UNL     1      59.173  67.002  61.157  1.00  0.00    -0.184 N 
ATOM     15  H6  UNL     1      59.576  66.597  62.002  1.00  0.00     0.217 HD
BRANCH  14  16
HETATM   16  O1  UNL     1      59.530  66.588  59.873  1.00  0.00    -0.189 OA
BRANCH  16  17
HETATM   17  C2  UNL     1      58.504  66.542  58.940  1.00  0.00     0.251 C 
HETATM   18  N7  UNL     1      58.687  67.205  57.844  1.00  0.00    -0.366 N 
ATOM     19  H72 UNL     1      59.551  67.728  57.698  1.00  0.00     0.159 HD
ATOM     20  H71 UNL     1      57.933  67.172  57.158  1.00  0.00     0.159 HD
HETATM   21  N8  UNL     1      57.302  65.815  59.143  1.00  0.00    -0.055 NA
ENDBRANCH  16  17
ENDBRANCH  14  16
ENDBRANCH   7  14
TORSDOF 4
ENDMDL
MODEL 3
REMARK VINA RESULT: -6.531129314      1.339      1.639
REMARK  4 active torsions:
REMARK  status: ('A' for Active; 'I' for Inactive)
REMARK    1  A    between atoms: N2_4  and  N3_6 
REMARK       I    between atoms: N3_6  and  C1_8 
REMARK       I    between atoms: C1_8  and  N5_12 
REMARK    2  A    between atoms: N5_12  and  N6_14 
REMARK    3  A    between atoms: N6_14  and  O1_16 
REMARK    4  A    between atoms: O1_16  and  C2_17 
ROOT
HETATM    1  N3  UNL     1      58.057  69.932  62.064  1.00  0.00    -0.117 N 
ATOM      2  H3  UNL     1      58.984  70.357  62.043  1.00  0.00     0.207 HD
HETATM    3  C1  UNL     1      57.922  68.547  61.760  1.00  0.00     0.707 C 
HETATM    4  N4  UNL     1      56.780  68.022  61.564  1.00  0.00    -0.232 N 
ATOM      5  H41 UNL     1      56.683  67.031  61.346  1.00  0.00     0.174 HD
ATOM      6  H42 UNL     1      55.936  68.593  61.623  1.00  0.00     0.174 HD
HETATM    7  N5  UNL     1      59.093  67.753  61.677  1.00  0.00    -0.111 N 
ATOM      8  H5  UNL     1      59.849  67.882  62.350  1.00  0.00     0.207 HD
ENDROOT
BRANCH   1   9
HETATM    9  N2  UNL     1      56.956  70.720  62.391  1.00  0.00    -0.235 N 
HETATM   10  N1  UNL     1      56.986  71.948  62.125  1.00  0.00    -0.330 N 
ATOM     11  H12 UNL     1      57.811  72.346  61.677  1.00  0.00     0.178 HD
ATOM     12  H11 UNL     1      56.179  72.526  62.364  1.00  0.00     0.178 HD
ATOM     13  H2  UNL     1      56.139  70.307  62.839  1.00  0.00     0.208 HD
ENDBRANCH   1   9
BRANCH   7  14
HETATM   14  N6  UNL     1      59.199  66.870  60.749  1.00  0.00    -0.184 N 
ATOM     15  H6  UNL     1      59.302  65.873  60.941  1.00  0.00     0.217 HD
BRANCH  14  16
HETATM   16  O1  UNL     1      59.159  67.392  59.456  1.00  0.00    -0.189 OA
BRANCH  16  17
HETATM   17  C2  UNL     1      58.114  66.957  58.654  1.00  0.00     0.251 C 
HETATM   18  N7  UNL     1      58.037  67.475  57.471  1.00  0.00    -0.366 N 
ATOM     19  H72 UNL     1      58.722  68.167  57.167  1.00  0.00     0.159 HD
ATOM     20  H71 UNL     1      57.268  67.156  56.881  1.00  0.00     0.159 HD
HETATM   21  N8  UNL     1      57.160  65.995  59.077  1.00  0.00    -0.055 NA
ENDBRANCH  16  17
ENDBRANCH  14  16
ENDBRANCH   7  14
TORSDOF 4
ENDMDL
MODEL 4
REMARK VINA RESULT: -6.344843131      2.552      5.202
REMARK  4 active torsions:
REMARK  status: ('A' for Active; 'I' for Inactive)
REMARK    1  A    between atoms: N2_4  and  N3_6 
REMARK       I    between atoms: N3_6  and  C1_8 
REMARK       I    between atoms: C1_8  and  N5_12 
REMARK    2  A    between atoms: N5_12  and  N6_14 
REMARK    3  A    between atoms: N6_14  and  O1_16 
REMARK    4  A    between atoms: O1_16  and  C2_17 
ROOT
HETATM    1  N3  UNL     1      58.210  67.195  60.433  1.00  0.00    -0.117 N 
ATOM      2  H3  UNL     1      57.281  66.784  60.529  1.00  0.00     0.207 HD
HETATM    3  C1  UNL     1      58.503  68.413  61.111  1.00  0.00     0.707 C 
HETATM    4  N4  UNL     1      59.560  69.073  60.856  1.00  0.00    -0.232 N 
ATOM      5  H41 UNL     1      59.770  69.945  61.342  1.00  0.00     0.174 HD
ATOM      6  H42 UNL     1      60.219  68.735  60.154  1.00  0.00     0.174 HD
HETATM    7  N5  UNL     1      57.587  68.884  62.085  1.00  0.00    -0.111 N 
ATOM      8  H5  UNL     1      57.146  68.230  62.733  1.00  0.00     0.207 HD
ENDROOT
BRANCH   1   9
HETATM    9  N2  UNL     1      59.158  66.552  59.641  1.00  0.00    -0.235 N 
HETATM   10  N1  UNL     1      59.177  66.781  58.405  1.00  0.00    -0.330 N 
ATOM     11  H12 UNL     1      58.502  67.430  58.004  1.00  0.00     0.178 HD
ATOM     12  H11 UNL     1      59.872  66.310  57.825  1.00  0.00     0.178 HD
ATOM     13  H2  UNL     1      59.826  65.905  60.058  1.00  0.00     0.208 HD
ENDBRANCH   1   9
BRANCH   7  14
HETATM   14  N6  UNL     1      57.316  70.139  62.149  1.00  0.00    -0.184 N 
ATOM     15  H6  UNL     1      56.484  70.548  61.724  1.00  0.00     0.217 HD
BRANCH  14  16
HETATM   16  O1  UNL     1      58.258  70.893  62.849  1.00  0.00    -0.189 OA
BRANCH  16  17
HETATM   17  C2  UNL     1      58.269  72.254  62.584  1.00  0.00     0.251 C 
HETATM   18  N7  UNL     1      57.156  72.775  62.177  1.00  0.00    -0.366 N 
ATOM     19  H72 UNL     1      56.327  72.192  62.064  1.00  0.00     0.159 HD
ATOM     20  H71 UNL     1      57.165  73.776  61.982  1.00  0.00     0.159 HD
HETATM   21  N8  UNL     1      59.423  73.066  62.741  1.00  0.00    -0.055 NA
ENDBRANCH  16  17
ENDBRANCH  14  16
ENDBRANCH   7  14
TORSDOF 4
ENDMDL
MODEL 5
REMARK VINA RESULT: -6.327837130      1.516      2.063
REMARK  4 active torsions:
REMARK  status: ('A' for Active; 'I' for Inactive)
REMARK    1  A    between atoms: N2_4  and  N3_6 
REMARK       I    between atoms: N3_6  and  C1_8 
REMARK       I    between atoms: C1_8  and  N5_12 
REMARK    2  A    between atoms: N5_12  and  N6_14 
REMARK    3  A    between atoms: N6_14  and  O1_16 
REMARK    4  A    between atoms: O1_16  and  C2_17 
ROOT
HETATM    1  N3  UNL     1      56.455  68.967  62.485  1.00  0.00    -0.117 N 
ATOM      2  H3  UNL     1      55.874  68.145  62.651  1.00  0.00     0.207 HD
HETATM    3  C1  UNL     1      57.680  68.819  61.772  1.00  0.00     0.707 C 
HETATM    4  N4  UNL     1      58.535  69.759  61.726  1.00  0.00    -0.232 N 
ATOM      5  H41 UNL     1      59.411  69.653  61.216  1.00  0.00     0.174 HD
ATOM      6  H42 UNL     1      58.353  70.642  62.204  1.00  0.00     0.174 HD
HETATM    7  N5  UNL     1      57.933  67.593  61.108  1.00  0.00    -0.111 N 
ATOM      8  H5  UNL     1      57.185  67.119  60.602  1.00  0.00     0.207 HD
ENDROOT
BRANCH   1   9
HETATM    9  N2  UNL     1      56.031  70.205  62.961  1.00  0.00    -0.235 N 
HETATM   10  N1  UNL     1      55.296  70.919  62.233  1.00  0.00    -0.330 N 
ATOM     11  H12 UNL     1      55.024  70.582  61.310  1.00  0.00     0.178 HD
ATOM     12  H11 UNL     1      54.985  71.826  62.582  1.00  0.00     0.178 HD
ATOM     13  H2  UNL     1      56.312  70.527  63.887  1.00  0.00     0.208 HD
ENDBRANCH   1   9
BRANCH   7  14
HETATM   14  N6  UNL     1      59.113  67.081  61.147  1.00  0.00    -0.184 N 
ATOM     15  H6  UNL     1      59.704  67.114  61.977  1.00  0.00     0.217 HD
BRANCH  14  16
HETATM   16  O1  UNL     1      59.513  66.477  59.954  1.00  0.00    -0.189 OA
BRANCH  16  17
HETATM   17  C2  UNL     1      58.567  66.441  58.941  1.00  0.00     0.251 C 
HETATM   18  N7  UNL     1      58.808  67.166  57.896  1.00  0.00    -0.366 N 
ATOM     19  H72 UNL     1      59.658  67.727  57.845  1.00  0.00     0.159 HD
ATOM     20  H71 UNL     1      58.112  67.139  57.151  1.00  0.00     0.159 HD
HETATM   21  N8  UNL     1      57.383  65.661  59.012  1.00  0.00    -0.055 NA
ENDBRANCH  16  17
ENDBRANCH  14  16
ENDBRANCH   7  14
TORSDOF 4
ENDMDL
