MODEL 1
REMARK VINA RESULT: -7.639093088      0.000      0.000
REMARK  7 active torsions:
REMARK  status: ('A' for Active; 'I' for Inactive)
REMARK    1  A    between atoms: O1_1  and  N1_3 
REMARK    2  A    between atoms: C1_5  and  N2_6 
REMARK    3  A    between atoms: C1_5  and  C12_24 
REMARK    4  A    between atoms: N2_6  and  C2_8 
REMARK    5  A    between atoms: C2_8  and  C3_9 
REMARK    6  A    between atoms: C4_14  and  C5_15 
REMARK    7  A    between atoms: C5_15  and  C6_16 
ROOT
HETATM    1  C3  UNL     1      16.679   5.204  14.230  1.00  0.00     0.115 A 
HETATM    2  N3  UNL     1      17.751   4.419  14.459  1.00  0.00    -0.286 N 
ATOM      3  H3  UNL     1      17.718   3.464  14.816  1.00  0.00     0.188 HD
HETATM    4  N4  UNL     1      18.860   5.089  14.147  1.00  0.00    -0.287 N 
ATOM      5  H4  UNL     1      19.811   4.730  14.226  1.00  0.00     0.188 HD
HETATM    6  C4  UNL     1      18.516   6.324  13.707  1.00  0.00     0.097 A 
HETATM    7  N5  UNL     1      17.175   6.363  13.771  1.00  0.00    -0.332 N 
ATOM      8  H5  UNL     1      16.608   7.168  13.506  1.00  0.00     0.168 HD
ENDROOT
BRANCH   1   9
HETATM    9  C2  UNL     1      15.243   4.853  14.443  1.00  0.00     0.199 C 
BRANCH   9  10
HETATM   10  N2  UNL     1      14.975   4.469  15.811  1.00  0.00    -0.364 N 
ATOM     11  H2  UNL     1      14.818   5.195  16.509  1.00  0.00     0.161 HD
BRANCH  10  12
HETATM   12  C1  UNL     1      14.926   3.105  16.204  1.00  0.00     0.176 C 
HETATM   13  N1  UNL     1      13.837   2.608  16.675  1.00  0.00    -0.249 N 
ATOM     14  H1  UNL     1      13.017   3.209  16.757  1.00  0.00     0.196 HD
BRANCH  13  15
HETATM   15  O1  UNL     1      13.737   1.297  17.069  1.00  0.00    -0.288 OA
ATOM     16  H1  UNL     1      14.127   0.976  17.874  1.00  0.00     0.244 HD
ENDBRANCH  13  15
BRANCH  12  17
HETATM   17  C12 UNL     1      16.082   2.225  16.097  1.00  0.00     0.226 A 
HETATM   18  N6  UNL     1      16.206   0.945  15.670  1.00  0.00    -0.253 N 
HETATM   19  N7  UNL     1      17.506   1.018  15.921  1.00  0.00     0.030 NA
ATOM     20  H6  UNL     1      15.572   0.231  15.310  1.00  0.00     0.187 HD
HETATM   21  O2  UNL     1      17.368   2.243  16.328  1.00  0.00    -0.200 OA
ENDBRANCH  12  17
ENDBRANCH  10  12
ENDBRANCH   9  10
ENDBRANCH   1   9
BRANCH   6  22
HETATM   22  C5  UNL     1      19.461   7.381  13.260  1.00  0.00     0.082 C 
BRANCH  22  23
HETATM   23  C6  UNL     1      18.978   8.768  13.603  1.00  0.00    -0.007 C 
HETATM   24  C7  UNL     1      19.686   9.837  12.827  1.00  0.00     0.005 C 
HETATM   25  C8  UNL     1      21.090   9.974  13.416  1.00  0.00     0.000 C 
HETATM   26  C9  UNL     1      20.937  10.734  14.716  1.00  0.00     0.000 C 
HETATM   27  C10 UNL     1      19.658  10.385  15.399  1.00  0.00     0.000 C 
HETATM   28  C11 UNL     1      19.165   8.995  15.067  1.00  0.00     0.005 C 
ENDBRANCH  22  23
ENDBRANCH   6  22
TORSDOF 7
ENDMDL
MODEL 2
REMARK VINA RESULT: -7.472039363      2.127      2.631
REMARK  7 active torsions:
REMARK  status: ('A' for Active; 'I' for Inactive)
REMARK    1  A    between atoms: O1_1  and  N1_3 
REMARK    2  A    between atoms: C1_5  and  N2_6 
REMARK    3  A    between atoms: C1_5  and  C12_24 
REMARK    4  A    between atoms: N2_6  and  C2_8 
REMARK    5  A    between atoms: C2_8  and  C3_9 
REMARK    6  A    between atoms: C4_14  and  C5_15 
REMARK    7  A    between atoms: C5_15  and  C6_16 
ROOT
HETATM    1  C3  UNL     1      18.195   4.817  11.981  1.00  0.00     0.115 A 
HETATM    2  N3  UNL     1      19.322   4.313  12.523  1.00  0.00    -0.286 N 
ATOM      3  H3  UNL     1      19.501   3.324  12.702  1.00  0.00     0.188 HD
HETATM    4  N4  UNL     1      20.166   5.309  12.787  1.00  0.00    -0.287 N 
ATOM      5  H4  UNL     1      21.092   5.208  13.201  1.00  0.00     0.188 HD
HETATM    6  C4  UNL     1      19.590   6.479  12.416  1.00  0.00     0.097 A 
HETATM    7  N5  UNL     1      18.385   6.143  11.928  1.00  0.00    -0.332 N 
ATOM      8  H5  UNL     1      17.704   6.809  11.565  1.00  0.00     0.168 HD
ENDROOT
BRANCH   1   9
HETATM    9  C2  UNL     1      16.990   4.054  11.536  1.00  0.00     0.199 C 
BRANCH   9  10
HETATM   10  N2  UNL     1      16.307   3.424  12.643  1.00  0.00    -0.364 N 
ATOM     11  H2  UNL     1      15.660   3.974  13.207  1.00  0.00     0.161 HD
BRANCH  10  12
HETATM   12  C1  UNL     1      16.517   2.055  12.964  1.00  0.00     0.176 C 
HETATM   13  N1  UNL     1      16.549   1.171  12.030  1.00  0.00    -0.249 N 
ATOM     14  H1  UNL     1      16.424   1.472  11.064  1.00  0.00     0.196 HD
BRANCH  13  15
HETATM   15  O1  UNL     1      16.748  -0.163  12.287  1.00  0.00    -0.288 OA
ATOM     16  H1  UNL     1      16.038  -0.795  12.276  1.00  0.00     0.244 HD
ENDBRANCH  13  15
BRANCH  12  17
HETATM   17  C12 UNL     1      16.699   1.600  14.336  1.00  0.00     0.226 A 
HETATM   18  N6  UNL     1      17.150   2.235  15.445  1.00  0.00    -0.253 N 
HETATM   19  N7  UNL     1      16.970   1.110  16.125  1.00  0.00     0.030 NA
ATOM     20  H6  UNL     1      17.484   3.173  15.664  1.00  0.00     0.187 HD
HETATM   21  O2  UNL     1      16.542   0.518  15.052  1.00  0.00    -0.200 OA
ENDBRANCH  12  17
ENDBRANCH  10  12
ENDBRANCH   9  10
ENDBRANCH   1   9
BRANCH   6  22
HETATM   22  C5  UNL     1      20.204   7.828  12.544  1.00  0.00     0.082 C 
BRANCH  22  23
HETATM   23  C6  UNL     1      19.280   8.820  13.204  1.00  0.00    -0.007 C 
HETATM   24  C7  UNL     1      19.713  10.240  13.001  1.00  0.00     0.005 C 
HETATM   25  C8  UNL     1      20.925  10.481  13.902  1.00  0.00     0.000 C 
HETATM   26  C9  UNL     1      20.389  10.631  15.310  1.00  0.00     0.000 C 
HETATM   27  C10 UNL     1      19.206   9.751  15.534  1.00  0.00     0.000 C 
HETATM   28  C11 UNL     1      19.209   8.515  14.664  1.00  0.00     0.005 C 
ENDBRANCH  22  23
ENDBRANCH   6  22
TORSDOF 7
ENDMDL
MODEL 3
REMARK VINA RESULT: -7.445958863      3.458      4.419
REMARK  7 active torsions:
REMARK  status: ('A' for Active; 'I' for Inactive)
REMARK    1  A    between atoms: O1_1  and  N1_3 
REMARK    2  A    between atoms: C1_5  and  N2_6 
REMARK    3  A    between atoms: C1_5  and  C12_24 
REMARK    4  A    between atoms: N2_6  and  C2_8 
REMARK    5  A    between atoms: C2_8  and  C3_9 
REMARK    6  A    between atoms: C4_14  and  C5_15 
REMARK    7  A    between atoms: C5_15  and  C6_16 
ROOT
HETATM    1  C3  UNL     1      17.435   5.858  14.021  1.00  0.00     0.115 A 
HETATM    2  N3  UNL     1      18.072   7.047  14.001  1.00  0.00    -0.286 N 
ATOM      3  H3  UNL     1      18.804   7.336  14.650  1.00  0.00     0.188 HD
HETATM    4  N4  UNL     1      17.596   7.783  12.998  1.00  0.00    -0.287 N 
ATOM      5  H4  UNL     1      17.902   8.726  12.756  1.00  0.00     0.188 HD
HETATM    6  C4  UNL     1      16.637   7.075  12.352  1.00  0.00     0.097 A 
HETATM    7  N5  UNL     1      16.562   5.903  13.003  1.00  0.00    -0.332 N 
ATOM      8  H5  UNL     1      15.925   5.146  12.757  1.00  0.00     0.168 HD
ENDROOT
BRANCH   1   9
HETATM    9  C2  UNL     1      17.657   4.733  14.978  1.00  0.00     0.199 C 
BRANCH   9  10
HETATM   10  N2  UNL     1      16.444   3.990  15.233  1.00  0.00    -0.364 N 
ATOM     11  H2  UNL     1      15.618   4.484  15.571  1.00  0.00     0.161 HD
BRANCH  10  12
HETATM   12  C1  UNL     1      16.373   2.587  15.021  1.00  0.00     0.176 C 
HETATM   13  N1  UNL     1      16.791   2.079  13.916  1.00  0.00    -0.249 N 
ATOM     14  H1  UNL     1      17.172   2.700  13.202  1.00  0.00     0.196 HD
BRANCH  13  15
HETATM   15  O1  UNL     1      16.746   0.730  13.662  1.00  0.00    -0.288 OA
ATOM     16  H1  UNL     1      17.518   0.179  13.698  1.00  0.00     0.244 HD
ENDBRANCH  13  15
BRANCH  12  17
HETATM   17  C12 UNL     1      15.836   1.678  16.025  1.00  0.00     0.226 A 
HETATM   18  N6  UNL     1      15.308   1.899  17.253  1.00  0.00    -0.253 N 
HETATM   19  N7  UNL     1      15.125   0.591  17.377  1.00  0.00     0.030 NA
ATOM     20  H6  UNL     1      15.129   2.719  17.833  1.00  0.00     0.187 HD
HETATM   21  O2  UNL     1      15.635   0.398  16.199  1.00  0.00    -0.200 OA
ENDBRANCH  12  17
ENDBRANCH  10  12
ENDBRANCH   9  10
ENDBRANCH   1   9
BRANCH   6  22
HETATM   22  C5  UNL     1      15.857   7.541  11.175  1.00  0.00     0.082 C 
BRANCH  22  23
HETATM   23  C6  UNL     1      15.145   8.844  11.436  1.00  0.00    -0.007 C 
HETATM   24  C7  UNL     1      13.687   8.787  11.095  1.00  0.00     0.005 C 
HETATM   25  C8  UNL     1      13.574   8.811   9.570  1.00  0.00     0.000 C 
HETATM   26  C9  UNL     1      13.827  10.242   9.145  1.00  0.00     0.000 C 
HETATM   27  C10 UNL     1      14.834  10.898  10.027  1.00  0.00     0.000 C 
HETATM   28  C11 UNL     1      15.809   9.923  10.646  1.00  0.00     0.005 C 
ENDBRANCH  22  23
ENDBRANCH   6  22
TORSDOF 7
ENDMDL
MODEL 4
REMARK VINA RESULT: -7.440784443      1.450      1.800
REMARK  7 active torsions:
REMARK  status: ('A' for Active; 'I' for Inactive)
REMARK    1  A    between atoms: O1_1  and  N1_3 
REMARK    2  A    between atoms: C1_5  and  N2_6 
REMARK    3  A    between atoms: C1_5  and  C12_24 
REMARK    4  A    between atoms: N2_6  and  C2_8 
REMARK    5  A    between atoms: C2_8  and  C3_9 
REMARK    6  A    between atoms: C4_14  and  C5_15 
REMARK    7  A    between atoms: C5_15  and  C6_16 
ROOT
HETATM    1  C3  UNL     1      18.509   4.609  12.555  1.00  0.00     0.115 A 
HETATM    2  N3  UNL     1      19.828   4.338  12.636  1.00  0.00    -0.286 N 
ATOM      3  H3  UNL     1      20.236   3.407  12.724  1.00  0.00     0.188 HD
HETATM    4  N4  UNL     1      20.515   5.478  12.583  1.00  0.00    -0.287 N 
ATOM      5  H4  UNL     1      21.530   5.562  12.624  1.00  0.00     0.188 HD
HETATM    6  C4  UNL     1      19.642   6.509  12.465  1.00  0.00     0.097 A 
HETATM    7  N5  UNL     1      18.424   5.944  12.453  1.00  0.00    -0.332 N 
ATOM      8  H5  UNL     1      17.549   6.461  12.375  1.00  0.00     0.168 HD
ENDROOT
BRANCH   1   9
HETATM    9  C2  UNL     1      17.385   3.626  12.577  1.00  0.00     0.199 C 
BRANCH   9  10
HETATM   10  N2  UNL     1      16.222   4.148  13.258  1.00  0.00    -0.364 N 
ATOM     11  H2  UNL     1      15.642   4.845  12.791  1.00  0.00     0.161 HD
BRANCH  10  12
HETATM   12  C1  UNL     1      15.867   3.712  14.563  1.00  0.00     0.176 C 
HETATM   13  N1  UNL     1      14.920   4.301  15.206  1.00  0.00    -0.249 N 
ATOM     14  H1  UNL     1      14.435   5.080  14.761  1.00  0.00     0.196 HD
BRANCH  13  15
HETATM   15  O1  UNL     1      14.539   3.919  16.468  1.00  0.00    -0.288 OA
ATOM     16  H1  UNL     1      13.704   4.170  16.845  1.00  0.00     0.244 HD
ENDBRANCH  13  15
BRANCH  12  17
HETATM   17  C12 UNL     1      16.543   2.602  15.220  1.00  0.00     0.226 A 
HETATM   18  N6  UNL     1      16.587   1.277  14.938  1.00  0.00    -0.253 N 
HETATM   19  N7  UNL     1      17.374   1.109  15.993  1.00  0.00     0.030 NA
ATOM     20  H6  UNL     1      16.187   0.669  14.223  1.00  0.00     0.187 HD
HETATM   21  O2  UNL     1      17.319   2.380  16.249  1.00  0.00    -0.200 OA
ENDBRANCH  12  17
ENDBRANCH  10  12
ENDBRANCH   9  10
ENDBRANCH   1   9
BRANCH   6  22
HETATM   22  C5  UNL     1      20.005   7.949  12.375  1.00  0.00     0.082 C 
BRANCH  22  23
HETATM   23  C6  UNL     1      19.088   8.826  13.189  1.00  0.00    -0.007 C 
HETATM   24  C7  UNL     1      19.357  10.287  12.993  1.00  0.00     0.005 C 
HETATM   25  C8  UNL     1      20.649  10.616  13.742  1.00  0.00     0.000 C 
HETATM   26  C9  UNL     1      20.290  10.671  15.212  1.00  0.00     0.000 C 
HETATM   27  C10 UNL     1      19.233   9.674  15.547  1.00  0.00     0.000 C 
HETATM   28  C11 UNL     1      19.236   8.471  14.631  1.00  0.00     0.005 C 
ENDBRANCH  22  23
ENDBRANCH   6  22
TORSDOF 7
ENDMDL
MODEL 5
REMARK VINA RESULT: -7.375417270      5.018      5.916
REMARK  7 active torsions:
REMARK  status: ('A' for Active; 'I' for Inactive)
REMARK    1  A    between atoms: O1_1  and  N1_3 
REMARK    2  A    between atoms: C1_5  and  N2_6 
REMARK    3  A    between atoms: C1_5  and  C12_24 
REMARK    4  A    between atoms: N2_6  and  C2_8 
REMARK    5  A    between atoms: C2_8  and  C3_9 
REMARK    6  A    between atoms: C4_14  and  C5_15 
REMARK    7  A    between atoms: C5_15  and  C6_16 
ROOT
HETATM    1  C3  UNL     1      17.024   5.314  11.220  1.00  0.00     0.115 A 
HETATM    2  N3  UNL     1      17.138   4.928   9.932  1.00  0.00    -0.286 N 
ATOM      3  H3  UNL     1      17.579   4.066   9.611  1.00  0.00     0.188 HD
HETATM    4  N4  UNL     1      16.584   5.851   9.147  1.00  0.00    -0.287 N 
ATOM      5  H4  UNL     1      16.533   5.810   8.129  1.00  0.00     0.188 HD
HETATM    6  C4  UNL     1      16.100   6.852   9.922  1.00  0.00     0.097 A 
HETATM    7  N5  UNL     1      16.387   6.494  11.184  1.00  0.00    -0.332 N 
ATOM      8  H5  UNL     1      16.150   7.046  12.008  1.00  0.00     0.168 HD
ENDROOT
BRANCH   1   9
HETATM    9  C2  UNL     1      17.508   4.580  12.426  1.00  0.00     0.199 C 
BRANCH   9  10
HETATM   10  N2  UNL     1      16.451   3.830  13.066  1.00  0.00    -0.364 N 
ATOM     11  H2  UNL     1      15.607   4.318  13.367  1.00  0.00     0.161 HD
BRANCH  10  12
HETATM   12  C1  UNL     1      16.558   2.430  13.284  1.00  0.00     0.176 C 
HETATM   13  N1  UNL     1      16.580   1.621  12.284  1.00  0.00    -0.249 N 
ATOM     14  H1  UNL     1      16.520   2.003  11.341  1.00  0.00     0.196 HD
BRANCH  13  15
HETATM   15  O1  UNL     1      16.683   0.261  12.441  1.00  0.00    -0.288 OA
ATOM     16  H1  UNL     1      16.335  -0.353  11.805  1.00  0.00     0.244 HD
ENDBRANCH  13  15
BRANCH  12  17
HETATM   17  C12 UNL     1      16.647   1.859  14.621  1.00  0.00     0.226 A 
HETATM   18  N6  UNL     1      17.146   2.350  15.782  1.00  0.00    -0.253 N 
HETATM   19  N7  UNL     1      16.807   1.212  16.374  1.00  0.00     0.030 NA
ATOM     20  H6  UNL     1      17.591   3.220  16.074  1.00  0.00     0.187 HD
HETATM   21  O2  UNL     1      16.336   0.758  15.253  1.00  0.00    -0.200 OA
ENDBRANCH  12  17
ENDBRANCH  10  12
ENDBRANCH   9  10
ENDBRANCH   1   9
BRANCH   6  22
HETATM   22  C5  UNL     1      15.407   8.073   9.432  1.00  0.00     0.082 C 
BRANCH  22  23
HETATM   23  C6  UNL     1      14.037   7.773   8.878  1.00  0.00    -0.007 C 
HETATM   24  C7  UNL     1      14.033   7.630   7.386  1.00  0.00     0.005 C 
HETATM   25  C8  UNL     1      14.174   9.033   6.794  1.00  0.00     0.000 C 
HETATM   26  C9  UNL     1      12.822   9.698   6.939  1.00  0.00     0.000 C 
HETATM   27  C10 UNL     1      12.140   9.268   8.194  1.00  0.00     0.000 C 
HETATM   28  C11 UNL     1      13.103   8.863   9.287  1.00  0.00     0.005 C 
ENDBRANCH  22  23
ENDBRANCH   6  22
TORSDOF 7
ENDMDL
