MODEL 1
REMARK VINA RESULT: -7.705740461      0.000      0.000
REMARK  10 active torsions:
REMARK  status: ('A' for Active; 'I' for Inactive)
REMARK       I    between atoms: N2_3  and  C2_4 
REMARK    1  A    between atoms: C2_4  and  C3_6 
REMARK    2  A    between atoms: C3_6  and  N3_7 
REMARK    3  A    between atoms: C3_6  and  C17_42 
REMARK    4  A    between atoms: N3_7  and  C4_9 
REMARK    5  A    between atoms: C4_9  and  C5_10 
REMARK    6  A    between atoms: C4_9  and  C11_24 
REMARK    7  A    between atoms: N7_17  and  C6_18 
REMARK    8  A    between atoms: C6_18  and  C7_19 
REMARK    9  A    between atoms: C16_37  and  N12_38 
REMARK   10  A    between atoms: C20_45  and  O4_46 
ROOT
HETATM    1  N1  UNL     1      27.444  -9.802  47.358  1.00  0.00    -0.156 NA
HETATM    2  C1  UNL     1      27.771  -9.445  48.412  1.00  0.00     0.271 C 
HETATM    3  N2  UNL     1      28.097  -9.038  49.614  1.00  0.00    -0.289 NA
HETATM    4  C2  UNL     1      28.438  -8.611  50.874  1.00  0.00     0.329 C 
HETATM    5  O1  UNL     1      29.587  -8.444  51.285  1.00  0.00    -0.254 OA
ENDROOT
BRANCH   4   6
HETATM    6  C3  UNL     1      27.247  -8.331  51.787  1.00  0.00     0.220 C 
BRANCH   6   7
HETATM    7  N3  UNL     1      27.023  -9.257  52.789  1.00  0.00    -0.389 N 
ATOM      8  H3  UNL     1      27.742  -9.378  53.502  1.00  0.00     0.155 HD
BRANCH   7   9
HETATM    9  C4  UNL     1      25.841 -10.052  52.883  1.00  0.00     0.204 C 
BRANCH   9  10
HETATM   10  C5  UNL     1      25.107  -9.947  54.160  1.00  0.00     0.144 A 
HETATM   11  N4  UNL     1      25.530  -9.322  55.278  1.00  0.00    -0.270 N 
HETATM   12  N5  UNL     1      24.693  -9.455  56.273  1.00  0.00    -0.227 N 
ATOM     13  H4  UNL     1      26.407  -8.804  55.340  1.00  0.00     0.190 HD
HETATM   14  N6  UNL     1      23.700 -10.174  55.808  1.00  0.00    -0.224 N 
ATOM     15  H5  UNL     1      24.792  -9.076  57.215  1.00  0.00     0.210 HD
HETATM   16  N7  UNL     1      23.944 -10.480  54.503  1.00  0.00    -0.255 N 
ATOM     17  H6  UNL     1      22.877 -10.459  56.338  1.00  0.00     0.210 HD
BRANCH  16  18
HETATM   18  C6  UNL     1      22.933 -11.191  53.784  1.00  0.00     0.217 C 
BRANCH  18  19
HETATM   19  C7  UNL     1      23.280 -12.648  53.570  1.00  0.00     0.072 A 
HETATM   20  C8  UNL     1      23.641 -13.518  54.529  1.00  0.00     0.036 A 
HETATM   21  C9  UNL     1      23.866 -14.750  53.890  1.00  0.00     0.027 A 
HETATM   22  C10 UNL     1      23.612 -14.505  52.555  1.00  0.00     0.142 A 
HETATM   23  O2  UNL     1      23.266 -13.253  52.386  1.00  0.00    -0.325 OA
ENDBRANCH  18  19
ENDBRANCH  16  18
ENDBRANCH   9  10
BRANCH   9  24
HETATM   24  C11 UNL     1      26.412 -11.462  52.801  1.00  0.00     0.120 A 
HETATM   25  C12 UNL     1      26.955 -12.142  53.870  1.00  0.00     0.156 A 
HETATM   26  C13 UNL     1      27.148 -11.736  55.248  1.00  0.00     0.120 C 
HETATM   27  N9  UNL     1      27.381 -13.365  53.468  1.00  0.00    -0.178 N 
HETATM   28  N8  UNL     1      27.332 -11.405  56.353  1.00  0.00    -0.190 NA
HETATM   29  C14 UNL     1      27.109 -13.453  52.148  1.00  0.00     0.709 A 
ATOM     30  H9  UNL     1      27.821 -14.079  54.049  1.00  0.00     0.185 HD
HETATM   31  N10 UNL     1      27.319 -14.418  51.234  1.00  0.00    -0.139 N 
HETATM   32  N13 UNL     1      26.516 -12.284  51.744  1.00  0.00     0.024 N 
HETATM   33  C15 UNL     1      26.983 -14.303  49.947  1.00  0.00     0.352 A 
ATOM     34  H10 UNL     1      27.761 -15.284  51.541  1.00  0.00     0.189 HD
HETATM   35  O3  UNL     1      27.220 -15.261  49.165  1.00  0.00    -0.246 OA
HETATM   36  N11 UNL     1      26.405 -13.158  49.570  1.00  0.00    -0.140 N 
HETATM   37  C16 UNL     1      26.181 -12.172  50.465  1.00  0.00     0.701 A 
ATOM     38  H11 UNL     1      26.131 -13.029  48.597  1.00  0.00     0.189 HD
BRANCH  37  39
HETATM   39  N12 UNL     1      25.625 -11.112  50.030  1.00  0.00    -0.233 N 
ATOM     40 2H12 UNL     1      25.856 -10.745  49.107  1.00  0.00     0.174 HD
ATOM     41 1H12 UNL     1      24.950 -10.657  50.645  1.00  0.00     0.174 HD
ENDBRANCH  37  39
ENDBRANCH   9  24
ENDBRANCH   7   9
ENDBRANCH   6   7
BRANCH   6  42
HETATM   42  C17 UNL     1      27.542  -7.004  52.371  1.00  0.00    -0.025 A 
HETATM   43  C18 UNL     1      27.439  -6.741  53.732  1.00  0.00     0.012 A 
HETATM   44  C19 UNL     1      27.719  -5.490  54.244  1.00  0.00     0.037 A 
HETATM   45  C20 UNL     1      28.110  -4.455  53.409  1.00  0.00     0.065 A 
HETATM   46  C21 UNL     1      28.217  -4.695  52.066  1.00  0.00     0.037 A 
HETATM   47  C22 UNL     1      27.934  -5.967  51.556  1.00  0.00     0.012 A 
BRANCH  45  48
HETATM   48  O4  UNL     1      28.391  -3.173  53.942  1.00  0.00    -0.361 OA
ATOM     49  H4  UNL     1      29.148  -3.042  54.502  1.00  0.00     0.217 HD
ENDBRANCH  45  48
ENDBRANCH   6  42
ENDBRANCH   4   6
TORSDOF 10
ENDMDL
MODEL 2
REMARK VINA RESULT: -7.609658978      2.805      5.652
REMARK  10 active torsions:
REMARK  status: ('A' for Active; 'I' for Inactive)
REMARK       I    between atoms: N2_3  and  C2_4 
REMARK    1  A    between atoms: C2_4  and  C3_6 
REMARK    2  A    between atoms: C3_6  and  N3_7 
REMARK    3  A    between atoms: C3_6  and  C17_42 
REMARK    4  A    between atoms: N3_7  and  C4_9 
REMARK    5  A    between atoms: C4_9  and  C5_10 
REMARK    6  A    between atoms: C4_9  and  C11_24 
REMARK    7  A    between atoms: N7_17  and  C6_18 
REMARK    8  A    between atoms: C6_18  and  C7_19 
REMARK    9  A    between atoms: C16_37  and  N12_38 
REMARK   10  A    between atoms: C20_45  and  O4_46 
ROOT
HETATM    1  N1  UNL     1      28.235  -3.780  53.895  1.00  0.00    -0.156 NA
HETATM    2  C1  UNL     1      27.766  -4.828  54.052  1.00  0.00     0.271 C 
HETATM    3  N2  UNL     1      27.266  -6.030  54.201  1.00  0.00    -0.289 NA
HETATM    4  C2  UNL     1      26.741  -7.290  54.356  1.00  0.00     0.329 C 
HETATM    5  O1  UNL     1      25.772  -7.579  55.058  1.00  0.00    -0.254 OA
ENDROOT
BRANCH   4   6
HETATM    6  C3  UNL     1      27.463  -8.373  53.559  1.00  0.00     0.220 C 
BRANCH   6   7
HETATM    7  N3  UNL     1      26.713  -9.491  53.241  1.00  0.00    -0.389 N 
ATOM      8  H3  UNL     1      26.266  -9.525  52.325  1.00  0.00     0.155 HD
BRANCH   7   9
HETATM    9  C4  UNL     1      26.529 -10.599  54.122  1.00  0.00     0.204 C 
BRANCH   9  10
HETATM   10  C5  UNL     1      27.160 -11.862  53.690  1.00  0.00     0.144 A 
HETATM   11  N4  UNL     1      27.849 -12.064  52.548  1.00  0.00    -0.270 N 
HETATM   12  N5  UNL     1      28.231 -13.306  52.407  1.00  0.00    -0.227 N 
ATOM     13  H4  UNL     1      28.049 -11.329  51.870  1.00  0.00     0.190 HD
HETATM   14  N6  UNL     1      27.792 -13.936  53.470  1.00  0.00    -0.224 N 
ATOM     15  H5  UNL     1      28.761 -13.702  51.630  1.00  0.00     0.210 HD
HETATM   16  N7  UNL     1      27.133 -13.053  54.270  1.00  0.00    -0.255 N 
ATOM     17  H6  UNL     1      27.923 -14.928  53.666  1.00  0.00     0.210 HD
BRANCH  16  18
HETATM   18  C6  UNL     1      26.648 -13.527  55.530  1.00  0.00     0.217 C 
BRANCH  18  19
HETATM   19  C7  UNL     1      27.533 -13.123  56.689  1.00  0.00     0.072 A 
HETATM   20  C8  UNL     1      28.572 -13.827  57.166  1.00  0.00     0.036 A 
HETATM   21  C9  UNL     1      29.106 -13.085  58.234  1.00  0.00     0.027 A 
HETATM   22  C10 UNL     1      28.312 -11.958  58.308  1.00  0.00     0.142 A 
HETATM   23  O2  UNL     1      27.384 -11.998  57.384  1.00  0.00    -0.325 OA
ENDBRANCH  18  19
ENDBRANCH  16  18
ENDBRANCH   9  10
BRANCH   9  24
HETATM   24  C11 UNL     1      25.021 -10.798  54.056  1.00  0.00     0.120 A 
HETATM   25  C12 UNL     1      24.335 -11.159  52.916  1.00  0.00     0.156 A 
HETATM   26  C13 UNL     1      24.806 -11.402  51.568  1.00  0.00     0.120 C 
HETATM   27  N9  UNL     1      23.009 -11.244  53.187  1.00  0.00    -0.178 N 
HETATM   28  N8  UNL     1      25.176 -11.573  50.474  1.00  0.00    -0.190 NA
HETATM   29  C14 UNL     1      22.860 -10.934  54.493  1.00  0.00     0.709 A 
ATOM     30  H9  UNL     1      22.267 -11.493  52.531  1.00  0.00     0.185 HD
HETATM   31  N10 UNL     1      21.783 -10.844  55.294  1.00  0.00    -0.139 N 
HETATM   32  N13 UNL     1      24.096 -10.660  55.021  1.00  0.00     0.024 N 
HETATM   33  C15 UNL     1      21.846 -10.501  56.582  1.00  0.00     0.352 A 
ATOM     34  H10 UNL     1      20.867 -11.049  54.894  1.00  0.00     0.189 HD
HETATM   35  O3  UNL     1      20.782 -10.443  57.254  1.00  0.00    -0.246 OA
HETATM   36  N11 UNL     1      23.058 -10.239  57.082  1.00  0.00    -0.140 N 
HETATM   37  C16 UNL     1      24.158 -10.321  56.302  1.00  0.00     0.701 A 
ATOM     38  H11 UNL     1      23.152  -9.975  58.062  1.00  0.00     0.189 HD
BRANCH  37  39
HETATM   39  N12 UNL     1      25.277 -10.059  56.851  1.00  0.00    -0.233 N 
ATOM     40 2H12 UNL     1      25.603  -9.095  56.932  1.00  0.00     0.174 HD
ATOM     41 1H12 UNL     1      25.820 -10.850  57.197  1.00  0.00     0.174 HD
ENDBRANCH  37  39
ENDBRANCH   9  24
ENDBRANCH   7   9
ENDBRANCH   6   7
BRANCH   6  42
HETATM   42  C17 UNL     1      27.903  -7.684  52.326  1.00  0.00    -0.025 A 
HETATM   43  C18 UNL     1      27.013  -7.126  51.417  1.00  0.00     0.012 A 
HETATM   44  C19 UNL     1      27.459  -6.492  50.273  1.00  0.00     0.037 A 
HETATM   45  C20 UNL     1      28.814  -6.397  50.000  1.00  0.00     0.065 A 
HETATM   46  C21 UNL     1      29.705  -6.941  50.884  1.00  0.00     0.037 A 
HETATM   47  C22 UNL     1      29.245  -7.580  52.041  1.00  0.00     0.012 A 
BRANCH  45  48
HETATM   48  O4  UNL     1      29.262  -5.749  48.823  1.00  0.00    -0.361 OA
ATOM     49  H4  UNL     1      30.026  -6.071  48.359  1.00  0.00     0.217 HD
ENDBRANCH  45  48
ENDBRANCH   6  42
ENDBRANCH   4   6
TORSDOF 10
ENDMDL
MODEL 3
REMARK VINA RESULT: -7.578667235      2.615      6.821
REMARK  10 active torsions:
REMARK  status: ('A' for Active; 'I' for Inactive)
REMARK       I    between atoms: N2_3  and  C2_4 
REMARK    1  A    between atoms: C2_4  and  C3_6 
REMARK    2  A    between atoms: C3_6  and  N3_7 
REMARK    3  A    between atoms: C3_6  and  C17_42 
REMARK    4  A    between atoms: N3_7  and  C4_9 
REMARK    5  A    between atoms: C4_9  and  C5_10 
REMARK    6  A    between atoms: C4_9  and  C11_24 
REMARK    7  A    between atoms: N7_17  and  C6_18 
REMARK    8  A    between atoms: C6_18  and  C7_19 
REMARK    9  A    between atoms: C16_37  and  N12_38 
REMARK   10  A    between atoms: C20_45  and  O4_46 
ROOT
HETATM    1  N1  UNL     1      27.941  -5.014  54.605  1.00  0.00    -0.156 NA
HETATM    2  C1  UNL     1      27.719  -5.970  53.987  1.00  0.00     0.271 C 
HETATM    3  N2  UNL     1      27.502  -7.038  53.260  1.00  0.00    -0.289 NA
HETATM    4  C2  UNL     1      27.275  -8.157  52.497  1.00  0.00     0.329 C 
HETATM    5  O1  UNL     1      26.397  -8.996  52.703  1.00  0.00    -0.254 OA
ENDROOT
BRANCH   4   6
HETATM    6  C3  UNL     1      28.219  -8.309  51.307  1.00  0.00     0.220 C 
BRANCH   6   7
HETATM    7  N3  UNL     1      27.717  -9.005  50.222  1.00  0.00    -0.389 N 
ATOM      8  H3  UNL     1      26.953  -8.585  49.693  1.00  0.00     0.155 HD
BRANCH   7   9
HETATM    9  C4  UNL     1      28.208 -10.277  49.800  1.00  0.00     0.204 C 
BRANCH   9  10
HETATM   10  C5  UNL     1      28.673 -10.343  48.399  1.00  0.00     0.144 A 
HETATM   11  N4  UNL     1      29.102 -11.444  47.750  1.00  0.00    -0.270 N 
HETATM   12  N5  UNL     1      29.514 -11.181  46.538  1.00  0.00    -0.227 N 
ATOM     13  H4  UNL     1      29.105 -12.378  48.159  1.00  0.00     0.190 HD
HETATM   14  N6  UNL     1      29.353  -9.889  46.380  1.00  0.00    -0.224 N 
ATOM     15  H5  UNL     1      29.884 -11.844  45.855  1.00  0.00     0.210 HD
HETATM   16  N7  UNL     1      28.831  -9.363  47.522  1.00  0.00    -0.255 N 
ATOM     17  H6  UNL     1      29.583  -9.363  45.538  1.00  0.00     0.210 HD
BRANCH  16  18
HETATM   18  C6  UNL     1      28.498  -7.972  47.526  1.00  0.00     0.217 C 
BRANCH  18  19
HETATM   19  C7  UNL     1      29.511  -7.124  46.789  1.00  0.00     0.072 A 
HETATM   20  C8  UNL     1      30.437  -6.334  47.358  1.00  0.00     0.036 A 
HETATM   21  C9  UNL     1      31.160  -5.741  46.310  1.00  0.00     0.027 A 
HETATM   22  C10 UNL     1      30.586  -6.243  45.159  1.00  0.00     0.142 A 
HETATM   23  O2  UNL     1      29.610  -7.062  45.464  1.00  0.00    -0.325 OA
ENDBRANCH  18  19
ENDBRANCH  16  18
ENDBRANCH   9  10
BRANCH   9  24
HETATM   24  C11 UNL     1      26.958 -11.140  49.906  1.00  0.00     0.120 A 
HETATM   25  C12 UNL     1      25.993 -11.233  48.926  1.00  0.00     0.156 A 
HETATM   26  C13 UNL     1      25.887 -10.572  47.640  1.00  0.00     0.120 C 
HETATM   27  N9  UNL     1      25.009 -12.073  49.330  1.00  0.00    -0.178 N 
HETATM   28  N8  UNL     1      25.781 -10.022  46.616  1.00  0.00    -0.190 NA
HETATM   29  C14 UNL     1      25.351 -12.506  50.563  1.00  0.00     0.709 A 
ATOM     30  H9  UNL     1      24.172 -12.329  48.804  1.00  0.00     0.185 HD
HETATM   31  N10 UNL     1      24.754 -13.333  51.439  1.00  0.00    -0.139 N 
HETATM   32  N13 UNL     1      26.547 -11.930  50.912  1.00  0.00     0.024 N 
HETATM   33  C15 UNL     1      25.259 -13.629  52.639  1.00  0.00     0.352 A 
ATOM     34  H10 UNL     1      23.865 -13.757  51.173  1.00  0.00     0.189 HD
HETATM   35  O3  UNL     1      24.626 -14.414  53.393  1.00  0.00    -0.246 OA
HETATM   36  N11 UNL     1      26.425 -13.060  52.964  1.00  0.00    -0.140 N 
HETATM   37  C16 UNL     1      27.048 -12.226  52.104  1.00  0.00     0.701 A 
ATOM     38  H11 UNL     1      26.847 -13.260  53.870  1.00  0.00     0.189 HD
BRANCH  37  39
HETATM   39  N12 UNL     1      28.156 -11.726  52.484  1.00  0.00    -0.233 N 
ATOM     40 2H12 UNL     1      28.302 -11.467  53.460  1.00  0.00     0.174 HD
ATOM     41 1H12 UNL     1      28.875 -11.598  51.773  1.00  0.00     0.174 HD
ENDBRANCH  37  39
ENDBRANCH   9  24
ENDBRANCH   7   9
ENDBRANCH   6   7
BRANCH   6  42
HETATM   42  C17 UNL     1      28.541  -6.918  50.919  1.00  0.00    -0.025 A 
HETATM   43  C18 UNL     1      29.745  -6.305  51.246  1.00  0.00     0.012 A 
HETATM   44  C19 UNL     1      30.012  -5.003  50.870  1.00  0.00     0.037 A 
HETATM   45  C20 UNL     1      29.080  -4.268  50.156  1.00  0.00     0.065 A 
HETATM   46  C21 UNL     1      27.889  -4.855  49.825  1.00  0.00     0.037 A 
HETATM   47  C22 UNL     1      27.627  -6.175  50.208  1.00  0.00     0.012 A 
BRANCH  45  48
HETATM   48  O4  UNL     1      29.360  -2.932  49.778  1.00  0.00    -0.361 OA
ATOM     49  H4  UNL     1      29.329  -2.234  50.423  1.00  0.00     0.217 HD
ENDBRANCH  45  48
ENDBRANCH   6  42
ENDBRANCH   4   6
TORSDOF 10
ENDMDL
MODEL 4
REMARK VINA RESULT: -7.466115833     11.162     14.717
REMARK  10 active torsions:
REMARK  status: ('A' for Active; 'I' for Inactive)
REMARK       I    between atoms: N2_3  and  C2_4 
REMARK    1  A    between atoms: C2_4  and  C3_6 
REMARK    2  A    between atoms: C3_6  and  N3_7 
REMARK    3  A    between atoms: C3_6  and  C17_42 
REMARK    4  A    between atoms: N3_7  and  C4_9 
REMARK    5  A    between atoms: C4_9  and  C5_10 
REMARK    6  A    between atoms: C4_9  and  C11_24 
REMARK    7  A    between atoms: N7_17  and  C6_18 
REMARK    8  A    between atoms: C6_18  and  C7_19 
REMARK    9  A    between atoms: C16_37  and  N12_38 
REMARK   10  A    between atoms: C20_45  and  O4_46 
ROOT
HETATM    1  N1  UNL     1      30.713  -8.177  40.754  1.00  0.00    -0.156 NA
HETATM    2  C1  UNL     1      29.814  -8.808  41.127  1.00  0.00     0.271 C 
HETATM    3  N2  UNL     1      28.775  -9.506  41.513  1.00  0.00    -0.289 NA
HETATM    4  C2  UNL     1      27.684 -10.237  41.917  1.00  0.00     0.329 C 
HETATM    5  O1  UNL     1      27.631 -10.943  42.924  1.00  0.00    -0.254 OA
ENDROOT
BRANCH   4   6
HETATM    6  C3  UNL     1      26.470 -10.112  41.001  1.00  0.00     0.220 C 
BRANCH   6   7
HETATM    7  N3  UNL     1      26.703 -10.326  39.655  1.00  0.00    -0.389 N 
ATOM      8  H3  UNL     1      27.071 -11.233  39.369  1.00  0.00     0.155 HD
BRANCH   7   9
HETATM    9  C4  UNL     1      26.456  -9.350  38.643  1.00  0.00     0.204 C 
BRANCH   9  10
HETATM   10  C5  UNL     1      25.558  -9.781  37.553  1.00  0.00     0.144 A 
HETATM   11  N4  UNL     1      25.881  -9.900  36.249  1.00  0.00    -0.270 N 
HETATM   12  N5  UNL     1      24.859 -10.237  35.508  1.00  0.00    -0.227 N 
ATOM     13  H4  UNL     1      26.820  -9.745  35.882  1.00  0.00     0.190 HD
HETATM   14  N6  UNL     1      23.844 -10.346  36.332  1.00  0.00    -0.224 N 
ATOM     15  H5  UNL     1      24.851 -10.385  34.499  1.00  0.00     0.210 HD
HETATM   16  N7  UNL     1      24.265 -10.070  37.597  1.00  0.00    -0.255 N 
ATOM     17  H6  UNL     1      22.891 -10.596  36.068  1.00  0.00     0.210 HD
BRANCH  16  18
HETATM   18  C6  UNL     1      23.323 -10.218  38.663  1.00  0.00     0.217 C 
BRANCH  18  19
HETATM   19  C7  UNL     1      22.808 -11.633  38.799  1.00  0.00     0.072 A 
HETATM   20  C8  UNL     1      21.750 -12.017  39.534  1.00  0.00     0.036 A 
HETATM   21  C9  UNL     1      21.629 -13.408  39.370  1.00  0.00     0.027 A 
HETATM   22  C10 UNL     1      22.662 -13.752  38.520  1.00  0.00     0.142 A 
HETATM   23  O2  UNL     1      23.349 -12.686  38.193  1.00  0.00    -0.325 OA
ENDBRANCH  18  19
ENDBRANCH  16  18
ENDBRANCH   9  10
BRANCH   9  24
HETATM   24  C11 UNL     1      27.845  -9.170  38.045  1.00  0.00     0.120 A 
HETATM   25  C12 UNL     1      28.752 -10.192  37.867  1.00  0.00     0.156 A 
HETATM   26  C13 UNL     1      28.663 -11.601  38.197  1.00  0.00     0.120 C 
HETATM   27  N9  UNL     1      29.893  -9.703  37.322  1.00  0.00    -0.178 N 
HETATM   28  N8  UNL     1      28.609 -12.731  38.485  1.00  0.00    -0.190 NA
HETATM   29  C14 UNL     1      29.706  -8.376  37.159  1.00  0.00     0.709 A 
ATOM     30  H9  UNL     1      30.730 -10.235  37.081  1.00  0.00     0.185 HD
HETATM   31  N10 UNL     1      30.492  -7.394  36.682  1.00  0.00    -0.139 N 
HETATM   32  N13 UNL     1      28.449  -8.054  37.605  1.00  0.00     0.024 N 
HETATM   33  C15 UNL     1      30.118  -6.114  36.616  1.00  0.00     0.352 A 
ATOM     34  H10 UNL     1      31.425  -7.640  36.352  1.00  0.00     0.189 HD
HETATM   35  O3  UNL     1      30.924  -5.263  36.154  1.00  0.00    -0.246 OA
HETATM   36  N11 UNL     1      28.890  -5.817  37.053  1.00  0.00    -0.140 N 
HETATM   37  C16 UNL     1      28.078  -6.781  37.538  1.00  0.00     0.701 A 
ATOM     38  H11 UNL     1      28.563  -4.851  37.020  1.00  0.00     0.189 HD
BRANCH  37  39
HETATM   39  N12 UNL     1      26.923  -6.420  37.933  1.00  0.00    -0.233 N 
ATOM     40 2H12 UNL     1      26.579  -5.478  37.742  1.00  0.00     0.174 HD
ATOM     41 1H12 UNL     1      26.370  -7.110  38.442  1.00  0.00     0.174 HD
ENDBRANCH  37  39
ENDBRANCH   9  24
ENDBRANCH   7   9
ENDBRANCH   6   7
BRANCH   6  42
HETATM   42  C17 UNL     1      25.517 -11.118  41.522  1.00  0.00    -0.025 A 
HETATM   43  C18 UNL     1      24.499 -10.800  42.413  1.00  0.00     0.012 A 
HETATM   44  C19 UNL     1      23.629 -11.765  42.882  1.00  0.00     0.037 A 
HETATM   45  C20 UNL     1      23.750 -13.084  42.476  1.00  0.00     0.065 A 
HETATM   46  C21 UNL     1      24.747 -13.416  41.600  1.00  0.00     0.037 A 
HETATM   47  C22 UNL     1      25.623 -12.432  41.128  1.00  0.00     0.012 A 
BRANCH  45  48
HETATM   48  O4  UNL     1      22.856 -14.068  42.966  1.00  0.00    -0.361 OA
ATOM     49  H4  UNL     1      22.243 -14.493  42.378  1.00  0.00     0.217 HD
ENDBRANCH  45  48
ENDBRANCH   6  42
ENDBRANCH   4   6
TORSDOF 10
ENDMDL
MODEL 5
REMARK VINA RESULT: -7.453742304     11.599     15.007
REMARK  10 active torsions:
REMARK  status: ('A' for Active; 'I' for Inactive)
REMARK       I    between atoms: N2_3  and  C2_4 
REMARK    1  A    between atoms: C2_4  and  C3_6 
REMARK    2  A    between atoms: C3_6  and  N3_7 
REMARK    3  A    between atoms: C3_6  and  C17_42 
REMARK    4  A    between atoms: N3_7  and  C4_9 
REMARK    5  A    between atoms: C4_9  and  C5_10 
REMARK    6  A    between atoms: C4_9  and  C11_24 
REMARK    7  A    between atoms: N7_17  and  C6_18 
REMARK    8  A    between atoms: C6_18  and  C7_19 
REMARK    9  A    between atoms: C16_37  and  N12_38 
REMARK   10  A    between atoms: C20_45  and  O4_46 
ROOT
HETATM    1  N1  UNL     1      31.467  -5.732  36.426  1.00  0.00    -0.156 NA
HETATM    2  C1  UNL     1      31.803  -6.819  36.654  1.00  0.00     0.271 C 
HETATM    3  N2  UNL     1      32.193  -8.033  36.954  1.00  0.00    -0.289 NA
HETATM    4  C2  UNL     1      32.602  -9.306  37.269  1.00  0.00     0.329 C 
HETATM    5  O1  UNL     1      32.612 -10.264  36.496  1.00  0.00    -0.254 OA
ENDROOT
BRANCH   4   6
HETATM    6  C3  UNL     1      33.078  -9.474  38.709  1.00  0.00     0.220 C 
BRANCH   6   7
HETATM    7  N3  UNL     1      32.414 -10.429  39.458  1.00  0.00    -0.389 N 
ATOM      8  H3  UNL     1      32.782 -11.379  39.461  1.00  0.00     0.155 HD
BRANCH   7   9
HETATM    9  C4  UNL     1      31.241 -10.158  40.226  1.00  0.00     0.204 C 
BRANCH   9  10
HETATM   10  C5  UNL     1      30.875 -11.198  41.210  1.00  0.00     0.144 A 
HETATM   11  N4  UNL     1      31.628 -12.255  41.575  1.00  0.00    -0.270 N 
HETATM   12  N5  UNL     1      31.011 -13.042  42.416  1.00  0.00    -0.227 N 
ATOM     13  H4  UNL     1      32.574 -12.423  41.231  1.00  0.00     0.190 HD
HETATM   14  N6  UNL     1      29.835 -12.498  42.614  1.00  0.00    -0.224 N 
ATOM     15  H5  UNL     1      31.370 -13.902  42.833  1.00  0.00     0.210 HD
HETATM   16  N7  UNL     1      29.742 -11.356  41.877  1.00  0.00    -0.255 N 
ATOM     17  H6  UNL     1      29.106 -12.870  43.223  1.00  0.00     0.210 HD
BRANCH  16  18
HETATM   18  C6  UNL     1      28.561 -10.563  42.020  1.00  0.00     0.217 C 
BRANCH  18  19
HETATM   19  C7  UNL     1      27.428 -11.031  41.134  1.00  0.00     0.072 A 
HETATM   20  C8  UNL     1      26.384 -10.286  40.734  1.00  0.00     0.036 A 
HETATM   21  C9  UNL     1      25.584 -11.114  39.928  1.00  0.00     0.027 A 
HETATM   22  C10 UNL     1      26.240 -12.329  39.913  1.00  0.00     0.142 A 
HETATM   23  O2  UNL     1      27.331 -12.260  40.634  1.00  0.00    -0.325 OA
ENDBRANCH  18  19
ENDBRANCH  16  18
ENDBRANCH   9  10
BRANCH   9  24
HETATM   24  C11 UNL     1      30.163 -10.151  39.150  1.00  0.00     0.120 A 
HETATM   25  C12 UNL     1      29.838 -11.241  38.371  1.00  0.00     0.156 A 
HETATM   26  C13 UNL     1      30.397 -12.577  38.335  1.00  0.00     0.120 C 
HETATM   27  N9  UNL     1      28.849 -10.907  37.505  1.00  0.00    -0.178 N 
HETATM   28  N8  UNL     1      30.862 -13.647  38.282  1.00  0.00    -0.190 NA
HETATM   29  C14 UNL     1      28.555  -9.609  37.737  1.00  0.00     0.709 A 
ATOM     30  H9  UNL     1      28.412 -11.517  36.814  1.00  0.00     0.185 HD
HETATM   31  N10 UNL     1      27.677  -8.756  37.177  1.00  0.00    -0.139 N 
HETATM   32  N13 UNL     1      29.364  -9.150  38.745  1.00  0.00     0.024 N 
HETATM   33  C15 UNL     1      27.547  -7.481  37.548  1.00  0.00     0.352 A 
ATOM     34  H10 UNL     1      27.079  -9.104  36.428  1.00  0.00     0.189 HD
HETATM   35  O3  UNL     1      26.697  -6.757  36.964  1.00  0.00    -0.246 OA
HETATM   36  N11 UNL     1      28.342  -7.050  38.532  1.00  0.00    -0.140 N 
HETATM   37  C16 UNL     1      29.233  -7.882  39.113  1.00  0.00     0.701 A 
ATOM     38  H11 UNL     1      28.275  -6.082  38.847  1.00  0.00     0.189 HD
BRANCH  37  39
HETATM   39  N12 UNL     1      29.953  -7.399  40.046  1.00  0.00    -0.233 N 
ATOM     40 2H12 UNL     1      29.609  -6.631  40.623  1.00  0.00     0.174 HD
ATOM     41 1H12 UNL     1      30.876  -7.812  40.180  1.00  0.00     0.174 HD
ENDBRANCH  37  39
ENDBRANCH   9  24
ENDBRANCH   7   9
ENDBRANCH   6   7
BRANCH   6  42
HETATM   42  C17 UNL     1      34.508  -9.829  38.580  1.00  0.00    -0.025 A 
HETATM   43  C18 UNL     1      35.405  -9.081  37.826  1.00  0.00     0.012 A 
HETATM   44  C19 UNL     1      36.733  -9.443  37.724  1.00  0.00     0.037 A 
HETATM   45  C20 UNL     1      37.212 -10.570  38.373  1.00  0.00     0.065 A 
HETATM   46  C21 UNL     1      36.344 -11.319  39.119  1.00  0.00     0.037 A 
HETATM   47  C22 UNL     1      34.999 -10.945  39.219  1.00  0.00     0.012 A 
BRANCH  45  48
HETATM   48  O4  UNL     1      38.575 -10.936  38.259  1.00  0.00    -0.361 OA
ATOM     49  H4  UNL     1      38.932 -11.630  38.801  1.00  0.00     0.217 HD
ENDBRANCH  45  48
ENDBRANCH   6  42
ENDBRANCH   4   6
TORSDOF 10
ENDMDL
