MODEL 1
REMARK VINA RESULT: -7.722307355      0.000      0.000
REMARK  15 active torsions:
REMARK  status: ('A' for Active; 'I' for Inactive)
REMARK    1  A    between atoms: C3_4  and  C4_5 
REMARK    2  A    between atoms: C4_5  and  O1_6 
REMARK    3  A    between atoms: C4_5  and  C5_8 
REMARK    4  A    between atoms: C5_8  and  N1_9 
REMARK    5  A    between atoms: C5_8  and  N2_12 
REMARK       I    between atoms: N2_12  and  C6_14 
REMARK    6  A    between atoms: C6_14  and  C7_16 
REMARK    7  A    between atoms: C7_16  and  N3_17 
REMARK    8  A    between atoms: C7_16  and  C13_28 
REMARK    9  A    between atoms: N3_17  and  O3_18 
REMARK   10  A    between atoms: O3_18  and  C8_19 
REMARK   11  A    between atoms: C8_19  and  C9_20 
REMARK   12  A    between atoms: C8_19  and  C12_25 
REMARK   13  A    between atoms: C9_20  and  O4_21 
REMARK   14  A    between atoms: O4_21  and  C10_22 
REMARK   15  A    between atoms: C15_31  and  N4_32 
ROOT
HETATM    1  C7  UNL     1      29.373  -5.257  48.761  1.00  0.00     0.234 C 
ENDROOT
BRANCH   1   2
HETATM    2  C6  UNL     1      28.550  -6.462  48.576  1.00  0.00     0.293 C 
HETATM    3  N2  UNL     1      28.963  -7.759  48.409  1.00  0.00    -0.305 N 
ATOM      4  H2  UNL     1      29.973  -7.898  48.377  1.00  0.00     0.171 HD
HETATM    5  O2  UNL     1      27.291  -6.141  48.598  1.00  0.00    -0.264 OA
BRANCH   3   6
HETATM    6  C5  UNL     1      28.185  -8.922  48.278  1.00  0.00     0.137 C 
BRANCH   6   7
HETATM    7  C4  UNL     1      28.185 -10.154  48.988  1.00  0.00     0.130 C 
BRANCH   7   8
HETATM    8  C3  UNL     1      27.619 -10.178  50.220  1.00  0.00     0.082 A 
HETATM    9  S1  UNL     1      28.167  -9.458  51.673  1.00  0.00    -0.067 SA
HETATM   10  C2  UNL     1      26.925  -9.977  52.703  1.00  0.00     0.068 A 
HETATM   11  C1  UNL     1      26.771  -9.735  54.016  1.00  0.00     0.051 C 
HETATM   12  N6  UNL     1      26.132 -10.686  51.896  1.00  0.00    -0.336 N 
HETATM   13  C16 UNL     1      26.474 -10.797  50.631  1.00  0.00     0.123 A 
HETATM   14  C17 UNL     1      24.893 -11.336  52.430  1.00  0.00     0.158 C 
HETATM   15  S3  UNL     1      25.562 -11.671  49.530  1.00  0.00    -0.059 SA
ENDBRANCH   7   8
BRANCH   7  16
HETATM   16  O1  UNL     1      28.697 -11.330  48.563  1.00  0.00    -0.356 OA
ATOM     17  H1  UNL     1      28.090 -12.061  48.559  1.00  0.00     0.218 HD
ENDBRANCH   7  16
ENDBRANCH   6   7
BRANCH   6  18
HETATM   18  N1  UNL     1      27.272  -8.805  47.291  1.00  0.00    -0.383 N 
ATOM     19  H12 UNL     1      26.323  -8.945  47.635  1.00  0.00     0.157 HD
ATOM     20  H11 UNL     1      27.640  -8.606  46.361  1.00  0.00     0.157 HD
ENDBRANCH   6  18
ENDBRANCH   3   6
ENDBRANCH   1   2
BRANCH   1  21
HETATM   21  N3  UNL     1      30.203  -5.008  47.923  1.00  0.00    -0.272 NA
BRANCH  21  22
HETATM   22  O3  UNL     1      31.041  -4.760  47.077  1.00  0.00    -0.190 OA
BRANCH  22  23
HETATM   23  C8  UNL     1      31.590  -5.516  45.952  1.00  0.00     0.292 C 
BRANCH  23  24
HETATM   24  C9  UNL     1      32.359  -4.546  45.131  1.00  0.00     0.225 C 
BRANCH  24  25
HETATM   25  O4  UNL     1      31.736  -3.336  44.915  1.00  0.00    -0.319 OA
BRANCH  25  26
HETATM   26  C10 UNL     1      31.300  -2.802  43.729  1.00  0.00     0.254 C 
HETATM   27  C11 UNL     1      32.014  -3.063  42.427  1.00  0.00     0.126 C 
HETATM   28  O5  UNL     1      30.283  -2.075  43.715  1.00  0.00    -0.266 OA
ENDBRANCH  25  26
ENDBRANCH  24  25
ENDBRANCH  23  24
BRANCH  23  29
HETATM   29  C12 UNL     1      30.543  -6.319  45.376  1.00  0.00     0.209 C 
HETATM   30  O6  UNL     1      29.707  -5.843  44.569  1.00  0.00    -0.646 OA
HETATM   31  O7  UNL     1      30.428  -7.664  45.703  1.00  0.00    -0.646 OA
ENDBRANCH  23  29
ENDBRANCH  22  23
ENDBRANCH  21  22
ENDBRANCH   1  21
BRANCH   1  32
HETATM   32  C13 UNL     1      29.283  -4.326  49.931  1.00  0.00     0.090 A 
HETATM   33  C14 UNL     1      28.903  -4.728  51.176  1.00  0.00     0.086 A 
HETATM   34  S2  UNL     1      29.098  -3.302  52.114  1.00  0.00    -0.064 SA
HETATM   35  C15 UNL     1      29.644  -2.280  50.881  1.00  0.00     0.142 A 
HETATM   36  N5  UNL     1      29.658  -3.061  49.808  1.00  0.00    -0.334 N 
ATOM     37  H5  UNL     1      29.952  -2.694  48.904  1.00  0.00     0.168 HD
BRANCH  35  38
HETATM   38  N4  UNL     1      29.987  -1.004  50.929  1.00  0.00    -0.380 N 
ATOM     39  H42 UNL     1      29.544  -0.278  51.491  1.00  0.00     0.158 HD
ATOM     40  H41 UNL     1      30.729  -0.508  50.435  1.00  0.00     0.158 HD
ENDBRANCH  35  38
ENDBRANCH   1  32
TORSDOF 15
ENDMDL
MODEL 2
REMARK VINA RESULT: -7.654220077      4.330      6.036
REMARK  15 active torsions:
REMARK  status: ('A' for Active; 'I' for Inactive)
REMARK    1  A    between atoms: C3_4  and  C4_5 
REMARK    2  A    between atoms: C4_5  and  O1_6 
REMARK    3  A    between atoms: C4_5  and  C5_8 
REMARK    4  A    between atoms: C5_8  and  N1_9 
REMARK    5  A    between atoms: C5_8  and  N2_12 
REMARK       I    between atoms: N2_12  and  C6_14 
REMARK    6  A    between atoms: C6_14  and  C7_16 
REMARK    7  A    between atoms: C7_16  and  N3_17 
REMARK    8  A    between atoms: C7_16  and  C13_28 
REMARK    9  A    between atoms: N3_17  and  O3_18 
REMARK   10  A    between atoms: O3_18  and  C8_19 
REMARK   11  A    between atoms: C8_19  and  C9_20 
REMARK   12  A    between atoms: C8_19  and  C12_25 
REMARK   13  A    between atoms: C9_20  and  O4_21 
REMARK   14  A    between atoms: O4_21  and  C10_22 
REMARK   15  A    between atoms: C15_31  and  N4_32 
ROOT
HETATM    1  C7  UNL     1      30.713  -6.111  43.386  1.00  0.00     0.234 C 
ENDROOT
BRANCH   1   2
HETATM    2  C6  UNL     1      30.152  -6.708  44.608  1.00  0.00     0.293 C 
HETATM    3  N2  UNL     1      30.305  -7.987  45.080  1.00  0.00    -0.305 N 
ATOM      4  H2  UNL     1      30.853  -8.612  44.487  1.00  0.00     0.171 HD
HETATM    5  O2  UNL     1      29.447  -5.822  45.245  1.00  0.00    -0.264 OA
BRANCH   3   6
HETATM    6  C5  UNL     1      29.812  -8.553  46.267  1.00  0.00     0.137 C 
BRANCH   6   7
HETATM    7  C4  UNL     1      30.316  -8.566  47.598  1.00  0.00     0.130 C 
BRANCH   7   8
HETATM    8  C3  UNL     1      29.840  -7.640  48.467  1.00  0.00     0.082 A 
HETATM    9  S1  UNL     1      30.255  -5.986  48.614  1.00  0.00    -0.067 SA
HETATM   10  C2  UNL     1      29.248  -5.581  49.916  1.00  0.00     0.068 A 
HETATM   11  C1  UNL     1      29.105  -4.392  50.524  1.00  0.00     0.051 C 
HETATM   12  N6  UNL     1      28.627  -6.731  50.193  1.00  0.00    -0.336 N 
HETATM   13  C16 UNL     1      28.920  -7.785  49.464  1.00  0.00     0.123 A 
HETATM   14  C17 UNL     1      27.631  -6.805  51.309  1.00  0.00     0.158 C 
HETATM   15  S3  UNL     1      28.213  -9.282  49.729  1.00  0.00    -0.059 SA
ENDBRANCH   7   8
BRANCH   7  16
HETATM   16  O1  UNL     1      31.234  -9.417  48.104  1.00  0.00    -0.356 OA
ATOM     17  H1  UNL     1      31.181 -10.311  47.785  1.00  0.00     0.218 HD
ENDBRANCH   7  16
ENDBRANCH   6   7
BRANCH   6  18
HETATM   18  N1  UNL     1      28.635  -9.182  46.071  1.00  0.00    -0.383 N 
ATOM     19  H12 UNL     1      28.691 -10.172  46.310  1.00  0.00     0.157 HD
ATOM     20  H11 UNL     1      27.873  -8.607  45.715  1.00  0.00     0.157 HD
ENDBRANCH   6  18
ENDBRANCH   3   6
ENDBRANCH   1   2
BRANCH   1  21
HETATM   21  N3  UNL     1      30.344  -6.549  42.324  1.00  0.00    -0.272 NA
BRANCH  21  22
HETATM   22  O3  UNL     1      29.976  -6.991  41.253  1.00  0.00    -0.190 OA
BRANCH  22  23
HETATM   23  C8  UNL     1      29.898  -8.341  40.694  1.00  0.00     0.292 C 
BRANCH  23  24
HETATM   24  C9  UNL     1      29.532  -8.181  39.264  1.00  0.00     0.225 C 
BRANCH  24  25
HETATM   25  O4  UNL     1      28.614  -7.188  39.000  1.00  0.00    -0.319 OA
BRANCH  25  26
HETATM   26  C10 UNL     1      28.724  -6.135  38.127  1.00  0.00     0.254 C 
HETATM   27  C11 UNL     1      28.954  -6.344  36.652  1.00  0.00     0.126 C 
HETATM   28  O5  UNL     1      28.632  -4.964  38.556  1.00  0.00    -0.266 OA
ENDBRANCH  25  26
ENDBRANCH  24  25
ENDBRANCH  23  24
BRANCH  23  29
HETATM   29  C12 UNL     1      29.120  -9.167  41.579  1.00  0.00     0.209 C 
HETATM   30  O6  UNL     1      29.588  -9.616  42.654  1.00  0.00    -0.646 OA
HETATM   31  O7  UNL     1      27.807  -9.493  41.262  1.00  0.00    -0.646 OA
ENDBRANCH  23  29
ENDBRANCH  22  23
ENDBRANCH  21  22
ENDBRANCH   1  21
BRANCH   1  32
HETATM   32  C13 UNL     1      31.735  -5.016  43.355  1.00  0.00     0.090 A 
HETATM   33  C14 UNL     1      32.697  -4.869  44.308  1.00  0.00     0.086 A 
HETATM   34  S2  UNL     1      33.633  -3.560  43.705  1.00  0.00    -0.064 SA
HETATM   35  C15 UNL     1      32.754  -3.272  42.288  1.00  0.00     0.142 A 
HETATM   36  N5  UNL     1      31.788  -4.181  42.328  1.00  0.00    -0.334 N 
ATOM     37  H5  UNL     1      31.096  -4.235  41.580  1.00  0.00     0.168 HD
BRANCH  35  38
HETATM   38  N4  UNL     1      32.948  -2.372  41.340  1.00  0.00    -0.380 N 
ATOM     39  H42 UNL     1      33.792  -1.819  41.192  1.00  0.00     0.158 HD
ATOM     40  H41 UNL     1      32.321  -2.058  40.598  1.00  0.00     0.158 HD
ENDBRANCH  35  38
ENDBRANCH   1  32
TORSDOF 15
ENDMDL
MODEL 3
REMARK VINA RESULT: -7.641018882      1.395      1.723
REMARK  15 active torsions:
REMARK  status: ('A' for Active; 'I' for Inactive)
REMARK    1  A    between atoms: C3_4  and  C4_5 
REMARK    2  A    between atoms: C4_5  and  O1_6 
REMARK    3  A    between atoms: C4_5  and  C5_8 
REMARK    4  A    between atoms: C5_8  and  N1_9 
REMARK    5  A    between atoms: C5_8  and  N2_12 
REMARK       I    between atoms: N2_12  and  C6_14 
REMARK    6  A    between atoms: C6_14  and  C7_16 
REMARK    7  A    between atoms: C7_16  and  N3_17 
REMARK    8  A    between atoms: C7_16  and  C13_28 
REMARK    9  A    between atoms: N3_17  and  O3_18 
REMARK   10  A    between atoms: O3_18  and  C8_19 
REMARK   11  A    between atoms: C8_19  and  C9_20 
REMARK   12  A    between atoms: C8_19  and  C12_25 
REMARK   13  A    between atoms: C9_20  and  O4_21 
REMARK   14  A    between atoms: O4_21  and  C10_22 
REMARK   15  A    between atoms: C15_31  and  N4_32 
ROOT
HETATM    1  C7  UNL     1      29.713  -5.858  47.963  1.00  0.00     0.234 C 
ENDROOT
BRANCH   1   2
HETATM    2  C6  UNL     1      29.331  -7.276  48.065  1.00  0.00     0.293 C 
HETATM    3  N2  UNL     1      28.098  -7.842  47.865  1.00  0.00    -0.305 N 
ATOM      4  H2  UNL     1      27.343  -7.190  47.652  1.00  0.00     0.171 HD
HETATM    5  O2  UNL     1      30.370  -7.988  48.380  1.00  0.00    -0.264 OA
BRANCH   3   6
HETATM    6  C5  UNL     1      27.733  -9.198  47.915  1.00  0.00     0.137 C 
BRANCH   6   7
HETATM    7  C4  UNL     1      28.056 -10.239  48.829  1.00  0.00     0.130 C 
BRANCH   7   8
HETATM    8  C3  UNL     1      27.680 -10.089  50.123  1.00  0.00     0.082 A 
HETATM    9  S1  UNL     1      28.413  -9.157  51.358  1.00  0.00    -0.067 SA
HETATM   10  C2  UNL     1      27.357  -9.533  52.628  1.00  0.00     0.068 A 
HETATM   11  C1  UNL     1      27.392  -9.103  53.900  1.00  0.00     0.051 C 
HETATM   12  N6  UNL     1      26.478 -10.363  52.061  1.00  0.00    -0.336 N 
HETATM   13  C16 UNL     1      26.631 -10.654  50.788  1.00  0.00     0.123 A 
HETATM   14  C17 UNL     1      25.355 -10.943  52.865  1.00  0.00     0.158 C 
HETATM   15  S3  UNL     1      25.596 -11.692  49.975  1.00  0.00    -0.059 SA
ENDBRANCH   7   8
BRANCH   7  16
HETATM   16  O1  UNL     1      28.710 -11.387  48.545  1.00  0.00    -0.356 OA
ATOM     17  H1  UNL     1      29.653 -11.356  48.653  1.00  0.00     0.218 HD
ENDBRANCH   7  16
ENDBRANCH   6   7
BRANCH   6  18
HETATM   18  N1  UNL     1      26.914  -9.534  46.897  1.00  0.00    -0.383 N 
ATOM     19  H12 UNL     1      26.515 -10.464  47.023  1.00  0.00     0.157 HD
ATOM     20  H11 UNL     1      26.812  -8.841  46.156  1.00  0.00     0.157 HD
ENDBRANCH   6  18
ENDBRANCH   3   6
ENDBRANCH   1   2
BRANCH   1  21
HETATM   21  N3  UNL     1      30.134  -5.463  46.904  1.00  0.00    -0.272 NA
BRANCH  21  22
HETATM   22  O3  UNL     1      30.560  -5.069  45.836  1.00  0.00    -0.190 OA
BRANCH  22  23
HETATM   23  C8  UNL     1      31.312  -5.706  44.755  1.00  0.00     0.292 C 
BRANCH  23  24
HETATM   24  C9  UNL     1      32.746  -5.424  45.020  1.00  0.00     0.225 C 
BRANCH  24  25
HETATM   25  O4  UNL     1      33.479  -5.027  43.922  1.00  0.00    -0.319 OA
BRANCH  25  26
HETATM   26  C10 UNL     1      33.865  -3.759  43.568  1.00  0.00     0.254 C 
HETATM   27  C11 UNL     1      33.496  -3.158  42.236  1.00  0.00     0.126 C 
HETATM   28  O5  UNL     1      34.542  -3.074  44.364  1.00  0.00    -0.266 OA
ENDBRANCH  25  26
ENDBRANCH  24  25
ENDBRANCH  23  24
BRANCH  23  29
HETATM   29  C12 UNL     1      30.701  -5.363  43.498  1.00  0.00     0.209 C 
HETATM   30  O6  UNL     1      30.880  -6.049  42.462  1.00  0.00    -0.646 OA
HETATM   31  O7  UNL     1      29.882  -4.245  43.397  1.00  0.00    -0.646 OA
ENDBRANCH  23  29
ENDBRANCH  22  23
ENDBRANCH  21  22
ENDBRANCH   1  21
BRANCH   1  32
HETATM   32  C13 UNL     1      29.647  -4.867  49.085  1.00  0.00     0.090 A 
HETATM   33  C14 UNL     1      29.019  -5.122  50.266  1.00  0.00     0.086 A 
HETATM   34  S2  UNL     1      29.365  -3.715  51.191  1.00  0.00    -0.064 SA
HETATM   35  C15 UNL     1      30.276  -2.887  50.032  1.00  0.00     0.142 A 
HETATM   36  N5  UNL     1      30.285  -3.710  48.991  1.00  0.00    -0.334 N 
ATOM     37  H5  UNL     1      30.773  -3.456  48.133  1.00  0.00     0.168 HD
BRANCH  35  38
HETATM   38  N4  UNL     1      30.862  -1.703  50.102  1.00  0.00    -0.380 N 
ATOM     39  H42 UNL     1      30.806  -0.957  49.409  1.00  0.00     0.158 HD
ATOM     40  H41 UNL     1      31.462  -1.313  50.829  1.00  0.00     0.158 HD
ENDBRANCH  35  38
ENDBRANCH   1  32
TORSDOF 15
ENDMDL
MODEL 4
REMARK VINA RESULT: -7.598534131      0.479      1.387
REMARK  15 active torsions:
REMARK  status: ('A' for Active; 'I' for Inactive)
REMARK    1  A    between atoms: C3_4  and  C4_5 
REMARK    2  A    between atoms: C4_5  and  O1_6 
REMARK    3  A    between atoms: C4_5  and  C5_8 
REMARK    4  A    between atoms: C5_8  and  N1_9 
REMARK    5  A    between atoms: C5_8  and  N2_12 
REMARK       I    between atoms: N2_12  and  C6_14 
REMARK    6  A    between atoms: C6_14  and  C7_16 
REMARK    7  A    between atoms: C7_16  and  N3_17 
REMARK    8  A    between atoms: C7_16  and  C13_28 
REMARK    9  A    between atoms: N3_17  and  O3_18 
REMARK   10  A    between atoms: O3_18  and  C8_19 
REMARK   11  A    between atoms: C8_19  and  C9_20 
REMARK   12  A    between atoms: C8_19  and  C12_25 
REMARK   13  A    between atoms: C9_20  and  O4_21 
REMARK   14  A    between atoms: O4_21  and  C10_22 
REMARK   15  A    between atoms: C15_31  and  N4_32 
ROOT
HETATM    1  C7  UNL     1      29.338  -5.201  48.783  1.00  0.00     0.234 C 
ENDROOT
BRANCH   1   2
HETATM    2  C6  UNL     1      28.490  -6.390  48.597  1.00  0.00     0.293 C 
HETATM    3  N2  UNL     1      28.878  -7.680  48.339  1.00  0.00    -0.305 N 
ATOM      4  H2  UNL     1      29.882  -7.824  48.228  1.00  0.00     0.171 HD
HETATM    5  O2  UNL     1      27.240  -6.061  48.724  1.00  0.00    -0.264 OA
BRANCH   3   6
HETATM    6  C5  UNL     1      28.080  -8.829  48.206  1.00  0.00     0.137 C 
BRANCH   6   7
HETATM    7  C4  UNL     1      28.177 -10.128  48.777  1.00  0.00     0.130 C 
BRANCH   7   8
HETATM    8  C3  UNL     1      27.234 -10.497  49.680  1.00  0.00     0.082 A 
HETATM    9  S1  UNL     1      25.879 -11.521  49.465  1.00  0.00    -0.067 SA
HETATM   10  C2  UNL     1      25.238 -11.433  51.032  1.00  0.00     0.068 A 
HETATM   11  C1  UNL     1      24.142 -12.035  51.522  1.00  0.00     0.051 C 
HETATM   12  N6  UNL     1      26.087 -10.619  51.666  1.00  0.00    -0.336 N 
HETATM   13  C16 UNL     1      27.105 -10.137  50.989  1.00  0.00     0.123 A 
HETATM   14  C17 UNL     1      25.870 -10.272  53.106  1.00  0.00     0.158 C 
HETATM   15  S3  UNL     1      28.227  -9.098  51.677  1.00  0.00    -0.059 SA
ENDBRANCH   7   8
BRANCH   7  16
HETATM   16  O1  UNL     1      29.124 -11.055  48.516  1.00  0.00    -0.356 OA
ATOM     17  H1  UNL     1      29.945 -10.716  48.179  1.00  0.00     0.218 HD
ENDBRANCH   7  16
ENDBRANCH   6   7
BRANCH   6  18
HETATM   18  N1  UNL     1      27.031  -8.619  47.384  1.00  0.00    -0.383 N 
ATOM     19  H12 UNL     1      26.270  -8.132  47.858  1.00  0.00     0.157 HD
ATOM     20  H11 UNL     1      27.130  -8.968  46.432  1.00  0.00     0.157 HD
ENDBRANCH   6  18
ENDBRANCH   3   6
ENDBRANCH   1   2
BRANCH   1  21
HETATM   21  N3  UNL     1      30.172  -4.968  47.944  1.00  0.00    -0.272 NA
BRANCH  21  22
HETATM   22  O3  UNL     1      31.010  -4.732  47.095  1.00  0.00    -0.190 OA
BRANCH  22  23
HETATM   23  C8  UNL     1      31.571  -5.509  45.990  1.00  0.00     0.292 C 
BRANCH  23  24
HETATM   24  C9  UNL     1      32.341  -4.552  45.155  1.00  0.00     0.225 C 
BRANCH  24  25
HETATM   25  O4  UNL     1      31.723  -3.342  44.926  1.00  0.00    -0.319 OA
BRANCH  25  26
HETATM   26  C10 UNL     1      31.286  -2.819  43.736  1.00  0.00     0.254 C 
HETATM   27  C11 UNL     1      31.997  -3.096  42.435  1.00  0.00     0.126 C 
HETATM   28  O5  UNL     1      30.271  -2.091  43.716  1.00  0.00    -0.266 OA
ENDBRANCH  25  26
ENDBRANCH  24  25
ENDBRANCH  23  24
BRANCH  23  29
HETATM   29  C12 UNL     1      30.534  -6.329  45.425  1.00  0.00     0.209 C 
HETATM   30  O6  UNL     1      29.663  -5.861  44.650  1.00  0.00    -0.646 OA
HETATM   31  O7  UNL     1      30.466  -7.684  45.725  1.00  0.00    -0.646 OA
ENDBRANCH  23  29
ENDBRANCH  22  23
ENDBRANCH  21  22
ENDBRANCH   1  21
BRANCH   1  32
HETATM   32  C13 UNL     1      29.265  -4.267  49.952  1.00  0.00     0.090 A 
HETATM   33  C14 UNL     1      28.928  -4.673  51.208  1.00  0.00     0.086 A 
HETATM   34  S2  UNL     1      29.127  -3.241  52.137  1.00  0.00    -0.064 SA
HETATM   35  C15 UNL     1      29.618  -2.213  50.886  1.00  0.00     0.142 A 
HETATM   36  N5  UNL     1      29.614  -2.997  49.815  1.00  0.00    -0.334 N 
ATOM     37  H5  UNL     1      29.876  -2.628  48.901  1.00  0.00     0.168 HD
BRANCH  35  38
HETATM   38  N4  UNL     1      29.941  -0.931  50.921  1.00  0.00    -0.380 N 
ATOM     39  H42 UNL     1      30.860  -0.532  50.730  1.00  0.00     0.158 HD
ATOM     40  H41 UNL     1      29.365  -0.118  51.137  1.00  0.00     0.158 HD
ENDBRANCH  35  38
ENDBRANCH   1  32
TORSDOF 15
ENDMDL
MODEL 5
REMARK VINA RESULT: -7.510870796      1.441      2.181
REMARK  15 active torsions:
REMARK  status: ('A' for Active; 'I' for Inactive)
REMARK    1  A    between atoms: C3_4  and  C4_5 
REMARK    2  A    between atoms: C4_5  and  O1_6 
REMARK    3  A    between atoms: C4_5  and  C5_8 
REMARK    4  A    between atoms: C5_8  and  N1_9 
REMARK    5  A    between atoms: C5_8  and  N2_12 
REMARK       I    between atoms: N2_12  and  C6_14 
REMARK    6  A    between atoms: C6_14  and  C7_16 
REMARK    7  A    between atoms: C7_16  and  N3_17 
REMARK    8  A    between atoms: C7_16  and  C13_28 
REMARK    9  A    between atoms: N3_17  and  O3_18 
REMARK   10  A    between atoms: O3_18  and  C8_19 
REMARK   11  A    between atoms: C8_19  and  C9_20 
REMARK   12  A    between atoms: C8_19  and  C12_25 
REMARK   13  A    between atoms: C9_20  and  O4_21 
REMARK   14  A    between atoms: O4_21  and  C10_22 
REMARK   15  A    between atoms: C15_31  and  N4_32 
ROOT
HETATM    1  C7  UNL     1      29.571  -5.886  47.961  1.00  0.00     0.234 C 
ENDROOT
BRANCH   1   2
HETATM    2  C6  UNL     1      29.157  -7.293  48.079  1.00  0.00     0.293 C 
HETATM    3  N2  UNL     1      27.921  -7.839  47.846  1.00  0.00    -0.305 N 
ATOM      4  H2  UNL     1      27.188  -7.177  47.590  1.00  0.00     0.171 HD
HETATM    5  O2  UNL     1      30.169  -8.019  48.448  1.00  0.00    -0.264 OA
BRANCH   3   6
HETATM    6  C5  UNL     1      27.527  -9.187  47.911  1.00  0.00     0.137 C 
BRANCH   6   7
HETATM    7  C4  UNL     1      27.907 -10.250  48.775  1.00  0.00     0.130 C 
BRANCH   7   8
HETATM    8  C3  UNL     1      27.057 -10.593  49.775  1.00  0.00     0.082 A 
HETATM    9  S1  UNL     1      25.741 -11.687  49.743  1.00  0.00    -0.067 SA
HETATM   10  C2  UNL     1      25.220 -11.512  51.347  1.00  0.00     0.068 A 
HETATM   11  C1  UNL     1      24.196 -12.122  51.965  1.00  0.00     0.051 C 
HETATM   12  N6  UNL     1      26.075 -10.618  51.851  1.00  0.00    -0.336 N 
HETATM   13  C16 UNL     1      27.013 -10.143  51.062  1.00  0.00     0.123 A 
HETATM   14  C17 UNL     1      25.954 -10.174  53.277  1.00  0.00     0.158 C 
HETATM   15  S3  UNL     1      28.132  -9.009  51.583  1.00  0.00    -0.059 SA
ENDBRANCH   7   8
BRANCH   7  16
HETATM   16  O1  UNL     1      29.046 -10.974  48.710  1.00  0.00    -0.356 OA
ATOM     17  H1  UNL     1      28.984 -11.861  49.043  1.00  0.00     0.218 HD
ENDBRANCH   7  16
ENDBRANCH   6   7
BRANCH   6  18
HETATM   18  N1  UNL     1      26.607  -9.485  46.971  1.00  0.00    -0.383 N 
ATOM     19  H12 UNL     1      26.922 -10.236  46.357  1.00  0.00     0.157 HD
ATOM     20  H11 UNL     1      25.749  -8.935  46.992  1.00  0.00     0.157 HD
ENDBRANCH   6  18
ENDBRANCH   3   6
ENDBRANCH   1   2
BRANCH   1  21
HETATM   21  N3  UNL     1      29.968  -5.504  46.888  1.00  0.00    -0.272 NA
BRANCH  21  22
HETATM   22  O3  UNL     1      30.368  -5.114  45.808  1.00  0.00    -0.190 OA
BRANCH  22  23
HETATM   23  C8  UNL     1      31.200  -5.715  44.765  1.00  0.00     0.292 C 
BRANCH  23  24
HETATM   24  C9  UNL     1      32.609  -5.412  45.127  1.00  0.00     0.225 C 
BRANCH  24  25
HETATM   25  O4  UNL     1      33.423  -5.059  44.073  1.00  0.00    -0.319 OA
BRANCH  25  26
HETATM   26  C10 UNL     1      33.842  -3.806  43.702  1.00  0.00     0.254 C 
HETATM   27  C11 UNL     1      33.515  -3.225  42.350  1.00  0.00     0.126 C 
HETATM   28  O5  UNL     1      34.517  -3.119  44.498  1.00  0.00    -0.266 OA
ENDBRANCH  25  26
ENDBRANCH  24  25
ENDBRANCH  23  24
BRANCH  23  29
HETATM   29  C12 UNL     1      30.664  -5.358  43.479  1.00  0.00     0.209 C 
HETATM   30  O6  UNL     1      30.883  -6.046  42.452  1.00  0.00    -0.646 OA
HETATM   31  O7  UNL     1      29.875  -4.224  43.337  1.00  0.00    -0.646 OA
ENDBRANCH  23  29
ENDBRANCH  22  23
ENDBRANCH  21  22
ENDBRANCH   1  21
BRANCH   1  32
HETATM   32  C13 UNL     1      29.567  -4.892  49.081  1.00  0.00     0.090 A 
HETATM   33  C14 UNL     1      28.991  -5.136  50.291  1.00  0.00     0.086 A 
HETATM   34  S2  UNL     1      29.392  -3.731  51.195  1.00  0.00    -0.064 SA
HETATM   35  C15 UNL     1      30.258  -2.914  49.992  1.00  0.00     0.142 A 
HETATM   36  N5  UNL     1      30.211  -3.741  48.955  1.00  0.00    -0.334 N 
ATOM     37  H5  UNL     1      30.662  -3.494  48.074  1.00  0.00     0.168 HD
BRANCH  35  38
HETATM   38  N4  UNL     1      30.858  -1.736  50.032  1.00  0.00    -0.380 N 
ATOM     39  H42 UNL     1      31.029  -1.171  50.863  1.00  0.00     0.158 HD
ATOM     40  H41 UNL     1      31.251  -1.177  49.275  1.00  0.00     0.158 HD
ENDBRANCH  35  38
ENDBRANCH   1  32
TORSDOF 15
ENDMDL
