MODEL 1
REMARK VINA RESULT: -5.444789185      0.000      0.000
REMARK  2 active torsions:
REMARK  status: ('A' for Active; 'I' for Inactive)
REMARK    1  A    between atoms: C1_2  and  C2_4 
REMARK    2  A    between atoms: C3_5  and  C4_7 
ROOT
HETATM    1  C2  UNL     1       5.266  10.602  45.286  1.00  0.00     0.093 C 
HETATM    2  C3  UNL     1       5.493  11.644  44.515  1.00  0.00     0.055 C 
HETATM    3 CL2  UNL     1       6.938  11.852  43.555  1.00  0.00    -0.083 Cl
ENDROOT
BRANCH   2   4
HETATM    4  C4  UNL     1       4.493  12.738  44.413  1.00  0.00     0.026 A 
HETATM    5  C5  UNL     1       4.269  13.583  43.365  1.00  0.00     0.021 A 
HETATM    6  C6  UNL     1       3.301  14.504  43.502  1.00  0.00     0.008 A 
HETATM    7  C7  UNL     1       2.615  14.524  44.686  1.00  0.00     0.050 A 
HETATM    8  S1  UNL     1       3.344  13.257  45.563  1.00  0.00    -0.100 SA
ENDBRANCH   2   4
BRANCH   1   9
HETATM    9  C1  UNL     1       6.155   9.482  45.466  1.00  0.00     0.243 C 
HETATM   10  O1  UNL     1       7.024   9.464  46.360  1.00  0.00    -0.275 OA
HETATM   11 CL1  UNL     1       6.019   8.108  44.408  1.00  0.00    -0.039 Cl
ENDBRANCH   1   9
TORSDOF 2
ENDMDL
MODEL 2
REMARK VINA RESULT: -5.413933765      1.318      1.710
REMARK  2 active torsions:
REMARK  status: ('A' for Active; 'I' for Inactive)
REMARK    1  A    between atoms: C1_2  and  C2_4 
REMARK    2  A    between atoms: C3_5  and  C4_7 
ROOT
HETATM    1  C2  UNL     1       6.086   9.813  45.545  1.00  0.00     0.093 C 
HETATM    2  C3  UNL     1       5.989  10.904  44.816  1.00  0.00     0.055 C 
HETATM    3 CL2  UNL     1       7.096  11.320  43.530  1.00  0.00    -0.083 Cl
ENDROOT
BRANCH   2   4
HETATM    4  C4  UNL     1       4.891  11.875  45.055  1.00  0.00     0.026 A 
HETATM    5  C5  UNL     1       4.150  12.052  46.188  1.00  0.00     0.021 A 
HETATM    6  C6  UNL     1       3.202  13.002  46.172  1.00  0.00     0.008 A 
HETATM    7  C7  UNL     1       3.050  13.719  45.017  1.00  0.00     0.050 A 
HETATM    8  S1  UNL     1       4.237  13.044  43.997  1.00  0.00    -0.100 SA
ENDBRANCH   2   4
BRANCH   1   9
HETATM    9  C1  UNL     1       7.102   8.800  45.409  1.00  0.00     0.243 C 
HETATM   10  O1  UNL     1       8.041   8.690  46.223  1.00  0.00    -0.275 OA
HETATM   11 CL1  UNL     1       7.026   7.691  44.071  1.00  0.00    -0.039 Cl
ENDBRANCH   1   9
TORSDOF 2
ENDMDL
MODEL 3
REMARK VINA RESULT: -5.385038407      3.685      5.143
REMARK  2 active torsions:
REMARK  status: ('A' for Active; 'I' for Inactive)
REMARK    1  A    between atoms: C1_2  and  C2_4 
REMARK    2  A    between atoms: C3_5  and  C4_7 
ROOT
HETATM    1  C2  UNL     1       3.774  14.484  42.143  1.00  0.00     0.093 C 
HETATM    2  C3  UNL     1       4.277  13.356  42.597  1.00  0.00     0.055 C 
HETATM    3 CL2  UNL     1       5.162  12.216  41.613  1.00  0.00    -0.083 Cl
ENDROOT
BRANCH   2   4
HETATM    4  C4  UNL     1       4.115  12.979  44.025  1.00  0.00     0.026 A 
HETATM    5  C5  UNL     1       3.209  13.457  44.928  1.00  0.00     0.021 A 
HETATM    6  C6  UNL     1       3.251  12.962  46.175  1.00  0.00     0.008 A 
HETATM    7  C7  UNL     1       4.202  12.017  46.445  1.00  0.00     0.050 A 
HETATM    8  S1  UNL     1       5.001  11.851  44.949  1.00  0.00    -0.100 SA
ENDBRANCH   2   4
BRANCH   1   9
HETATM    9  C1  UNL     1       3.866  14.958  40.785  1.00  0.00     0.243 C 
HETATM   10  O1  UNL     1       2.883  14.960  40.017  1.00  0.00    -0.275 OA
HETATM   11 CL1  UNL     1       5.390  15.546  40.189  1.00  0.00    -0.039 Cl
ENDBRANCH   1   9
TORSDOF 2
ENDMDL
MODEL 4
REMARK VINA RESULT: -5.299711798      1.561      1.757
REMARK  2 active torsions:
REMARK  status: ('A' for Active; 'I' for Inactive)
REMARK    1  A    between atoms: C1_2  and  C2_4 
REMARK    2  A    between atoms: C3_5  and  C4_7 
ROOT
HETATM    1  C2  UNL     1       5.278  10.608  44.478  1.00  0.00     0.093 C 
HETATM    2  C3  UNL     1       5.797  11.524  43.690  1.00  0.00     0.055 C 
HETATM    3 CL2  UNL     1       7.488  11.594  43.255  1.00  0.00    -0.083 Cl
ENDROOT
BRANCH   2   4
HETATM    4  C4  UNL     1       4.940  12.587  43.103  1.00  0.00     0.026 A 
HETATM    5  C5  UNL     1       4.074  13.424  43.744  1.00  0.00     0.021 A 
HETATM    6  C6  UNL     1       3.401  14.316  42.999  1.00  0.00     0.008 A 
HETATM    7  C7  UNL     1       3.635  14.313  41.651  1.00  0.00     0.050 A 
HETATM    8  S1  UNL     1       4.787  13.069  41.473  1.00  0.00    -0.100 SA
ENDBRANCH   2   4
BRANCH   1   9
HETATM    9  C1  UNL     1       6.003   9.532  45.105  1.00  0.00     0.243 C 
HETATM   10  O1  UNL     1       6.550   9.662  46.218  1.00  0.00    -0.275 OA
HETATM   11 CL1  UNL     1       6.125   7.999  44.290  1.00  0.00    -0.039 Cl
ENDBRANCH   1   9
TORSDOF 2
ENDMDL
MODEL 5
REMARK VINA RESULT: -5.292528791      1.254      1.261
REMARK  2 active torsions:
REMARK  status: ('A' for Active; 'I' for Inactive)
REMARK    1  A    between atoms: C1_2  and  C2_4 
REMARK    2  A    between atoms: C3_5  and  C4_7 
ROOT
HETATM    1  C2  UNL     1       5.632  10.905  44.547  1.00  0.00     0.093 C 
HETATM    2  C3  UNL     1       4.941  11.506  43.603  1.00  0.00     0.055 C 
HETATM    3 CL2  UNL     1       4.877  10.964  41.943  1.00  0.00    -0.083 Cl
ENDROOT
BRANCH   2   4
HETATM    4  C4  UNL     1       4.147  12.724  43.910  1.00  0.00     0.026 A 
HETATM    5  C5  UNL     1       3.846  13.768  43.084  1.00  0.00     0.021 A 
HETATM    6  C6  UNL     1       3.104  14.768  43.586  1.00  0.00     0.008 A 
HETATM    7  C7  UNL     1       2.708  14.662  44.891  1.00  0.00     0.050 A 
HETATM    8  S1  UNL     1       3.383  13.172  45.369  1.00  0.00    -0.100 SA
ENDBRANCH   2   4
BRANCH   1   9
HETATM    9  C1  UNL     1       6.437   9.722  44.374  1.00  0.00     0.243 C 
HETATM   10  O1  UNL     1       7.654   9.783  44.104  1.00  0.00    -0.275 OA
HETATM   11 CL1  UNL     1       5.699   8.156  44.543  1.00  0.00    -0.039 Cl
ENDBRANCH   1   9
TORSDOF 2
ENDMDL
