MODEL 1
REMARK VINA RESULT: -9.637614408      0.000      0.000
REMARK  8 active torsions:
REMARK  status: ('A' for Active; 'I' for Inactive)
REMARK    1  A    between atoms: C1_2  and  C2_4 
REMARK    2  A    between atoms: C2_4  and  S1_5 
REMARK    3  A    between atoms: S1_5  and  C3_6 
REMARK    4  A    between atoms: C4_11  and  C5_12 
REMARK    5  A    between atoms: C8_15  and  N3_16 
REMARK    6  A    between atoms: N4_22  and  C11_23 
REMARK    7  A    between atoms: C11_23  and  C12_24 
REMARK    8  A    between atoms: C12_24  and  C13_25 
ROOT
HETATM    1  C3  UNL     1      12.952  41.181  58.655  1.00  0.00     0.163 A 
HETATM    2  N1  UNL     1      13.423  39.925  58.654  1.00  0.00    -0.278 N 
ATOM      3  H1  UNL     1      14.402  39.671  58.524  1.00  0.00     0.189 HD
HETATM    4  N2  UNL     1      12.444  39.070  58.842  1.00  0.00    -0.283 N 
ATOM      5  H2  UNL     1      12.535  38.055  58.882  1.00  0.00     0.188 HD
HETATM    6  C4  UNL     1      11.274  39.781  58.977  1.00  0.00     0.136 A 
HETATM    7  N4  UNL     1      11.615  41.054  58.856  1.00  0.00    -0.310 N 
ENDROOT
BRANCH   6   8
HETATM    8  C5  UNL     1       9.991  39.107  59.156  1.00  0.00     0.031 A 
HETATM    9  C6  UNL     1       9.243  38.694  58.048  1.00  0.00     0.019 A 
HETATM   10  C7  UNL     1       8.056  38.009  58.166  1.00  0.00     0.037 A 
HETATM   11  C8  UNL     1       7.552  37.701  59.422  1.00  0.00     0.104 A 
HETATM   12  C9  UNL     1       8.282  38.102  60.516  1.00  0.00     0.060 A 
HETATM   13  C10 UNL     1       9.488  38.796  60.384  1.00  0.00     0.050 A 
HETATM   14 CL1  UNL     1      10.355  39.168  61.867  1.00  0.00    -0.083 Cl
BRANCH  11  15
HETATM   15  N3  UNL     1       6.323  36.994  59.552  1.00  0.00    -0.116 N 
HETATM   16  O3  UNL     1       6.210  36.122  60.426  1.00  0.00    -0.532 OA
HETATM   17  O4  UNL     1       5.263  37.260  58.732  1.00  0.00    -0.532 OA
ENDBRANCH  11  15
ENDBRANCH   6   8
BRANCH   7  18
HETATM   18  C11 UNL     1      10.715  42.210  58.867  1.00  0.00     0.137 C 
BRANCH  18  19
HETATM   19  C12 UNL     1      10.016  42.329  57.549  1.00  0.00     0.054 C 
BRANCH  19  20
HETATM   20  C13 UNL     1       9.081  43.451  57.380  1.00  0.00    -0.081 C 
HETATM   21  C14 UNL     1       8.131  43.465  58.301  1.00  0.00    -0.013 C 
HETATM   22  C15 UNL     1       6.929  44.401  58.573  1.00  0.00     0.107 C 
HETATM   23  C16 UNL     1       6.902  45.288  57.466  1.00  0.00    -0.179 C 
HETATM   24  C17 UNL     1       6.609  46.206  56.480  1.00  0.00     0.080 C 
HETATM   25  C18 UNL     1       7.781  46.130  55.449  1.00  0.00     0.011 C 
HETATM   26  C19 UNL     1       8.403  44.780  55.289  1.00  0.00     0.005 C 
HETATM   27  C20 UNL     1       9.475  44.307  56.177  1.00  0.00     0.034 C 
ENDBRANCH  19  20
ENDBRANCH  18  19
ENDBRANCH   7  18
BRANCH   1  28
HETATM   28  S1  UNL     1      13.871  42.713  58.441  1.00  0.00    -0.082 SA
BRANCH  28  29
HETATM   29  C2  UNL     1      13.362  43.421  56.850  1.00  0.00     0.195 C 
BRANCH  29  30
HETATM   30  C1  UNL     1      13.194  44.890  56.938  1.00  0.00     0.182 C 
HETATM   31  O1  UNL     1      12.766  45.485  55.928  1.00  0.00    -0.647 OA
HETATM   32  O2  UNL     1      13.518  45.512  58.130  1.00  0.00    -0.647 OA
ENDBRANCH  29  30
ENDBRANCH  28  29
ENDBRANCH   1  28
TORSDOF 8
ENDMDL
MODEL 2
REMARK VINA RESULT: -9.627514032      1.006      1.324
REMARK  8 active torsions:
REMARK  status: ('A' for Active; 'I' for Inactive)
REMARK    1  A    between atoms: C1_2  and  C2_4 
REMARK    2  A    between atoms: C2_4  and  S1_5 
REMARK    3  A    between atoms: S1_5  and  C3_6 
REMARK    4  A    between atoms: C4_11  and  C5_12 
REMARK    5  A    between atoms: C8_15  and  N3_16 
REMARK    6  A    between atoms: N4_22  and  C11_23 
REMARK    7  A    between atoms: C11_23  and  C12_24 
REMARK    8  A    between atoms: C12_24  and  C13_25 
ROOT
HETATM    1  C3  UNL     1      12.977  41.186  58.689  1.00  0.00     0.163 A 
HETATM    2  N1  UNL     1      13.486  39.945  58.672  1.00  0.00    -0.278 N 
ATOM      3  H1  UNL     1      14.472  39.721  58.540  1.00  0.00     0.189 HD
HETATM    4  N2  UNL     1      12.532  39.059  58.851  1.00  0.00    -0.283 N 
ATOM      5  H2  UNL     1      12.653  38.047  58.879  1.00  0.00     0.188 HD
HETATM    6  C4  UNL     1      11.342  39.734  58.995  1.00  0.00     0.136 A 
HETATM    7  N4  UNL     1      11.645  41.017  58.889  1.00  0.00    -0.310 N 
ENDROOT
BRANCH   6   8
HETATM    8  C5  UNL     1      10.080  39.019  59.167  1.00  0.00     0.031 A 
HETATM    9  C6  UNL     1       9.591  38.738  60.448  1.00  0.00     0.019 A 
HETATM   10  C7  UNL     1       8.383  38.114  60.662  1.00  0.00     0.037 A 
HETATM   11  C8  UNL     1       7.593  37.737  59.584  1.00  0.00     0.104 A 
HETATM   12  C9  UNL     1       8.066  38.013  58.323  1.00  0.00     0.060 A 
HETATM   13  C10 UNL     1       9.294  38.647  58.117  1.00  0.00     0.050 A 
HETATM   14 CL1  UNL     1       9.730  39.014  56.454  1.00  0.00    -0.083 Cl
BRANCH  11  15
HETATM   15  N3  UNL     1       6.343  37.091  59.798  1.00  0.00    -0.116 N 
HETATM   16  O3  UNL     1       6.141  36.493  60.866  1.00  0.00    -0.532 OA
HETATM   17  O4  UNL     1       5.361  37.118  58.851  1.00  0.00    -0.532 OA
ENDBRANCH  11  15
ENDBRANCH   6   8
BRANCH   7  18
HETATM   18  C11 UNL     1      10.711  42.145  58.913  1.00  0.00     0.137 C 
BRANCH  18  19
HETATM   19  C12 UNL     1      10.064  42.307  57.573  1.00  0.00     0.054 C 
BRANCH  19  20
HETATM   20  C13 UNL     1       9.118  43.420  57.410  1.00  0.00    -0.081 C 
HETATM   21  C14 UNL     1       8.166  43.417  58.330  1.00  0.00    -0.013 C 
HETATM   22  C15 UNL     1       6.955  44.340  58.607  1.00  0.00     0.107 C 
HETATM   23  C16 UNL     1       6.919  45.232  57.505  1.00  0.00    -0.179 C 
HETATM   24  C17 UNL     1       6.618  46.154  56.524  1.00  0.00     0.080 C 
HETATM   25  C18 UNL     1       7.792  46.097  55.494  1.00  0.00     0.011 C 
HETATM   26  C19 UNL     1       8.428  44.754  55.326  1.00  0.00     0.005 C 
HETATM   27  C20 UNL     1       9.504  44.288  56.213  1.00  0.00     0.034 C 
ENDBRANCH  19  20
ENDBRANCH  18  19
ENDBRANCH   7  18
BRANCH   1  28
HETATM   28  S1  UNL     1      13.850  42.747  58.491  1.00  0.00    -0.082 SA
BRANCH  28  29
HETATM   29  C2  UNL     1      13.361  43.431  56.884  1.00  0.00     0.195 C 
BRANCH  29  30
HETATM   30  C1  UNL     1      13.188  44.901  56.949  1.00  0.00     0.182 C 
HETATM   31  O1  UNL     1      12.734  45.475  55.938  1.00  0.00    -0.647 OA
HETATM   32  O2  UNL     1      13.536  45.546  58.122  1.00  0.00    -0.647 OA
ENDBRANCH  29  30
ENDBRANCH  28  29
ENDBRANCH   1  28
TORSDOF 8
ENDMDL
MODEL 3
REMARK VINA RESULT: -9.534742883      2.202      3.119
REMARK  8 active torsions:
REMARK  status: ('A' for Active; 'I' for Inactive)
REMARK    1  A    between atoms: C1_2  and  C2_4 
REMARK    2  A    between atoms: C2_4  and  S1_5 
REMARK    3  A    between atoms: S1_5  and  C3_6 
REMARK    4  A    between atoms: C4_11  and  C5_12 
REMARK    5  A    between atoms: C8_15  and  N3_16 
REMARK    6  A    between atoms: N4_22  and  C11_23 
REMARK    7  A    between atoms: C11_23  and  C12_24 
REMARK    8  A    between atoms: C12_24  and  C13_25 
ROOT
HETATM    1  C3  UNL     1      13.776  42.066  56.791  1.00  0.00     0.163 A 
HETATM    2  N1  UNL     1      14.631  41.890  57.810  1.00  0.00    -0.278 N 
ATOM      3  H1  UNL     1      15.614  42.163  57.799  1.00  0.00     0.189 HD
HETATM    4  N2  UNL     1      14.022  41.316  58.823  1.00  0.00    -0.283 N 
ATOM      5  H2  UNL     1      14.448  41.071  59.716  1.00  0.00     0.188 HD
HETATM    6  C4  UNL     1      12.710  41.102  58.468  1.00  0.00     0.136 A 
HETATM    7  N4  UNL     1      12.595  41.564  57.233  1.00  0.00    -0.310 N 
ENDROOT
BRANCH   6   8
HETATM    8  C5  UNL     1      11.777  40.435  59.372  1.00  0.00     0.031 A 
HETATM    9  C6  UNL     1      11.098  39.280  58.969  1.00  0.00     0.019 A 
HETATM   10  C7  UNL     1      10.250  38.587  59.803  1.00  0.00     0.037 A 
HETATM   11  C8  UNL     1      10.039  39.026  61.102  1.00  0.00     0.104 A 
HETATM   12  C9  UNL     1      10.705  40.160  61.506  1.00  0.00     0.060 A 
HETATM   13  C10 UNL     1      11.564  40.855  60.651  1.00  0.00     0.050 A 
HETATM   14 CL1  UNL     1      12.414  42.236  61.332  1.00  0.00    -0.083 Cl
BRANCH  11  15
HETATM   15  N3  UNL     1       9.162  38.315  61.969  1.00  0.00    -0.116 N 
HETATM   16  O3  UNL     1       8.232  37.653  61.486  1.00  0.00    -0.532 OA
HETATM   17  O4  UNL     1       9.327  38.347  63.324  1.00  0.00    -0.532 OA
ENDBRANCH  11  15
ENDBRANCH   6   8
BRANCH   7  18
HETATM   18  C11 UNL     1      11.402  41.514  56.385  1.00  0.00     0.137 C 
BRANCH  18  19
HETATM   19  C12 UNL     1      10.891  42.899  56.134  1.00  0.00     0.054 C 
BRANCH  19  20
HETATM   20  C13 UNL     1       9.662  43.301  56.833  1.00  0.00    -0.081 C 
HETATM   21  C14 UNL     1       9.174  44.447  56.386  1.00  0.00    -0.013 C 
HETATM   22  C15 UNL     1       7.935  45.294  56.765  1.00  0.00     0.107 C 
HETATM   23  C16 UNL     1       7.395  44.654  57.911  1.00  0.00    -0.179 C 
HETATM   24  C17 UNL     1       6.729  44.279  59.058  1.00  0.00     0.080 C 
HETATM   25  C18 UNL     1       7.358  42.920  59.506  1.00  0.00     0.011 C 
HETATM   26  C19 UNL     1       8.812  42.758  59.196  1.00  0.00     0.005 C 
HETATM   27  C20 UNL     1       9.277  42.267  57.890  1.00  0.00     0.034 C 
ENDBRANCH  19  20
ENDBRANCH  18  19
ENDBRANCH   7  18
BRANCH   1  28
HETATM   28  S1  UNL     1      14.102  42.803  55.182  1.00  0.00    -0.082 SA
BRANCH  28  29
HETATM   29  C2  UNL     1      13.916  44.597  55.372  1.00  0.00     0.195 C 
BRANCH  29  30
HETATM   30  C1  UNL     1      13.506  45.238  54.100  1.00  0.00     0.182 C 
HETATM   31  O1  UNL     1      13.235  46.456  54.127  1.00  0.00    -0.647 OA
HETATM   32  O2  UNL     1      13.449  44.452  52.964  1.00  0.00    -0.647 OA
ENDBRANCH  29  30
ENDBRANCH  28  29
ENDBRANCH   1  28
TORSDOF 8
ENDMDL
MODEL 4
REMARK VINA RESULT: -9.510335599      1.248      2.203
REMARK  8 active torsions:
REMARK  status: ('A' for Active; 'I' for Inactive)
REMARK    1  A    between atoms: C1_2  and  C2_4 
REMARK    2  A    between atoms: C2_4  and  S1_5 
REMARK    3  A    between atoms: S1_5  and  C3_6 
REMARK    4  A    between atoms: C4_11  and  C5_12 
REMARK    5  A    between atoms: C8_15  and  N3_16 
REMARK    6  A    between atoms: N4_22  and  C11_23 
REMARK    7  A    between atoms: C11_23  and  C12_24 
REMARK    8  A    between atoms: C12_24  and  C13_25 
ROOT
HETATM    1  C3  UNL     1      12.796  41.124  58.837  1.00  0.00     0.163 A 
HETATM    2  N1  UNL     1      13.173  39.915  58.396  1.00  0.00    -0.278 N 
ATOM      3  H1  UNL     1      14.044  39.720  57.902  1.00  0.00     0.189 HD
HETATM    4  N2  UNL     1      12.262  39.016  58.693  1.00  0.00    -0.283 N 
ATOM      5  H2  UNL     1      12.306  38.022  58.469  1.00  0.00     0.188 HD
HETATM    6  C4  UNL     1      11.237  39.649  59.359  1.00  0.00     0.136 A 
HETATM    7  N4  UNL     1      11.590  40.923  59.427  1.00  0.00    -0.310 N 
ENDROOT
BRANCH   6   8
HETATM    8  C5  UNL     1      10.045  38.922  59.787  1.00  0.00     0.031 A 
HETATM    9  C6  UNL     1       9.857  38.596  61.134  1.00  0.00     0.019 A 
HETATM   10  C7  UNL     1       8.727  37.958  61.594  1.00  0.00     0.037 A 
HETATM   11  C8  UNL     1       7.716  37.610  60.710  1.00  0.00     0.104 A 
HETATM   12  C9  UNL     1       7.893  37.929  59.384  1.00  0.00     0.060 A 
HETATM   13  C10 UNL     1       9.044  38.578  58.928  1.00  0.00     0.050 A 
HETATM   14 CL1  UNL     1       9.094  39.000  57.222  1.00  0.00    -0.083 Cl
BRANCH  11  15
HETATM   15  N3  UNL     1       6.545  36.949  61.178  1.00  0.00    -0.116 N 
HETATM   16  O3  UNL     1       5.437  37.478  61.007  1.00  0.00    -0.532 OA
HETATM   17  O4  UNL     1       6.619  35.742  61.811  1.00  0.00    -0.532 OA
ENDBRANCH  11  15
ENDBRANCH   6   8
BRANCH   7  18
HETATM   18  C11 UNL     1      10.804  42.022  59.992  1.00  0.00     0.137 C 
BRANCH  18  19
HETATM   19  C12 UNL     1       9.362  41.867  59.623  1.00  0.00     0.054 C 
BRANCH  19  20
HETATM   20  C13 UNL     1       8.817  42.798  58.625  1.00  0.00    -0.081 C 
HETATM   21  C14 UNL     1       9.647  43.007  57.616  1.00  0.00    -0.013 C 
HETATM   22  C15 UNL     1       9.568  43.874  56.337  1.00  0.00     0.107 C 
HETATM   23  C16 UNL     1       8.373  44.625  56.481  1.00  0.00    -0.179 C 
HETATM   24  C17 UNL     1       7.324  45.517  56.414  1.00  0.00     0.080 C 
HETATM   25  C18 UNL     1       6.394  45.192  57.628  1.00  0.00     0.011 C 
HETATM   26  C19 UNL     1       7.094  44.690  58.850  1.00  0.00     0.005 C 
HETATM   27  C20 UNL     1       7.420  43.267  59.029  1.00  0.00     0.034 C 
ENDBRANCH  19  20
ENDBRANCH  18  19
ENDBRANCH   7  18
BRANCH   1  28
HETATM   28  S1  UNL     1      13.679  42.685  58.690  1.00  0.00    -0.082 SA
BRANCH  28  29
HETATM   29  C2  UNL     1      13.258  43.384  57.070  1.00  0.00     0.195 C 
BRANCH  29  30
HETATM   30  C1  UNL     1      13.179  44.863  57.120  1.00  0.00     0.182 C 
HETATM   31  O1  UNL     1      13.611  45.431  58.144  1.00  0.00    -0.647 OA
HETATM   32  O2  UNL     1      12.633  45.522  56.034  1.00  0.00    -0.647 OA
ENDBRANCH  29  30
ENDBRANCH  28  29
ENDBRANCH   1  28
TORSDOF 8
ENDMDL
MODEL 5
REMARK VINA RESULT: -9.348988405      1.024      1.800
REMARK  8 active torsions:
REMARK  status: ('A' for Active; 'I' for Inactive)
REMARK    1  A    between atoms: C1_2  and  C2_4 
REMARK    2  A    between atoms: C2_4  and  S1_5 
REMARK    3  A    between atoms: S1_5  and  C3_6 
REMARK    4  A    between atoms: C4_11  and  C5_12 
REMARK    5  A    between atoms: C8_15  and  N3_16 
REMARK    6  A    between atoms: N4_22  and  C11_23 
REMARK    7  A    between atoms: C11_23  and  C12_24 
REMARK    8  A    between atoms: C12_24  and  C13_25 
ROOT
HETATM    1  C3  UNL     1      12.982  40.916  57.369  1.00  0.00     0.163 A 
HETATM    2  N1  UNL     1      13.415  40.166  58.393  1.00  0.00    -0.278 N 
ATOM      3  H1  UNL     1      14.386  40.099  58.697  1.00  0.00     0.189 HD
HETATM    4  N2  UNL     1      12.409  39.528  58.949  1.00  0.00    -0.283 N 
ATOM      5  H2  UNL     1      12.470  38.892  59.744  1.00  0.00     0.188 HD
HETATM    6  C4  UNL     1      11.261  39.868  58.271  1.00  0.00     0.136 A 
HETATM    7  N4  UNL     1      11.642  40.706  57.321  1.00  0.00    -0.310 N 
ENDROOT
BRANCH   6   8
HETATM    8  C5  UNL     1       9.970  39.285  58.626  1.00  0.00     0.031 A 
HETATM    9  C6  UNL     1       9.244  38.540  57.689  1.00  0.00     0.019 A 
HETATM   10  C7  UNL     1       8.049  37.928  57.991  1.00  0.00     0.037 A 
HETATM   11  C8  UNL     1       7.515  38.034  59.267  1.00  0.00     0.104 A 
HETATM   12  C9  UNL     1       8.224  38.762  60.194  1.00  0.00     0.060 A 
HETATM   13  C10 UNL     1       9.437  39.379  59.877  1.00  0.00     0.050 A 
HETATM   14 CL1  UNL     1      10.274  40.202  61.185  1.00  0.00    -0.083 Cl
BRANCH  11  15
HETATM   15  N3  UNL     1       6.279  37.404  59.586  1.00  0.00    -0.116 N 
HETATM   16  O3  UNL     1       6.055  37.057  60.755  1.00  0.00    -0.532 OA
HETATM   17  O4  UNL     1       5.332  37.177  58.629  1.00  0.00    -0.532 OA
ENDBRANCH  11  15
ENDBRANCH   6   8
BRANCH   7  18
HETATM   18  C11 UNL     1      10.794  41.309  56.290  1.00  0.00     0.137 C 
BRANCH  18  19
HETATM   19  C12 UNL     1      10.721  42.792  56.487  1.00  0.00     0.054 C 
BRANCH  19  20
HETATM   20  C13 UNL     1       9.458  43.343  57.000  1.00  0.00    -0.081 C 
HETATM   21  C14 UNL     1       9.107  44.463  56.389  1.00  0.00    -0.013 C 
HETATM   22  C15 UNL     1       7.902  45.423  56.541  1.00  0.00     0.107 C 
HETATM   23  C16 UNL     1       7.198  44.945  57.676  1.00  0.00    -0.179 C 
HETATM   24  C17 UNL     1       6.389  44.737  58.772  1.00  0.00     0.080 C 
HETATM   25  C18 UNL     1       6.864  43.396  59.421  1.00  0.00     0.011 C 
HETATM   26  C19 UNL     1       8.326  43.110  59.294  1.00  0.00     0.005 C 
HETATM   27  C20 UNL     1       8.889  42.454  58.104  1.00  0.00     0.034 C 
ENDBRANCH  19  20
ENDBRANCH  18  19
ENDBRANCH   7  18
BRANCH   1  28
HETATM   28  S1  UNL     1      13.948  41.978  56.283  1.00  0.00    -0.082 SA
BRANCH  28  29
HETATM   29  C2  UNL     1      14.477  43.406  57.269  1.00  0.00     0.195 C 
BRANCH  29  30
HETATM   30  C1  UNL     1      13.759  44.638  56.868  1.00  0.00     0.182 C 
HETATM   31  O1  UNL     1      13.471  44.774  55.661  1.00  0.00    -0.647 OA
HETATM   32  O2  UNL     1      13.451  45.560  57.852  1.00  0.00    -0.647 OA
ENDBRANCH  29  30
ENDBRANCH  28  29
ENDBRANCH   1  28
TORSDOF 8
ENDMDL
