MODEL 1
REMARK VINA RESULT: -4.660703833      0.000      0.000
REMARK  5 active torsions:
REMARK  status: ('A' for Active; 'I' for Inactive)
REMARK    1  A    between atoms: C2_2  and  N1_3 
REMARK    2  A    between atoms: N1_3  and  C3_5 
REMARK    3  A    between atoms: C3_5  and  O1_6 
REMARK    4  A    between atoms: C3_5  and  C5_8 
REMARK    5  A    between atoms: C7_10  and  N2_11 
ROOT
HETATM    1  C5  UNL     1      18.596  21.492  95.651  1.00  0.00     0.066 A 
HETATM    2  C6  UNL     1      18.961  22.832  95.044  1.00  0.00     0.044 A 
HETATM    3  C7  UNL     1      19.934  22.028  95.900  1.00  0.00     0.192 A 
ENDROOT
BRANCH   1   4
HETATM    4  C3  UNL     1      18.298  20.348  94.730  1.00  0.00     0.221 C 
BRANCH   4   5
HETATM    5  N1  UNL     1      19.441  19.896  93.991  1.00  0.00    -0.397 N 
ATOM      6  H1  UNL     1      19.821  20.414  93.199  1.00  0.00     0.155 HD
BRANCH   5   7
HETATM    7  C2  UNL     1      20.009  18.666  94.446  1.00  0.00     0.112 C 
HETATM    8  C1  UNL     1      21.436  18.823  94.925  1.00  0.00     0.026 C 
ENDBRANCH   5   7
ENDBRANCH   4   5
BRANCH   4   9
HETATM    9  O1  UNL     1      17.209  20.627  93.920  1.00  0.00    -0.371 OA
HETATM   10  C4  UNL     1      16.027  20.734  94.674  1.00  0.00     0.204 C 
ENDBRANCH   4   9
ENDBRANCH   1   4
BRANCH   3  11
HETATM   11  N2  UNL     1      20.206  22.633  97.210  1.00  0.00    -0.074 N 
ATOM     12  H23 UNL     1      20.318  23.641  97.094  1.00  0.00     0.274 HD
ATOM     13  H22 UNL     1      19.359  22.594  97.777  1.00  0.00     0.274 HD
ATOM     14  H21 UNL     1      20.989  22.270  97.754  1.00  0.00     0.274 HD
ENDBRANCH   3  11
TORSDOF 5
ENDMDL
MODEL 2
REMARK VINA RESULT: -4.607597817      1.898      3.811
REMARK  5 active torsions:
REMARK  status: ('A' for Active; 'I' for Inactive)
REMARK    1  A    between atoms: C2_2  and  N1_3 
REMARK    2  A    between atoms: N1_3  and  C3_5 
REMARK    3  A    between atoms: C3_5  and  O1_6 
REMARK    4  A    between atoms: C3_5  and  C5_8 
REMARK    5  A    between atoms: C7_10  and  N2_11 
ROOT
HETATM    1  C5  UNL     1      17.334  20.678  95.095  1.00  0.00     0.066 A 
HETATM    2  C6  UNL     1      16.474  19.453  94.859  1.00  0.00     0.044 A 
HETATM    3  C7  UNL     1      16.272  20.756  94.093  1.00  0.00     0.192 A 
ENDROOT
BRANCH   1   4
HETATM    4  C3  UNL     1      18.796  20.598  94.777  1.00  0.00     0.221 C 
BRANCH   4   5
HETATM    5  N1  UNL     1      19.399  21.877  94.530  1.00  0.00    -0.397 N 
ATOM      6  H1  UNL     1      20.028  22.043  93.745  1.00  0.00     0.155 HD
BRANCH   5   7
HETATM    7  C2  UNL     1      19.053  22.899  95.465  1.00  0.00     0.112 C 
HETATM    8  C1  UNL     1      19.889  22.844  96.726  1.00  0.00     0.026 C 
ENDBRANCH   5   7
ENDBRANCH   4   5
BRANCH   4   9
HETATM    9  O1  UNL     1      19.039  19.684  93.764  1.00  0.00    -0.371 OA
HETATM   10  C4  UNL     1      20.084  18.808  94.108  1.00  0.00     0.204 C 
ENDBRANCH   4   9
ENDBRANCH   1   4
BRANCH   3  11
HETATM   11  N2  UNL     1      15.034  21.462  94.447  1.00  0.00    -0.074 N 
ATOM     12  H23 UNL     1      15.195  22.014  95.290  1.00  0.00     0.274 HD
ATOM     13  H22 UNL     1      14.863  22.198  93.762  1.00  0.00     0.274 HD
ATOM     14  H21 UNL     1      14.183  20.912  94.565  1.00  0.00     0.274 HD
ENDBRANCH   3  11
TORSDOF 5
ENDMDL
MODEL 3
REMARK VINA RESULT: -4.424533159      1.902      3.059
REMARK  5 active torsions:
REMARK  status: ('A' for Active; 'I' for Inactive)
REMARK    1  A    between atoms: C2_2  and  N1_3 
REMARK    2  A    between atoms: N1_3  and  C3_5 
REMARK    3  A    between atoms: C3_5  and  O1_6 
REMARK    4  A    between atoms: C3_5  and  C5_8 
REMARK    5  A    between atoms: C7_10  and  N2_11 
ROOT
HETATM    1  C5  UNL     1      18.469  20.997  94.360  1.00  0.00     0.066 A 
HETATM    2  C6  UNL     1      17.145  21.733  94.420  1.00  0.00     0.044 A 
HETATM    3  C7  UNL     1      17.380  20.409  95.139  1.00  0.00     0.192 A 
ENDROOT
BRANCH   1   4
HETATM    4  C3  UNL     1      19.679  21.653  94.953  1.00  0.00     0.221 C 
BRANCH   4   5
HETATM    5  N1  UNL     1      20.917  21.087  94.501  1.00  0.00    -0.397 N 
ATOM      6  H1  UNL     1      21.783  21.624  94.464  1.00  0.00     0.155 HD
BRANCH   5   7
HETATM    7  C2  UNL     1      20.846  19.716  94.105  1.00  0.00     0.112 C 
HETATM    8  C1  UNL     1      21.491  18.785  95.110  1.00  0.00     0.026 C 
ENDBRANCH   5   7
ENDBRANCH   4   5
BRANCH   4   9
HETATM    9  O1  UNL     1      19.588  21.714  96.335  1.00  0.00    -0.371 OA
HETATM   10  C4  UNL     1      19.781  23.027  96.801  1.00  0.00     0.204 C 
ENDBRANCH   4   9
ENDBRANCH   1   4
BRANCH   3  11
HETATM   11  N2  UNL     1      16.641  19.282  94.556  1.00  0.00    -0.074 N 
ATOM     12  H23 UNL     1      16.029  19.630  93.818  1.00  0.00     0.274 HD
ATOM     13  H22 UNL     1      17.286  18.703  94.018  1.00  0.00     0.274 HD
ATOM     14  H21 UNL     1      16.102  18.685  95.183  1.00  0.00     0.274 HD
ENDBRANCH   3  11
TORSDOF 5
ENDMDL
MODEL 4
REMARK VINA RESULT: -4.409723548      1.447      3.173
REMARK  5 active torsions:
REMARK  status: ('A' for Active; 'I' for Inactive)
REMARK    1  A    between atoms: C2_2  and  N1_3 
REMARK    2  A    between atoms: N1_3  and  C3_5 
REMARK    3  A    between atoms: C3_5  and  O1_6 
REMARK    4  A    between atoms: C3_5  and  C5_8 
REMARK    5  A    between atoms: C7_10  and  N2_11 
ROOT
HETATM    1  C5  UNL     1      19.506  20.150  94.053  1.00  0.00     0.066 A 
HETATM    2  C6  UNL     1      19.354  18.678  94.380  1.00  0.00     0.044 A 
HETATM    3  C7  UNL     1      20.312  19.591  95.137  1.00  0.00     0.192 A 
ENDROOT
BRANCH   1   4
HETATM    4  C3  UNL     1      18.325  21.052  94.252  1.00  0.00     0.221 C 
BRANCH   4   5
HETATM    5  N1  UNL     1      18.341  21.747  95.507  1.00  0.00    -0.397 N 
ATOM      6  H1  UNL     1      17.808  21.429  96.316  1.00  0.00     0.155 HD
BRANCH   5   7
HETATM    7  C2  UNL     1      19.158  22.919  95.539  1.00  0.00     0.112 C 
HETATM    8  C1  UNL     1      19.899  23.077  96.849  1.00  0.00     0.026 C 
ENDBRANCH   5   7
ENDBRANCH   4   5
BRANCH   4   9
HETATM    9  O1  UNL     1      17.136  20.378  94.025  1.00  0.00    -0.371 OA
HETATM   10  C4  UNL     1      16.029  21.148  94.424  1.00  0.00     0.204 C 
ENDBRANCH   4   9
ENDBRANCH   1   4
BRANCH   3  11
HETATM   11  N2  UNL     1      21.728  19.309  94.874  1.00  0.00    -0.074 N 
ATOM     12  H23 UNL     1      22.027  19.839  94.054  1.00  0.00     0.274 HD
ATOM     13  H22 UNL     1      22.295  19.742  95.603  1.00  0.00     0.274 HD
ATOM     14  H21 UNL     1      22.013  18.336  94.764  1.00  0.00     0.274 HD
ENDBRANCH   3  11
TORSDOF 5
ENDMDL
MODEL 5
REMARK VINA RESULT: -4.394965815      1.366      3.139
REMARK  5 active torsions:
REMARK  status: ('A' for Active; 'I' for Inactive)
REMARK    1  A    between atoms: C2_2  and  N1_3 
REMARK    2  A    between atoms: N1_3  and  C3_5 
REMARK    3  A    between atoms: C3_5  and  O1_6 
REMARK    4  A    between atoms: C3_5  and  C5_8 
REMARK    5  A    between atoms: C7_10  and  N2_11 
ROOT
HETATM    1  C5  UNL     1      18.693  21.191  95.605  1.00  0.00     0.066 A 
HETATM    2  C6  UNL     1      19.089  22.464  94.884  1.00  0.00     0.044 A 
HETATM    3  C7  UNL     1      20.005  21.771  95.887  1.00  0.00     0.192 A 
ENDROOT
BRANCH   1   4
HETATM    4  C3  UNL     1      18.469  19.951  94.794  1.00  0.00     0.221 C 
BRANCH   4   5
HETATM    5  N1  UNL     1      17.113  19.485  94.823  1.00  0.00    -0.397 N 
ATOM      6  H1  UNL     1      16.852  18.539  94.544  1.00  0.00     0.155 HD
BRANCH   5   7
HETATM    7  C2  UNL     1      16.153  20.444  95.271  1.00  0.00     0.112 C 
HETATM    8  C1  UNL     1      15.482  21.176  94.129  1.00  0.00     0.026 C 
ENDBRANCH   5   7
ENDBRANCH   4   5
BRANCH   4   9
HETATM    9  O1  UNL     1      19.384  18.964  95.126  1.00  0.00    -0.371 OA
HETATM   10  C4  UNL     1      20.245  18.685  94.050  1.00  0.00     0.204 C 
ENDBRANCH   4   9
ENDBRANCH   1   4
BRANCH   3  11
HETATM   11  N2  UNL     1      20.180  22.516  97.140  1.00  0.00    -0.074 N 
ATOM     12  H23 UNL     1      19.717  23.421  97.057  1.00  0.00     0.274 HD
ATOM     13  H22 UNL     1      19.619  22.076  97.870  1.00  0.00     0.274 HD
ATOM     14  H21 UNL     1      21.128  22.657  97.488  1.00  0.00     0.274 HD
ENDBRANCH   3  11
TORSDOF 5
ENDMDL
