MODEL 1
REMARK VINA RESULT: -5.178244440      0.000      0.000
REMARK  3 active torsions:
REMARK  status: ('A' for Active; 'I' for Inactive)
REMARK    1  A    between atoms: N1_1  and  O1_4 
REMARK    2  A    between atoms: O1_4  and  N2_5 
REMARK    3  A    between atoms: C4_9  and  C5_10 
ROOT
HETATM    1  N2  UNL     1       8.496  23.118  32.217  1.00  0.00    -0.159 NA
HETATM    2  C1  UNL     1       7.247  23.079  31.477  1.00  0.00     0.124 C 
HETATM    3  C2  UNL     1       6.496  22.003  32.243  1.00  0.00     0.019 C 
HETATM    4  C3  UNL     1       7.588  20.925  32.250  1.00  0.00     0.032 C 
HETATM    5  C4  UNL     1       8.782  21.773  32.642  1.00  0.00     0.177 C 
ENDROOT
BRANCH   1   6
HETATM    6  O1  UNL     1       8.272  23.880  33.312  1.00  0.00    -0.189 OA
BRANCH   6   7
HETATM    7  N1  UNL     1       9.369  24.018  34.079  1.00  0.00    -0.291 N 
ATOM      8  H12 UNL     1      10.230  24.448  33.741  1.00  0.00     0.186 HD
ATOM      9  H11 UNL     1       9.238  23.649  35.020  1.00  0.00     0.186 HD
ENDBRANCH   6   7
ENDBRANCH   1   6
BRANCH   5  10
HETATM   10  C5  UNL     1      10.045  21.254  32.068  1.00  0.00     0.251 C 
HETATM   11  N3  UNL     1      10.012  20.216  31.116  1.00  0.00    -0.061 NA
HETATM   12  O2  UNL     1      11.145  21.726  32.418  1.00  0.00    -0.275 OA
ENDBRANCH   5  10
TORSDOF 3
ENDMDL
MODEL 2
REMARK VINA RESULT: -4.925759557      9.532     10.862
REMARK  3 active torsions:
REMARK  status: ('A' for Active; 'I' for Inactive)
REMARK    1  A    between atoms: N1_1  and  O1_4 
REMARK    2  A    between atoms: O1_4  and  N2_5 
REMARK    3  A    between atoms: C4_9  and  C5_10 
ROOT
HETATM    1  N2  UNL     1       6.187  11.344  31.486  1.00  0.00    -0.159 NA
HETATM    2  C1  UNL     1       4.860  11.929  31.549  1.00  0.00     0.124 C 
HETATM    3  C2  UNL     1       4.830  12.708  30.245  1.00  0.00     0.019 C 
HETATM    4  C3  UNL     1       6.165  13.451  30.393  1.00  0.00     0.032 C 
HETATM    5  C4  UNL     1       7.047  12.303  30.846  1.00  0.00     0.177 C 
ENDROOT
BRANCH   1   6
HETATM    6  O1  UNL     1       6.090  10.251  30.693  1.00  0.00    -0.189 OA
BRANCH   6   7
HETATM    7  N1  UNL     1       5.267   9.315  31.201  1.00  0.00    -0.291 N 
ATOM      8  H12 UNL     1       5.071   9.234  32.199  1.00  0.00     0.186 HD
ATOM      9  H11 UNL     1       4.872   8.709  30.483  1.00  0.00     0.186 HD
ENDBRANCH   6   7
ENDBRANCH   1   6
BRANCH   5  10
HETATM   10  C5  UNL     1       8.144  12.760  31.730  1.00  0.00     0.251 C 
HETATM   11  N3  UNL     1       9.100  13.676  31.250  1.00  0.00    -0.061 NA
HETATM   12  O2  UNL     1       8.233  12.343  32.902  1.00  0.00    -0.275 OA
ENDBRANCH   5  10
TORSDOF 3
ENDMDL
MODEL 3
REMARK VINA RESULT: -4.903383559      1.916      2.671
REMARK  3 active torsions:
REMARK  status: ('A' for Active; 'I' for Inactive)
REMARK    1  A    between atoms: N1_1  and  O1_4 
REMARK    2  A    between atoms: O1_4  and  N2_5 
REMARK    3  A    between atoms: C4_9  and  C5_10 
ROOT
HETATM    1  N2  UNL     1       9.561  22.306  31.465  1.00  0.00    -0.159 NA
HETATM    2  C1  UNL     1       9.090  23.665  31.261  1.00  0.00     0.124 C 
HETATM    3  C2  UNL     1       8.510  23.974  32.631  1.00  0.00     0.019 C 
HETATM    4  C3  UNL     1       7.641  22.720  32.798  1.00  0.00     0.032 C 
HETATM    5  C4  UNL     1       8.632  21.661  32.354  1.00  0.00     0.177 C 
ENDROOT
BRANCH   1   6
HETATM    6  O1  UNL     1      10.759  22.403  32.087  1.00  0.00    -0.189 OA
BRANCH   6   7
HETATM    7  N1  UNL     1      11.305  21.201  32.348  1.00  0.00    -0.291 N 
ATOM      8  H12 UNL     1      10.795  20.451  32.815  1.00  0.00     0.186 HD
ATOM      9  H11 UNL     1      12.271  21.131  32.029  1.00  0.00     0.186 HD
ENDBRANCH   6   7
ENDBRANCH   1   6
BRANCH   5  10
HETATM   10  C5  UNL     1       7.960  20.499  31.726  1.00  0.00     0.251 C 
HETATM   11  N3  UNL     1       8.714  19.562  30.994  1.00  0.00    -0.061 NA
HETATM   12  O2  UNL     1       6.729  20.340  31.838  1.00  0.00    -0.275 OA
ENDBRANCH   5  10
TORSDOF 3
ENDMDL
MODEL 4
REMARK VINA RESULT: -4.740363317      9.411     10.567
REMARK  3 active torsions:
REMARK  status: ('A' for Active; 'I' for Inactive)
REMARK    1  A    between atoms: N1_1  and  O1_4 
REMARK    2  A    between atoms: O1_4  and  N2_5 
REMARK    3  A    between atoms: C4_9  and  C5_10 
ROOT
HETATM    1  N2  UNL     1       6.211  12.588  31.444  1.00  0.00    -0.159 NA
HETATM    2  C1  UNL     1       5.544  11.533  32.187  1.00  0.00     0.124 C 
HETATM    3  C2  UNL     1       5.367  10.487  31.100  1.00  0.00     0.019 C 
HETATM    4  C3  UNL     1       4.740  11.383  30.023  1.00  0.00     0.032 C 
HETATM    5  C4  UNL     1       5.671  12.577  30.111  1.00  0.00     0.177 C 
ENDROOT
BRANCH   1   6
HETATM    6  O1  UNL     1       7.520  12.249  31.384  1.00  0.00    -0.189 OA
BRANCH   6   7
HETATM    7  N1  UNL     1       8.298  13.263  30.964  1.00  0.00    -0.291 N 
ATOM      8  H12 UNL     1       8.043  14.244  31.085  1.00  0.00     0.186 HD
ATOM      9  H11 UNL     1       9.157  12.941  30.519  1.00  0.00     0.186 HD
ENDBRANCH   6   7
ENDBRANCH   1   6
BRANCH   5  10
HETATM   10  C5  UNL     1       4.984  13.844  29.767  1.00  0.00     0.251 C 
HETATM   11  N3  UNL     1       5.738  14.985  29.432  1.00  0.00    -0.061 NA
HETATM   12  O2  UNL     1       3.739  13.914  29.771  1.00  0.00    -0.275 OA
ENDBRANCH   5  10
TORSDOF 3
ENDMDL
MODEL 5
REMARK VINA RESULT: -4.724585864      1.947      2.548
REMARK  3 active torsions:
REMARK  status: ('A' for Active; 'I' for Inactive)
REMARK    1  A    between atoms: N1_1  and  O1_4 
REMARK    2  A    between atoms: O1_4  and  N2_5 
REMARK    3  A    between atoms: C4_9  and  C5_10 
ROOT
HETATM    1  N2  UNL     1       7.676  21.900  32.638  1.00  0.00    -0.159 NA
HETATM    2  C1  UNL     1       8.098  23.002  33.483  1.00  0.00     0.124 C 
HETATM    3  C2  UNL     1       8.627  23.973  32.442  1.00  0.00     0.019 C 
HETATM    4  C3  UNL     1       9.540  23.008  31.674  1.00  0.00     0.032 C 
HETATM    5  C4  UNL     1       8.605  21.821  31.543  1.00  0.00     0.177 C 
ENDROOT
BRANCH   1   6
HETATM    6  O1  UNL     1       6.458  22.232  32.150  1.00  0.00    -0.189 OA
BRANCH   6   7
HETATM    7  N1  UNL     1       5.688  21.156  31.904  1.00  0.00    -0.291 N 
ATOM      8  H12 UNL     1       5.703  20.319  32.488  1.00  0.00     0.186 HD
ATOM      9  H11 UNL     1       5.099  21.275  31.080  1.00  0.00     0.186 HD
ENDBRANCH   6   7
ENDBRANCH   1   6
BRANCH   5  10
HETATM   10  C5  UNL     1       9.340  20.535  31.513  1.00  0.00     0.251 C 
HETATM   11  N3  UNL     1       8.820  19.445  30.789  1.00  0.00    -0.061 NA
HETATM   12  O2  UNL     1      10.418  20.404  32.124  1.00  0.00    -0.275 OA
ENDBRANCH   5  10
TORSDOF 3
ENDMDL
