MODEL 1
REMARK VINA RESULT: -4.789115560      0.000      0.000
REMARK  5 active torsions:
REMARK  status: ('A' for Active; 'I' for Inactive)
REMARK    1  A    between atoms: N1_2  and  C2_4 
REMARK    2  A    between atoms: C2_4  and  C3_5 
REMARK    3  A    between atoms: C2_4  and  C5_12 
REMARK    4  A    between atoms: C3_5  and  N2_6 
REMARK    5  A    between atoms: C3_5  and  C4_10 
ROOT
HETATM    1  C2  UNL     1     -11.919  18.449  -9.562  1.00  0.00     0.117 C 
ENDROOT
BRANCH   1   2
HETATM    2  N1  UNL     1     -12.729  18.370  -8.443  1.00  0.00    -0.418 N 
HETATM    3  C1  UNL     1     -12.254  18.034  -7.175  1.00  0.00     0.140 C 
ATOM      4  H1  UNL     1     -13.724  18.568  -8.550  1.00  0.00     0.153 HD
ENDBRANCH   1   2
BRANCH   1   5
HETATM    5  C3  UNL     1     -12.087  19.572 -10.528  1.00  0.00     0.266 C 
BRANCH   5   6
HETATM    6  N2  UNL     1     -12.036  19.047 -11.898  1.00  0.00    -0.067 N 
ATOM      7  H23 UNL     1     -12.109  18.030 -11.924  1.00  0.00     0.275 HD
ATOM      8  H22 UNL     1     -12.880  19.267 -12.427  1.00  0.00     0.275 HD
ATOM      9  H21 UNL     1     -11.192  19.387 -12.359  1.00  0.00     0.275 HD
ENDBRANCH   5   6
BRANCH   5  10
HETATM   10  C4  UNL     1     -13.397  20.243 -10.400  1.00  0.00     0.266 C 
HETATM   11  O1  UNL     1     -13.622  21.373 -10.863  1.00  0.00    -0.305 OA
ENDBRANCH   5  10
ENDBRANCH   1   5
BRANCH   1  12
HETATM   12  C5  UNL     1     -10.456  18.371  -9.078  1.00  0.00     0.010 A 
HETATM   13  C6  UNL     1      -9.746  17.046  -9.302  1.00  0.00     0.007 A 
HETATM   14  C7  UNL     1      -9.351  18.319 -10.038  1.00  0.00     0.007 A 
ENDBRANCH   1  12
TORSDOF 5
ENDMDL
MODEL 2
REMARK VINA RESULT: -4.693620072      2.595      3.663
REMARK  5 active torsions:
REMARK  status: ('A' for Active; 'I' for Inactive)
REMARK    1  A    between atoms: N1_2  and  C2_4 
REMARK    2  A    between atoms: C2_4  and  C3_5 
REMARK    3  A    between atoms: C2_4  and  C5_12 
REMARK    4  A    between atoms: C3_5  and  N2_6 
REMARK    5  A    between atoms: C3_5  and  C4_10 
ROOT
HETATM    1  C2  UNL     1     -10.929  18.722  -9.200  1.00  0.00     0.117 C 
ENDROOT
BRANCH   1   2
HETATM    2  N1  UNL     1     -11.078  18.349  -7.877  1.00  0.00    -0.418 N 
HETATM    3  C1  UNL     1     -12.290  17.927  -7.331  1.00  0.00     0.140 C 
ATOM      4  H1  UNL     1     -10.260  18.382  -7.269  1.00  0.00     0.153 HD
ENDBRANCH   1   2
BRANCH   1   5
HETATM    5  C3  UNL     1      -9.991  17.975 -10.087  1.00  0.00     0.266 C 
BRANCH   5   6
HETATM    6  N2  UNL     1      -8.955  18.889 -10.580  1.00  0.00    -0.067 N 
ATOM      7  H23 UNL     1      -8.876  19.729 -10.006  1.00  0.00     0.275 HD
ATOM      8  H22 UNL     1      -8.014  18.523 -10.431  1.00  0.00     0.275 HD
ATOM      9  H21 UNL     1      -9.133  19.106 -11.561  1.00  0.00     0.275 HD
ENDBRANCH   5   6
BRANCH   5  10
HETATM   10  C4  UNL     1      -9.275  16.896  -9.378  1.00  0.00     0.266 C 
HETATM   11  O1  UNL     1      -9.815  15.821  -9.068  1.00  0.00    -0.305 OA
ENDBRANCH   5  10
ENDBRANCH   1   5
BRANCH   1  12
HETATM   12  C5  UNL     1     -12.337  18.771  -9.826  1.00  0.00     0.010 A 
HETATM   13  C6  UNL     1     -12.515  19.714 -11.006  1.00  0.00     0.007 A 
HETATM   14  C7  UNL     1     -12.589  18.200 -11.152  1.00  0.00     0.007 A 
ENDBRANCH   1  12
TORSDOF 5
ENDMDL
MODEL 3
REMARK VINA RESULT: -4.489383075      1.484      2.559
REMARK  5 active torsions:
REMARK  status: ('A' for Active; 'I' for Inactive)
REMARK    1  A    between atoms: N1_2  and  C2_4 
REMARK    2  A    between atoms: C2_4  and  C3_5 
REMARK    3  A    between atoms: C2_4  and  C5_12 
REMARK    4  A    between atoms: C3_5  and  N2_6 
REMARK    5  A    between atoms: C3_5  and  C4_10 
ROOT
HETATM    1  C2  UNL     1     -10.947  18.707  -9.699  1.00  0.00     0.117 C 
ENDROOT
BRANCH   1   2
HETATM    2  N1  UNL     1      -9.693  18.129  -9.781  1.00  0.00    -0.418 N 
HETATM    3  C1  UNL     1      -8.654  18.656 -10.549  1.00  0.00     0.140 C 
ATOM      4  H1  UNL     1      -9.518  17.275  -9.252  1.00  0.00     0.153 HD
ENDBRANCH   1   2
BRANCH   1   5
HETATM    5  C3  UNL     1     -11.694  19.049 -10.943  1.00  0.00     0.266 C 
BRANCH   5   6
HETATM    6  N2  UNL     1     -12.733  18.040 -11.180  1.00  0.00    -0.067 N 
ATOM      7  H23 UNL     1     -13.426  18.352 -11.861  1.00  0.00     0.275 HD
ATOM      8  H22 UNL     1     -12.377  17.233 -11.693  1.00  0.00     0.275 HD
ATOM      9  H21 UNL     1     -13.157  17.776 -10.290  1.00  0.00     0.275 HD
ENDBRANCH   5   6
BRANCH   5  10
HETATM   10  C4  UNL     1     -12.400  20.342 -10.847  1.00  0.00     0.266 C 
HETATM   11  O1  UNL     1     -12.018  21.364 -11.440  1.00  0.00    -0.305 OA
ENDBRANCH   5  10
ENDBRANCH   1   5
BRANCH   1  12
HETATM   12  C5  UNL     1     -11.807  17.813  -8.783  1.00  0.00     0.010 A 
HETATM   13  C6  UNL     1     -11.104  17.219  -7.574  1.00  0.00     0.007 A 
HETATM   14  C7  UNL     1     -12.201  18.267  -7.447  1.00  0.00     0.007 A 
ENDBRANCH   1  12
TORSDOF 5
ENDMDL
MODEL 4
REMARK VINA RESULT: -4.336591621      0.760      1.015
REMARK  5 active torsions:
REMARK  status: ('A' for Active; 'I' for Inactive)
REMARK    1  A    between atoms: N1_2  and  C2_4 
REMARK    2  A    between atoms: C2_4  and  C3_5 
REMARK    3  A    between atoms: C2_4  and  C5_12 
REMARK    4  A    between atoms: C3_5  and  N2_6 
REMARK    5  A    between atoms: C3_5  and  C4_10 
ROOT
HETATM    1  C2  UNL     1     -12.253  18.451  -9.745  1.00  0.00     0.117 C 
ENDROOT
BRANCH   1   2
HETATM    2  N1  UNL     1     -12.439  18.607  -8.383  1.00  0.00    -0.418 N 
HETATM    3  C1  UNL     1     -13.696  18.616  -7.778  1.00  0.00     0.140 C 
ATOM      4  H1  UNL     1     -11.616  18.720  -7.791  1.00  0.00     0.153 HD
ENDBRANCH   1   2
BRANCH   1   5
HETATM    5  C3  UNL     1     -12.175  19.648 -10.631  1.00  0.00     0.266 C 
BRANCH   5   6
HETATM    6  N2  UNL     1     -11.961  19.215 -12.016  1.00  0.00    -0.067 N 
ATOM      7  H23 UNL     1     -12.838  19.038 -12.506  1.00  0.00     0.275 HD
ATOM      8  H22 UNL     1     -11.615  19.971 -12.608  1.00  0.00     0.275 HD
ATOM      9  H21 UNL     1     -11.342  18.404 -12.026  1.00  0.00     0.275 HD
ENDBRANCH   5   6
BRANCH   5  10
HETATM   10  C4  UNL     1     -13.425  20.432 -10.640  1.00  0.00     0.266 C 
HETATM   11  O1  UNL     1     -13.441  21.674 -10.613  1.00  0.00    -0.305 OA
ENDBRANCH   5  10
ENDBRANCH   1   5
BRANCH   1  12
HETATM   12  C5  UNL     1     -11.013  17.555  -9.940  1.00  0.00     0.010 A 
HETATM   13  C6  UNL     1      -9.662  18.232  -9.766  1.00  0.00     0.007 A 
HETATM   14  C7  UNL     1     -10.176  17.173  -8.800  1.00  0.00     0.007 A 
ENDBRANCH   1  12
TORSDOF 5
ENDMDL
MODEL 5
REMARK VINA RESULT: -4.320761235      2.519      3.580
REMARK  5 active torsions:
REMARK  status: ('A' for Active; 'I' for Inactive)
REMARK    1  A    between atoms: N1_2  and  C2_4 
REMARK    2  A    between atoms: C2_4  and  C3_5 
REMARK    3  A    between atoms: C2_4  and  C5_12 
REMARK    4  A    between atoms: C3_5  and  N2_6 
REMARK    5  A    between atoms: C3_5  and  C4_10 
ROOT
HETATM    1  C2  UNL     1     -10.972  18.642  -9.251  1.00  0.00     0.117 C 
ENDROOT
BRANCH   1   2
HETATM    2  N1  UNL     1     -11.990  17.964  -8.603  1.00  0.00    -0.418 N 
HETATM    3  C1  UNL     1     -12.148  17.963  -7.217  1.00  0.00     0.140 C 
ATOM      4  H1  UNL     1     -12.658  17.440  -9.166  1.00  0.00     0.153 HD
ENDBRANCH   1   2
BRANCH   1   5
HETATM    5  C3  UNL     1      -9.599  18.063  -9.294  1.00  0.00     0.266 C 
BRANCH   5   6
HETATM    6  N2  UNL     1      -9.689  16.601  -9.392  1.00  0.00    -0.067 N 
ATOM      7  H23 UNL     1     -10.086  16.182  -8.551  1.00  0.00     0.275 HD
ATOM      8  H22 UNL     1     -10.405  16.303 -10.055  1.00  0.00     0.275 HD
ATOM      9  H21 UNL     1      -8.771  16.220  -9.618  1.00  0.00     0.275 HD
ENDBRANCH   5   6
BRANCH   5  10
HETATM   10  C4  UNL     1      -8.832  18.501 -10.477  1.00  0.00     0.266 C 
HETATM   11  O1  UNL     1      -7.602  18.666 -10.459  1.00  0.00    -0.305 OA
ENDBRANCH   5  10
ENDBRANCH   1   5
BRANCH   1  12
HETATM   12  C5  UNL     1     -11.467  18.961 -10.676  1.00  0.00     0.010 A 
HETATM   13  C6  UNL     1     -12.635  18.131 -11.182  1.00  0.00     0.007 A 
HETATM   14  C7  UNL     1     -12.757  19.621 -10.892  1.00  0.00     0.007 A 
ENDBRANCH   1  12
TORSDOF 5
ENDMDL
