MODEL 1
REMARK VINA RESULT: -5.862803042      0.000      0.000
REMARK  7 active torsions:
REMARK  status: ('A' for Active; 'I' for Inactive)
REMARK    1  A    between atoms: C2_2  and  C4_4 
REMARK    2  A    between atoms: C4_4  and  C5_5 
REMARK    3  A    between atoms: C5_5  and  C6_6 
REMARK    4  A    between atoms: C5_5  and  N2_14 
REMARK       I    between atoms: C6_6  and  N1_8 
REMARK    5  A    between atoms: N3_17  and  S1_18 
REMARK    6  A    between atoms: S1_18  and  N4_21 
REMARK    7  A    between atoms: N4_21  and  C14_23 
ROOT
HETATM    1  N2  UNL     1     -13.254 -18.332  -9.004  1.00  0.00    -0.377 N 
HETATM    2  C12 UNL     1     -12.414 -17.252  -8.676  1.00  0.00     0.143 C 
HETATM    3  C13 UNL     1     -11.000 -17.418  -9.243  1.00  0.00     0.157 C 
HETATM    4  N3  UNL     1     -11.119 -17.579 -10.647  1.00  0.00    -0.288 N 
HETATM    5  C20 UNL     1     -12.425 -17.783 -11.157  1.00  0.00     0.181 C 
HETATM    6  C21 UNL     1     -13.151 -18.800 -10.296  1.00  0.00     0.079 C 
ENDROOT
BRANCH   1   7
HETATM    7  C5  UNL     1     -14.437 -18.517  -8.221  1.00  0.00     0.176 C 
BRANCH   7   8
HETATM    8  C4  UNL     1     -15.427 -19.234  -9.055  1.00  0.00     0.038 C 
BRANCH   8   9
HETATM    9  C2  UNL     1     -16.770 -18.698  -9.265  1.00  0.00    -0.020 C 
HETATM   10  C1  UNL     1     -16.810 -17.237  -9.581  1.00  0.00     0.009 C 
HETATM   11  C3  UNL     1     -17.404 -19.514 -10.411  1.00  0.00     0.009 C 
ENDBRANCH   8   9
ENDBRANCH   7   8
BRANCH   7  12
HETATM   12  C6  UNL     1     -14.201 -18.939  -6.857  1.00  0.00     0.242 C 
HETATM   13  O1  UNL     1     -13.223 -19.733  -6.548  1.00  0.00    -0.271 OA
HETATM   14  N1  UNL     1     -14.972 -18.551  -5.734  1.00  0.00    -0.350 N 
HETATM   15  C7  UNL     1     -16.095 -17.646  -5.863  1.00  0.00     0.126 C 
HETATM   16  C11 UNL     1     -14.717 -19.011  -4.378  1.00  0.00     0.126 C 
HETATM   17  C8  UNL     1     -16.299 -16.887  -4.542  1.00  0.00     0.020 C 
HETATM   18  C9  UNL     1     -16.697 -17.855  -3.442  1.00  0.00     0.003 C 
HETATM   19  C10 UNL     1     -16.056 -19.213  -3.689  1.00  0.00     0.020 C 
ENDBRANCH   7  12
ENDBRANCH   1   7
BRANCH   4  20
HETATM   20  S1  UNL     1      -9.996 -18.616 -11.386  1.00  0.00     0.317 S 
HETATM   21  O2  UNL     1     -10.564 -19.310 -12.573  1.00  0.00    -0.183 OA
HETATM   22  O3  UNL     1      -8.816 -17.804 -11.873  1.00  0.00    -0.183 OA
BRANCH  20  23
HETATM   23  N4  UNL     1      -9.384 -19.714 -10.203  1.00  0.00    -0.298 N 
ATOM     24  H4  UNL     1      -8.642 -19.488  -9.541  1.00  0.00     0.174 HD
BRANCH  23  25
HETATM   25  C14 UNL     1     -10.056 -20.997 -10.267  1.00  0.00     0.094 C 
HETATM   26  C15 UNL     1     -10.900 -21.145  -9.035  1.00  0.00     0.026 C 
HETATM   27  C16 UNL     1     -10.143 -21.632  -7.833  1.00  0.00     0.002 C 
HETATM   28  C17 UNL     1      -9.269 -22.817  -8.116  1.00  0.00     0.000 C 
HETATM   29  C18 UNL     1      -9.499 -23.266  -9.533  1.00  0.00     0.002 C 
HETATM   30  C19 UNL     1      -9.110 -22.134 -10.463  1.00  0.00     0.026 C 
ENDBRANCH  23  25
ENDBRANCH  20  23
ENDBRANCH   4  20
TORSDOF 7
ENDMDL
MODEL 2
REMARK VINA RESULT: -5.624882927      2.611      4.831
REMARK  7 active torsions:
REMARK  status: ('A' for Active; 'I' for Inactive)
REMARK    1  A    between atoms: C2_2  and  C4_4 
REMARK    2  A    between atoms: C4_4  and  C5_5 
REMARK    3  A    between atoms: C5_5  and  C6_6 
REMARK    4  A    between atoms: C5_5  and  N2_14 
REMARK       I    between atoms: C6_6  and  N1_8 
REMARK    5  A    between atoms: N3_17  and  S1_18 
REMARK    6  A    between atoms: S1_18  and  N4_21 
REMARK    7  A    between atoms: N4_21  and  C14_23 
ROOT
HETATM    1  N2  UNL     1     -15.391 -18.225  -5.416  1.00  0.00    -0.377 N 
HETATM    2  C12 UNL     1     -16.373 -17.638  -6.235  1.00  0.00     0.143 C 
HETATM    3  C13 UNL     1     -15.851 -17.325  -7.642  1.00  0.00     0.157 C 
HETATM    4  N3  UNL     1     -15.365 -18.536  -8.197  1.00  0.00    -0.288 N 
HETATM    5  C20 UNL     1     -15.247 -19.639  -7.315  1.00  0.00     0.181 C 
HETATM    6  C21 UNL     1     -14.603 -19.183  -6.018  1.00  0.00     0.079 C 
ENDROOT
BRANCH   1   7
HETATM    7  C5  UNL     1     -15.595 -18.188  -4.001  1.00  0.00     0.176 C 
BRANCH   7   8
HETATM    8  C4  UNL     1     -15.321 -19.541  -3.467  1.00  0.00     0.038 C 
BRANCH   8   9
HETATM    9  C2  UNL     1     -16.172 -20.135  -2.438  1.00  0.00    -0.020 C 
HETATM   10  C1  UNL     1     -15.686 -21.450  -1.918  1.00  0.00     0.009 C 
HETATM   11  C3  UNL     1     -16.273 -19.107  -1.291  1.00  0.00     0.009 C 
ENDBRANCH   8   9
ENDBRANCH   7   8
BRANCH   7  12
HETATM   12  C6  UNL     1     -15.043 -17.025  -3.339  1.00  0.00     0.242 C 
HETATM   13  O1  UNL     1     -13.767 -16.885  -3.156  1.00  0.00    -0.271 OA
HETATM   14  N1  UNL     1     -15.796 -15.936  -2.835  1.00  0.00    -0.350 N 
HETATM   15  C7  UNL     1     -17.237 -15.888  -2.962  1.00  0.00     0.126 C 
HETATM   16  C11 UNL     1     -15.208 -14.791  -2.156  1.00  0.00     0.126 C 
HETATM   17  C8  UNL     1     -17.703 -14.422  -2.982  1.00  0.00     0.020 C 
HETATM   18  C9  UNL     1     -17.403 -13.764  -1.648  1.00  0.00     0.003 C 
HETATM   19  C10 UNL     1     -16.148 -14.371  -1.038  1.00  0.00     0.020 C 
ENDBRANCH   7  12
ENDBRANCH   1   7
BRANCH   4  20
HETATM   20  S1  UNL     1     -14.013 -18.411  -9.216  1.00  0.00     0.317 S 
HETATM   21  O2  UNL     1     -14.390 -18.095 -10.620  1.00  0.00    -0.183 OA
HETATM   22  O3  UNL     1     -13.130 -17.282  -8.732  1.00  0.00    -0.183 OA
BRANCH  20  23
HETATM   23  N4  UNL     1     -13.078 -19.857  -9.088  1.00  0.00    -0.298 N 
ATOM     24  H4  UNL     1     -13.439 -20.791  -9.279  1.00  0.00     0.174 HD
BRANCH  23  25
HETATM   25  C14 UNL     1     -11.717 -19.577  -8.675  1.00  0.00     0.094 C 
HETATM   26  C15 UNL     1     -10.795 -20.011  -9.778  1.00  0.00     0.026 C 
HETATM   27  C16 UNL     1     -10.471 -21.477  -9.759  1.00  0.00     0.002 C 
HETATM   28  C17 UNL     1     -10.079 -21.986  -8.404  1.00  0.00     0.000 C 
HETATM   29  C18 UNL     1     -10.003 -20.826  -7.450  1.00  0.00     0.002 C 
HETATM   30  C19 UNL     1     -11.377 -20.191  -7.358  1.00  0.00     0.026 C 
ENDBRANCH  23  25
ENDBRANCH  20  23
ENDBRANCH   4  20
TORSDOF 7
ENDMDL
MODEL 3
REMARK VINA RESULT: -5.482041886      4.843      7.370
REMARK  7 active torsions:
REMARK  status: ('A' for Active; 'I' for Inactive)
REMARK    1  A    between atoms: C2_2  and  C4_4 
REMARK    2  A    between atoms: C4_4  and  C5_5 
REMARK    3  A    between atoms: C5_5  and  C6_6 
REMARK    4  A    between atoms: C5_5  and  N2_14 
REMARK       I    between atoms: C6_6  and  N1_8 
REMARK    5  A    between atoms: N3_17  and  S1_18 
REMARK    6  A    between atoms: S1_18  and  N4_21 
REMARK    7  A    between atoms: N4_21  and  C14_23 
ROOT
HETATM    1  N2  UNL     1     -15.766 -16.624  -2.878  1.00  0.00    -0.377 N 
HETATM    2  C12 UNL     1     -14.365 -16.685  -2.763  1.00  0.00     0.143 C 
HETATM    3  C13 UNL     1     -13.657 -16.426  -4.097  1.00  0.00     0.157 C 
HETATM    4  N3  UNL     1     -14.087 -15.161  -4.571  1.00  0.00    -0.288 N 
HETATM    5  C20 UNL     1     -15.177 -14.562  -3.891  1.00  0.00     0.181 C 
HETATM    6  C21 UNL     1     -16.260 -15.600  -3.658  1.00  0.00     0.079 C 
ENDROOT
BRANCH   1   7
HETATM    7  C5  UNL     1     -16.546 -17.237  -1.848  1.00  0.00     0.176 C 
BRANCH   7   8
HETATM    8  C4  UNL     1     -15.877 -18.499  -1.461  1.00  0.00     0.038 C 
BRANCH   8   9
HETATM    9  C2  UNL     1     -16.268 -19.777  -2.054  1.00  0.00    -0.020 C 
HETATM   10  C1  UNL     1     -15.723 -20.014  -3.426  1.00  0.00     0.009 C 
HETATM   11  C3  UNL     1     -15.794 -20.883  -1.088  1.00  0.00     0.009 C 
ENDBRANCH   8   9
ENDBRANCH   7   8
BRANCH   7  12
HETATM   12  C6  UNL     1     -17.022 -16.329  -0.826  1.00  0.00     0.242 C 
HETATM   13  O1  UNL     1     -16.230 -15.846   0.080  1.00  0.00    -0.271 OA
HETATM   14  N1  UNL     1     -18.355 -15.869  -0.696  1.00  0.00    -0.350 N 
HETATM   15  C7  UNL     1     -19.389 -16.271  -1.625  1.00  0.00     0.126 C 
HETATM   16  C11 UNL     1     -18.802 -14.970   0.357  1.00  0.00     0.126 C 
HETATM   17  C8  UNL     1     -20.472 -15.181  -1.695  1.00  0.00     0.020 C 
HETATM   18  C9  UNL     1     -21.173 -15.059  -0.353  1.00  0.00     0.003 C 
HETATM   19  C10 UNL     1     -20.202 -15.389   0.772  1.00  0.00     0.020 C 
ENDBRANCH   7  12
ENDBRANCH   1   7
BRANCH   4  20
HETATM   20  S1  UNL     1     -14.241 -14.996  -6.254  1.00  0.00     0.317 S 
HETATM   21  O2  UNL     1     -15.329 -14.055  -6.633  1.00  0.00    -0.183 OA
HETATM   22  O3  UNL     1     -12.955 -14.434  -6.817  1.00  0.00    -0.183 OA
BRANCH  20  23
HETATM   23  N4  UNL     1     -14.442 -16.561  -6.954  1.00  0.00    -0.298 N 
ATOM     24  H4  UNL     1     -13.709 -17.269  -6.996  1.00  0.00     0.174 HD
BRANCH  23  25
HETATM   25  C14 UNL     1     -15.783 -16.746  -7.474  1.00  0.00     0.094 C 
HETATM   26  C15 UNL     1     -16.484 -17.754  -6.612  1.00  0.00     0.026 C 
HETATM   27  C16 UNL     1     -16.178 -19.180  -6.972  1.00  0.00     0.002 C 
HETATM   28  C17 UNL     1     -16.279 -19.461  -8.441  1.00  0.00     0.000 C 
HETATM   29  C18 UNL     1     -16.790 -18.231  -9.139  1.00  0.00     0.002 C 
HETATM   30  C19 UNL     1     -15.795 -17.108  -8.921  1.00  0.00     0.026 C 
ENDBRANCH  23  25
ENDBRANCH  20  23
ENDBRANCH   4  20
TORSDOF 7
ENDMDL
MODEL 4
REMARK VINA RESULT: -5.462581787      3.340      7.452
REMARK  7 active torsions:
REMARK  status: ('A' for Active; 'I' for Inactive)
REMARK    1  A    between atoms: C2_2  and  C4_4 
REMARK    2  A    between atoms: C4_4  and  C5_5 
REMARK    3  A    between atoms: C5_5  and  C6_6 
REMARK    4  A    between atoms: C5_5  and  N2_14 
REMARK       I    between atoms: C6_6  and  N1_8 
REMARK    5  A    between atoms: N3_17  and  S1_18 
REMARK    6  A    between atoms: S1_18  and  N4_21 
REMARK    7  A    between atoms: N4_21  and  C14_23 
ROOT
HETATM    1  N2  UNL     1     -14.480 -17.057  -6.159  1.00  0.00    -0.377 N 
HETATM    2  C12 UNL     1     -15.469 -16.056  -6.125  1.00  0.00     0.143 C 
HETATM    3  C13 UNL     1     -15.994 -15.801  -4.708  1.00  0.00     0.157 C 
HETATM    4  N3  UNL     1     -14.882 -15.463  -3.895  1.00  0.00    -0.288 N 
HETATM    5  C20 UNL     1     -13.597 -15.657  -4.460  1.00  0.00     0.181 C 
HETATM    6  C21 UNL     1     -13.545 -17.010  -5.147  1.00  0.00     0.079 C 
ENDROOT
BRANCH   1   7
HETATM    7  C5  UNL     1     -14.207 -17.680  -7.417  1.00  0.00     0.176 C 
BRANCH   7   8
HETATM    8  C4  UNL     1     -15.394 -17.499  -8.281  1.00  0.00     0.038 C 
BRANCH   8   9
HETATM    9  C2  UNL     1     -16.005 -18.632  -8.975  1.00  0.00    -0.020 C 
HETATM   10  C1  UNL     1     -16.527 -19.702  -8.071  1.00  0.00     0.009 C 
HETATM   11  C3  UNL     1     -17.143 -18.062  -9.847  1.00  0.00     0.009 C 
ENDBRANCH   8   9
ENDBRANCH   7   8
BRANCH   7  12
HETATM   12  C6  UNL     1     -12.883 -17.423  -7.945  1.00  0.00     0.242 C 
HETATM   13  O1  UNL     1     -12.507 -16.233  -8.295  1.00  0.00    -0.271 OA
HETATM   14  N1  UNL     1     -11.874 -18.399  -8.133  1.00  0.00    -0.350 N 
HETATM   15  C7  UNL     1     -12.086 -19.786  -7.779  1.00  0.00     0.126 C 
HETATM   16  C11 UNL     1     -10.560 -18.108  -8.685  1.00  0.00     0.126 C 
HETATM   17  C8  UNL     1     -10.739 -20.442  -7.435  1.00  0.00     0.020 C 
HETATM   18  C9  UNL     1      -9.851 -20.481  -8.666  1.00  0.00     0.003 C 
HETATM   19  C10 UNL     1     -10.144 -19.282  -9.556  1.00  0.00     0.020 C 
ENDBRANCH   7  12
ENDBRANCH   1   7
BRANCH   4  20
HETATM   20  S1  UNL     1     -14.936 -15.991  -2.282  1.00  0.00     0.317 S 
HETATM   21  O2  UNL     1     -13.981 -15.252  -1.413  1.00  0.00    -0.183 OA
HETATM   22  O3  UNL     1     -16.321 -15.744  -1.726  1.00  0.00    -0.183 OA
BRANCH  20  23
HETATM   23  N4  UNL     1     -14.687 -17.699  -2.243  1.00  0.00    -0.298 N 
ATOM     24  H4  UNL     1     -13.791 -18.143  -2.043  1.00  0.00     0.174 HD
BRANCH  23  25
HETATM   25  C14 UNL     1     -15.910 -18.424  -2.529  1.00  0.00     0.094 C 
HETATM   26  C15 UNL     1     -16.383 -19.062  -1.256  1.00  0.00     0.026 C 
HETATM   27  C16 UNL     1     -15.713 -20.370  -0.946  1.00  0.00     0.002 C 
HETATM   28  C17 UNL     1     -15.662 -21.308  -2.114  1.00  0.00     0.000 C 
HETATM   29  C18 UNL     1     -16.424 -20.703  -3.261  1.00  0.00     0.002 C 
HETATM   30  C19 UNL     1     -15.753 -19.399  -3.647  1.00  0.00     0.026 C 
ENDBRANCH  23  25
ENDBRANCH  20  23
ENDBRANCH   4  20
TORSDOF 7
ENDMDL
MODEL 5
REMARK VINA RESULT: -5.460519216      2.571      3.030
REMARK  7 active torsions:
REMARK  status: ('A' for Active; 'I' for Inactive)
REMARK    1  A    between atoms: C2_2  and  C4_4 
REMARK    2  A    between atoms: C4_4  and  C5_5 
REMARK    3  A    between atoms: C5_5  and  C6_6 
REMARK    4  A    between atoms: C5_5  and  N2_14 
REMARK       I    between atoms: C6_6  and  N1_8 
REMARK    5  A    between atoms: N3_17  and  S1_18 
REMARK    6  A    between atoms: S1_18  and  N4_21 
REMARK    7  A    between atoms: N4_21  and  C14_23 
ROOT
HETATM    1  N2  UNL     1     -13.575 -19.047  -8.953  1.00  0.00    -0.377 N 
HETATM    2  C12 UNL     1     -12.456 -18.196  -8.918  1.00  0.00     0.143 C 
HETATM    3  C13 UNL     1     -11.214 -18.837  -9.547  1.00  0.00     0.157 C 
HETATM    4  N3  UNL     1     -11.548 -19.204 -10.876  1.00  0.00    -0.288 N 
HETATM    5  C20 UNL     1     -12.918 -19.131 -11.231  1.00  0.00     0.181 C 
HETATM    6  C21 UNL     1     -13.761 -19.745 -10.128  1.00  0.00     0.079 C 
ENDROOT
BRANCH   1   7
HETATM    7  C5  UNL     1     -14.656 -18.763  -8.060  1.00  0.00     0.176 C 
BRANCH   7   8
HETATM    8  C4  UNL     1     -15.872 -19.412  -8.598  1.00  0.00     0.038 C 
BRANCH   8   9
HETATM    9  C2  UNL     1     -16.948 -18.626  -9.199  1.00  0.00    -0.020 C 
HETATM   10  C1  UNL     1     -16.538 -17.260  -9.647  1.00  0.00     0.009 C 
HETATM   11  C3  UNL     1     -17.488 -19.444 -10.391  1.00  0.00     0.009 C 
ENDBRANCH   8   9
ENDBRANCH   7   8
BRANCH   7  12
HETATM   12  C6  UNL     1     -14.330 -18.889  -6.656  1.00  0.00     0.242 C 
HETATM   13  O1  UNL     1     -13.322 -19.596  -6.250  1.00  0.00    -0.271 OA
HETATM   14  N1  UNL     1     -15.039 -18.278  -5.593  1.00  0.00    -0.350 N 
HETATM   15  C7  UNL     1     -16.183 -17.426  -5.837  1.00  0.00     0.126 C 
HETATM   16  C11 UNL     1     -14.694 -18.443  -4.189  1.00  0.00     0.126 C 
HETATM   17  C8  UNL     1     -16.320 -16.407  -4.693  1.00  0.00     0.020 C 
HETATM   18  C9  UNL     1     -16.634 -17.126  -3.393  1.00  0.00     0.003 C 
HETATM   19  C10 UNL     1     -15.985 -18.503  -3.390  1.00  0.00     0.020 C 
ENDBRANCH   7  12
ENDBRANCH   1   7
BRANCH   4  20
HETATM   20  S1  UNL     1     -10.828 -20.620 -11.473  1.00  0.00     0.317 S 
HETATM   21  O2  UNL     1      -9.416 -20.405 -11.890  1.00  0.00    -0.183 OA
HETATM   22  O3  UNL     1     -10.811 -21.666 -10.380  1.00  0.00    -0.183 OA
BRANCH  20  23
HETATM   23  N4  UNL     1     -11.808 -21.254 -12.745  1.00  0.00    -0.298 N 
ATOM     24  H4  UNL     1     -11.828 -20.879 -13.693  1.00  0.00     0.174 HD
BRANCH  23  25
HETATM   25  C14 UNL     1     -12.597 -22.385 -12.299  1.00  0.00     0.094 C 
HETATM   26  C15 UNL     1     -11.867 -23.642 -12.673  1.00  0.00     0.026 C 
HETATM   27  C16 UNL     1     -12.095 -24.078 -14.092  1.00  0.00     0.002 C 
HETATM   28  C17 UNL     1     -13.539 -24.071 -14.496  1.00  0.00     0.000 C 
HETATM   29  C18 UNL     1     -14.380 -23.736 -13.295  1.00  0.00     0.002 C 
HETATM   30  C19 UNL     1     -13.997 -22.350 -12.813  1.00  0.00     0.026 C 
ENDBRANCH  23  25
ENDBRANCH  20  23
ENDBRANCH   4  20
TORSDOF 7
ENDMDL
