MODEL 1
REMARK VINA RESULT: -6.927577516      0.000      0.000
REMARK  9 active torsions:
REMARK  status: ('A' for Active; 'I' for Inactive)
REMARK    1  A    between atoms: C2_5  and  C3_6 
REMARK    2  A    between atoms: C5_10  and  N4_11 
REMARK    3  A    between atoms: N4_11  and  C6_13 
REMARK    4  A    between atoms: C11_19  and  C12_20 
REMARK    5  A    between atoms: C12_20  and  O1_21 
REMARK    6  A    between atoms: O1_21  and  C13_22 
REMARK    7  A    between atoms: C13_22  and  O3_24 
REMARK    8  A    between atoms: O3_24  and  C14_25 
REMARK    9  A    between atoms: C14_25  and  C15_26 
ROOT
HETATM    1  C3  UNL     1     -50.092  -4.026 -22.255  1.00  0.00     0.058 A 
HETATM    2  C4  UNL     1     -51.259  -3.778 -22.906  1.00  0.00     0.107 A 
HETATM    3  N3  UNL     1     -51.554  -2.495 -23.210  1.00  0.00    -0.350 N 
ATOM      4  H3  UNL     1     -52.428  -2.299 -23.697  1.00  0.00     0.166 HD
HETATM    5  C5  UNL     1     -50.748  -1.463 -22.899  1.00  0.00     0.129 A 
HETATM    6  C16 UNL     1     -49.550  -1.696 -22.233  1.00  0.00     0.103 A 
HETATM    7 CL2  UNL     1     -48.466  -0.376 -21.806  1.00  0.00    -0.078 Cl
HETATM    8  C17 UNL     1     -49.244  -3.003 -21.920  1.00  0.00     0.087 A 
HETATM    9  N5  UNL     1     -48.028  -3.259 -21.242  1.00  0.00    -0.099 NA
ENDROOT
BRANCH   5  10
HETATM   10  N4  UNL     1     -51.034  -0.231 -23.192  1.00  0.00    -0.340 N 
ATOM     11  H4  UNL     1     -50.539   0.249 -23.943  1.00  0.00     0.167 HD
BRANCH  10  12
HETATM   12  C6  UNL     1     -52.045   0.446 -22.453  1.00  0.00     0.043 A 
HETATM   13  C7  UNL     1     -51.841   0.622 -21.105  1.00  0.00     0.054 A 
HETATM   14  C8  UNL     1     -52.792   1.271 -20.345  1.00  0.00     0.036 A 
HETATM   15 CL1  UNL     1     -52.539   1.501 -18.621  1.00  0.00    -0.084 Cl
HETATM   16  C9  UNL     1     -53.930   1.725 -20.980  1.00  0.00     0.024 A 
HETATM   17  C10 UNL     1     -54.149   1.557 -22.327  1.00  0.00     0.013 A 
HETATM   18  C11 UNL     1     -53.207   0.916 -23.078  1.00  0.00    -0.007 A 
BRANCH  18  19
HETATM   19  C12 UNL     1     -53.326   0.643 -24.515  1.00  0.00     0.222 C 
BRANCH  19  20
HETATM   20  O1  UNL     1     -53.446  -0.676 -24.903  1.00  0.00    -0.293 OA
BRANCH  20  21
HETATM   21  C13 UNL     1     -53.056  -1.231 -26.116  1.00  0.00     0.406 C 
HETATM   22  O2  UNL     1     -53.869  -1.216 -27.058  1.00  0.00    -0.229 OA
BRANCH  21  23
HETATM   23  O3  UNL     1     -51.815  -1.793 -26.313  1.00  0.00    -0.296 OA
BRANCH  23  24
HETATM   24  C14 UNL     1     -50.637  -1.113 -26.648  1.00  0.00     0.212 C 
BRANCH  24  25
HETATM   25  C15 UNL     1     -49.480  -2.048 -26.728  1.00  0.00     0.249 C 
HETATM   26  F1  UNL     1     -48.770  -1.910 -25.525  1.00  0.00    -0.253 F 
ENDBRANCH  24  25
ENDBRANCH  23  24
ENDBRANCH  21  23
ENDBRANCH  20  21
ENDBRANCH  19  20
ENDBRANCH  18  19
ENDBRANCH  10  12
ENDBRANCH   5  10
BRANCH   1  27
HETATM   27  C2  UNL     1     -49.733  -5.407 -21.906  1.00  0.00     0.181 A 
HETATM   28  N2  UNL     1     -49.784  -5.983 -20.683  1.00  0.00    -0.273 N 
HETATM   29  N1  UNL     1     -49.384  -7.243 -20.748  1.00  0.00    -0.239 N 
ATOM     30  H2  UNL     1     -50.088  -5.513 -19.830  1.00  0.00     0.189 HD
HETATM   31  C1  UNL     1     -49.292  -8.204 -19.657  1.00  0.00     0.183 C 
HETATM   32  C18 UNL     1     -49.078  -7.461 -22.040  1.00  0.00     0.388 A 
HETATM   33  O4  UNL     1     -49.296  -6.341 -22.716  1.00  0.00    -0.240 OA
HETATM   34  O5  UNL     1     -48.650  -8.539 -22.556  1.00  0.00    -0.236 OA
ENDBRANCH   1  27
TORSDOF 9
ENDMDL
MODEL 2
REMARK VINA RESULT: -6.876505206      1.324      1.455
REMARK  9 active torsions:
REMARK  status: ('A' for Active; 'I' for Inactive)
REMARK    1  A    between atoms: C2_5  and  C3_6 
REMARK    2  A    between atoms: C5_10  and  N4_11 
REMARK    3  A    between atoms: N4_11  and  C6_13 
REMARK    4  A    between atoms: C11_19  and  C12_20 
REMARK    5  A    between atoms: C12_20  and  O1_21 
REMARK    6  A    between atoms: O1_21  and  C13_22 
REMARK    7  A    between atoms: C13_22  and  O3_24 
REMARK    8  A    between atoms: O3_24  and  C14_25 
REMARK    9  A    between atoms: C14_25  and  C15_26 
ROOT
HETATM    1  C3  UNL     1     -50.072  -3.917 -23.373  1.00  0.00     0.058 A 
HETATM    2  C4  UNL     1     -51.244  -3.496 -23.917  1.00  0.00     0.107 A 
HETATM    3  N3  UNL     1     -51.516  -2.172 -23.888  1.00  0.00    -0.350 N 
ATOM      4  H3  UNL     1     -52.393  -1.847 -24.293  1.00  0.00     0.166 HD
HETATM    5  C5  UNL     1     -50.683  -1.263 -23.350  1.00  0.00     0.129 A 
HETATM    6  C16 UNL     1     -49.479  -1.674 -22.788  1.00  0.00     0.103 A 
HETATM    7 CL2  UNL     1     -48.360  -0.519 -22.072  1.00  0.00    -0.078 Cl
HETATM    8  C17 UNL     1     -49.197  -3.023 -22.814  1.00  0.00     0.087 A 
HETATM    9  N5  UNL     1     -47.975  -3.460 -22.247  1.00  0.00    -0.099 NA
ENDROOT
BRANCH   5  10
HETATM   10  N4  UNL     1     -50.946   0.008 -23.323  1.00  0.00    -0.340 N 
ATOM     11  H4  UNL     1     -50.455   0.649 -23.945  1.00  0.00     0.167 HD
BRANCH  10  12
HETATM   12  C6  UNL     1     -51.927   0.498 -22.415  1.00  0.00     0.043 A 
HETATM   13  C7  UNL     1     -51.638   0.447 -21.072  1.00  0.00     0.054 A 
HETATM   14  C8  UNL     1     -52.556   0.909 -20.153  1.00  0.00     0.036 A 
HETATM   15 CL1  UNL     1     -52.194   0.849 -18.434  1.00  0.00    -0.084 Cl
HETATM   16  C9  UNL     1     -53.750   1.414 -20.627  1.00  0.00     0.024 A 
HETATM   17  C10 UNL     1     -54.055   1.471 -21.966  1.00  0.00     0.013 A 
HETATM   18  C11 UNL     1     -53.146   1.015 -22.876  1.00  0.00    -0.007 A 
BRANCH  18  19
HETATM   19  C12 UNL     1     -53.354   0.990 -24.328  1.00  0.00     0.222 C 
BRANCH  19  20
HETATM   20  O1  UNL     1     -53.502  -0.245 -24.927  1.00  0.00    -0.293 OA
BRANCH  20  21
HETATM   21  C13 UNL     1     -54.302  -0.554 -26.021  1.00  0.00     0.406 C 
HETATM   22  O2  UNL     1     -55.498  -0.215 -25.988  1.00  0.00    -0.229 OA
BRANCH  21  23
HETATM   23  O3  UNL     1     -53.824  -1.217 -27.130  1.00  0.00    -0.296 OA
BRANCH  23  24
HETATM   24  C14 UNL     1     -52.730  -2.090 -27.169  1.00  0.00     0.212 C 
BRANCH  24  25
HETATM   25  C15 UNL     1     -51.531  -1.424 -27.751  1.00  0.00     0.249 C 
HETATM   26  F1  UNL     1     -50.934  -0.695 -26.711  1.00  0.00    -0.253 F 
ENDBRANCH  24  25
ENDBRANCH  23  24
ENDBRANCH  21  23
ENDBRANCH  20  21
ENDBRANCH  19  20
ENDBRANCH  18  19
ENDBRANCH  10  12
ENDBRANCH   5  10
BRANCH   1  27
HETATM   27  C2  UNL     1     -49.737  -5.347 -23.384  1.00  0.00     0.181 A 
HETATM   28  N2  UNL     1     -49.276  -6.089 -22.350  1.00  0.00    -0.273 N 
HETATM   29  N1  UNL     1     -49.086  -7.342 -22.730  1.00  0.00    -0.239 N 
ATOM     30  H2  UNL     1     -49.101  -5.733 -21.410  1.00  0.00     0.189 HD
HETATM   31  C1  UNL     1     -48.600  -8.451 -21.920  1.00  0.00     0.183 C 
HETATM   32  C18 UNL     1     -49.436  -7.387 -24.028  1.00  0.00     0.388 A 
HETATM   33  O4  UNL     1     -49.824  -6.174 -24.398  1.00  0.00    -0.240 OA
HETATM   34  O5  UNL     1     -49.410  -8.398 -24.796  1.00  0.00    -0.236 OA
ENDBRANCH   1  27
TORSDOF 9
ENDMDL
MODEL 3
REMARK VINA RESULT: -6.869988263      3.977      6.369
REMARK  9 active torsions:
REMARK  status: ('A' for Active; 'I' for Inactive)
REMARK    1  A    between atoms: C2_5  and  C3_6 
REMARK    2  A    between atoms: C5_10  and  N4_11 
REMARK    3  A    between atoms: N4_11  and  C6_13 
REMARK    4  A    between atoms: C11_19  and  C12_20 
REMARK    5  A    between atoms: C12_20  and  O1_21 
REMARK    6  A    between atoms: O1_21  and  C13_22 
REMARK    7  A    between atoms: C13_22  and  O3_24 
REMARK    8  A    between atoms: O3_24  and  C14_25 
REMARK    9  A    between atoms: C14_25  and  C15_26 
ROOT
HETATM    1  C3  UNL     1     -51.489  -0.859 -21.404  1.00  0.00     0.058 A 
HETATM    2  C4  UNL     1     -51.321  -0.132 -22.540  1.00  0.00     0.107 A 
HETATM    3  N3  UNL     1     -51.358  -0.785 -23.721  1.00  0.00    -0.350 N 
ATOM      4  H3  UNL     1     -51.232  -0.247 -24.579  1.00  0.00     0.166 HD
HETATM    5  C5  UNL     1     -51.551  -2.113 -23.821  1.00  0.00     0.129 A 
HETATM    6  C16 UNL     1     -51.725  -2.876 -22.671  1.00  0.00     0.103 A 
HETATM    7 CL2  UNL     1     -51.980  -4.615 -22.754  1.00  0.00    -0.078 Cl
HETATM    8  C17 UNL     1     -51.688  -2.214 -21.462  1.00  0.00     0.087 A 
HETATM    9  N5  UNL     1     -51.862  -2.974 -20.280  1.00  0.00    -0.099 NA
ENDROOT
BRANCH   5  10
HETATM   10  N4  UNL     1     -51.585  -2.739 -24.958  1.00  0.00    -0.340 N 
ATOM     11  H4  UNL     1     -52.477  -3.025 -25.362  1.00  0.00     0.167 HD
BRANCH  10  12
HETATM   12  C6  UNL     1     -50.366  -3.023 -25.635  1.00  0.00     0.043 A 
HETATM   13  C7  UNL     1     -49.561  -4.009 -25.115  1.00  0.00     0.054 A 
HETATM   14  C8  UNL     1     -48.369  -4.321 -25.734  1.00  0.00     0.036 A 
HETATM   15 CL1  UNL     1     -47.335  -5.581 -25.077  1.00  0.00    -0.084 Cl
HETATM   16  C9  UNL     1     -48.026  -3.618 -26.871  1.00  0.00     0.024 A 
HETATM   17  C10 UNL     1     -48.819  -2.629 -27.404  1.00  0.00     0.013 A 
HETATM   18  C11 UNL     1     -49.999  -2.321 -26.791  1.00  0.00    -0.007 A 
BRANCH  18  19
HETATM   19  C12 UNL     1     -50.924  -1.272 -27.234  1.00  0.00     0.222 C 
BRANCH  19  20
HETATM   20  O1  UNL     1     -51.919  -1.634 -28.119  1.00  0.00    -0.293 OA
BRANCH  20  21
HETATM   21  C13 UNL     1     -53.284  -1.696 -27.865  1.00  0.00     0.406 C 
HETATM   22  O2  UNL     1     -54.050  -1.916 -28.821  1.00  0.00    -0.229 OA
BRANCH  21  23
HETATM   23  O3  UNL     1     -53.816  -1.523 -26.608  1.00  0.00    -0.296 OA
BRANCH  23  24
HETATM   24  C14 UNL     1     -54.061  -0.301 -25.969  1.00  0.00     0.212 C 
BRANCH  24  25
HETATM   25  C15 UNL     1     -55.500   0.073 -26.055  1.00  0.00     0.249 C 
HETATM   26  F1  UNL     1     -55.684   1.158 -25.184  1.00  0.00    -0.253 F 
ENDBRANCH  24  25
ENDBRANCH  23  24
ENDBRANCH  21  23
ENDBRANCH  20  21
ENDBRANCH  19  20
ENDBRANCH  18  19
ENDBRANCH  10  12
ENDBRANCH   5  10
BRANCH   1  27
HETATM   27  C2  UNL     1     -51.457  -0.188 -20.098  1.00  0.00     0.181 A 
HETATM   28  N2  UNL     1     -50.507  -0.303 -19.140  1.00  0.00    -0.273 N 
HETATM   29  N1  UNL     1     -50.812   0.450 -18.096  1.00  0.00    -0.239 N 
ATOM     30  H2  UNL     1     -49.674  -0.888 -19.213  1.00  0.00     0.189 HD
HETATM   31  C1  UNL     1     -50.053   0.606 -16.862  1.00  0.00     0.183 C 
HETATM   32  C18 UNL     1     -51.975   1.051 -18.405  1.00  0.00     0.388 A 
HETATM   33  O4  UNL     1     -52.342   0.650 -19.615  1.00  0.00    -0.240 OA
HETATM   34  O5  UNL     1     -52.634   1.864 -17.688  1.00  0.00    -0.236 OA
ENDBRANCH   1  27
TORSDOF 9
ENDMDL
MODEL 4
REMARK VINA RESULT: -6.618086955      1.466      1.660
REMARK  9 active torsions:
REMARK  status: ('A' for Active; 'I' for Inactive)
REMARK    1  A    between atoms: C2_5  and  C3_6 
REMARK    2  A    between atoms: C5_10  and  N4_11 
REMARK    3  A    between atoms: N4_11  and  C6_13 
REMARK    4  A    between atoms: C11_19  and  C12_20 
REMARK    5  A    between atoms: C12_20  and  O1_21 
REMARK    6  A    between atoms: O1_21  and  C13_22 
REMARK    7  A    between atoms: C13_22  and  O3_24 
REMARK    8  A    between atoms: O3_24  and  C14_25 
REMARK    9  A    between atoms: C14_25  and  C15_26 
ROOT
HETATM    1  C3  UNL     1     -49.657  -4.972 -22.270  1.00  0.00     0.058 A 
HETATM    2  C4  UNL     1     -50.893  -4.739 -22.786  1.00  0.00     0.107 A 
HETATM    3  N3  UNL     1     -51.131  -3.529 -23.337  1.00  0.00    -0.350 N 
ATOM      4  H3  UNL     1     -52.056  -3.345 -23.726  1.00  0.00     0.166 HD
HETATM    5  C5  UNL     1     -50.206  -2.554 -23.397  1.00  0.00     0.129 A 
HETATM    6  C16 UNL     1     -48.935  -2.772 -22.875  1.00  0.00     0.103 A 
HETATM    7 CL2  UNL     1     -47.695  -1.524 -22.931  1.00  0.00    -0.078 Cl
HETATM    8  C17 UNL     1     -48.687  -4.005 -22.311  1.00  0.00     0.087 A 
HETATM    9  N5  UNL     1     -47.399  -4.245 -21.774  1.00  0.00    -0.099 NA
ENDROOT
BRANCH   5  10
HETATM   10  N4  UNL     1     -50.438  -1.391 -23.927  1.00  0.00    -0.340 N 
ATOM     11  H4  UNL     1     -49.961  -1.111 -24.784  1.00  0.00     0.167 HD
BRANCH  10  12
HETATM   12  C6  UNL     1     -51.363  -0.510 -23.299  1.00  0.00     0.043 A 
HETATM   13  C7  UNL     1     -51.131  -0.169 -21.988  1.00  0.00     0.054 A 
HETATM   14  C8  UNL     1     -51.999   0.681 -21.336  1.00  0.00     0.036 A 
HETATM   15 CL1  UNL     1     -51.710   1.124 -19.659  1.00  0.00    -0.084 Cl
HETATM   16  C9  UNL     1     -53.085   1.164 -22.038  1.00  0.00     0.024 A 
HETATM   17  C10 UNL     1     -53.331   0.832 -23.349  1.00  0.00     0.013 A 
HETATM   18  C11 UNL     1     -52.471  -0.008 -23.995  1.00  0.00    -0.007 A 
BRANCH  18  19
HETATM   19  C12 UNL     1     -52.630  -0.467 -25.380  1.00  0.00     0.222 C 
BRANCH  19  20
HETATM   20  O1  UNL     1     -52.962  -1.792 -25.576  1.00  0.00    -0.293 OA
BRANCH  20  21
HETATM   21  C13 UNL     1     -52.520  -2.624 -26.598  1.00  0.00     0.406 C 
HETATM   22  O2  UNL     1     -53.285  -2.833 -27.557  1.00  0.00    -0.229 OA
BRANCH  21  23
HETATM   23  O3  UNL     1     -51.279  -3.220 -26.590  1.00  0.00    -0.296 OA
BRANCH  23  24
HETATM   24  C14 UNL     1     -50.232  -2.974 -27.487  1.00  0.00     0.212 C 
BRANCH  24  25
HETATM   25  C15 UNL     1     -48.907  -3.165 -26.833  1.00  0.00     0.249 C 
HETATM   26  F1  UNL     1     -48.460  -1.890 -26.455  1.00  0.00    -0.253 F 
ENDBRANCH  24  25
ENDBRANCH  23  24
ENDBRANCH  21  23
ENDBRANCH  20  21
ENDBRANCH  19  20
ENDBRANCH  18  19
ENDBRANCH  10  12
ENDBRANCH   5  10
BRANCH   1  27
HETATM   27  C2  UNL     1     -49.356  -6.274 -21.662  1.00  0.00     0.181 A 
HETATM   28  N2  UNL     1     -48.551  -7.244 -22.156  1.00  0.00    -0.273 N 
HETATM   29  N1  UNL     1     -48.519  -8.280 -21.334  1.00  0.00    -0.239 N 
ATOM     30  H2  UNL     1     -48.042  -7.184 -23.038  1.00  0.00     0.189 HD
HETATM   31  C1  UNL     1     -47.775  -9.522 -21.499  1.00  0.00     0.183 C 
HETATM   32  C18 UNL     1     -49.318  -7.953 -20.303  1.00  0.00     0.388 A 
HETATM   33  O4  UNL     1     -49.809  -6.741 -20.524  1.00  0.00    -0.240 OA
HETATM   34  O5  UNL     1     -49.579  -8.658 -19.280  1.00  0.00    -0.236 OA
ENDBRANCH   1  27
TORSDOF 9
ENDMDL
MODEL 5
REMARK VINA RESULT: -6.532022061      3.032      3.496
REMARK  9 active torsions:
REMARK  status: ('A' for Active; 'I' for Inactive)
REMARK    1  A    between atoms: C2_5  and  C3_6 
REMARK    2  A    between atoms: C5_10  and  N4_11 
REMARK    3  A    between atoms: N4_11  and  C6_13 
REMARK    4  A    between atoms: C11_19  and  C12_20 
REMARK    5  A    between atoms: C12_20  and  O1_21 
REMARK    6  A    between atoms: O1_21  and  C13_22 
REMARK    7  A    between atoms: C13_22  and  O3_24 
REMARK    8  A    between atoms: O3_24  and  C14_25 
REMARK    9  A    between atoms: C14_25  and  C15_26 
ROOT
HETATM    1  C3  UNL     1     -48.771  -4.267 -24.543  1.00  0.00     0.058 A 
HETATM    2  C4  UNL     1     -48.608  -2.922 -24.436  1.00  0.00     0.107 A 
HETATM    3  N3  UNL     1     -49.702  -2.170 -24.186  1.00  0.00    -0.350 N 
ATOM      4  H3  UNL     1     -49.590  -1.159 -24.105  1.00  0.00     0.166 HD
HETATM    5  C5  UNL     1     -50.934  -2.691 -24.038  1.00  0.00     0.129 A 
HETATM    6  C16 UNL     1     -51.122  -4.065 -24.144  1.00  0.00     0.103 A 
HETATM    7 CL2  UNL     1     -52.716  -4.789 -23.959  1.00  0.00    -0.078 Cl
HETATM    8  C17 UNL     1     -50.009  -4.837 -24.400  1.00  0.00     0.087 A 
HETATM    9  N5  UNL     1     -50.182  -6.238 -24.511  1.00  0.00    -0.099 NA
ENDROOT
BRANCH   5  10
HETATM   10  N4  UNL     1     -51.984  -1.966 -23.798  1.00  0.00    -0.340 N 
ATOM     11  H4  UNL     1     -52.822  -2.068 -24.369  1.00  0.00     0.167 HD
BRANCH  10  12
HETATM   12  C6  UNL     1     -51.953  -1.025 -22.730  1.00  0.00     0.043 A 
HETATM   13  C7  UNL     1     -51.691  -1.501 -21.467  1.00  0.00     0.054 A 
HETATM   14  C8  UNL     1     -51.652  -0.630 -20.399  1.00  0.00     0.036 A 
HETATM   15 CL1  UNL     1     -51.317  -1.230 -18.780  1.00  0.00    -0.084 Cl
HETATM   16  C9  UNL     1     -51.879   0.709 -20.645  1.00  0.00     0.024 A 
HETATM   17  C10 UNL     1     -52.142   1.201 -21.902  1.00  0.00     0.013 A 
HETATM   18  C11 UNL     1     -52.180   0.338 -22.959  1.00  0.00    -0.007 A 
BRANCH  18  19
HETATM   19  C12 UNL     1     -52.478   0.723 -24.343  1.00  0.00     0.222 C 
BRANCH  19  20
HETATM   20  O1  UNL     1     -53.763   0.509 -24.799  1.00  0.00    -0.293 OA
BRANCH  20  21
HETATM   21  C13 UNL     1     -54.161  -0.370 -25.800  1.00  0.00     0.406 C 
HETATM   22  O2  UNL     1     -55.294  -0.225 -26.292  1.00  0.00    -0.229 OA
BRANCH  21  23
HETATM   23  O3  UNL     1     -53.356  -1.387 -26.261  1.00  0.00    -0.296 OA
BRANCH  23  24
HETATM   24  C14 UNL     1     -52.901  -1.557 -27.575  1.00  0.00     0.212 C 
BRANCH  24  25
HETATM   25  C15 UNL     1     -51.425  -1.751 -27.612  1.00  0.00     0.249 C 
HETATM   26  F1  UNL     1     -50.861  -0.672 -26.913  1.00  0.00    -0.253 F 
ENDBRANCH  24  25
ENDBRANCH  23  24
ENDBRANCH  21  23
ENDBRANCH  20  21
ENDBRANCH  19  20
ENDBRANCH  18  19
ENDBRANCH  10  12
ENDBRANCH   5  10
BRANCH   1  27
HETATM   27  C2  UNL     1     -47.609  -5.122 -24.815  1.00  0.00     0.181 A 
HETATM   28  N2  UNL     1     -47.281  -5.713 -25.988  1.00  0.00    -0.273 N 
HETATM   29  N1  UNL     1     -46.164  -6.410 -25.858  1.00  0.00    -0.239 N 
ATOM     30  H2  UNL     1     -47.820  -5.632 -26.850  1.00  0.00     0.189 HD
HETATM   31  C1  UNL     1     -45.479  -7.189 -26.880  1.00  0.00     0.183 C 
HETATM   32  C18 UNL     1     -45.782  -6.251 -24.578  1.00  0.00     0.388 A 
HETATM   33  O4  UNL     1     -46.668  -5.473 -23.971  1.00  0.00    -0.240 OA
HETATM   34  O5  UNL     1     -44.758  -6.748 -24.015  1.00  0.00    -0.236 OA
ENDBRANCH   1  27
TORSDOF 9
ENDMDL
