MODEL 1
REMARK VINA RESULT: -8.177904581      0.000      0.000
REMARK  7 active torsions:
REMARK  status: ('A' for Active; 'I' for Inactive)
REMARK    1  A    between atoms: N1_1  and  N2_4 
REMARK    2  A    between atoms: C1_5  and  S1_6 
REMARK    3  A    between atoms: S1_6  and  C2_7 
REMARK    4  A    between atoms: C2_7  and  C3_8 
REMARK       I    between atoms: C3_8  and  N3_10 
REMARK    5  A    between atoms: N3_10  and  C4_11 
REMARK    6  A    between atoms: C10_23  and  C11_24 
REMARK    7  A    between atoms: C14_28  and  N6_29 
ROOT
HETATM    1  N2  UNL     1     -50.456  -3.562 -22.162  1.00  0.00    -0.221 N 
HETATM    2  C1  UNL     1     -50.492  -4.332 -21.114  1.00  0.00     0.182 A 
HETATM    3  N4  UNL     1     -51.381  -5.303 -21.413  1.00  0.00    -0.277 N 
ATOM      4  H4  UNL     1     -51.621  -6.083 -20.803  1.00  0.00     0.189 HD
HETATM    5  N5  UNL     1     -51.909  -5.087 -22.646  1.00  0.00    -0.281 N 
ATOM      6  H5  UNL     1     -52.615  -5.666 -23.101  1.00  0.00     0.188 HD
HETATM    7  C10 UNL     1     -51.368  -4.030 -23.144  1.00  0.00     0.154 A 
ENDROOT
BRANCH   2   8
HETATM    8  S1  UNL     1     -49.424  -4.383 -19.708  1.00  0.00    -0.080 SA
BRANCH   8   9
HETATM    9  C2  UNL     1     -49.362  -2.939 -18.681  1.00  0.00     0.201 C 
BRANCH   9  10
HETATM   10  C3  UNL     1     -50.924  -2.729 -18.202  1.00  0.00     0.301 C 
HETATM   11  O1  UNL     1     -51.318  -3.497 -17.372  1.00  0.00    -0.256 OA
HETATM   12  N3  UNL     1     -51.304  -1.697 -18.910  1.00  0.00    -0.370 NA
BRANCH  12  13
HETATM   13  C4  UNL     1     -51.717  -0.609 -19.652  1.00  0.00     0.112 A 
HETATM   14  C5  UNL     1     -51.982   0.423 -18.618  1.00  0.00     0.048 A 
HETATM   15  C6  UNL     1     -52.638   1.541 -18.943  1.00  0.00     0.047 A 
HETATM   16  C7  UNL     1     -53.089   1.740 -20.189  1.00  0.00     0.138 A 
HETATM   17  F1  UNL     1     -53.855   2.921 -20.476  1.00  0.00    -0.204 F 
HETATM   18  C8  UNL     1     -52.860   0.767 -21.170  1.00  0.00     0.075 A 
HETATM   19 CL1  UNL     1     -53.491   1.108 -22.795  1.00  0.00    -0.081 Cl
HETATM   20  C9  UNL     1     -52.202  -0.323 -20.875  1.00  0.00     0.071 A 
ENDBRANCH  12  13
ENDBRANCH   9  10
ENDBRANCH   8   9
ENDBRANCH   2   8
BRANCH   1  21
HETATM   21  N1  UNL     1     -49.743  -2.380 -22.376  1.00  0.00    -0.335 N 
ATOM     22  H12 UNL     1     -50.205  -1.574 -22.797  1.00  0.00     0.177 HD
ATOM     23  H11 UNL     1     -48.786  -2.142 -22.117  1.00  0.00     0.177 HD
ENDBRANCH   1  21
BRANCH   7  24
HETATM   24  C11 UNL     1     -51.417  -3.081 -24.284  1.00  0.00     0.015 A 
HETATM   25  C12 UNL     1     -50.621  -3.512 -25.387  1.00  0.00     0.042 A 
HETATM   26  C13 UNL     1     -50.940  -2.988 -26.610  1.00  0.00     0.069 A 
HETATM   27 CL2  UNL     1     -50.044  -3.393 -28.036  1.00  0.00    -0.082 Cl
HETATM   28  C14 UNL     1     -51.969  -2.109 -26.751  1.00  0.00     0.146 A 
HETATM   29  C15 UNL     1     -52.713  -1.669 -25.631  1.00  0.00     0.069 A 
HETATM   30 CL3  UNL     1     -53.942  -0.460 -25.876  1.00  0.00    -0.082 Cl
HETATM   31  C16 UNL     1     -52.423  -2.164 -24.399  1.00  0.00     0.042 A 
BRANCH  28  32
HETATM   32  N6  UNL     1     -52.536  -1.883 -28.076  1.00  0.00    -0.112 N 
HETATM   33  O2  UNL     1     -53.536  -2.478 -28.433  1.00  0.00    -0.532 OA
HETATM   34  O3  UNL     1     -51.852  -1.024 -28.886  1.00  0.00    -0.532 OA
ENDBRANCH  28  32
ENDBRANCH   7  24
TORSDOF 7
ENDMDL
MODEL 2
REMARK VINA RESULT: -7.898873578      1.743      2.807
REMARK  7 active torsions:
REMARK  status: ('A' for Active; 'I' for Inactive)
REMARK    1  A    between atoms: N1_1  and  N2_4 
REMARK    2  A    between atoms: C1_5  and  S1_6 
REMARK    3  A    between atoms: S1_6  and  C2_7 
REMARK    4  A    between atoms: C2_7  and  C3_8 
REMARK       I    between atoms: C3_8  and  N3_10 
REMARK    5  A    between atoms: N3_10  and  C4_11 
REMARK    6  A    between atoms: C10_23  and  C11_24 
REMARK    7  A    between atoms: C14_28  and  N6_29 
ROOT
HETATM    1  N2  UNL     1     -49.543  -2.661 -21.523  1.00  0.00    -0.221 N 
HETATM    2  C1  UNL     1     -49.070  -2.232 -20.389  1.00  0.00     0.182 A 
HETATM    3  N4  UNL     1     -48.459  -1.063 -20.676  1.00  0.00    -0.277 N 
ATOM      4  H4  UNL     1     -48.004  -0.458 -19.993  1.00  0.00     0.189 HD
HETATM    5  N5  UNL     1     -48.540  -0.809 -22.008  1.00  0.00    -0.281 N 
ATOM      6  H5  UNL     1     -48.145   0.001 -22.485  1.00  0.00     0.188 HD
HETATM    7  C10 UNL     1     -49.199  -1.763 -22.568  1.00  0.00     0.154 A 
ENDROOT
BRANCH   2   8
HETATM    8  S1  UNL     1     -49.383  -2.794 -18.744  1.00  0.00    -0.080 SA
BRANCH   8   9
HETATM    9  C2  UNL     1     -50.797  -2.123 -17.912  1.00  0.00     0.201 C 
BRANCH   9  10
HETATM   10  C3  UNL     1     -50.405  -0.539 -17.685  1.00  0.00     0.301 C 
HETATM   11  O1  UNL     1     -49.737  -0.304 -16.720  1.00  0.00    -0.256 OA
HETATM   12  N3  UNL     1     -50.967   0.044 -18.713  1.00  0.00    -0.370 NA
BRANCH  12  13
HETATM   13  C4  UNL     1     -51.556   0.671 -19.792  1.00  0.00     0.112 A 
HETATM   14  C5  UNL     1     -52.665   1.438 -19.173  1.00  0.00     0.048 A 
HETATM   15  C6  UNL     1     -53.615   1.979 -19.942  1.00  0.00     0.047 A 
HETATM   16  C7  UNL     1     -53.599   1.820 -21.272  1.00  0.00     0.138 A 
HETATM   17  F1  UNL     1     -54.680   2.354 -22.054  1.00  0.00    -0.204 F 
HETATM   18  C8  UNL     1     -52.567   1.085 -21.868  1.00  0.00     0.075 A 
HETATM   19 CL1  UNL     1     -52.621   0.920 -23.636  1.00  0.00    -0.081 Cl
HETATM   20  C9  UNL     1     -51.619   0.566 -21.133  1.00  0.00     0.071 A 
ENDBRANCH  12  13
ENDBRANCH   9  10
ENDBRANCH   8   9
ENDBRANCH   2   8
BRANCH   1  21
HETATM   21  N1  UNL     1     -50.221  -3.847 -21.815  1.00  0.00    -0.335 N 
ATOM     22  H12 UNL     1     -50.038  -4.688 -21.267  1.00  0.00     0.177 HD
ATOM     23  H11 UNL     1     -50.963  -4.023 -22.491  1.00  0.00     0.177 HD
ENDBRANCH   1  21
BRANCH   7  24
HETATM   24  C11 UNL     1     -49.631  -2.318 -23.875  1.00  0.00     0.015 A 
HETATM   25  C12 UNL     1     -51.026  -2.138 -24.109  1.00  0.00     0.042 A 
HETATM   26  C13 UNL     1     -51.435  -2.182 -25.415  1.00  0.00     0.069 A 
HETATM   27 CL2  UNL     1     -53.102  -2.011 -25.854  1.00  0.00    -0.082 Cl
HETATM   28  C14 UNL     1     -50.543  -2.381 -26.424  1.00  0.00     0.146 A 
HETATM   29  C15 UNL     1     -49.172  -2.598 -26.155  1.00  0.00     0.069 A 
HETATM   30 CL3  UNL     1     -48.112  -2.956 -27.490  1.00  0.00    -0.082 Cl
HETATM   31  C16 UNL     1     -48.729  -2.566 -24.870  1.00  0.00     0.042 A 
BRANCH  28  32
HETATM   32  N6  UNL     1     -50.923  -2.030 -27.788  1.00  0.00    -0.112 N 
HETATM   33  O2  UNL     1     -51.027  -0.864 -28.123  1.00  0.00    -0.532 OA
HETATM   34  O3  UNL     1     -51.200  -3.072 -28.624  1.00  0.00    -0.532 OA
ENDBRANCH  28  32
ENDBRANCH   7  24
TORSDOF 7
ENDMDL
MODEL 3
REMARK VINA RESULT: -7.739057347      2.959      6.772
REMARK  7 active torsions:
REMARK  status: ('A' for Active; 'I' for Inactive)
REMARK    1  A    between atoms: N1_1  and  N2_4 
REMARK    2  A    between atoms: C1_5  and  S1_6 
REMARK    3  A    between atoms: S1_6  and  C2_7 
REMARK    4  A    between atoms: C2_7  and  C3_8 
REMARK       I    between atoms: C3_8  and  N3_10 
REMARK    5  A    between atoms: N3_10  and  C4_11 
REMARK    6  A    between atoms: C10_23  and  C11_24 
REMARK    7  A    between atoms: C14_28  and  N6_29 
ROOT
HETATM    1  N2  UNL     1     -50.722  -3.057 -24.907  1.00  0.00    -0.221 N 
HETATM    2  C1  UNL     1     -51.121  -3.605 -26.017  1.00  0.00     0.182 A 
HETATM    3  N4  UNL     1     -52.016  -4.547 -25.649  1.00  0.00    -0.277 N 
ATOM      4  H4  UNL     1     -52.534  -5.144 -26.292  1.00  0.00     0.189 HD
HETATM    5  N5  UNL     1     -52.124  -4.582 -24.295  1.00  0.00    -0.281 N 
ATOM      6  H5  UNL     1     -52.720  -5.216 -23.761  1.00  0.00     0.188 HD
HETATM    7  C10 UNL     1     -51.349  -3.683 -23.798  1.00  0.00     0.154 A 
ENDROOT
BRANCH   2   8
HETATM    8  S1  UNL     1     -50.873  -3.093 -27.689  1.00  0.00    -0.080 SA
BRANCH   8   9
HETATM    9  C2  UNL     1     -51.522  -1.511 -28.159  1.00  0.00     0.201 C 
BRANCH   9  10
HETATM   10  C3  UNL     1     -53.141  -1.656 -27.895  1.00  0.00     0.301 C 
HETATM   11  O1  UNL     1     -53.757  -2.218 -28.754  1.00  0.00    -0.256 OA
HETATM   12  N3  UNL     1     -53.292  -1.086 -26.727  1.00  0.00    -0.370 NA
BRANCH  12  13
HETATM   13  C4  UNL     1     -53.465  -0.487 -25.496  1.00  0.00     0.112 A 
HETATM   14  C5  UNL     1     -54.811   0.129 -25.606  1.00  0.00     0.048 A 
HETATM   15  C6  UNL     1     -55.220   1.010 -24.688  1.00  0.00     0.047 A 
HETATM   16  C7  UNL     1     -54.422   1.372 -23.675  1.00  0.00     0.138 A 
HETATM   17  F1  UNL     1     -54.872   2.379 -22.754  1.00  0.00    -0.204 F 
HETATM   18  C8  UNL     1     -53.144   0.811 -23.567  1.00  0.00     0.075 A 
HETATM   19 CL1  UNL     1     -52.149   1.345 -22.196  1.00  0.00    -0.081 Cl
HETATM   20  C9  UNL     1     -52.735  -0.068 -24.445  1.00  0.00     0.071 A 
ENDBRANCH  12  13
ENDBRANCH   9  10
ENDBRANCH   8   9
ENDBRANCH   2   8
BRANCH   1  21
HETATM   21  N1  UNL     1     -49.763  -2.062 -24.699  1.00  0.00    -0.335 N 
ATOM     22  H12 UNL     1     -49.998  -1.083 -24.863  1.00  0.00     0.177 HD
ATOM     23  H11 UNL     1     -48.816  -2.139 -24.330  1.00  0.00     0.177 HD
ENDBRANCH   1  21
BRANCH   7  24
HETATM   24  C11 UNL     1     -50.798  -3.140 -22.531  1.00  0.00     0.015 A 
HETATM   25  C12 UNL     1     -51.689  -2.224 -21.897  1.00  0.00     0.042 A 
HETATM   26  C13 UNL     1     -51.506  -2.028 -20.555  1.00  0.00     0.069 A 
HETATM   27 CL2  UNL     1     -52.490  -0.923 -19.654  1.00  0.00    -0.082 Cl
HETATM   28  C14 UNL     1     -50.527  -2.684 -19.875  1.00  0.00     0.146 A 
HETATM   29  C15 UNL     1     -49.633  -3.554 -20.541  1.00  0.00     0.069 A 
HETATM   30 CL3  UNL     1     -48.337  -4.272 -19.625  1.00  0.00    -0.082 Cl
HETATM   31  C16 UNL     1     -49.780  -3.772 -21.875  1.00  0.00     0.042 A 
BRANCH  28  32
HETATM   32  N6  UNL     1     -50.605  -2.771 -18.421  1.00  0.00    -0.112 N 
HETATM   33  O2  UNL     1     -51.340  -3.580 -17.886  1.00  0.00    -0.532 OA
HETATM   34  O3  UNL     1     -49.859  -1.867 -17.723  1.00  0.00    -0.532 OA
ENDBRANCH  28  32
ENDBRANCH   7  24
TORSDOF 7
ENDMDL
MODEL 4
REMARK VINA RESULT: -7.721629658      1.255      1.504
REMARK  7 active torsions:
REMARK  status: ('A' for Active; 'I' for Inactive)
REMARK    1  A    between atoms: N1_1  and  N2_4 
REMARK    2  A    between atoms: C1_5  and  S1_6 
REMARK    3  A    between atoms: S1_6  and  C2_7 
REMARK    4  A    between atoms: C2_7  and  C3_8 
REMARK       I    between atoms: C3_8  and  N3_10 
REMARK    5  A    between atoms: N3_10  and  C4_11 
REMARK    6  A    between atoms: C10_23  and  C11_24 
REMARK    7  A    between atoms: C14_28  and  N6_29 
ROOT
HETATM    1  N2  UNL     1     -50.186  -3.867 -22.173  1.00  0.00    -0.221 N 
HETATM    2  C1  UNL     1     -50.243  -4.665 -21.147  1.00  0.00     0.182 A 
HETATM    3  N4  UNL     1     -51.247  -5.526 -21.419  1.00  0.00    -0.277 N 
ATOM      4  H4  UNL     1     -51.535  -6.297 -20.818  1.00  0.00     0.189 HD
HETATM    5  N5  UNL     1     -51.819  -5.213 -22.612  1.00  0.00    -0.281 N 
ATOM      6  H5  UNL     1     -52.608  -5.697 -23.040  1.00  0.00     0.188 HD
HETATM    7  C10 UNL     1     -51.197  -4.202 -23.111  1.00  0.00     0.154 A 
ENDROOT
BRANCH   2   8
HETATM    8  S1  UNL     1     -49.109  -4.878 -19.810  1.00  0.00    -0.080 SA
BRANCH   8   9
HETATM    9  C2  UNL     1     -49.174  -3.693 -18.492  1.00  0.00     0.201 C 
BRANCH   9  10
HETATM   10  C3  UNL     1     -48.172  -2.487 -18.997  1.00  0.00     0.301 C 
HETATM   11  O1  UNL     1     -47.003  -2.744 -18.978  1.00  0.00    -0.256 OA
HETATM   12  N3  UNL     1     -49.010  -1.533 -19.311  1.00  0.00    -0.370 NA
BRANCH  12  13
HETATM   13  C4  UNL     1     -49.883  -0.517 -19.645  1.00  0.00     0.112 A 
HETATM   14  C5  UNL     1     -50.396  -0.066 -18.327  1.00  0.00     0.048 A 
HETATM   15  C6  UNL     1     -51.457   0.745 -18.264  1.00  0.00     0.047 A 
HETATM   16  C7  UNL     1     -52.088   1.143 -19.377  1.00  0.00     0.138 A 
HETATM   17  F1  UNL     1     -53.269   1.953 -19.260  1.00  0.00    -0.204 F 
HETATM   18  C8  UNL     1     -51.624   0.712 -20.626  1.00  0.00     0.075 A 
HETATM   19 CL1  UNL     1     -52.518   1.284 -22.051  1.00  0.00    -0.081 Cl
HETATM   20  C9  UNL     1     -50.576  -0.065 -20.707  1.00  0.00     0.071 A 
ENDBRANCH  12  13
ENDBRANCH   9  10
ENDBRANCH   8   9
ENDBRANCH   2   8
BRANCH   1  21
HETATM   21  N1  UNL     1     -49.363  -2.760 -22.396  1.00  0.00    -0.335 N 
ATOM     22  H12 UNL     1     -48.641  -2.515 -21.718  1.00  0.00     0.177 HD
ATOM     23  H11 UNL     1     -49.313  -2.139 -23.203  1.00  0.00     0.177 HD
ENDBRANCH   1  21
BRANCH   7  24
HETATM   24  C11 UNL     1     -51.208  -3.214 -24.218  1.00  0.00     0.015 A 
HETATM   25  C12 UNL     1     -50.465  -3.657 -25.352  1.00  0.00     0.042 A 
HETATM   26  C13 UNL     1     -50.776  -3.073 -26.550  1.00  0.00     0.069 A 
HETATM   27 CL2  UNL     1     -49.938  -3.485 -28.009  1.00  0.00    -0.082 Cl
HETATM   28  C14 UNL     1     -51.750  -2.126 -26.639  1.00  0.00     0.146 A 
HETATM   29  C15 UNL     1     -52.440  -1.678 -25.489  1.00  0.00     0.069 A 
HETATM   30 CL3  UNL     1     -53.593  -0.385 -25.665  1.00  0.00    -0.082 Cl
HETATM   31  C16 UNL     1     -52.156  -2.231 -24.280  1.00  0.00     0.042 A 
BRANCH  28  32
HETATM   32  N6  UNL     1     -52.329  -1.820 -27.943  1.00  0.00    -0.112 N 
HETATM   33  O2  UNL     1     -51.789  -1.026 -28.690  1.00  0.00    -0.532 OA
HETATM   34  O3  UNL     1     -53.515  -2.427 -28.232  1.00  0.00    -0.532 OA
ENDBRANCH  28  32
ENDBRANCH   7  24
TORSDOF 7
ENDMDL
MODEL 5
REMARK VINA RESULT: -7.699169330      1.576      2.388
REMARK  7 active torsions:
REMARK  status: ('A' for Active; 'I' for Inactive)
REMARK    1  A    between atoms: N1_1  and  N2_4 
REMARK    2  A    between atoms: C1_5  and  S1_6 
REMARK    3  A    between atoms: S1_6  and  C2_7 
REMARK    4  A    between atoms: C2_7  and  C3_8 
REMARK       I    between atoms: C3_8  and  N3_10 
REMARK    5  A    between atoms: N3_10  and  C4_11 
REMARK    6  A    between atoms: C10_23  and  C11_24 
REMARK    7  A    between atoms: C14_28  and  N6_29 
ROOT
HETATM    1  N2  UNL     1     -50.280  -4.515 -22.634  1.00  0.00    -0.221 N 
HETATM    2  C1  UNL     1     -50.313  -5.130 -21.489  1.00  0.00     0.182 A 
HETATM    3  N4  UNL     1     -50.684  -6.397 -21.773  1.00  0.00    -0.277 N 
ATOM      4  H4  UNL     1     -50.781  -7.145 -21.088  1.00  0.00     0.189 HD
HETATM    5  N5  UNL     1     -50.909  -6.528 -23.107  1.00  0.00    -0.281 N 
ATOM      6  H5  UNL     1     -51.215  -7.379 -23.578  1.00  0.00     0.188 HD
HETATM    7  C10 UNL     1     -50.671  -5.397 -23.675  1.00  0.00     0.154 A 
ENDROOT
BRANCH   2   8
HETATM    8  S1  UNL     1     -49.709  -4.620 -19.909  1.00  0.00    -0.080 SA
BRANCH   8   9
HETATM    9  C2  UNL     1     -50.357  -3.112 -19.239  1.00  0.00     0.201 C 
BRANCH   9  10
HETATM   10  C3  UNL     1     -49.309  -1.960 -19.777  1.00  0.00     0.301 C 
HETATM   11  O1  UNL     1     -48.157  -2.143 -19.509  1.00  0.00    -0.256 OA
HETATM   12  N3  UNL     1     -50.099  -1.125 -20.402  1.00  0.00    -0.370 NA
BRANCH  12  13
HETATM   13  C4  UNL     1     -50.921  -0.236 -21.064  1.00  0.00     0.112 A 
HETATM   14  C5  UNL     1     -51.647   0.440 -19.959  1.00  0.00     0.048 A 
HETATM   15  C6  UNL     1     -52.715   1.198 -20.226  1.00  0.00     0.047 A 
HETATM   16  C7  UNL     1     -53.164   1.341 -21.480  1.00  0.00     0.138 A 
HETATM   17  F1  UNL     1     -54.359   2.103 -21.713  1.00  0.00    -0.204 F 
HETATM   18  C8  UNL     1     -52.498   0.697 -22.530  1.00  0.00     0.075 A 
HETATM   19 CL1  UNL     1     -53.158   0.938 -24.162  1.00  0.00    -0.081 Cl
HETATM   20  C9  UNL     1     -51.440  -0.032 -22.290  1.00  0.00     0.071 A 
ENDBRANCH  12  13
ENDBRANCH   9  10
ENDBRANCH   8   9
ENDBRANCH   2   8
BRANCH   1  21
HETATM   21  N1  UNL     1     -50.007  -3.175 -22.919  1.00  0.00    -0.335 N 
ATOM     22  H12 UNL     1     -50.432  -2.436 -22.357  1.00  0.00     0.177 HD
ATOM     23  H11 UNL     1     -49.368  -2.772 -23.603  1.00  0.00     0.177 HD
ENDBRANCH   1  21
BRANCH   7  24
HETATM   24  C11 UNL     1     -50.754  -4.660 -24.960  1.00  0.00     0.015 A 
HETATM   25  C12 UNL     1     -51.980  -3.945 -25.102  1.00  0.00     0.042 A 
HETATM   26  C13 UNL     1     -51.979  -2.902 -25.987  1.00  0.00     0.069 A 
HETATM   27 CL2  UNL     1     -53.402  -1.961 -26.288  1.00  0.00    -0.082 Cl
HETATM   28  C14 UNL     1     -50.856  -2.572 -26.682  1.00  0.00     0.146 A 
HETATM   29  C15 UNL     1     -49.667  -3.326 -26.551  1.00  0.00     0.069 A 
HETATM   30 CL3  UNL     1     -48.307  -2.910 -27.556  1.00  0.00    -0.082 Cl
HETATM   31  C16 UNL     1     -49.631  -4.373 -25.684  1.00  0.00     0.042 A 
BRANCH  28  32
HETATM   32  N6  UNL     1     -50.760  -1.250 -27.294  1.00  0.00    -0.112 N 
HETATM   33  O2  UNL     1     -50.321  -0.306 -26.665  1.00  0.00    -0.532 OA
HETATM   34  O3  UNL     1     -51.238  -1.140 -28.566  1.00  0.00    -0.532 OA
ENDBRANCH  28  32
ENDBRANCH   7  24
TORSDOF 7
ENDMDL
