MODEL 1
REMARK VINA RESULT: -7.799785143      0.000      0.000
REMARK  7 active torsions:
REMARK  status: ('A' for Active; 'I' for Inactive)
REMARK    1  A    between atoms: C1_2  and  C2_3 
REMARK       I    between atoms: C1_2  and  N4_25 
REMARK    2  A    between atoms: C2_3  and  S1_4 
REMARK    3  A    between atoms: S1_4  and  C3_5 
REMARK    4  A    between atoms: C4_10  and  C5_11 
REMARK    5  A    between atoms: C9_17  and  N3_18 
REMARK    6  A    between atoms: C10_21  and  O4_22 
REMARK    7  A    between atoms: N4_25  and  C11_27 
ROOT
HETATM    1  C3  UNL     1     -49.041  -2.270 -23.314  1.00  0.00     0.204 A 
HETATM    2  N1  UNL     1     -48.002  -1.592 -22.826  1.00  0.00    -0.272 N 
ATOM      3  H1  UNL     1     -47.046  -1.644 -23.179  1.00  0.00     0.189 HD
HETATM    4  N2  UNL     1     -48.399  -0.847 -21.824  1.00  0.00    -0.277 N 
ATOM      5  H2  UNL     1     -47.810  -0.227 -21.268  1.00  0.00     0.189 HD
HETATM    6  C4  UNL     1     -49.754  -1.047 -21.650  1.00  0.00     0.178 A 
HETATM    7  O5  UNL     1     -50.058  -1.902 -22.570  1.00  0.00    -0.267 OA
ENDROOT
BRANCH   1   8
HETATM    8  S1  UNL     1     -49.139  -3.436 -24.658  1.00  0.00    -0.075 SA
BRANCH   8   9
HETATM    9  C2  UNL     1     -49.219  -2.663 -26.277  1.00  0.00     0.186 C 
BRANCH   9  10
HETATM   10  C1  UNL     1     -50.315  -1.621 -26.277  1.00  0.00     0.232 C 
HETATM   11  O1  UNL     1     -50.124  -0.646 -27.019  1.00  0.00    -0.272 OA
HETATM   12  N4  UNL     1     -51.446  -1.781 -25.484  1.00  0.00    -0.324 N 
ATOM     13  H4  UNL     1     -51.460  -2.630 -24.920  1.00  0.00     0.169 HD
BRANCH  12  14
HETATM   14  C11 UNL     1     -52.579  -0.950 -25.339  1.00  0.00     0.073 A 
HETATM   15  C12 UNL     1     -52.638   0.018 -24.383  1.00  0.00     0.036 A 
HETATM   16  C13 UNL     1     -53.775   0.834 -24.249  1.00  0.00     0.044 A 
HETATM   17  C14 UNL     1     -54.851   0.669 -25.085  1.00  0.00     0.119 A 
HETATM   18  F1  UNL     1     -55.976   1.423 -25.008  1.00  0.00    -0.206 F 
HETATM   19  C15 UNL     1     -54.784  -0.315 -26.050  1.00  0.00     0.086 A 
HETATM   20  C16 UNL     1     -53.681  -1.116 -26.189  1.00  0.00     0.145 A 
HETATM   21  F2  UNL     1     -53.597  -2.081 -27.127  1.00  0.00    -0.204 F 
ENDBRANCH  12  14
ENDBRANCH   9  10
ENDBRANCH   8   9
ENDBRANCH   1   8
BRANCH   6  22
HETATM   22  C5  UNL     1     -50.529  -0.372 -20.610  1.00  0.00     0.054 A 
HETATM   23  C6  UNL     1     -51.607   0.420 -20.954  1.00  0.00     0.044 A 
HETATM   24  C7  UNL     1     -52.335   1.085 -19.992  1.00  0.00     0.059 A 
HETATM   25 CL1  UNL     1     -53.692   2.082 -20.405  1.00  0.00    -0.082 Cl
HETATM   26  C8  UNL     1     -51.984   0.958 -18.678  1.00  0.00     0.091 A 
HETATM   27 CL2  UNL     1     -52.884   1.795 -17.396  1.00  0.00    -0.080 Cl
HETATM   28  C9  UNL     1     -50.928   0.188 -18.293  1.00  0.00     0.160 A 
HETATM   29  C10 UNL     1     -50.192  -0.488 -19.291  1.00  0.00     0.115 A 
BRANCH  28  30
HETATM   30  N3  UNL     1     -50.566   0.074 -16.915  1.00  0.00    -0.111 N 
HETATM   31  O2  UNL     1     -49.760   0.885 -16.427  1.00  0.00    -0.532 OA
HETATM   32  O3  UNL     1     -51.088  -0.908 -16.119  1.00  0.00    -0.532 OA
ENDBRANCH  28  30
BRANCH  29  33
HETATM   33  O4  UNL     1     -49.151  -1.234 -18.784  1.00  0.00    -0.357 OA
ATOM     34  H4  UNL     1     -48.252  -0.943 -18.685  1.00  0.00     0.217 HD
ENDBRANCH  29  33
ENDBRANCH   6  22
TORSDOF 7
ENDMDL
MODEL 2
REMARK VINA RESULT: -7.599632296      3.615      7.088
REMARK  7 active torsions:
REMARK  status: ('A' for Active; 'I' for Inactive)
REMARK    1  A    between atoms: C1_2  and  C2_3 
REMARK       I    between atoms: C1_2  and  N4_25 
REMARK    2  A    between atoms: C2_3  and  S1_4 
REMARK    3  A    between atoms: S1_4  and  C3_5 
REMARK    4  A    between atoms: C4_10  and  C5_11 
REMARK    5  A    between atoms: C9_17  and  N3_18 
REMARK    6  A    between atoms: C10_21  and  O4_22 
REMARK    7  A    between atoms: N4_25  and  C11_27 
ROOT
HETATM    1  C3  UNL     1     -50.338  -4.690 -20.937  1.00  0.00     0.204 A 
HETATM    2  N1  UNL     1     -51.172  -5.611 -21.418  1.00  0.00    -0.272 N 
ATOM      3  H1  UNL     1     -51.466  -6.455 -20.926  1.00  0.00     0.189 HD
HETATM    4  N2  UNL     1     -51.555  -5.265 -22.623  1.00  0.00    -0.277 N 
ATOM      5  H2  UNL     1     -52.193  -5.789 -23.222  1.00  0.00     0.189 HD
HETATM    6  C4  UNL     1     -50.947  -4.067 -22.940  1.00  0.00     0.178 A 
HETATM    7  O5  UNL     1     -50.244  -3.794 -21.891  1.00  0.00    -0.267 OA
ENDROOT
BRANCH   1   8
HETATM    8  S1  UNL     1     -49.487  -4.597 -19.374  1.00  0.00    -0.075 SA
BRANCH   8   9
HETATM    9  C2  UNL     1     -49.382  -2.932 -18.708  1.00  0.00     0.186 C 
BRANCH   9  10
HETATM   10  C1  UNL     1     -50.620  -2.159 -19.104  1.00  0.00     0.232 C 
HETATM   11  O1  UNL     1     -51.685  -2.573 -18.623  1.00  0.00    -0.272 OA
HETATM   12  N4  UNL     1     -50.530  -1.062 -19.954  1.00  0.00    -0.324 N 
ATOM     13  H4  UNL     1     -49.588  -0.844 -20.278  1.00  0.00     0.169 HD
BRANCH  12  14
HETATM   14  C11 UNL     1     -51.540  -0.202 -20.439  1.00  0.00     0.073 A 
HETATM   15  C12 UNL     1     -52.015  -0.304 -21.711  1.00  0.00     0.036 A 
HETATM   16  C13 UNL     1     -53.019   0.563 -22.180  1.00  0.00     0.044 A 
HETATM   17  C14 UNL     1     -53.540   1.530 -21.358  1.00  0.00     0.119 A 
HETATM   18  F1  UNL     1     -54.509   2.396 -21.749  1.00  0.00    -0.206 F 
HETATM   19  C15 UNL     1     -53.053   1.627 -20.071  1.00  0.00     0.086 A 
HETATM   20  C16 UNL     1     -52.075   0.788 -19.604  1.00  0.00     0.145 A 
HETATM   21  F2  UNL     1     -51.587   0.867 -18.350  1.00  0.00    -0.204 F 
ENDBRANCH  12  14
ENDBRANCH   9  10
ENDBRANCH   8   9
ENDBRANCH   1   8
BRANCH   6  22
HETATM   22  C5  UNL     1     -51.150  -3.388 -24.219  1.00  0.00     0.054 A 
HETATM   23  C6  UNL     1     -52.287  -2.634 -24.429  1.00  0.00     0.044 A 
HETATM   24  C7  UNL     1     -52.511  -2.007 -25.635  1.00  0.00     0.059 A 
HETATM   25 CL1  UNL     1     -53.933  -1.055 -25.916  1.00  0.00    -0.082 Cl
HETATM   26  C8  UNL     1     -51.592  -2.134 -26.637  1.00  0.00     0.091 A 
HETATM   27 CL2  UNL     1     -51.829  -1.350 -28.213  1.00  0.00    -0.080 Cl
HETATM   28  C9  UNL     1     -50.456  -2.868 -26.475  1.00  0.00     0.160 A 
HETATM   29  C10 UNL     1     -50.241  -3.504 -25.232  1.00  0.00     0.115 A 
BRANCH  28  30
HETATM   30  N3  UNL     1     -49.509  -3.000 -27.537  1.00  0.00    -0.111 N 
HETATM   31  O2  UNL     1     -48.457  -2.337 -27.502  1.00  0.00    -0.532 OA
HETATM   32  O3  UNL     1     -49.733  -3.840 -28.592  1.00  0.00    -0.532 OA
ENDBRANCH  28  30
BRANCH  29  33
HETATM   33  O4  UNL     1     -49.062  -4.215 -25.185  1.00  0.00    -0.357 OA
ATOM     34  H4  UNL     1     -48.187  -3.849 -25.234  1.00  0.00     0.217 HD
ENDBRANCH  29  33
ENDBRANCH   6  22
TORSDOF 7
ENDMDL
MODEL 3
REMARK VINA RESULT: -7.498293618      3.642      7.145
REMARK  7 active torsions:
REMARK  status: ('A' for Active; 'I' for Inactive)
REMARK    1  A    between atoms: C1_2  and  C2_3 
REMARK       I    between atoms: C1_2  and  N4_25 
REMARK    2  A    between atoms: C2_3  and  S1_4 
REMARK    3  A    between atoms: S1_4  and  C3_5 
REMARK    4  A    between atoms: C4_10  and  C5_11 
REMARK    5  A    between atoms: C9_17  and  N3_18 
REMARK    6  A    between atoms: C10_21  and  O4_22 
REMARK    7  A    between atoms: N4_25  and  C11_27 
ROOT
HETATM    1  C3  UNL     1     -49.956  -5.537 -20.951  1.00  0.00     0.204 A 
HETATM    2  N1  UNL     1     -50.738  -6.283 -21.731  1.00  0.00    -0.272 N 
ATOM      3  H1  UNL     1     -51.095  -7.209 -21.495  1.00  0.00     0.189 HD
HETATM    4  N2  UNL     1     -50.977  -5.643 -22.850  1.00  0.00    -0.277 N 
ATOM      5  H2  UNL     1     -51.546  -5.983 -23.625  1.00  0.00     0.189 HD
HETATM    6  C4  UNL     1     -50.324  -4.427 -22.797  1.00  0.00     0.178 A 
HETATM    7  O5  UNL     1     -49.744  -4.441 -21.643  1.00  0.00    -0.267 OA
ENDROOT
BRANCH   1   8
HETATM    8  S1  UNL     1     -49.291  -5.856 -19.330  1.00  0.00    -0.075 SA
BRANCH   8   9
HETATM    9  C2  UNL     1     -48.944  -4.366 -18.388  1.00  0.00     0.186 C 
BRANCH   9  10
HETATM   10  C1  UNL     1     -50.130  -3.432 -18.480  1.00  0.00     0.232 C 
HETATM   11  O1  UNL     1     -51.099  -3.727 -17.766  1.00  0.00    -0.272 OA
HETATM   12  N4  UNL     1     -50.097  -2.325 -19.322  1.00  0.00    -0.324 N 
ATOM     13  H4  UNL     1     -49.235  -2.215 -19.855  1.00  0.00     0.169 HD
BRANCH  12  14
HETATM   14  C11 UNL     1     -51.073  -1.330 -19.553  1.00  0.00     0.073 A 
HETATM   15  C12 UNL     1     -50.918  -0.058 -19.096  1.00  0.00     0.036 A 
HETATM   16  C13 UNL     1     -51.901   0.921 -19.331  1.00  0.00     0.044 A 
HETATM   17  C14 UNL     1     -53.038   0.607 -20.030  1.00  0.00     0.119 A 
HETATM   18  F1  UNL     1     -54.023   1.504 -20.292  1.00  0.00    -0.206 F 
HETATM   19  C15 UNL     1     -53.189  -0.686 -20.490  1.00  0.00     0.086 A 
HETATM   20  C16 UNL     1     -52.237  -1.646 -20.266  1.00  0.00     0.145 A 
HETATM   21  F2  UNL     1     -52.365  -2.914 -20.708  1.00  0.00    -0.204 F 
ENDBRANCH  12  14
ENDBRANCH   9  10
ENDBRANCH   8   9
ENDBRANCH   1   8
BRANCH   6  22
HETATM   22  C5  UNL     1     -50.372  -3.453 -23.886  1.00  0.00     0.054 A 
HETATM   23  C6  UNL     1     -50.922  -2.205 -23.674  1.00  0.00     0.044 A 
HETATM   24  C7  UNL     1     -51.000  -1.281 -24.693  1.00  0.00     0.059 A 
HETATM   25 CL1  UNL     1     -51.687   0.292 -24.446  1.00  0.00    -0.082 Cl
HETATM   26  C8  UNL     1     -50.525  -1.607 -25.932  1.00  0.00     0.091 A 
HETATM   27 CL2  UNL     1     -50.602  -0.457 -27.283  1.00  0.00    -0.080 Cl
HETATM   28  C9  UNL     1     -49.974  -2.826 -26.186  1.00  0.00     0.160 A 
HETATM   29  C10 UNL     1     -49.900  -3.762 -25.131  1.00  0.00     0.115 A 
BRANCH  28  30
HETATM   30  N3  UNL     1     -49.490  -3.156 -27.491  1.00  0.00    -0.111 N 
HETATM   31  O2  UNL     1     -50.300  -3.475 -28.378  1.00  0.00    -0.532 OA
HETATM   32  O3  UNL     1     -48.155  -3.128 -27.784  1.00  0.00    -0.532 OA
ENDBRANCH  28  30
BRANCH  29  33
HETATM   33  O4  UNL     1     -49.325  -4.956 -25.506  1.00  0.00    -0.357 OA
ATOM     34  H4  UNL     1     -48.545  -5.343 -25.127  1.00  0.00     0.217 HD
ENDBRANCH  29  33
ENDBRANCH   6  22
TORSDOF 7
ENDMDL
MODEL 4
REMARK VINA RESULT: -7.459526971      3.953      7.087
REMARK  7 active torsions:
REMARK  status: ('A' for Active; 'I' for Inactive)
REMARK    1  A    between atoms: C1_2  and  C2_3 
REMARK       I    between atoms: C1_2  and  N4_25 
REMARK    2  A    between atoms: C2_3  and  S1_4 
REMARK    3  A    between atoms: S1_4  and  C3_5 
REMARK    4  A    between atoms: C4_10  and  C5_11 
REMARK    5  A    between atoms: C9_17  and  N3_18 
REMARK    6  A    between atoms: C10_21  and  O4_22 
REMARK    7  A    between atoms: N4_25  and  C11_27 
ROOT
HETATM    1  C3  UNL     1     -50.168  -4.974 -20.973  1.00  0.00     0.204 A 
HETATM    2  N1  UNL     1     -51.161  -5.719 -21.461  1.00  0.00    -0.272 N 
ATOM      3  H1  UNL     1     -51.594  -6.509 -20.984  1.00  0.00     0.189 HD
HETATM    4  N2  UNL     1     -51.494  -5.276 -22.649  1.00  0.00    -0.277 N 
ATOM      5  H2  UNL     1     -52.223  -5.662 -23.249  1.00  0.00     0.189 HD
HETATM    6  C4  UNL     1     -50.685  -4.198 -22.948  1.00  0.00     0.178 A 
HETATM    7  O5  UNL     1     -49.930  -4.083 -21.907  1.00  0.00    -0.267 OA
ENDROOT
BRANCH   1   8
HETATM    8  S1  UNL     1     -49.293  -5.078 -19.425  1.00  0.00    -0.075 SA
BRANCH   8   9
HETATM    9  C2  UNL     1     -49.224  -3.523 -18.530  1.00  0.00     0.186 C 
BRANCH   9  10
HETATM   10  C1  UNL     1     -50.430  -2.686 -18.893  1.00  0.00     0.232 C 
HETATM   11  O1  UNL     1     -51.510  -3.075 -18.424  1.00  0.00    -0.272 OA
HETATM   12  N4  UNL     1     -50.297  -1.562 -19.702  1.00  0.00    -0.324 N 
ATOM     13  H4  UNL     1     -49.348  -1.371 -20.020  1.00  0.00     0.169 HD
BRANCH  12  14
HETATM   14  C11 UNL     1     -51.273  -0.645 -20.151  1.00  0.00     0.073 A 
HETATM   15  C12 UNL     1     -51.793  -0.714 -21.407  1.00  0.00     0.036 A 
HETATM   16  C13 UNL     1     -52.762   0.210 -21.841  1.00  0.00     0.044 A 
HETATM   17  C14 UNL     1     -53.201   1.200 -20.999  1.00  0.00     0.119 A 
HETATM   18  F1  UNL     1     -54.133   2.121 -21.356  1.00  0.00    -0.206 F 
HETATM   19  C15 UNL     1     -52.668   1.264 -19.728  1.00  0.00     0.086 A 
HETATM   20  C16 UNL     1     -51.724   0.369 -19.296  1.00  0.00     0.145 A 
HETATM   21  F2  UNL     1     -51.193   0.414 -18.058  1.00  0.00    -0.204 F 
ENDBRANCH  12  14
ENDBRANCH   9  10
ENDBRANCH   8   9
ENDBRANCH   1   8
BRANCH   6  22
HETATM   22  C5  UNL     1     -50.782  -3.459 -24.206  1.00  0.00     0.054 A 
HETATM   23  C6  UNL     1     -49.700  -3.402 -25.061  1.00  0.00     0.044 A 
HETATM   24  C7  UNL     1     -49.762  -2.691 -26.239  1.00  0.00     0.059 A 
HETATM   25 CL1  UNL     1     -48.413  -2.609 -27.325  1.00  0.00    -0.082 Cl
HETATM   26  C8  UNL     1     -50.913  -2.032 -26.565  1.00  0.00     0.091 A 
HETATM   27 CL2  UNL     1     -51.049  -1.097 -28.069  1.00  0.00    -0.080 Cl
HETATM   28  C9  UNL     1     -52.006  -2.060 -25.752  1.00  0.00     0.160 A 
HETATM   29  C10 UNL     1     -51.927  -2.794 -24.548  1.00  0.00     0.115 A 
BRANCH  28  30
HETATM   30  N3  UNL     1     -53.200  -1.357 -26.102  1.00  0.00    -0.111 N 
HETATM   31  O2  UNL     1     -53.558  -0.384 -25.415  1.00  0.00    -0.532 OA
HETATM   32  O3  UNL     1     -53.958  -1.730 -27.176  1.00  0.00    -0.532 OA
ENDBRANCH  28  30
BRANCH  29  33
HETATM   33  O4  UNL     1     -53.089  -2.751 -23.810  1.00  0.00    -0.357 OA
ATOM     34  H4  UNL     1     -53.828  -3.342 -23.897  1.00  0.00     0.217 HD
ENDBRANCH  29  33
ENDBRANCH   6  22
TORSDOF 7
ENDMDL
MODEL 5
REMARK VINA RESULT: -7.440998980      3.925      5.114
REMARK  7 active torsions:
REMARK  status: ('A' for Active; 'I' for Inactive)
REMARK    1  A    between atoms: C1_2  and  C2_3 
REMARK       I    between atoms: C1_2  and  N4_25 
REMARK    2  A    between atoms: C2_3  and  S1_4 
REMARK    3  A    between atoms: S1_4  and  C3_5 
REMARK    4  A    between atoms: C4_10  and  C5_11 
REMARK    5  A    between atoms: C9_17  and  N3_18 
REMARK    6  A    between atoms: C10_21  and  O4_22 
REMARK    7  A    between atoms: N4_25  and  C11_27 
ROOT
HETATM    1  C3  UNL     1     -52.361  -4.020 -25.441  1.00  0.00     0.204 A 
HETATM    2  N1  UNL     1     -52.641  -5.291 -25.154  1.00  0.00    -0.272 N 
ATOM      3  H1  UNL     1     -53.088  -5.954 -25.788  1.00  0.00     0.189 HD
HETATM    4  N2  UNL     1     -52.251  -5.558 -23.931  1.00  0.00    -0.277 N 
ATOM      5  H2  UNL     1     -52.344  -6.456 -23.456  1.00  0.00     0.189 HD
HETATM    6  C4  UNL     1     -51.693  -4.413 -23.398  1.00  0.00     0.178 A 
HETATM    7  O5  UNL     1     -51.796  -3.550 -24.353  1.00  0.00    -0.267 OA
ENDROOT
BRANCH   1   8
HETATM    8  S1  UNL     1     -52.646  -3.074 -26.924  1.00  0.00    -0.075 SA
BRANCH   8   9
HETATM    9  C2  UNL     1     -52.087  -1.371 -26.811  1.00  0.00     0.186 C 
BRANCH   9  10
HETATM   10  C1  UNL     1     -52.642  -0.747 -25.550  1.00  0.00     0.232 C 
HETATM   11  O1  UNL     1     -53.869  -0.568 -25.538  1.00  0.00    -0.272 OA
HETATM   12  N4  UNL     1     -51.800  -0.410 -24.496  1.00  0.00    -0.324 N 
ATOM     13  H4  UNL     1     -50.813  -0.608 -24.652  1.00  0.00     0.169 HD
BRANCH  12  14
HETATM   14  C11 UNL     1     -52.101   0.165 -23.241  1.00  0.00     0.073 A 
HETATM   15  C12 UNL     1     -53.287   0.791 -23.008  1.00  0.00     0.036 A 
HETATM   16  C13 UNL     1     -53.570   1.362 -21.754  1.00  0.00     0.044 A 
HETATM   17  C14 UNL     1     -52.650   1.297 -20.738  1.00  0.00     0.119 A 
HETATM   18  F1  UNL     1     -52.861   1.826 -19.507  1.00  0.00    -0.206 F 
HETATM   19  C15 UNL     1     -51.449   0.662 -20.983  1.00  0.00     0.086 A 
HETATM   20  C16 UNL     1     -51.164   0.102 -22.201  1.00  0.00     0.145 A 
HETATM   21  F2  UNL     1     -49.998  -0.523 -22.458  1.00  0.00    -0.204 F 
ENDBRANCH  12  14
ENDBRANCH   9  10
ENDBRANCH   8   9
ENDBRANCH   1   8
BRANCH   6  22
HETATM   22  C5  UNL     1     -51.155  -4.352 -22.040  1.00  0.00     0.054 A 
HETATM   23  C6  UNL     1     -51.546  -3.341 -21.186  1.00  0.00     0.044 A 
HETATM   24  C7  UNL     1     -51.032  -3.250 -19.911  1.00  0.00     0.059 A 
HETATM   25 CL1  UNL     1     -51.513  -1.988 -18.823  1.00  0.00    -0.082 Cl
HETATM   26  C8  UNL     1     -50.121  -4.176 -19.487  1.00  0.00     0.091 A 
HETATM   27 CL2  UNL     1     -49.423  -4.106 -17.856  1.00  0.00    -0.080 Cl
HETATM   28  C9  UNL     1     -49.706  -5.190 -20.296  1.00  0.00     0.160 A 
HETATM   29  C10 UNL     1     -50.243  -5.270 -21.600  1.00  0.00     0.115 A 
BRANCH  28  30
HETATM   30  N3  UNL     1     -48.744  -6.145 -19.842  1.00  0.00    -0.111 N 
HETATM   31  O2  UNL     1     -47.534  -5.922 -20.019  1.00  0.00    -0.532 OA
HETATM   32  O3  UNL     1     -49.125  -7.299 -19.217  1.00  0.00    -0.532 OA
ENDBRANCH  28  30
BRANCH  29  33
HETATM   33  O4  UNL     1     -49.751  -6.334 -22.324  1.00  0.00    -0.357 OA
ATOM     34  H4  UNL     1     -48.899  -6.739 -22.212  1.00  0.00     0.217 HD
ENDBRANCH  29  33
ENDBRANCH   6  22
TORSDOF 7
ENDMDL
