MODEL 1
REMARK VINA RESULT: -7.239547498      0.000      0.000
REMARK  4 active torsions:
REMARK  status: ('A' for Active; 'I' for Inactive)
REMARK       I    between atoms: C1_2  and  N1_3 
REMARK       I    between atoms: C1_2  and  N2_6 
REMARK    1  A    between atoms: N2_6  and  C2_8 
REMARK    2  A    between atoms: C2_8  and  C3_9 
REMARK    3  A    between atoms: C3_9  and  C4_10 
REMARK    4  A    between atoms: C11_18  and  O2_19 
ROOT
HETATM    1  C4  UNL     1       9.346  13.698  49.800  1.00  0.00     0.036 C 
HETATM    2  C5  UNL     1       9.800  12.264  49.633  1.00  0.00     0.011 C 
HETATM    3  C6  UNL     1      10.675  11.814  50.794  1.00  0.00     0.001 C 
HETATM    4  C7  UNL     1       9.829  11.897  52.031  1.00  0.00     0.006 C 
HETATM    5  C8  UNL     1       9.388  13.320  52.289  1.00  0.00     0.053 C 
HETATM    6  C9  UNL     1       8.615  13.872  51.092  1.00  0.00    -0.010 C 
HETATM    7  N3  UNL     1       7.929  14.990  51.392  1.00  0.00    -0.367 N 
HETATM    8  C10 UNL     1       6.767  15.526  50.897  1.00  0.00     0.155 C 
HETATM    9  C11 UNL     1       7.022  17.039  50.921  1.00  0.00     0.139 C 
HETATM   10  C12 UNL     1       8.436  17.186  51.508  1.00  0.00     0.074 C 
HETATM   11  C13 UNL     1       8.441  15.909  52.372  1.00  0.00     0.183 C 
HETATM   12 CL2  UNL     1       7.358  16.233  53.708  1.00  0.00    -0.102 Cl
ENDROOT
BRANCH   1  13
HETATM   13  C3  UNL     1       8.452  14.076  48.664  1.00  0.00     0.055 C 
BRANCH  13  14
HETATM   14  C2  UNL     1       7.784  13.029  47.865  1.00  0.00     0.066 C 
BRANCH  14  15
HETATM   15  N2  UNL     1       6.388  12.856  47.917  1.00  0.00    -0.322 N 
HETATM   16  C1  UNL     1       5.559  13.383  46.874  1.00  0.00     0.334 C 
HETATM   17  O1  UNL     1       6.091  14.009  45.899  1.00  0.00    -0.246 OA
HETATM   18  N1  UNL     1       4.149  13.241  46.868  1.00  0.00    -0.250 N 
HETATM   19 CL1  UNL     1       3.199  13.909  45.581  1.00  0.00     0.015 Cl
ATOM     20  H1  UNL     1       3.689  12.741  47.629  1.00  0.00     0.185 HD
ATOM     21  H2  UNL     1       5.966  12.354  48.698  1.00  0.00     0.169 HD
ENDBRANCH  14  15
ENDBRANCH  13  14
ENDBRANCH   1  13
BRANCH   9  22
HETATM   22  O2  UNL     1       6.920  17.622  49.687  1.00  0.00    -0.394 OA
ATOM     23  H2  UNL     1       6.399  18.415  49.690  1.00  0.00     0.210 HD
ENDBRANCH   9  22
TORSDOF 4
ENDMDL
MODEL 2
REMARK VINA RESULT: -7.179495002      1.908      2.021
REMARK  4 active torsions:
REMARK  status: ('A' for Active; 'I' for Inactive)
REMARK       I    between atoms: C1_2  and  N1_3 
REMARK       I    between atoms: C1_2  and  N2_6 
REMARK    1  A    between atoms: N2_6  and  C2_8 
REMARK    2  A    between atoms: C2_8  and  C3_9 
REMARK    3  A    between atoms: C3_9  and  C4_10 
REMARK    4  A    between atoms: C11_18  and  O2_19 
ROOT
HETATM    1  C4  UNL     1       9.103  13.607  49.862  1.00  0.00     0.036 C 
HETATM    2  C5  UNL     1       9.595  12.180  49.740  1.00  0.00     0.011 C 
HETATM    3  C6  UNL     1      10.708  11.884  50.735  1.00  0.00     0.001 C 
HETATM    4  C7  UNL     1      10.122  12.063  52.105  1.00  0.00     0.006 C 
HETATM    5  C8  UNL     1       9.663  13.488  52.314  1.00  0.00     0.053 C 
HETATM    6  C9  UNL     1       8.637  13.885  51.254  1.00  0.00    -0.010 C 
HETATM    7  N3  UNL     1       7.963  15.003  51.582  1.00  0.00    -0.367 N 
HETATM    8  C10 UNL     1       6.697  15.443  51.288  1.00  0.00     0.155 C 
HETATM    9  C11 UNL     1       6.867  16.959  51.117  1.00  0.00     0.139 C 
HETATM   10  C12 UNL     1       8.358  17.216  51.388  1.00  0.00     0.074 C 
HETATM   11  C13 UNL     1       8.607  16.036  52.347  1.00  0.00     0.183 C 
HETATM   12 CL2  UNL     1       7.797  16.456  53.840  1.00  0.00    -0.102 Cl
ENDROOT
BRANCH   1  13
HETATM   13  C3  UNL     1       7.982  13.833  48.903  1.00  0.00     0.055 C 
BRANCH  13  14
HETATM   14  C2  UNL     1       7.943  15.061  48.082  1.00  0.00     0.066 C 
BRANCH  14  15
HETATM   15  N2  UNL     1       7.036  15.191  47.013  1.00  0.00    -0.322 N 
HETATM   16  C1  UNL     1       6.809  16.474  46.415  1.00  0.00     0.334 C 
HETATM   17  O1  UNL     1       7.432  17.495  46.855  1.00  0.00    -0.246 OA
HETATM   18  N1  UNL     1       5.911  16.669  45.337  1.00  0.00    -0.250 N 
HETATM   19 CL1  UNL     1       5.673  18.248  44.661  1.00  0.00     0.015 Cl
ATOM     20  H1  UNL     1       5.398  15.874  44.955  1.00  0.00     0.185 HD
ATOM     21  H2  UNL     1       6.539  14.371  46.663  1.00  0.00     0.169 HD
ENDBRANCH  14  15
ENDBRANCH  13  14
ENDBRANCH   1  13
BRANCH   9  22
HETATM   22  O2  UNL     1       6.488  17.408  49.882  1.00  0.00    -0.394 OA
ATOM     23  H2  UNL     1       7.133  17.233  49.207  1.00  0.00     0.210 HD
ENDBRANCH   9  22
TORSDOF 4
ENDMDL
MODEL 3
REMARK VINA RESULT: -7.120738855      2.238      3.605
REMARK  4 active torsions:
REMARK  status: ('A' for Active; 'I' for Inactive)
REMARK       I    between atoms: C1_2  and  N1_3 
REMARK       I    between atoms: C1_2  and  N2_6 
REMARK    1  A    between atoms: N2_6  and  C2_8 
REMARK    2  A    between atoms: C2_8  and  C3_9 
REMARK    3  A    between atoms: C3_9  and  C4_10 
REMARK    4  A    between atoms: C11_18  and  O2_19 
ROOT
HETATM    1  C4  UNL     1       8.086  14.771  49.117  1.00  0.00     0.036 C 
HETATM    2  C5  UNL     1       7.965  15.666  47.902  1.00  0.00     0.011 C 
HETATM    3  C6  UNL     1       7.896  17.135  48.294  1.00  0.00     0.001 C 
HETATM    4  C7  UNL     1       9.187  17.459  48.988  1.00  0.00     0.006 C 
HETATM    5  C8  UNL     1       9.344  16.637  50.247  1.00  0.00     0.053 C 
HETATM    6  C9  UNL     1       9.285  15.144  49.928  1.00  0.00    -0.010 C 
HETATM    7  N3  UNL     1       9.741  14.382  50.940  1.00  0.00    -0.367 N 
HETATM    8  C10 UNL     1      10.354  13.154  50.972  1.00  0.00     0.155 C 
HETATM    9  C11 UNL     1       9.789  12.498  52.240  1.00  0.00     0.139 C 
HETATM   10  C12 UNL     1       8.847  13.555  52.839  1.00  0.00     0.074 C 
HETATM   11  C13 UNL     1       9.565  14.809  52.301  1.00  0.00     0.183 C 
HETATM   12 CL2  UNL     1      11.045  14.944  53.223  1.00  0.00    -0.102 Cl
ENDROOT
BRANCH   1  13
HETATM   13  C3  UNL     1       8.200  13.347  48.680  1.00  0.00     0.055 C 
BRANCH  13  14
HETATM   14  C2  UNL     1       7.454  12.871  47.498  1.00  0.00     0.066 C 
BRANCH  14  15
HETATM   15  N2  UNL     1       6.053  12.738  47.528  1.00  0.00    -0.322 N 
HETATM   16  C1  UNL     1       5.241  13.455  46.589  1.00  0.00     0.334 C 
HETATM   17  O1  UNL     1       5.795  14.213  45.726  1.00  0.00    -0.246 OA
HETATM   18  N1  UNL     1       3.828  13.362  46.568  1.00  0.00    -0.250 N 
HETATM   19 CL1  UNL     1       2.901  14.260  45.412  1.00  0.00     0.015 Cl
ATOM     20  H1  UNL     1       3.351  12.760  47.240  1.00  0.00     0.185 HD
ATOM     21  H2  UNL     1       5.614  12.130  48.220  1.00  0.00     0.169 HD
ENDBRANCH  14  15
ENDBRANCH  13  14
ENDBRANCH   1  13
BRANCH   9  22
HETATM   22  O2  UNL     1       9.140  11.319  51.992  1.00  0.00    -0.394 OA
ATOM     23  H2  UNL     1       8.218  11.434  51.792  1.00  0.00     0.210 HD
ENDBRANCH   9  22
TORSDOF 4
ENDMDL
MODEL 4
REMARK VINA RESULT: -7.083658221      2.801      3.202
REMARK  4 active torsions:
REMARK  status: ('A' for Active; 'I' for Inactive)
REMARK       I    between atoms: C1_2  and  N1_3 
REMARK       I    between atoms: C1_2  and  N2_6 
REMARK    1  A    between atoms: N2_6  and  C2_8 
REMARK    2  A    between atoms: C2_8  and  C3_9 
REMARK    3  A    between atoms: C3_9  and  C4_10 
REMARK    4  A    between atoms: C11_18  and  O2_19 
ROOT
HETATM    1  C4  UNL     1       8.849  13.945  49.671  1.00  0.00     0.036 C 
HETATM    2  C5  UNL     1       9.374  12.553  49.392  1.00  0.00     0.011 C 
HETATM    3  C6  UNL     1      10.549  12.207  50.295  1.00  0.00     0.001 C 
HETATM    4  C7  UNL     1      10.036  12.241  51.706  1.00  0.00     0.006 C 
HETATM    5  C8  UNL     1       9.547  13.625  52.069  1.00  0.00     0.053 C 
HETATM    6  C9  UNL     1       8.453  14.081  51.105  1.00  0.00    -0.010 C 
HETATM    7  N3  UNL     1       7.766  15.141  51.570  1.00  0.00    -0.367 N 
HETATM    8  C10 UNL     1       6.473  15.562  51.384  1.00  0.00     0.155 C 
HETATM    9  C11 UNL     1       6.588  17.092  51.345  1.00  0.00     0.139 C 
HETATM   10  C12 UNL     1       8.084  17.375  51.558  1.00  0.00     0.074 C 
HETATM   11  C13 UNL     1       8.421  16.122  52.391  1.00  0.00     0.183 C 
HETATM   12 CL2  UNL     1       7.683  16.378  53.956  1.00  0.00    -0.102 Cl
ENDROOT
BRANCH   1  13
HETATM   13  C3  UNL     1       7.669  14.219  48.797  1.00  0.00     0.055 C 
BRANCH  13  14
HETATM   14  C2  UNL     1       7.631  15.434  47.959  1.00  0.00     0.066 C 
BRANCH  14  15
HETATM   15  N2  UNL     1       8.368  16.582  48.310  1.00  0.00    -0.322 N 
HETATM   16  C1  UNL     1       8.395  17.715  47.433  1.00  0.00     0.334 C 
HETATM   17  O1  UNL     1       7.749  17.679  46.335  1.00  0.00    -0.246 OA
HETATM   18  N1  UNL     1       9.117  18.897  47.729  1.00  0.00    -0.250 N 
HETATM   19 CL1  UNL     1       9.117  20.232  46.624  1.00  0.00     0.015 Cl
ATOM     20  H1  UNL     1       9.642  18.964  48.602  1.00  0.00     0.185 HD
ATOM     21  H2  UNL     1       8.884  16.607  49.190  1.00  0.00     0.169 HD
ENDBRANCH  14  15
ENDBRANCH  13  14
ENDBRANCH   1  13
BRANCH   9  22
HETATM   22  O2  UNL     1       6.128  17.637  50.177  1.00  0.00    -0.394 OA
ATOM     23  H2  UNL     1       5.193  17.526  50.056  1.00  0.00     0.210 HD
ENDBRANCH   9  22
TORSDOF 4
ENDMDL
MODEL 5
REMARK VINA RESULT: -7.052447196      2.069      3.858
REMARK  4 active torsions:
REMARK  status: ('A' for Active; 'I' for Inactive)
REMARK       I    between atoms: C1_2  and  N1_3 
REMARK       I    between atoms: C1_2  and  N2_6 
REMARK    1  A    between atoms: N2_6  and  C2_8 
REMARK    2  A    between atoms: C2_8  and  C3_9 
REMARK    3  A    between atoms: C3_9  and  C4_10 
REMARK    4  A    between atoms: C11_18  and  O2_19 
ROOT
HETATM    1  C4  UNL     1       7.819  15.739  50.422  1.00  0.00     0.036 C 
HETATM    2  C5  UNL     1       7.169  17.008  49.913  1.00  0.00     0.011 C 
HETATM    3  C6  UNL     1       6.114  17.524  50.881  1.00  0.00     0.001 C 
HETATM    4  C7  UNL     1       6.823  17.842  52.165  1.00  0.00     0.006 C 
HETATM    5  C8  UNL     1       7.449  16.601  52.759  1.00  0.00     0.053 C 
HETATM    6  C9  UNL     1       8.423  15.962  51.771  1.00  0.00    -0.010 C 
HETATM    7  N3  UNL     1       9.238  15.065  52.357  1.00  0.00    -0.367 N 
HETATM    8  C10 UNL     1      10.516  14.652  52.077  1.00  0.00     0.155 C 
HETATM    9  C11 UNL     1      10.498  13.154  52.411  1.00  0.00     0.139 C 
HETATM   10  C12 UNL     1       9.069  12.884  52.911  1.00  0.00     0.074 C 
HETATM   11  C13 UNL     1       8.772  14.289  53.473  1.00  0.00     0.183 C 
HETATM   12 CL2  UNL     1       9.740  14.437  54.923  1.00  0.00    -0.102 Cl
ENDROOT
BRANCH   1  13
HETATM   13  C3  UNL     1       8.878  15.301  49.465  1.00  0.00     0.055 C 
BRANCH  13  14
HETATM   14  C2  UNL     1       8.790  13.978  48.813  1.00  0.00     0.066 C 
BRANCH  14  15
HETATM   15  N2  UNL     1       7.551  13.330  48.651  1.00  0.00    -0.322 N 
HETATM   16  C1  UNL     1       6.671  13.716  47.588  1.00  0.00     0.334 C 
HETATM   17  O1  UNL     1       7.015  14.649  46.790  1.00  0.00    -0.246 OA
HETATM   18  N1  UNL     1       5.413  13.101  47.372  1.00  0.00    -0.250 N 
HETATM   19 CL1  UNL     1       4.389  13.618  46.073  1.00  0.00     0.015 Cl
ATOM     20  H1  UNL     1       5.106  12.347  47.988  1.00  0.00     0.185 HD
ATOM     21  H2  UNL     1       7.280  12.583  49.291  1.00  0.00     0.169 HD
ENDBRANCH  14  15
ENDBRANCH  13  14
ENDBRANCH   1  13
BRANCH   9  22
HETATM   22  O2  UNL     1      10.822  12.360  51.345  1.00  0.00    -0.394 OA
ATOM     23  H2  UNL     1      11.733  12.436  51.085  1.00  0.00     0.210 HD
ENDBRANCH   9  22
TORSDOF 4
ENDMDL
