MODEL 1
REMARK VINA RESULT: -7.257006769      0.000      0.000
REMARK  4 active torsions:
REMARK  status: ('A' for Active; 'I' for Inactive)
REMARK       I    between atoms: C1_2  and  N3_12 
REMARK    1  A    between atoms: N2_3  and  C2_5 
REMARK    2  A    between atoms: C2_5  and  C3_6 
REMARK    3  A    between atoms: N3_12  and  C9_14 
REMARK    4  A    between atoms: C9_14  and  C10_15 
ROOT
HETATM    1  N1  UNL     1      60.592  -0.905  43.475  1.00  0.00    -0.064 NA
HETATM    2  C1  UNL     1      60.803  -0.058  42.365  1.00  0.00     0.184 C 
HETATM    3  N2  UNL     1      60.140  -0.254  41.290  1.00  0.00    -0.364 N 
ATOM      4  H2  UNL     1      60.291   0.358  40.488  1.00  0.00     0.162 HD
HETATM    5  N3  UNL     1      61.732   1.007  42.416  1.00  0.00    -0.364 N 
ATOM      6  H3  UNL     1      62.724   0.820  42.271  1.00  0.00     0.162 HD
ENDROOT
BRANCH   3   7
HETATM    7  C2  UNL     1      59.176  -1.332  41.193  1.00  0.00     0.126 C 
BRANCH   7   8
HETATM    8  C3  UNL     1      58.686  -1.364  39.764  1.00  0.00     0.003 C 
HETATM    9  C4  UNL     1      58.029  -0.050  39.460  1.00  0.00     0.006 C 
HETATM   10  C5  UNL     1      56.613  -0.332  38.996  1.00  0.00     0.000 C 
HETATM   11  C6  UNL     1      56.634  -1.235  37.797  1.00  0.00     0.000 C 
HETATM   12  C7  UNL     1      57.403  -2.510  38.039  1.00  0.00     0.000 C 
HETATM   13  C8  UNL     1      57.763  -2.538  39.514  1.00  0.00     0.006 C 
ENDBRANCH   7   8
ENDBRANCH   3   7
BRANCH   5  14
HETATM   14  C9  UNL     1      61.286   2.355  42.673  1.00  0.00     0.127 C 
BRANCH  14  15
HETATM   15  C10 UNL     1      61.489   3.237  41.484  1.00  0.00     0.013 C 
HETATM   16  C11 UNL     1      60.685   4.502  41.569  1.00  0.00     0.051 C 
HETATM   17  C12 UNL     1      60.915   5.388  40.403  1.00  0.00     0.060 C 
HETATM   18  N4  UNL     1      62.067   5.211  39.648  1.00  0.00    -0.382 N 
HETATM   19  C13 UNL     1      63.134   4.451  40.112  1.00  0.00     0.060 C 
ATOM     20  H4  UNL     1      62.132   5.650  38.729  1.00  0.00     0.163 HD
HETATM   21  C14 UNL     1      62.926   3.655  41.360  1.00  0.00     0.051 C 
ENDBRANCH  14  15
ENDBRANCH   5  14
TORSDOF 4
ENDMDL
MODEL 2
REMARK VINA RESULT: -7.180004872      1.605      6.643
REMARK  4 active torsions:
REMARK  status: ('A' for Active; 'I' for Inactive)
REMARK       I    between atoms: C1_2  and  N3_12 
REMARK    1  A    between atoms: N2_3  and  C2_5 
REMARK    2  A    between atoms: C2_5  and  C3_6 
REMARK    3  A    between atoms: N3_12  and  C9_14 
REMARK    4  A    between atoms: C9_14  and  C10_15 
ROOT
HETATM    1  N1  UNL     1      61.968  -0.559  41.349  1.00  0.00    -0.064 NA
HETATM    2  C1  UNL     1      60.703   0.018  41.595  1.00  0.00     0.184 C 
HETATM    3  N2  UNL     1      60.615   1.042  42.354  1.00  0.00    -0.364 N 
ATOM      4  H2  UNL     1      59.701   1.459  42.531  1.00  0.00     0.162 HD
HETATM    5  N3  UNL     1      59.527  -0.514  41.016  1.00  0.00    -0.364 N 
ATOM      6  H3  UNL     1      59.074  -1.322  41.442  1.00  0.00     0.162 HD
ENDROOT
BRANCH   3   7
HETATM    7  C2  UNL     1      61.795   1.621  42.966  1.00  0.00     0.126 C 
BRANCH   7   8
HETATM    8  C3  UNL     1      61.952   3.014  42.400  1.00  0.00     0.003 C 
HETATM    9  C4  UNL     1      60.682   3.772  42.651  1.00  0.00     0.006 C 
HETATM   10  C5  UNL     1      60.163   4.269  41.316  1.00  0.00     0.000 C 
HETATM   11  C6  UNL     1      61.199   5.123  40.645  1.00  0.00     0.000 C 
HETATM   12  C7  UNL     1      62.528   4.424  40.499  1.00  0.00     0.000 C 
HETATM   13  C8  UNL     1      62.321   2.983  40.932  1.00  0.00     0.006 C 
ENDBRANCH   7   8
ENDBRANCH   3   7
BRANCH   5  14
HETATM   14  C9  UNL     1      58.965   0.080  39.827  1.00  0.00     0.127 C 
BRANCH  14  15
HETATM   15  C10 UNL     1      58.327  -0.947  38.949  1.00  0.00     0.013 C 
HETATM   16  C11 UNL     1      58.314  -2.309  39.581  1.00  0.00     0.051 C 
HETATM   17  C12 UNL     1      57.652  -3.318  38.720  1.00  0.00     0.060 C 
HETATM   18  N4  UNL     1      56.788  -2.880  37.724  1.00  0.00    -0.382 N 
HETATM   19  C13 UNL     1      56.301  -1.579  37.701  1.00  0.00     0.060 C 
ATOM     20  H4  UNL     1      56.504  -3.530  36.991  1.00  0.00     0.163 HD
HETATM   21  C14 UNL     1      56.894  -0.599  38.661  1.00  0.00     0.051 C 
ENDBRANCH  14  15
ENDBRANCH   5  14
TORSDOF 4
ENDMDL
MODEL 3
REMARK VINA RESULT: -7.170198282      0.381      1.188
REMARK  4 active torsions:
REMARK  status: ('A' for Active; 'I' for Inactive)
REMARK       I    between atoms: C1_2  and  N3_12 
REMARK    1  A    between atoms: N2_3  and  C2_5 
REMARK    2  A    between atoms: C2_5  and  C3_6 
REMARK    3  A    between atoms: N3_12  and  C9_14 
REMARK    4  A    between atoms: C9_14  and  C10_15 
ROOT
HETATM    1  N1  UNL     1      60.609  -0.994  43.575  1.00  0.00    -0.064 NA
HETATM    2  C1  UNL     1      60.768  -0.061  42.527  1.00  0.00     0.184 C 
HETATM    3  N2  UNL     1      60.094  -0.203  41.451  1.00  0.00    -0.364 N 
ATOM      4  H2  UNL     1      60.208   0.470  40.694  1.00  0.00     0.162 HD
HETATM    5  N3  UNL     1      61.658   1.032  42.643  1.00  0.00    -0.364 N 
ATOM      6  H3  UNL     1      62.653   0.896  42.470  1.00  0.00     0.162 HD
ENDROOT
BRANCH   3   7
HETATM    7  C2  UNL     1      59.169  -1.308  41.290  1.00  0.00     0.126 C 
BRANCH   7   8
HETATM    8  C3  UNL     1      58.725  -1.309  39.844  1.00  0.00     0.003 C 
HETATM    9  C4  UNL     1      58.111   0.024  39.538  1.00  0.00     0.006 C 
HETATM   10  C5  UNL     1      56.705  -0.216  39.024  1.00  0.00     0.000 C 
HETATM   11  C6  UNL     1      56.742  -1.104  37.815  1.00  0.00     0.000 C 
HETATM   12  C7  UNL     1      57.472  -2.401  38.064  1.00  0.00     0.000 C 
HETATM   13  C8  UNL     1      57.783  -2.456  39.549  1.00  0.00     0.006 C 
ENDBRANCH   7   8
ENDBRANCH   3   7
BRANCH   5  14
HETATM   14  C9  UNL     1      61.166   2.340  43.005  1.00  0.00     0.127 C 
BRANCH  14  15
HETATM   15  C10 UNL     1      61.653   3.391  42.061  1.00  0.00     0.013 C 
HETATM   16  C11 UNL     1      62.507   2.821  40.966  1.00  0.00     0.051 C 
HETATM   17  C12 UNL     1      62.961   3.863  40.013  1.00  0.00     0.060 C 
HETATM   18  N4  UNL     1      62.262   5.062  39.954  1.00  0.00    -0.382 N 
HETATM   19  C13 UNL     1      61.002   5.202  40.525  1.00  0.00     0.060 C 
ATOM     20  H4  UNL     1      62.684   5.861  39.480  1.00  0.00     0.163 HD
HETATM   21  C14 UNL     1      60.505   4.087  41.387  1.00  0.00     0.051 C 
ENDBRANCH  14  15
ENDBRANCH   5  14
TORSDOF 4
ENDMDL
MODEL 4
REMARK VINA RESULT: -7.051040037      1.655      6.597
REMARK  4 active torsions:
REMARK  status: ('A' for Active; 'I' for Inactive)
REMARK       I    between atoms: C1_2  and  N3_12 
REMARK    1  A    between atoms: N2_3  and  C2_5 
REMARK    2  A    between atoms: C2_5  and  C3_6 
REMARK    3  A    between atoms: N3_12  and  C9_14 
REMARK    4  A    between atoms: C9_14  and  C10_15 
ROOT
HETATM    1  N1  UNL     1      62.051  -0.857  41.851  1.00  0.00    -0.064 NA
HETATM    2  C1  UNL     1      60.814  -0.186  41.959  1.00  0.00     0.184 C 
HETATM    3  N2  UNL     1      60.764   0.953  42.536  1.00  0.00    -0.364 N 
ATOM      4  H2  UNL     1      59.871   1.438  42.614  1.00  0.00     0.162 HD
HETATM    5  N3  UNL     1      59.624  -0.747  41.441  1.00  0.00    -0.364 N 
ATOM      6  H3  UNL     1      59.118  -1.450  41.980  1.00  0.00     0.162 HD
ENDROOT
BRANCH   3   7
HETATM    7  C2  UNL     1      61.960   1.566  43.081  1.00  0.00     0.126 C 
BRANCH   7   8
HETATM    8  C3  UNL     1      62.054   2.956  42.493  1.00  0.00     0.003 C 
HETATM    9  C4  UNL     1      60.785   3.690  42.809  1.00  0.00     0.006 C 
HETATM   10  C5  UNL     1      60.180   4.162  41.502  1.00  0.00     0.000 C 
HETATM   11  C6  UNL     1      61.157   5.030  40.764  1.00  0.00     0.000 C 
HETATM   12  C7  UNL     1      62.489   4.357  40.548  1.00  0.00     0.000 C 
HETATM   13  C8  UNL     1      62.338   2.917  41.006  1.00  0.00     0.006 C 
ENDBRANCH   7   8
ENDBRANCH   3   7
BRANCH   5  14
HETATM   14  C9  UNL     1      59.121  -0.332  40.153  1.00  0.00     0.127 C 
BRANCH  14  15
HETATM   15  C10 UNL     1      58.231  -1.371  39.550  1.00  0.00     0.013 C 
HETATM   16  C11 UNL     1      57.622  -0.917  38.255  1.00  0.00     0.051 C 
HETATM   17  C12 UNL     1      56.766  -1.962  37.645  1.00  0.00     0.060 C 
HETATM   18  N4  UNL     1      56.946  -3.283  38.035  1.00  0.00    -0.382 N 
HETATM   19  C13 UNL     1      58.075  -3.689  38.737  1.00  0.00     0.060 C 
ATOM     20  H4  UNL     1      56.232  -3.973  37.801  1.00  0.00     0.163 HD
HETATM   21  C14 UNL     1      58.996  -2.626  39.243  1.00  0.00     0.051 C 
ENDBRANCH  14  15
ENDBRANCH   5  14
TORSDOF 4
ENDMDL
MODEL 5
REMARK VINA RESULT: -6.994488055      5.119      8.556
REMARK  4 active torsions:
REMARK  status: ('A' for Active; 'I' for Inactive)
REMARK       I    between atoms: C1_2  and  N3_12 
REMARK    1  A    between atoms: N2_3  and  C2_5 
REMARK    2  A    between atoms: C2_5  and  C3_6 
REMARK    3  A    between atoms: N3_12  and  C9_14 
REMARK    4  A    between atoms: C9_14  and  C10_15 
ROOT
HETATM    1  N1  UNL     1      57.557  -4.353  43.110  1.00  0.00    -0.064 NA
HETATM    2  C1  UNL     1      58.058  -4.888  41.903  1.00  0.00     0.184 C 
HETATM    3  N2  UNL     1      58.376  -4.098  40.950  1.00  0.00    -0.364 N 
ATOM      4  H2  UNL     1      58.739  -4.483  40.078  1.00  0.00     0.162 HD
HETATM    5  N3  UNL     1      58.218  -6.281  41.725  1.00  0.00    -0.364 N 
ATOM      6  H3  UNL     1      57.415  -6.855  41.469  1.00  0.00     0.162 HD
ENDROOT
BRANCH   3   7
HETATM    7  C2  UNL     1      58.230  -2.662  41.090  1.00  0.00     0.126 C 
BRANCH   7   8
HETATM    8  C3  UNL     1      58.151  -2.085  39.695  1.00  0.00     0.003 C 
HETATM    9  C4  UNL     1      57.734  -0.649  39.800  1.00  0.00     0.006 C 
HETATM   10  C5  UNL     1      56.480  -0.463  38.968  1.00  0.00     0.000 C 
HETATM   11  C6  UNL     1      56.741  -0.865  37.546  1.00  0.00     0.000 C 
HETATM   12  C7  UNL     1      57.285  -2.266  37.425  1.00  0.00     0.000 C 
HETATM   13  C8  UNL     1      57.221  -2.888  38.809  1.00  0.00     0.006 C 
ENDBRANCH   7   8
ENDBRANCH   3   7
BRANCH   5  14
HETATM   14  C9  UNL     1      59.512  -6.897  41.903  1.00  0.00     0.127 C 
BRANCH  14  15
HETATM   15  C10 UNL     1      59.649  -7.502  43.262  1.00  0.00     0.013 C 
HETATM   16  C11 UNL     1      59.716  -9.001  43.215  1.00  0.00     0.051 C 
HETATM   17  C12 UNL     1      59.885  -9.595  44.563  1.00  0.00     0.060 C 
HETATM   18  N4  UNL     1      60.377  -8.796  45.587  1.00  0.00    -0.382 N 
HETATM   19  C13 UNL     1      60.986  -7.573  45.329  1.00  0.00     0.060 C 
ATOM     20  H4  UNL     1      60.289  -9.114  46.552  1.00  0.00     0.163 HD
HETATM   21  C14 UNL     1      60.912  -7.042  43.934  1.00  0.00     0.051 C 
ENDBRANCH  14  15
ENDBRANCH   5  14
TORSDOF 4
ENDMDL
