MODEL 1
REMARK VINA RESULT: -6.343095793      0.000      0.000
REMARK  5 active torsions:
REMARK  status: ('A' for Active; 'I' for Inactive)
REMARK    1  A    between atoms: C1_2  and  N2_4 
REMARK    2  A    between atoms: N2_4  and  C2_6 
REMARK    3  A    between atoms: C2_6  and  C3_7 
REMARK    4  A    between atoms: C3_7  and  N3_8 
REMARK    5  A    between atoms: N3_8  and  C4_10 
ROOT
HETATM    1  C4  UNL     1      58.620  -0.164  39.384  1.00  0.00     0.084 C 
HETATM    2  C5  UNL     1      57.339  -0.743  39.886  1.00  0.00     0.009 C 
HETATM    3  C6  UNL     1      57.364  -2.162  40.318  1.00  0.00     0.011 C 
HETATM    4  C7  UNL     1      57.900  -3.050  39.201  1.00  0.00    -0.013 C 
HETATM    5  C8  UNL     1      56.940  -2.961  38.032  1.00  0.00     0.009 C 
HETATM    6  C9  UNL     1      56.910  -1.516  37.594  1.00  0.00    -0.013 C 
HETATM    7  C10 UNL     1      56.349  -0.668  38.710  1.00  0.00     0.011 C 
HETATM    8  C11 UNL     1      58.306  -1.101  37.188  1.00  0.00     0.011 C 
HETATM    9  C12 UNL     1      59.240  -1.121  38.418  1.00  0.00     0.009 C 
HETATM   10  C13 UNL     1      59.263  -2.540  38.862  1.00  0.00     0.011 C 
ENDROOT
BRANCH   1  11
HETATM   11  N3  UNL     1      59.457   0.441  40.345  1.00  0.00    -0.415 N 
ATOM     12  H3  UNL     1      59.033   0.944  41.124  1.00  0.00     0.153 HD
BRANCH  11  13
HETATM   13  C3  UNL     1      60.849   0.371  40.262  1.00  0.00     0.133 C 
BRANCH  13  14
HETATM   14  C2  UNL     1      61.364   1.809  40.477  1.00  0.00     0.141 C 
BRANCH  14  15
HETATM   15  N2  UNL     1      60.447   2.570  41.267  1.00  0.00    -0.368 N 
ATOM     16  H2  UNL     1      59.512   2.795  40.928  1.00  0.00     0.161 HD
BRANCH  15  17
HETATM   17  C1  UNL     1      60.898   3.002  42.549  1.00  0.00     0.181 C 
HETATM   18  N1  UNL     1      60.001   3.459  43.526  1.00  0.00    -0.070 NA
HETATM   19  S1  UNL     1      62.497   2.991  42.956  1.00  0.00    -0.044 SA
ENDBRANCH  15  17
ENDBRANCH  14  15
ENDBRANCH  13  14
ENDBRANCH  11  13
ENDBRANCH   1  11
TORSDOF 5
ENDMDL
MODEL 2
REMARK VINA RESULT: -6.095017029      0.434      2.075
REMARK  5 active torsions:
REMARK  status: ('A' for Active; 'I' for Inactive)
REMARK    1  A    between atoms: C1_2  and  N2_4 
REMARK    2  A    between atoms: N2_4  and  C2_6 
REMARK    3  A    between atoms: C2_6  and  C3_7 
REMARK    4  A    between atoms: C3_7  and  N3_8 
REMARK    5  A    between atoms: N3_8  and  C4_10 
ROOT
HETATM    1  C4  UNL     1      58.933  -0.653  39.700  1.00  0.00     0.084 C 
HETATM    2  C5  UNL     1      59.174  -1.215  38.338  1.00  0.00     0.009 C 
HETATM    3  C6  UNL     1      58.203  -0.853  37.278  1.00  0.00     0.011 C 
HETATM    4  C7  UNL     1      56.784  -1.206  37.711  1.00  0.00    -0.013 C 
HETATM    5  C8  UNL     1      56.708  -2.709  37.883  1.00  0.00     0.009 C 
HETATM    6  C9  UNL     1      57.700  -3.080  38.960  1.00  0.00    -0.013 C 
HETATM    7  C10 UNL     1      59.096  -2.744  38.490  1.00  0.00     0.011 C 
HETATM    8  C11 UNL     1      57.324  -2.364  40.237  1.00  0.00     0.011 C 
HETATM    9  C12 UNL     1      57.492  -0.839  40.054  1.00  0.00     0.009 C 
HETATM   10  C13 UNL     1      56.527  -0.470  38.986  1.00  0.00     0.011 C 
ENDROOT
BRANCH   1  11
HETATM   11  N3  UNL     1      59.527   0.595  39.980  1.00  0.00    -0.415 N 
ATOM     12  H3  UNL     1      59.072   1.445  39.650  1.00  0.00     0.153 HD
BRANCH  11  13
HETATM   13  C3  UNL     1      60.721   0.700  40.697  1.00  0.00     0.133 C 
BRANCH  13  14
HETATM   14  C2  UNL     1      61.075   2.201  40.721  1.00  0.00     0.141 C 
BRANCH  14  15
HETATM   15  N2  UNL     1      60.337   2.887  41.735  1.00  0.00    -0.368 N 
ATOM     16  H2  UNL     1      59.361   3.151  41.597  1.00  0.00     0.161 HD
BRANCH  15  17
HETATM   17  C1  UNL     1      61.024   3.186  42.948  1.00  0.00     0.181 C 
HETATM   18  N1  UNL     1      60.350   3.699  44.066  1.00  0.00    -0.070 NA
HETATM   19  S1  UNL     1      62.650   2.950  43.106  1.00  0.00    -0.044 SA
ENDBRANCH  15  17
ENDBRANCH  14  15
ENDBRANCH  13  14
ENDBRANCH  11  13
ENDBRANCH   1  11
TORSDOF 5
ENDMDL
MODEL 3
REMARK VINA RESULT: -5.974867983      5.082      6.871
REMARK  5 active torsions:
REMARK  status: ('A' for Active; 'I' for Inactive)
REMARK    1  A    between atoms: C1_2  and  N2_4 
REMARK    2  A    between atoms: N2_4  and  C2_6 
REMARK    3  A    between atoms: C2_6  and  C3_7 
REMARK    4  A    between atoms: C3_7  and  N3_8 
REMARK    5  A    between atoms: N3_8  and  C4_10 
ROOT
HETATM    1  C4  UNL     1      62.123   4.305  40.970  1.00  0.00     0.084 C 
HETATM    2  C5  UNL     1      63.333   3.433  41.033  1.00  0.00     0.009 C 
HETATM    3  C6  UNL     1      63.190   2.045  40.533  1.00  0.00     0.011 C 
HETATM    4  C7  UNL     1      62.039   1.338  41.240  1.00  0.00    -0.013 C 
HETATM    5  C8  UNL     1      62.383   1.244  42.713  1.00  0.00     0.009 C 
HETATM    6  C9  UNL     1      62.533   2.657  43.223  1.00  0.00    -0.013 C 
HETATM    7  C10 UNL     1      63.697   3.319  42.524  1.00  0.00     0.011 C 
HETATM    8  C11 UNL     1      61.229   3.393  43.012  1.00  0.00     0.011 C 
HETATM    9  C12 UNL     1      60.950   3.546  41.501  1.00  0.00     0.009 C 
HETATM   10  C13 UNL     1      60.813   2.157  40.991  1.00  0.00     0.011 C 
ENDROOT
BRANCH   1  11
HETATM   11  N3  UNL     1      61.947   5.054  39.788  1.00  0.00    -0.415 N 
ATOM     12  H3  UNL     1      61.024   5.086  39.356  1.00  0.00     0.153 HD
BRANCH  11  13
HETATM   13  C3  UNL     1      62.999   5.751  39.192  1.00  0.00     0.133 C 
BRANCH  13  14
HETATM   14  C2  UNL     1      62.422   6.383  37.909  1.00  0.00     0.141 C 
BRANCH  14  15
HETATM   15  N2  UNL     1      61.508   7.437  38.222  1.00  0.00    -0.368 N 
ATOM     16  H2  UNL     1      61.836   8.358  38.513  1.00  0.00     0.161 HD
BRANCH  15  17
HETATM   17  C1  UNL     1      60.117   7.144  38.107  1.00  0.00     0.181 C 
HETATM   18  N1  UNL     1      59.384   6.633  39.188  1.00  0.00    -0.070 NA
HETATM   19  S1  UNL     1      59.291   7.387  36.698  1.00  0.00    -0.044 SA
ENDBRANCH  15  17
ENDBRANCH  14  15
ENDBRANCH  13  14
ENDBRANCH  11  13
ENDBRANCH   1  11
TORSDOF 5
ENDMDL
MODEL 4
REMARK VINA RESULT: -5.970583620      2.846      6.612
REMARK  5 active torsions:
REMARK  status: ('A' for Active; 'I' for Inactive)
REMARK    1  A    between atoms: C1_2  and  N2_4 
REMARK    2  A    between atoms: N2_4  and  C2_6 
REMARK    3  A    between atoms: C2_6  and  C3_7 
REMARK    4  A    between atoms: C3_7  and  N3_8 
REMARK    5  A    between atoms: N3_8  and  C4_10 
ROOT
HETATM    1  C4  UNL     1      61.090   2.072  40.688  1.00  0.00     0.084 C 
HETATM    2  C5  UNL     1      62.401   1.401  40.934  1.00  0.00     0.009 C 
HETATM    3  C6  UNL     1      62.772   1.143  42.347  1.00  0.00     0.011 C 
HETATM    4  C7  UNL     1      62.722   2.435  43.155  1.00  0.00    -0.013 C 
HETATM    5  C8  UNL     1      63.763   3.380  42.591  1.00  0.00     0.009 C 
HETATM    6  C9  UNL     1      63.389   3.640  41.151  1.00  0.00    -0.013 C 
HETATM    7  C10 UNL     1      63.475   2.348  40.372  1.00  0.00     0.011 C 
HETATM    8  C11 UNL     1      62.010   4.258  41.109  1.00  0.00     0.011 C 
HETATM    9  C12 UNL     1      60.962   3.240  41.612  1.00  0.00     0.009 C 
HETATM   10  C13 UNL     1      61.333   2.971  43.026  1.00  0.00     0.011 C 
ENDROOT
BRANCH   1  11
HETATM   11  N3  UNL     1      59.971   1.228  40.529  1.00  0.00    -0.415 N 
ATOM     12  H3  UNL     1      59.058   1.552  40.848  1.00  0.00     0.153 HD
BRANCH  11  13
HETATM   13  C3  UNL     1      60.076  -0.037  39.948  1.00  0.00     0.133 C 
BRANCH  13  14
HETATM   14  C2  UNL     1      59.086  -0.942  40.709  1.00  0.00     0.141 C 
BRANCH  14  15
HETATM   15  N2  UNL     1      58.177  -1.581  39.809  1.00  0.00    -0.368 N 
ATOM     16  H2  UNL     1      58.215  -2.586  39.638  1.00  0.00     0.161 HD
BRANCH  15  17
HETATM   17  C1  UNL     1      57.216  -0.751  39.160  1.00  0.00     0.181 C 
HETATM   18  N1  UNL     1      56.812   0.473  39.712  1.00  0.00    -0.070 NA
HETATM   19  S1  UNL     1      56.521  -1.185  37.726  1.00  0.00    -0.044 SA
ENDBRANCH  15  17
ENDBRANCH  14  15
ENDBRANCH  13  14
ENDBRANCH  11  13
ENDBRANCH   1  11
TORSDOF 5
ENDMDL
MODEL 5
REMARK VINA RESULT: -5.953516495      2.850      6.599
REMARK  5 active torsions:
REMARK  status: ('A' for Active; 'I' for Inactive)
REMARK    1  A    between atoms: C1_2  and  N2_4 
REMARK    2  A    between atoms: N2_4  and  C2_6 
REMARK    3  A    between atoms: C2_6  and  C3_7 
REMARK    4  A    between atoms: C3_7  and  N3_8 
REMARK    5  A    between atoms: N3_8  and  C4_10 
ROOT
HETATM    1  C4  UNL     1      60.951   1.717  41.325  1.00  0.00     0.084 C 
HETATM    2  C5  UNL     1      60.955   3.161  41.702  1.00  0.00     0.009 C 
HETATM    3  C6  UNL     1      61.768   4.075  40.862  1.00  0.00     0.011 C 
HETATM    4  C7  UNL     1      63.209   3.585  40.782  1.00  0.00    -0.013 C 
HETATM    5  C8  UNL     1      63.796   3.629  42.178  1.00  0.00     0.009 C 
HETATM    6  C9  UNL     1      62.967   2.702  43.035  1.00  0.00    -0.013 C 
HETATM    7  C10 UNL     1      61.554   3.230  43.117  1.00  0.00     0.011 C 
HETATM    8  C11 UNL     1      63.038   1.308  42.456  1.00  0.00     0.011 C 
HETATM    9  C12 UNL     1      62.358   1.278  41.070  1.00  0.00     0.009 C 
HETATM   10  C13 UNL     1      63.162   2.199  40.224  1.00  0.00     0.011 C 
ENDROOT
BRANCH   1  11
HETATM   11  N3  UNL     1      59.955   1.306  40.416  1.00  0.00    -0.415 N 
ATOM     12  H3  UNL     1      59.176   1.934  40.218  1.00  0.00     0.153 HD
BRANCH  11  13
HETATM   13  C3  UNL     1      60.002   0.064  39.779  1.00  0.00     0.133 C 
BRANCH  13  14
HETATM   14  C2  UNL     1      59.145  -0.890  40.635  1.00  0.00     0.141 C 
BRANCH  14  15
HETATM   15  N2  UNL     1      58.160  -1.553  39.837  1.00  0.00    -0.368 N 
ATOM     16  H2  UNL     1      58.146  -2.568  39.744  1.00  0.00     0.161 HD
BRANCH  15  17
HETATM   17  C1  UNL     1      57.200  -0.731  39.177  1.00  0.00     0.181 C 
HETATM   18  N1  UNL     1      56.766   0.481  39.733  1.00  0.00    -0.070 NA
HETATM   19  S1  UNL     1      56.543  -1.160  37.724  1.00  0.00    -0.044 SA
ENDBRANCH  15  17
ENDBRANCH  14  15
ENDBRANCH  13  14
ENDBRANCH  11  13
ENDBRANCH   1  11
TORSDOF 5
ENDMDL
