MODEL 1
REMARK VINA RESULT: -4.371676063      0.000      0.000
REMARK  4 active torsions:
REMARK  status: ('A' for Active; 'I' for Inactive)
REMARK    1  A    between atoms: C2_2  and  C4_4 
REMARK    2  A    between atoms: C4_4  and  S1_5 
REMARK    3  A    between atoms: S1_5  and  C5_6 
REMARK    4  A    between atoms: C7_8  and  N1_9 
ROOT
HETATM    1  C5  UNL     1      -0.697  25.977  -9.233  1.00  0.00     0.079 A 
HETATM    2  C6  UNL     1       0.454  25.121  -9.571  1.00  0.00     0.051 A 
HETATM    3  C7  UNL     1      -0.703  24.573  -8.744  1.00  0.00     0.198 A 
ENDROOT
BRANCH   1   4
HETATM    4  S1  UNL     1      -1.963  26.403 -10.435  1.00  0.00    -0.162 SA
BRANCH   4   5
HETATM    5  C4  UNL     1      -2.572  28.095 -10.258  1.00  0.00     0.078 C 
BRANCH   5   6
HETATM    6  C2  UNL     1      -3.779  28.233 -11.160  1.00  0.00    -0.013 C 
HETATM    7  C1  UNL     1      -4.059  29.702 -11.352  1.00  0.00     0.010 C 
HETATM    8  C3  UNL     1      -3.630  27.488 -12.457  1.00  0.00     0.010 C 
ENDBRANCH   5   6
ENDBRANCH   4   5
ENDBRANCH   1   4
BRANCH   3   9
HETATM    9  N1  UNL     1      -0.347  24.240  -7.390  1.00  0.00    -0.074 N 
ATOM     10  H13 UNL     1       0.463  24.803  -7.132  1.00  0.00     0.274 HD
ATOM     11  H12 UNL     1      -1.070  24.615  -6.775  1.00  0.00     0.274 HD
ATOM     12  H11 UNL     1      -0.163  23.279  -7.104  1.00  0.00     0.274 HD
ENDBRANCH   3   9
TORSDOF 4
ENDMDL
MODEL 2
REMARK VINA RESULT: -4.326753573      0.395      1.244
REMARK  4 active torsions:
REMARK  status: ('A' for Active; 'I' for Inactive)
REMARK    1  A    between atoms: C2_2  and  C4_4 
REMARK    2  A    between atoms: C4_4  and  S1_5 
REMARK    3  A    between atoms: S1_5  and  C5_6 
REMARK    4  A    between atoms: C7_8  and  N1_9 
ROOT
HETATM    1  C5  UNL     1      -0.858  26.093  -9.272  1.00  0.00     0.079 A 
HETATM    2  C6  UNL     1       0.465  25.493  -9.521  1.00  0.00     0.051 A 
HETATM    3  C7  UNL     1      -0.644  24.681  -8.861  1.00  0.00     0.198 A 
ENDROOT
BRANCH   1   4
HETATM    4  S1  UNL     1      -2.053  26.361 -10.588  1.00  0.00    -0.162 SA
BRANCH   4   5
HETATM    5  C4  UNL     1      -3.257  27.653 -10.204  1.00  0.00     0.078 C 
BRANCH   5   6
HETATM    6  C2  UNL     1      -3.383  28.527 -11.432  1.00  0.00    -0.013 C 
HETATM    7  C1  UNL     1      -3.847  27.666 -12.579  1.00  0.00     0.010 C 
HETATM    8  C3  UNL     1      -4.259  29.728 -11.207  1.00  0.00     0.010 C 
ENDBRANCH   5   6
ENDBRANCH   4   5
ENDBRANCH   1   4
BRANCH   3   9
HETATM    9  N1  UNL     1      -0.371  24.323  -7.493  1.00  0.00    -0.074 N 
ATOM     10  H13 UNL     1       0.450  24.848  -7.191  1.00  0.00     0.274 HD
ATOM     11  H12 UNL     1      -1.106  24.726  -6.912  1.00  0.00     0.274 HD
ATOM     12  H11 UNL     1      -0.244  23.352  -7.207  1.00  0.00     0.274 HD
ENDBRANCH   3   9
TORSDOF 4
ENDMDL
MODEL 3
REMARK VINA RESULT: -4.258359718      1.591      1.853
REMARK  4 active torsions:
REMARK  status: ('A' for Active; 'I' for Inactive)
REMARK    1  A    between atoms: C2_2  and  C4_4 
REMARK    2  A    between atoms: C4_4  and  S1_5 
REMARK    3  A    between atoms: S1_5  and  C5_6 
REMARK    4  A    between atoms: C7_8  and  N1_9 
ROOT
HETATM    1  C5  UNL     1      -1.827  26.327  -9.538  1.00  0.00     0.079 A 
HETATM    2  C6  UNL     1      -0.371  26.148  -9.400  1.00  0.00     0.051 A 
HETATM    3  C7  UNL     1      -1.151  25.372 -10.455  1.00  0.00     0.198 A 
ENDROOT
BRANCH   1   4
HETATM    4  S1  UNL     1      -2.546  27.785 -10.304  1.00  0.00    -0.162 SA
BRANCH   4   5
HETATM    5  C4  UNL     1      -4.093  27.443 -11.173  1.00  0.00     0.078 C 
BRANCH   5   6
HETATM    6  C2  UNL     1      -4.932  28.701 -11.106  1.00  0.00    -0.013 C 
HETATM    7  C1  UNL     1      -4.020  29.887 -11.289  1.00  0.00     0.010 C 
HETATM    8  C3  UNL     1      -6.082  28.689 -12.074  1.00  0.00     0.010 C 
ENDBRANCH   5   6
ENDBRANCH   4   5
ENDBRANCH   1   4
BRANCH   3   9
HETATM    9  N1  UNL     1      -1.185  23.951 -10.229  1.00  0.00    -0.074 N 
ATOM     10  H13 UNL     1      -1.079  23.791  -9.227  1.00  0.00     0.274 HD
ATOM     11  H12 UNL     1      -2.139  23.631 -10.395  1.00  0.00     0.274 HD
ATOM     12  H11 UNL     1      -0.554  23.314 -10.715  1.00  0.00     0.274 HD
ENDBRANCH   3   9
TORSDOF 4
ENDMDL
MODEL 4
REMARK VINA RESULT: -4.010970645      1.263      1.709
REMARK  4 active torsions:
REMARK  status: ('A' for Active; 'I' for Inactive)
REMARK    1  A    between atoms: C2_2  and  C4_4 
REMARK    2  A    between atoms: C4_4  and  S1_5 
REMARK    3  A    between atoms: S1_5  and  C5_6 
REMARK    4  A    between atoms: C7_8  and  N1_9 
ROOT
HETATM    1  C5  UNL     1      -0.998  25.557  -9.686  1.00  0.00     0.079 A 
HETATM    2  C6  UNL     1       0.236  26.227  -9.237  1.00  0.00     0.051 A 
HETATM    3  C7  UNL     1       0.287  25.142 -10.307  1.00  0.00     0.198 A 
ENDROOT
BRANCH   1   4
HETATM    4  S1  UNL     1      -2.182  26.358 -10.775  1.00  0.00    -0.162 SA
BRANCH   4   5
HETATM    5  C4  UNL     1      -2.539  28.066 -10.307  1.00  0.00     0.078 C 
BRANCH   5   6
HETATM    6  C2  UNL     1      -3.707  28.528 -11.151  1.00  0.00    -0.013 C 
HETATM    7  C1  UNL     1      -4.969  27.944 -10.568  1.00  0.00     0.010 C 
HETATM    8  C3  UNL     1      -3.766  30.022 -11.302  1.00  0.00     0.010 C 
ENDBRANCH   5   6
ENDBRANCH   4   5
ENDBRANCH   1   4
BRANCH   3   9
HETATM    9  N1  UNL     1       0.976  23.947  -9.896  1.00  0.00    -0.074 N 
ATOM     10  H13 UNL     1       0.613  23.171 -10.449  1.00  0.00     0.274 HD
ATOM     11  H12 UNL     1       1.938  24.011 -10.227  1.00  0.00     0.274 HD
ATOM     12  H11 UNL     1       1.001  23.650  -8.920  1.00  0.00     0.274 HD
ENDBRANCH   3   9
TORSDOF 4
ENDMDL
MODEL 5
REMARK VINA RESULT: -4.000708909      3.000      5.492
REMARK  4 active torsions:
REMARK  status: ('A' for Active; 'I' for Inactive)
REMARK    1  A    between atoms: C2_2  and  C4_4 
REMARK    2  A    between atoms: C4_4  and  S1_5 
REMARK    3  A    between atoms: S1_5  and  C5_6 
REMARK    4  A    between atoms: C7_8  and  N1_9 
ROOT
HETATM    1  C5  UNL     1      -3.503  28.297 -11.388  1.00  0.00     0.079 A 
HETATM    2  C6  UNL     1      -3.895  29.713 -11.272  1.00  0.00     0.051 A 
HETATM    3  C7  UNL     1      -4.907  28.603 -11.010  1.00  0.00     0.198 A 
ENDROOT
BRANCH   1   4
HETATM    4  S1  UNL     1      -2.509  27.471 -10.139  1.00  0.00    -0.162 SA
BRANCH   4   5
HETATM    5  C4  UNL     1      -1.747  25.943 -10.730  1.00  0.00     0.078 C 
BRANCH   5   6
HETATM    6  C2  UNL     1      -0.995  25.337  -9.565  1.00  0.00    -0.013 C 
HETATM    7  C1  UNL     1      -0.698  23.896  -9.894  1.00  0.00     0.010 C 
HETATM    8  C3  UNL     1       0.232  26.120  -9.190  1.00  0.00     0.010 C 
ENDBRANCH   5   6
ENDBRANCH   4   5
ENDBRANCH   1   4
BRANCH   3   9
HETATM    9  N1  UNL     1      -5.979  28.551 -11.969  1.00  0.00    -0.074 N 
ATOM     10  H13 UNL     1      -5.792  27.775 -12.604  1.00  0.00     0.274 HD
ATOM     11  H12 UNL     1      -6.817  28.230 -11.484  1.00  0.00     0.274 HD
ATOM     12  H11 UNL     1      -6.236  29.361 -12.532  1.00  0.00     0.274 HD
ENDBRANCH   3   9
TORSDOF 4
ENDMDL
