MODEL 1
REMARK VINA RESULT: -7.285854860      0.000      0.000
REMARK  4 active torsions:
REMARK  status: ('A' for Active; 'I' for Inactive)
REMARK    1  A    between atoms: C2_2  and  C3_3 
REMARK    2  A    between atoms: C2_2  and  N2_6 
REMARK       I    between atoms: N2_6  and  C5_8 
REMARK    3  A    between atoms: C5_8  and  C6_10 
REMARK       I    between atoms: N3_13  and  C9_14 
REMARK    4  A    between atoms: C9_14  and  C10_16 
ROOT
HETATM    1  C3  UNL     1       5.090   5.416   6.455  1.00  0.00     0.148 C 
HETATM    2  C4  UNL     1       4.947   5.122   7.883  1.00  0.00     0.061 C 
HETATM    3  N1  UNL     1       4.812   4.888   9.020  1.00  0.00    -0.197 NA
ENDROOT
BRANCH   1   4
HETATM    4  C2  UNL     1       6.053   6.573   6.302  1.00  0.00     0.093 C 
HETATM    5  C1  UNL     1       7.398   6.106   6.827  1.00  0.00     0.033 C 
BRANCH   4   6
HETATM    6  N2  UNL     1       6.123   7.066   4.966  1.00  0.00    -0.356 N 
HETATM    7  C5  UNL     1       5.385   8.216   4.567  1.00  0.00     0.222 C 
HETATM    8  O1  UNL     1       4.664   8.798   5.413  1.00  0.00    -0.273 OA
ATOM      9  H2  UNL     1       6.712   6.587   4.285  1.00  0.00     0.162 HD
BRANCH   7  10
HETATM   10  C6  UNL     1       5.429   8.760   3.196  1.00  0.00     0.081 C 
HETATM   11  C7  UNL     1       6.794   9.304   2.838  1.00  0.00     0.034 C 
HETATM   12  C8  UNL     1       6.727   9.666   1.347  1.00  0.00     0.126 C 
HETATM   13  N3  UNL     1       5.507  10.373   1.075  1.00  0.00    -0.352 N 
HETATM   14  C9  UNL     1       4.876  10.533  -0.176  1.00  0.00     0.225 C 
HETATM   15  C20 UNL     1       4.888  10.976   2.272  1.00  0.00     0.126 C 
HETATM   16  O2  UNL     1       3.800  11.238  -0.191  1.00  0.00    -0.273 OA
HETATM   17  C21 UNL     1       4.361   9.835   3.099  1.00  0.00     0.034 C 
BRANCH  14  18
HETATM   18  C10 UNL     1       5.351   9.956  -1.464  1.00  0.00     0.093 C 
HETATM   19  C11 UNL     1       4.623   8.735  -1.903  1.00  0.00    -0.035 C 
HETATM   20  C12 UNL     1       5.588   7.605  -2.235  1.00  0.00     0.015 C 
HETATM   21  C13 UNL     1       3.726   8.207  -0.790  1.00  0.00     0.015 C 
HETATM   22  C14 UNL     1       3.725   8.941  -3.098  1.00  0.00     0.010 C 
HETATM   23  C15 UNL     1       3.215  10.343  -3.261  1.00  0.00     0.002 C 
HETATM   24  C16 UNL     1       4.289  11.381  -3.265  1.00  0.00     0.010 C 
HETATM   25  C17 UNL     1       5.531  10.993  -2.525  1.00  0.00    -0.035 C 
HETATM   26  C18 UNL     1       6.125  12.238  -1.852  1.00  0.00     0.015 C 
HETATM   27  C19 UNL     1       6.555  10.531  -3.541  1.00  0.00     0.015 C 
ENDBRANCH  14  18
ENDBRANCH   7  10
ENDBRANCH   4   6
ENDBRANCH   1   4
TORSDOF 4
ENDMDL
MODEL 2
REMARK VINA RESULT: -6.902702608      1.277      1.401
REMARK  4 active torsions:
REMARK  status: ('A' for Active; 'I' for Inactive)
REMARK    1  A    between atoms: C2_2  and  C3_3 
REMARK    2  A    between atoms: C2_2  and  N2_6 
REMARK       I    between atoms: N2_6  and  C5_8 
REMARK    3  A    between atoms: C5_8  and  C6_10 
REMARK       I    between atoms: N3_13  and  C9_14 
REMARK    4  A    between atoms: C9_14  and  C10_16 
ROOT
HETATM    1  C3  UNL     1       4.357   6.638   6.885  1.00  0.00     0.148 C 
HETATM    2  C4  UNL     1       3.323   7.572   6.431  1.00  0.00     0.061 C 
HETATM    3  N1  UNL     1       2.486   8.300   6.065  1.00  0.00    -0.197 NA
ENDROOT
BRANCH   1   4
HETATM    4  C2  UNL     1       5.652   6.984   6.179  1.00  0.00     0.093 C 
HETATM    5  C1  UNL     1       6.563   5.777   6.304  1.00  0.00     0.033 C 
BRANCH   4   6
HETATM    6  N2  UNL     1       5.457   7.390   4.826  1.00  0.00    -0.356 N 
HETATM    7  C5  UNL     1       6.180   8.485   4.276  1.00  0.00     0.222 C 
HETATM    8  O1  UNL     1       7.001   9.096   5.002  1.00  0.00    -0.273 OA
ATOM      9  H2  UNL     1       4.787   6.888   4.243  1.00  0.00     0.162 HD
BRANCH   7  10
HETATM   10  C6  UNL     1       6.010   8.938   2.882  1.00  0.00     0.081 C 
HETATM   11  C7  UNL     1       7.230   9.665   2.362  1.00  0.00     0.034 C 
HETATM   12  C8  UNL     1       6.970   9.914   0.869  1.00  0.00     0.126 C 
HETATM   13  N3  UNL     1       5.632  10.402   0.686  1.00  0.00    -0.352 N 
HETATM   14  C9  UNL     1       4.872  10.380  -0.502  1.00  0.00     0.225 C 
HETATM   15  C20 UNL     1       5.035  10.977   1.908  1.00  0.00     0.126 C 
HETATM   16  O2  UNL     1       3.699  10.905  -0.443  1.00  0.00    -0.273 OA
HETATM   17  C21 UNL     1       4.778   9.825   2.839  1.00  0.00     0.034 C 
BRANCH  14  18
HETATM   18  C10 UNL     1       5.314   9.801  -1.800  1.00  0.00     0.093 C 
HETATM   19  C11 UNL     1       4.627   8.539  -2.184  1.00  0.00    -0.035 C 
HETATM   20  C12 UNL     1       5.629   7.450  -2.542  1.00  0.00     0.015 C 
HETATM   21  C13 UNL     1       3.809   7.990  -1.021  1.00  0.00     0.015 C 
HETATM   22  C14 UNL     1       3.666   8.678  -3.339  1.00  0.00     0.010 C 
HETATM   23  C15 UNL     1       3.082  10.051  -3.501  1.00  0.00     0.002 C 
HETATM   24  C16 UNL     1       4.103  11.139  -3.574  1.00  0.00     0.010 C 
HETATM   25  C17 UNL     1       5.395  10.825  -2.886  1.00  0.00    -0.035 C 
HETATM   26  C18 UNL     1       5.958  12.110  -2.263  1.00  0.00     0.015 C 
HETATM   27  C19 UNL     1       6.392  10.393  -3.941  1.00  0.00     0.015 C 
ENDBRANCH  14  18
ENDBRANCH   7  10
ENDBRANCH   4   6
ENDBRANCH   1   4
TORSDOF 4
ENDMDL
MODEL 3
REMARK VINA RESULT: -6.611985514      3.344      4.123
REMARK  4 active torsions:
REMARK  status: ('A' for Active; 'I' for Inactive)
REMARK    1  A    between atoms: C2_2  and  C3_3 
REMARK    2  A    between atoms: C2_2  and  N2_6 
REMARK       I    between atoms: N2_6  and  C5_8 
REMARK    3  A    between atoms: C5_8  and  C6_10 
REMARK       I    between atoms: N3_13  and  C9_14 
REMARK    4  A    between atoms: C9_14  and  C10_16 
ROOT
HETATM    1  C3  UNL     1       5.394   6.647   7.010  1.00  0.00     0.148 C 
HETATM    2  C4  UNL     1       3.930   6.616   7.051  1.00  0.00     0.061 C 
HETATM    3  N1  UNL     1       2.763   6.572   7.091  1.00  0.00    -0.197 NA
ENDROOT
BRANCH   1   4
HETATM    4  C2  UNL     1       5.822   7.075   5.622  1.00  0.00     0.093 C 
HETATM    5  C1  UNL     1       6.463   5.869   4.962  1.00  0.00     0.033 C 
BRANCH   4   6
HETATM    6  N2  UNL     1       4.752   7.621   4.854  1.00  0.00    -0.356 N 
HETATM    7  C5  UNL     1       5.000   8.550   3.804  1.00  0.00     0.222 C 
HETATM    8  O1  UNL     1       6.183   8.888   3.559  1.00  0.00    -0.273 OA
ATOM      9  H2  UNL     1       3.793   7.342   5.060  1.00  0.00     0.162 HD
BRANCH   7  10
HETATM   10  C6  UNL     1       3.923   9.139   2.985  1.00  0.00     0.081 C 
HETATM   11  C7  UNL     1       4.002  10.648   2.933  1.00  0.00     0.034 C 
HETATM   12  C8  UNL     1       2.940  11.093   1.917  1.00  0.00     0.126 C 
HETATM   13  N3  UNL     1       1.716  10.381   2.154  1.00  0.00    -0.352 N 
HETATM   14  C9  UNL     1       0.652  10.190   1.248  1.00  0.00     0.225 C 
HETATM   15  C20 UNL     1       1.614   9.807   3.510  1.00  0.00     0.126 C 
HETATM   16  O2  UNL     1      -0.368   9.543   1.688  1.00  0.00    -0.273 OA
HETATM   17  C21 UNL     1       2.600   8.673   3.568  1.00  0.00     0.034 C 
BRANCH  14  18
HETATM   18  C10 UNL     1       0.620  10.670  -0.161  1.00  0.00     0.093 C 
HETATM   19  C11 UNL     1       0.898   9.623  -1.180  1.00  0.00    -0.035 C 
HETATM   20  C12 UNL     1       1.989  10.065  -2.146  1.00  0.00     0.015 C 
HETATM   21  C13 UNL     1       1.412   8.347  -0.523  1.00  0.00     0.015 C 
HETATM   22  C14 UNL     1      -0.303   9.214  -1.998  1.00  0.00     0.010 C 
HETATM   23  C15 UNL     1      -1.621   9.403  -1.306  1.00  0.00     0.002 C 
HETATM   24  C16 UNL     1      -1.832  10.782  -0.772  1.00  0.00     0.010 C 
HETATM   25  C17 UNL     1      -0.573  11.522  -0.449  1.00  0.00    -0.035 C 
HETATM   26  C18 UNL     1      -0.811  12.407   0.782  1.00  0.00     0.015 C 
HETATM   27  C19 UNL     1      -0.278  12.466  -1.597  1.00  0.00     0.015 C 
ENDBRANCH  14  18
ENDBRANCH   7  10
ENDBRANCH   4   6
ENDBRANCH   1   4
TORSDOF 4
ENDMDL
MODEL 4
REMARK VINA RESULT: -6.558431725      1.446      1.840
REMARK  4 active torsions:
REMARK  status: ('A' for Active; 'I' for Inactive)
REMARK    1  A    between atoms: C2_2  and  C3_3 
REMARK    2  A    between atoms: C2_2  and  N2_6 
REMARK       I    between atoms: N2_6  and  C5_8 
REMARK    3  A    between atoms: C5_8  and  C6_10 
REMARK       I    between atoms: N3_13  and  C9_14 
REMARK    4  A    between atoms: C9_14  and  C10_16 
ROOT
HETATM    1  C3  UNL     1       4.719   5.488   6.448  1.00  0.00     0.148 C 
HETATM    2  C4  UNL     1       4.799   5.176   7.878  1.00  0.00     0.061 C 
HETATM    3  N1  UNL     1       4.842   4.927   9.018  1.00  0.00    -0.197 NA
ENDROOT
BRANCH   1   4
HETATM    4  C2  UNL     1       5.576   6.706   6.178  1.00  0.00     0.093 C 
HETATM    5  C1  UNL     1       7.019   6.295   6.402  1.00  0.00     0.033 C 
BRANCH   4   6
HETATM    6  N2  UNL     1       5.356   7.266   4.885  1.00  0.00    -0.356 N 
HETATM    7  C5  UNL     1       4.374   8.275   4.679  1.00  0.00     0.222 C 
HETATM    8  O1  UNL     1       3.695   8.672   5.657  1.00  0.00    -0.273 OA
ATOM      9  H2  UNL     1       5.911   6.939   4.096  1.00  0.00     0.162 HD
BRANCH   7  10
HETATM   10  C6  UNL     1       4.114   8.882   3.360  1.00  0.00     0.081 C 
HETATM   11  C7  UNL     1       4.733  10.255   3.228  1.00  0.00     0.034 C 
HETATM   12  C8  UNL     1       4.529  10.673   1.764  1.00  0.00     0.126 C 
HETATM   13  N3  UNL     1       3.182  10.380   1.361  1.00  0.00    -0.352 N 
HETATM   14  C9  UNL     1       2.699  10.234   0.044  1.00  0.00     0.225 C 
HETATM   15  C20 UNL     1       2.243  10.223   2.489  1.00  0.00     0.126 C 
HETATM   16  O2  UNL     1       1.440  10.003  -0.085  1.00  0.00    -0.273 OA
HETATM   17  C21 UNL     1       2.608   8.933   3.171  1.00  0.00     0.034 C 
BRANCH  14  18
HETATM   18  C10 UNL     1       3.523  10.323  -1.194  1.00  0.00     0.093 C 
HETATM   19  C11 UNL     1       3.838   9.013  -1.824  1.00  0.00    -0.035 C 
HETATM   20  C12 UNL     1       5.331   8.869  -2.084  1.00  0.00     0.015 C 
HETATM   21  C13 UNL     1       3.459   7.860  -0.903  1.00  0.00     0.015 C 
HETATM   22  C14 UNL     1       3.117   8.758  -3.126  1.00  0.00     0.010 C 
HETATM   23  C15 UNL     1       1.809   9.480  -3.265  1.00  0.00     0.002 C 
HETATM   24  C16 UNL     1       1.901  10.952  -3.031  1.00  0.00     0.010 C 
HETATM   25  C17 UNL     1       3.028  11.369  -2.138  1.00  0.00    -0.035 C 
HETATM   26  C18 UNL     1       2.582  12.573  -1.295  1.00  0.00     0.015 C 
HETATM   27  C19 UNL     1       4.160  11.863  -3.015  1.00  0.00     0.015 C 
ENDBRANCH  14  18
ENDBRANCH   7  10
ENDBRANCH   4   6
ENDBRANCH   1   4
TORSDOF 4
ENDMDL
MODEL 5
REMARK VINA RESULT: -6.541749939      2.296      3.034
REMARK  4 active torsions:
REMARK  status: ('A' for Active; 'I' for Inactive)
REMARK    1  A    between atoms: C2_2  and  C3_3 
REMARK    2  A    between atoms: C2_2  and  N2_6 
REMARK       I    between atoms: N2_6  and  C5_8 
REMARK    3  A    between atoms: C5_8  and  C6_10 
REMARK       I    between atoms: N3_13  and  C9_14 
REMARK    4  A    between atoms: C9_14  and  C10_16 
ROOT
HETATM    1  C3  UNL     1       3.948   6.163   6.965  1.00  0.00     0.148 C 
HETATM    2  C4  UNL     1       4.807   5.520   7.963  1.00  0.00     0.061 C 
HETATM    3  N1  UNL     1       5.479   5.015   8.774  1.00  0.00    -0.197 NA
ENDROOT
BRANCH   1   4
HETATM    4  C2  UNL     1       4.829   6.943   6.012  1.00  0.00     0.093 C 
HETATM    5  C1  UNL     1       5.975   6.031   5.617  1.00  0.00     0.033 C 
BRANCH   4   6
HETATM    6  N2  UNL     1       4.116   7.453   4.887  1.00  0.00    -0.356 N 
HETATM    7  C5  UNL     1       4.606   8.568   4.151  1.00  0.00     0.222 C 
HETATM    8  O1  UNL     1       5.683   9.105   4.506  1.00  0.00    -0.273 OA
ATOM      9  H2  UNL     1       3.241   7.012   4.605  1.00  0.00     0.162 HD
BRANCH   7  10
HETATM   10  C6  UNL     1       3.902   9.128   2.981  1.00  0.00     0.081 C 
HETATM   11  C7  UNL     1       4.162  10.608   2.809  1.00  0.00     0.034 C 
HETATM   12  C8  UNL     1       3.515  10.999   1.472  1.00  0.00     0.126 C 
HETATM   13  N3  UNL     1       2.204  10.419   1.382  1.00  0.00    -0.352 N 
HETATM   14  C9  UNL     1       1.450  10.196   0.211  1.00  0.00     0.225 C 
HETATM   15  C20 UNL     1       1.632  10.032   2.687  1.00  0.00     0.126 C 
HETATM   16  O2  UNL     1       0.278   9.690   0.370  1.00  0.00    -0.273 OA
HETATM   17  C21 UNL     1       2.421   8.844   3.162  1.00  0.00     0.034 C 
BRANCH  14  18
HETATM   18  C10 UNL     1       1.900  10.492  -1.177  1.00  0.00     0.093 C 
HETATM   19  C11 UNL     1       2.381   9.309  -1.940  1.00  0.00    -0.035 C 
HETATM   20  C12 UNL     1       3.753   9.563  -2.548  1.00  0.00     0.015 C 
HETATM   21  C13 UNL     1       2.545   8.101  -1.024  1.00  0.00     0.015 C 
HETATM   22  C14 UNL     1       1.459   8.866  -3.050  1.00  0.00     0.010 C 
HETATM   23  C15 UNL     1       0.015   9.216  -2.837  1.00  0.00     0.002 C 
HETATM   24  C16 UNL     1      -0.221  10.662  -2.544  1.00  0.00     0.010 C 
HETATM   25  C17 UNL     1       0.940  11.366  -1.917  1.00  0.00    -0.035 C 
HETATM   26  C18 UNL     1       0.416  12.413  -0.924  1.00  0.00     0.015 C 
HETATM   27  C19 UNL     1       1.662  12.137  -3.002  1.00  0.00     0.015 C 
ENDBRANCH  14  18
ENDBRANCH   7  10
ENDBRANCH   4   6
ENDBRANCH   1   4
TORSDOF 4
ENDMDL
