MODEL 1
REMARK VINA RESULT: -9.168864642      0.000      0.000
REMARK  8 active torsions:
REMARK  status: ('A' for Active; 'I' for Inactive)
REMARK    1  A    between atoms: C2_2  and  C4_4 
REMARK    2  A    between atoms: N1_6  and  S1_7 
REMARK    3  A    between atoms: C8_12  and  C9_13 
REMARK    4  A    between atoms: C12_16  and  C13_17 
REMARK       I    between atoms: C13_17  and  N2_19 
REMARK    5  A    between atoms: N2_19  and  S2_21 
REMARK    6  A    between atoms: S2_21  and  C14_24 
REMARK    7  A    between atoms: C17_27  and  C18_28 
REMARK    8  A    between atoms: C21_32  and  C22_33 
ROOT
HETATM    1  C9  UNL     1       5.229  -4.469 -14.464  1.00  0.00    -0.052 A 
HETATM    2  C10 UNL     1       5.346  -5.676 -13.814  1.00  0.00     0.009 A 
HETATM    3  C11 UNL     1       4.820  -5.772 -12.573  1.00  0.00     0.018 A 
HETATM    4  C12 UNL     1       4.166  -4.686 -11.942  1.00  0.00     0.044 A 
HETATM    5  C17 UNL     1       4.040  -3.485 -12.562  1.00  0.00     0.028 A 
HETATM    6  C25 UNL     1       4.597  -3.412 -13.851  1.00  0.00     0.021 A 
ENDROOT
BRANCH   1   7
HETATM    7  C8  UNL     1       5.788  -4.316 -15.831  1.00  0.00     0.038 C 
HETATM    8  C4  UNL     1       5.079  -5.077 -16.887  1.00  0.00     0.013 C 
HETATM    9  C5  UNL     1       4.611  -3.983 -17.859  1.00  0.00     0.113 C 
HETATM   10  N1  UNL     1       5.626  -2.995 -17.684  1.00  0.00    -0.210 NA
HETATM   11  C7  UNL     1       5.804  -2.858 -16.259  1.00  0.00     0.117 C 
BRANCH   8  12
HETATM   12  C2  UNL     1       5.936  -6.029 -17.684  1.00  0.00    -0.017 C 
HETATM   13  C1  UNL     1       5.277  -7.403 -17.571  1.00  0.00     0.010 C 
HETATM   14  C3  UNL     1       5.996  -5.685 -19.144  1.00  0.00     0.010 C 
ENDBRANCH   8  12
BRANCH  10  15
HETATM   15  S1  UNL     1       5.379  -1.525 -18.495  1.00  0.00     0.207 S 
HETATM   16  C6  UNL     1       5.253  -0.224 -17.287  1.00  0.00     0.180 C 
HETATM   17  O1  UNL     1       4.047  -1.612 -19.212  1.00  0.00    -0.212 OA
HETATM   18  O2  UNL     1       6.431  -1.196 -19.504  1.00  0.00    -0.212 OA
ENDBRANCH  10  15
ENDBRANCH   1   7
BRANCH   5  19
HETATM   19  C18 UNL     1       3.460  -2.283 -11.983  1.00  0.00     0.326 C 
HETATM   20  F1  UNL     1       2.222  -2.696 -11.427  1.00  0.00    -0.203 F 
HETATM   21  C19 UNL     1       3.147  -1.117 -12.826  1.00  0.00     0.083 C 
HETATM   22  C20 UNL     1       2.923   0.157 -12.018  1.00  0.00     0.020 C 
HETATM   23  C21 UNL     1       2.500  -0.116 -10.622  1.00  0.00     0.122 C 
HETATM   24  C23 UNL     1       3.301  -1.170  -9.935  1.00  0.00     0.290 C 
HETATM   25  N3  UNL     1       4.213  -1.858 -10.797  1.00  0.00     0.129 N 
HETATM   26  C24 UNL     1       5.352  -1.056 -11.071  1.00  0.00     0.314 C 
BRANCH  23  27
HETATM   27  C22 UNL     1       2.352   1.180  -9.874  1.00  0.00     0.393 C 
HETATM   28  F2  UNL     1       2.382   2.269 -10.759  1.00  0.00    -0.171 F 
HETATM   29  F3  UNL     1       3.361   1.439  -8.974  1.00  0.00    -0.171 F 
HETATM   30  F4  UNL     1       1.166   1.256  -9.168  1.00  0.00    -0.171 F 
ENDBRANCH  23  27
ENDBRANCH   5  19
BRANCH   4  31
HETATM   31  C13 UNL     1       3.637  -5.041 -10.649  1.00  0.00     0.265 C 
HETATM   32  O3  UNL     1       4.324  -4.821  -9.636  1.00  0.00    -0.267 OA
HETATM   33  N2  UNL     1       2.377  -5.637 -10.532  1.00  0.00    -0.250 N 
ATOM     34  H2  UNL     1       1.847  -5.800 -11.388  1.00  0.00     0.181 HD
BRANCH  33  35
HETATM   35  S2  UNL     1       1.661  -6.113  -9.041  1.00  0.00     0.237 S 
HETATM   36  O4  UNL     1       0.282  -6.635  -9.373  1.00  0.00    -0.205 OA
HETATM   37  O5  UNL     1       2.502  -7.176  -8.399  1.00  0.00    -0.205 OA
BRANCH  35  38
HETATM   38  C14 UNL     1       1.474  -4.734  -7.957  1.00  0.00     0.130 A 
HETATM   39  C15 UNL     1       0.741  -3.559  -8.624  1.00  0.00     0.023 A 
HETATM   40  C16 UNL     1       0.088  -4.326  -7.509  1.00  0.00     0.023 A 
ENDBRANCH  35  38
ENDBRANCH  33  35
ENDBRANCH   4  31
TORSDOF 8
ENDMDL
MODEL 2
REMARK VINA RESULT: -9.067100755      0.826      1.067
REMARK  8 active torsions:
REMARK  status: ('A' for Active; 'I' for Inactive)
REMARK    1  A    between atoms: C2_2  and  C4_4 
REMARK    2  A    between atoms: N1_6  and  S1_7 
REMARK    3  A    between atoms: C8_12  and  C9_13 
REMARK    4  A    between atoms: C12_16  and  C13_17 
REMARK       I    between atoms: C13_17  and  N2_19 
REMARK    5  A    between atoms: N2_19  and  S2_21 
REMARK    6  A    between atoms: S2_21  and  C14_24 
REMARK    7  A    between atoms: C17_27  and  C18_28 
REMARK    8  A    between atoms: C21_32  and  C22_33 
ROOT
HETATM    1  C9  UNL     1       5.291  -4.381 -14.394  1.00  0.00    -0.052 A 
HETATM    2  C10 UNL     1       5.226  -5.635 -13.830  1.00  0.00     0.009 A 
HETATM    3  C11 UNL     1       4.719  -5.733 -12.580  1.00  0.00     0.018 A 
HETATM    4  C12 UNL     1       4.265  -4.604 -11.857  1.00  0.00     0.044 A 
HETATM    5  C17 UNL     1       4.320  -3.358 -12.391  1.00  0.00     0.028 A 
HETATM    6  C25 UNL     1       4.852  -3.284 -13.691  1.00  0.00     0.021 A 
ENDROOT
BRANCH   1   7
HETATM    7  C8  UNL     1       5.835  -4.224 -15.766  1.00  0.00     0.038 C 
HETATM    8  C4  UNL     1       5.112  -4.976 -16.818  1.00  0.00     0.013 C 
HETATM    9  C5  UNL     1       4.638  -3.875 -17.779  1.00  0.00     0.113 C 
HETATM   10  N1  UNL     1       5.659  -2.892 -17.610  1.00  0.00    -0.210 NA
HETATM   11  C7  UNL     1       5.853  -2.763 -16.186  1.00  0.00     0.117 C 
BRANCH   8  12
HETATM   12  C2  UNL     1       5.957  -5.927 -17.629  1.00  0.00    -0.017 C 
HETATM   13  C1  UNL     1       5.338  -7.313 -17.453  1.00  0.00     0.010 C 
HETATM   14  C3  UNL     1       5.942  -5.619 -19.099  1.00  0.00     0.010 C 
ENDBRANCH   8  12
BRANCH  10  15
HETATM   15  S1  UNL     1       5.409  -1.417 -18.410  1.00  0.00     0.207 S 
HETATM   16  C6  UNL     1       5.213  -0.135 -17.191  1.00  0.00     0.180 C 
HETATM   17  O1  UNL     1       4.105  -1.521 -19.174  1.00  0.00    -0.212 OA
HETATM   18  O2  UNL     1       6.488  -1.051 -19.377  1.00  0.00    -0.212 OA
ENDBRANCH  10  15
ENDBRANCH   1   7
BRANCH   5  19
HETATM   19  C18 UNL     1       3.955  -2.123 -11.715  1.00  0.00     0.326 C 
HETATM   20  F1  UNL     1       4.935  -1.944 -10.705  1.00  0.00    -0.203 F 
HETATM   21  C19 UNL     1       2.656  -1.993 -11.034  1.00  0.00     0.083 C 
HETATM   22  C20 UNL     1       2.285  -0.545 -10.732  1.00  0.00     0.020 C 
HETATM   23  C21 UNL     1       3.471   0.344 -10.640  1.00  0.00     0.122 C 
HETATM   24  C23 UNL     1       4.460   0.159 -11.741  1.00  0.00     0.290 C 
HETATM   25  N3  UNL     1       4.183  -0.964 -12.586  1.00  0.00     0.129 N 
HETATM   26  C24 UNL     1       3.121  -0.672 -13.481  1.00  0.00     0.314 C 
BRANCH  23  27
HETATM   27  C22 UNL     1       3.027   1.759 -10.396  1.00  0.00     0.393 C 
HETATM   28  F2  UNL     1       2.581   2.351 -11.588  1.00  0.00    -0.171 F 
HETATM   29  F3  UNL     1       4.019   2.600  -9.944  1.00  0.00    -0.171 F 
HETATM   30  F4  UNL     1       1.992   1.843  -9.483  1.00  0.00    -0.171 F 
ENDBRANCH  23  27
ENDBRANCH   5  19
BRANCH   4  31
HETATM   31  C13 UNL     1       3.715  -4.961 -10.573  1.00  0.00     0.265 C 
HETATM   32  O3  UNL     1       4.404  -4.784  -9.553  1.00  0.00    -0.267 OA
HETATM   33  N2  UNL     1       2.433  -5.510 -10.473  1.00  0.00    -0.250 N 
ATOM     34  H2  UNL     1       1.901  -5.638 -11.334  1.00  0.00     0.181 HD
BRANCH  33  35
HETATM   35  S2  UNL     1       1.690  -5.984  -8.994  1.00  0.00     0.237 S 
HETATM   36  O4  UNL     1       0.304  -6.472  -9.345  1.00  0.00    -0.205 OA
HETATM   37  O5  UNL     1       2.501  -7.070  -8.353  1.00  0.00    -0.205 OA
BRANCH  35  38
HETATM   38  C14 UNL     1       1.521  -4.610  -7.899  1.00  0.00     0.130 A 
HETATM   39  C15 UNL     1       0.665  -3.484  -8.500  1.00  0.00     0.023 A 
HETATM   40  C16 UNL     1       0.159  -4.280  -7.331  1.00  0.00     0.023 A 
ENDBRANCH  35  38
ENDBRANCH  33  35
ENDBRANCH   4  31
TORSDOF 8
ENDMDL
MODEL 3
REMARK VINA RESULT: -9.015842279      1.051      1.542
REMARK  8 active torsions:
REMARK  status: ('A' for Active; 'I' for Inactive)
REMARK    1  A    between atoms: C2_2  and  C4_4 
REMARK    2  A    between atoms: N1_6  and  S1_7 
REMARK    3  A    between atoms: C8_12  and  C9_13 
REMARK    4  A    between atoms: C12_16  and  C13_17 
REMARK       I    between atoms: C13_17  and  N2_19 
REMARK    5  A    between atoms: N2_19  and  S2_21 
REMARK    6  A    between atoms: S2_21  and  C14_24 
REMARK    7  A    between atoms: C17_27  and  C18_28 
REMARK    8  A    between atoms: C21_32  and  C22_33 
ROOT
HETATM    1  C9  UNL     1       5.186  -4.417 -14.405  1.00  0.00    -0.052 A 
HETATM    2  C10 UNL     1       5.291  -5.608 -13.724  1.00  0.00     0.009 A 
HETATM    3  C11 UNL     1       4.751  -5.671 -12.487  1.00  0.00     0.018 A 
HETATM    4  C12 UNL     1       4.093  -4.568 -11.891  1.00  0.00     0.044 A 
HETATM    5  C17 UNL     1       3.978  -3.383 -12.542  1.00  0.00     0.028 A 
HETATM    6  C25 UNL     1       4.550  -3.344 -13.826  1.00  0.00     0.021 A 
ENDROOT
BRANCH   1   7
HETATM    7  C8  UNL     1       5.761  -4.300 -15.769  1.00  0.00     0.038 C 
HETATM    8  C4  UNL     1       5.067  -5.090 -16.812  1.00  0.00     0.013 C 
HETATM    9  C5  UNL     1       4.608  -4.023 -17.819  1.00  0.00     0.113 C 
HETATM   10  N1  UNL     1       5.620  -3.030 -17.658  1.00  0.00    -0.210 NA
HETATM   11  C7  UNL     1       5.781  -2.854 -16.235  1.00  0.00     0.117 C 
BRANCH   8  12
HETATM   12  C2  UNL     1       5.934  -6.061 -17.573  1.00  0.00    -0.017 C 
HETATM   13  C1  UNL     1       5.289  -7.437 -17.411  1.00  0.00     0.010 C 
HETATM   14  C3  UNL     1       5.992  -5.771 -19.045  1.00  0.00     0.010 C 
ENDBRANCH   8  12
BRANCH  10  15
HETATM   15  S1  UNL     1       5.381  -1.582 -18.511  1.00  0.00     0.207 S 
HETATM   16  C6  UNL     1       5.210  -0.253 -17.339  1.00  0.00     0.180 C 
HETATM   17  O1  UNL     1       4.070  -1.700 -19.261  1.00  0.00    -0.212 OA
HETATM   18  O2  UNL     1       6.456  -1.266 -19.499  1.00  0.00    -0.212 OA
ENDBRANCH  10  15
ENDBRANCH   1   7
BRANCH   5  19
HETATM   19  C18 UNL     1       3.394  -2.166 -12.001  1.00  0.00     0.326 C 
HETATM   20  F1  UNL     1       2.253  -2.589 -11.273  1.00  0.00    -0.203 F 
HETATM   21  C19 UNL     1       2.921  -1.095 -12.894  1.00  0.00     0.083 C 
HETATM   22  C20 UNL     1       2.712   0.232 -12.173  1.00  0.00     0.020 C 
HETATM   23  C21 UNL     1       2.463   0.063 -10.719  1.00  0.00     0.122 C 
HETATM   24  C23 UNL     1       3.397  -0.885 -10.046  1.00  0.00     0.290 C 
HETATM   25  N3  UNL     1       4.247  -1.600 -10.949  1.00  0.00     0.129 N 
HETATM   26  C24 UNL     1       5.299  -0.769 -11.417  1.00  0.00     0.314 C 
BRANCH  23  27
HETATM   27  C22 UNL     1       2.322   1.410 -10.068  1.00  0.00     0.393 C 
HETATM   28  F2  UNL     1       3.334   1.609  -9.116  1.00  0.00    -0.171 F 
HETATM   29  F3  UNL     1       1.150   1.587  -9.367  1.00  0.00    -0.171 F 
HETATM   30  F4  UNL     1       2.400   2.451 -10.974  1.00  0.00    -0.171 F 
ENDBRANCH  23  27
ENDBRANCH   5  19
BRANCH   4  31
HETATM   31  C13 UNL     1       3.548  -4.890 -10.596  1.00  0.00     0.265 C 
HETATM   32  O3  UNL     1       4.117  -4.455  -9.579  1.00  0.00    -0.267 OA
HETATM   33  N2  UNL     1       2.406  -5.688 -10.480  1.00  0.00    -0.250 N 
ATOM     34  H2  UNL     1       1.970  -6.023 -11.339  1.00  0.00     0.181 HD
BRANCH  33  35
HETATM   35  S2  UNL     1       1.684  -6.143  -8.985  1.00  0.00     0.237 S 
HETATM   36  O4  UNL     1       1.410  -4.863  -8.231  1.00  0.00    -0.205 OA
HETATM   37  O5  UNL     1       0.415  -6.897  -9.251  1.00  0.00    -0.205 OA
BRANCH  35  38
HETATM   38  C14 UNL     1       2.791  -7.119  -8.016  1.00  0.00     0.130 A 
HETATM   39  C15 UNL     1       2.708  -8.614  -8.362  1.00  0.00     0.023 A 
HETATM   40  C16 UNL     1       3.943  -7.825  -8.696  1.00  0.00     0.023 A 
ENDBRANCH  35  38
ENDBRANCH  33  35
ENDBRANCH   4  31
TORSDOF 8
ENDMDL
MODEL 4
REMARK VINA RESULT: -8.947403313      1.324      1.856
REMARK  8 active torsions:
REMARK  status: ('A' for Active; 'I' for Inactive)
REMARK    1  A    between atoms: C2_2  and  C4_4 
REMARK    2  A    between atoms: N1_6  and  S1_7 
REMARK    3  A    between atoms: C8_12  and  C9_13 
REMARK    4  A    between atoms: C12_16  and  C13_17 
REMARK       I    between atoms: C13_17  and  N2_19 
REMARK    5  A    between atoms: N2_19  and  S2_21 
REMARK    6  A    between atoms: S2_21  and  C14_24 
REMARK    7  A    between atoms: C17_27  and  C18_28 
REMARK    8  A    between atoms: C21_32  and  C22_33 
ROOT
HETATM    1  C9  UNL     1       5.284  -4.408 -14.385  1.00  0.00    -0.052 A 
HETATM    2  C10 UNL     1       5.235  -5.646 -13.788  1.00  0.00     0.009 A 
HETATM    3  C11 UNL     1       4.729  -5.718 -12.536  1.00  0.00     0.018 A 
HETATM    4  C12 UNL     1       4.258  -4.577 -11.844  1.00  0.00     0.044 A 
HETATM    5  C17 UNL     1       4.298  -3.344 -12.411  1.00  0.00     0.028 A 
HETATM    6  C25 UNL     1       4.829  -3.298 -13.712  1.00  0.00     0.021 A 
ENDROOT
BRANCH   1   7
HETATM    7  C8  UNL     1       5.828  -4.279 -15.761  1.00  0.00     0.038 C 
HETATM    8  C4  UNL     1       5.108  -5.058 -16.795  1.00  0.00     0.013 C 
HETATM    9  C5  UNL     1       4.629  -3.981 -17.781  1.00  0.00     0.113 C 
HETATM   10  N1  UNL     1       5.646  -2.991 -17.634  1.00  0.00    -0.210 NA
HETATM   11  C7  UNL     1       5.840  -2.828 -16.213  1.00  0.00     0.117 C 
BRANCH   8  12
HETATM   12  C2  UNL     1       5.956  -6.023 -17.584  1.00  0.00    -0.017 C 
HETATM   13  C1  UNL     1       5.303  -7.397 -17.434  1.00  0.00     0.010 C 
HETATM   14  C3  UNL     1       5.994  -5.710 -19.052  1.00  0.00     0.010 C 
ENDBRANCH   8  12
BRANCH  10  15
HETATM   15  S1  UNL     1       5.391  -1.535 -18.468  1.00  0.00     0.207 S 
HETATM   16  C6  UNL     1       5.183  -0.227 -17.278  1.00  0.00     0.180 C 
HETATM   17  O1  UNL     1       4.090  -1.664 -19.234  1.00  0.00    -0.212 OA
HETATM   18  O2  UNL     1       6.471  -1.185 -19.439  1.00  0.00    -0.212 OA
ENDBRANCH  10  15
ENDBRANCH   1   7
BRANCH   5  19
HETATM   19  C18 UNL     1       3.914  -2.097 -11.769  1.00  0.00     0.326 C 
HETATM   20  F1  UNL     1       4.910  -1.860 -10.786  1.00  0.00    -0.203 F 
HETATM   21  C19 UNL     1       2.627  -1.977 -11.065  1.00  0.00     0.083 C 
HETATM   22  C20 UNL     1       2.225  -0.529 -10.803  1.00  0.00     0.020 C 
HETATM   23  C21 UNL     1       3.389   0.391 -10.765  1.00  0.00     0.122 C 
HETATM   24  C23 UNL     1       4.360   0.194 -11.880  1.00  0.00     0.290 C 
HETATM   25  N3  UNL     1       4.095  -0.962 -12.682  1.00  0.00     0.129 N 
HETATM   26  C24 UNL     1       3.008  -0.727 -13.563  1.00  0.00     0.314 C 
BRANCH  23  27
HETATM   27  C22 UNL     1       2.914   1.803 -10.559  1.00  0.00     0.393 C 
HETATM   28  F2  UNL     1       3.926   2.587  -9.984  1.00  0.00    -0.171 F 
HETATM   29  F3  UNL     1       1.850   1.927  -9.695  1.00  0.00    -0.171 F 
HETATM   30  F4  UNL     1       2.538   2.417 -11.738  1.00  0.00    -0.171 F 
ENDBRANCH  23  27
ENDBRANCH   5  19
BRANCH   4  31
HETATM   31  C13 UNL     1       3.712  -4.907 -10.552  1.00  0.00     0.265 C 
HETATM   32  O3  UNL     1       4.335  -4.567  -9.530  1.00  0.00    -0.267 OA
HETATM   33  N2  UNL     1       2.508  -5.609 -10.443  1.00  0.00    -0.250 N 
ATOM     34  H2  UNL     1       2.029  -5.869 -11.306  1.00  0.00     0.181 HD
BRANCH  33  35
HETATM   35  S2  UNL     1       1.778  -6.066  -8.953  1.00  0.00     0.237 S 
HETATM   36  O4  UNL     1       1.591  -4.795  -8.157  1.00  0.00    -0.205 OA
HETATM   37  O5  UNL     1       0.463  -6.734  -9.224  1.00  0.00    -0.205 OA
BRANCH  35  38
HETATM   38  C14 UNL     1       2.835  -7.135  -8.029  1.00  0.00     0.130 A 
HETATM   39  C15 UNL     1       2.612  -8.617  -8.369  1.00  0.00     0.023 A 
HETATM   40  C16 UNL     1       3.894  -7.936  -8.754  1.00  0.00     0.023 A 
ENDBRANCH  35  38
ENDBRANCH  33  35
ENDBRANCH   4  31
TORSDOF 8
ENDMDL
MODEL 5
REMARK VINA RESULT: -8.809930878      1.181      1.415
REMARK  8 active torsions:
REMARK  status: ('A' for Active; 'I' for Inactive)
REMARK    1  A    between atoms: C2_2  and  C4_4 
REMARK    2  A    between atoms: N1_6  and  S1_7 
REMARK    3  A    between atoms: C8_12  and  C9_13 
REMARK    4  A    between atoms: C12_16  and  C13_17 
REMARK       I    between atoms: C13_17  and  N2_19 
REMARK    5  A    between atoms: N2_19  and  S2_21 
REMARK    6  A    between atoms: S2_21  and  C14_24 
REMARK    7  A    between atoms: C17_27  and  C18_28 
REMARK    8  A    between atoms: C21_32  and  C22_33 
ROOT
HETATM    1  C9  UNL     1       5.033  -4.355 -13.890  1.00  0.00    -0.052 A 
HETATM    2  C10 UNL     1       5.136  -5.579 -13.270  1.00  0.00     0.009 A 
HETATM    3  C11 UNL     1       4.513  -5.733 -12.080  1.00  0.00     0.018 A 
HETATM    4  C12 UNL     1       3.774  -4.689 -11.473  1.00  0.00     0.044 A 
HETATM    5  C17 UNL     1       3.660  -3.472 -12.064  1.00  0.00     0.028 A 
HETATM    6  C25 UNL     1       4.318  -3.339 -13.300  1.00  0.00     0.021 A 
ENDROOT
BRANCH   1   7
HETATM    7  C8  UNL     1       5.697  -4.140 -15.201  1.00  0.00     0.038 C 
HETATM    8  C4  UNL     1       5.044  -4.806 -16.351  1.00  0.00     0.013 C 
HETATM    9  C5  UNL     1       4.687  -3.638 -17.282  1.00  0.00     0.113 C 
HETATM   10  N1  UNL     1       5.719  -2.703 -16.971  1.00  0.00    -0.210 NA
HETATM   11  C7  UNL     1       5.795  -2.660 -15.531  1.00  0.00     0.117 C 
BRANCH   8  12
HETATM   12  C2  UNL     1       5.926  -5.740 -17.144  1.00  0.00    -0.017 C 
HETATM   13  C1  UNL     1       5.723  -7.134 -16.551  1.00  0.00     0.010 C 
HETATM   14  C3  UNL     1       5.547  -5.816 -18.595  1.00  0.00     0.010 C 
ENDBRANCH   8  12
BRANCH  10  15
HETATM   15  S1  UNL     1       5.584  -1.177 -17.702  1.00  0.00     0.207 S 
HETATM   16  C6  UNL     1       4.789  -0.068 -16.559  1.00  0.00     0.180 C 
HETATM   17  O1  UNL     1       4.673  -1.320 -18.904  1.00  0.00    -0.212 OA
HETATM   18  O2  UNL     1       6.881  -0.600 -18.166  1.00  0.00    -0.212 OA
ENDBRANCH  10  15
ENDBRANCH   1   7
BRANCH   5  19
HETATM   19  C18 UNL     1       2.994  -2.308 -11.500  1.00  0.00     0.326 C 
HETATM   20  F1  UNL     1       1.760  -2.791 -10.994  1.00  0.00    -0.203 F 
HETATM   21  C19 UNL     1       2.651  -1.153 -12.345  1.00  0.00     0.083 C 
HETATM   22  C20 UNL     1       2.329   0.100 -11.537  1.00  0.00     0.020 C 
HETATM   23  C21 UNL     1       1.869  -0.208 -10.160  1.00  0.00     0.122 C 
HETATM   24  C23 UNL     1       2.698  -1.224  -9.451  1.00  0.00     0.290 C 
HETATM   25  N3  UNL     1       3.678  -1.855 -10.283  1.00  0.00     0.129 N 
HETATM   26  C24 UNL     1       4.782  -0.991 -10.507  1.00  0.00     0.314 C 
BRANCH  23  27
HETATM   27  C22 UNL     1       1.623   1.071  -9.409  1.00  0.00     0.393 C 
HETATM   28  F2  UNL     1       2.066   2.176 -10.154  1.00  0.00    -0.171 F 
HETATM   29  F3  UNL     1       2.297   1.170  -8.213  1.00  0.00    -0.171 F 
HETATM   30  F4  UNL     1       0.286   1.275  -9.126  1.00  0.00    -0.171 F 
ENDBRANCH  23  27
ENDBRANCH   5  19
BRANCH   4  31
HETATM   31  C13 UNL     1       3.152  -5.102 -10.241  1.00  0.00     0.265 C 
HETATM   32  O3  UNL     1       3.664  -4.754  -9.161  1.00  0.00    -0.267 OA
HETATM   33  N2  UNL     1       2.000  -5.894 -10.252  1.00  0.00    -0.250 N 
ATOM     34  H2  UNL     1       1.612  -6.157 -11.159  1.00  0.00     0.181 HD
BRANCH  33  35
HETATM   35  S2  UNL     1       1.189  -6.455  -8.841  1.00  0.00     0.237 S 
HETATM   36  O4  UNL     1       0.245  -5.353  -8.420  1.00  0.00    -0.205 OA
HETATM   37  O5  UNL     1       0.443  -7.716  -9.161  1.00  0.00    -0.205 OA
BRANCH  35  38
HETATM   38  C14 UNL     1       2.328  -6.729  -7.521  1.00  0.00     0.130 A 
HETATM   39  C15 UNL     1       1.728  -7.592  -6.400  1.00  0.00     0.023 A 
HETATM   40  C16 UNL     1       2.836  -8.130  -7.261  1.00  0.00     0.023 A 
ENDBRANCH  35  38
ENDBRANCH  33  35
ENDBRANCH   4  31
TORSDOF 8
ENDMDL
