MODEL 1
REMARK VINA RESULT: -4.992927903      0.000      0.000
REMARK  6 active torsions:
REMARK  status: ('A' for Active; 'I' for Inactive)
REMARK    1  A    between atoms: C2_2  and  C3_3 
REMARK    2  A    between atoms: C4_7  and  C5_8 
REMARK    3  A    between atoms: N2_9  and  N3_11 
REMARK    4  A    between atoms: C7_16  and  N6_17 
REMARK    5  A    between atoms: N6_17  and  C8_19 
REMARK    6  A    between atoms: C8_19  and  C10_21 
ROOT
HETATM    1  C3  UNL     1       1.091  23.530 -12.339  1.00  0.00     0.233 C 
HETATM    2  N1  UNL     1      -0.155  23.103 -12.928  1.00  0.00    -0.055 N 
ATOM      3  H11 UNL     1      -0.245  22.169 -13.326  1.00  0.00     0.279 HD
ATOM      4  H12 UNL     1      -0.471  23.501 -13.813  1.00  0.00     0.279 HD
HETATM    5  C4  UNL     1      -0.830  23.442 -11.687  1.00  0.00     0.251 C 
HETATM    6  C7  UNL     1       0.412  24.083 -11.113  1.00  0.00     0.147 C 
ENDROOT
BRANCH   5   7
HETATM    7  C5  UNL     1      -2.006  24.324 -11.846  1.00  0.00     0.115 C 
HETATM    8  N2  UNL     1      -2.635  24.696 -10.781  1.00  0.00    -0.311 N 
ATOM      9  H2  UNL     1      -2.298  24.372  -9.874  1.00  0.00     0.185 HD
BRANCH   8  10
HETATM   10  N3  UNL     1      -3.758  25.527 -10.822  1.00  0.00    -0.277 N 
HETATM   11  C6  UNL     1      -3.683  26.784 -10.539  1.00  0.00     0.215 C 
HETATM   12  N4  UNL     1      -2.460  27.427 -10.164  1.00  0.00    -0.065 NA
HETATM   13  N5  UNL     1      -4.869  27.568 -10.599  1.00  0.00    -0.065 NA
ATOM     14  H3  UNL     1      -4.661  25.129 -11.082  1.00  0.00     0.189 HD
ENDBRANCH   8  10
ENDBRANCH   5   7
BRANCH   6  15
HETATM   15  N6  UNL     1       0.752  23.494  -9.869  1.00  0.00    -0.400 N 
ATOM     16  H6  UNL     1       0.968  22.500  -9.792  1.00  0.00     0.154 HD
BRANCH  15  17
HETATM   17  C8  UNL     1       0.781  24.349  -8.733  1.00  0.00     0.175 C 
HETATM   18  C9  UNL     1       0.734  25.812  -9.108  1.00  0.00     0.043 C 
BRANCH  17  19
HETATM   19  C10 UNL     1      -0.391  24.069  -7.890  1.00  0.00     0.195 C 
HETATM   20  O1  UNL     1      -0.310  23.283  -6.933  1.00  0.00    -0.646 OA
HETATM   21  O2  UNL     1      -1.586  24.687  -8.171  1.00  0.00    -0.646 OA
ENDBRANCH  17  19
ENDBRANCH  15  17
ENDBRANCH   6  15
BRANCH   1  22
HETATM   22  C2  UNL     1       1.687  24.630 -13.162  1.00  0.00    -0.002 C 
HETATM   23  C1  UNL     1       2.672  25.396 -12.706  1.00  0.00     0.009 C 
ENDBRANCH   1  22
TORSDOF 6
ENDMDL
MODEL 2
REMARK VINA RESULT: -4.903090359      3.602      5.293
REMARK  6 active torsions:
REMARK  status: ('A' for Active; 'I' for Inactive)
REMARK    1  A    between atoms: C2_2  and  C3_3 
REMARK    2  A    between atoms: C4_7  and  C5_8 
REMARK    3  A    between atoms: N2_9  and  N3_11 
REMARK    4  A    between atoms: C7_16  and  N6_17 
REMARK    5  A    between atoms: N6_17  and  C8_19 
REMARK    6  A    between atoms: C8_19  and  C10_21 
ROOT
HETATM    1  C3  UNL     1      -1.058  25.768 -10.182  1.00  0.00     0.233 C 
HETATM    2  N1  UNL     1      -1.148  27.158  -9.809  1.00  0.00    -0.055 N 
ATOM      3  H11 UNL     1      -0.304  27.702  -9.634  1.00  0.00     0.279 HD
ATOM      4  H12 UNL     1      -1.500  27.424  -8.889  1.00  0.00     0.279 HD
HETATM    5  C4  UNL     1      -1.945  27.400 -10.999  1.00  0.00     0.251 C 
HETATM    6  C7  UNL     1      -2.042  25.926 -11.311  1.00  0.00     0.147 C 
ENDROOT
BRANCH   5   7
HETATM    7  C5  UNL     1      -3.223  28.101 -10.752  1.00  0.00     0.115 C 
HETATM    8  N2  UNL     1      -3.753  28.761 -11.729  1.00  0.00    -0.311 N 
ATOM      9  H2  UNL     1      -3.273  28.773 -12.629  1.00  0.00     0.185 HD
BRANCH   8  10
HETATM   10  N3  UNL     1      -4.957  29.459 -11.600  1.00  0.00    -0.277 N 
HETATM   11  C6  UNL     1      -5.337  30.324 -12.480  1.00  0.00     0.215 C 
HETATM   12  N4  UNL     1      -4.568  30.639 -13.646  1.00  0.00    -0.065 NA
HETATM   13  N5  UNL     1      -6.575  30.999 -12.282  1.00  0.00    -0.065 NA
ATOM     14  H3  UNL     1      -5.551  29.280 -10.790  1.00  0.00     0.189 HD
ENDBRANCH   8  10
ENDBRANCH   5   7
BRANCH   6  15
HETATM   15  N6  UNL     1      -1.568  25.657 -12.620  1.00  0.00    -0.400 N 
ATOM     16  H6  UNL     1      -0.595  25.822 -12.878  1.00  0.00     0.154 HD
BRANCH  15  17
HETATM   17  C8  UNL     1      -2.507  25.148 -13.558  1.00  0.00     0.175 C 
HETATM   18  C9  UNL     1      -3.278  23.965 -13.022  1.00  0.00     0.043 C 
BRANCH  17  19
HETATM   19  C10 UNL     1      -3.480  26.201 -13.886  1.00  0.00     0.195 C 
HETATM   20  O1  UNL     1      -3.143  27.188 -14.558  1.00  0.00    -0.646 OA
HETATM   21  O2  UNL     1      -4.774  26.084 -13.439  1.00  0.00    -0.646 OA
ENDBRANCH  17  19
ENDBRANCH  15  17
ENDBRANCH   6  15
BRANCH   1  22
HETATM   22  C2  UNL     1      -1.627  24.914  -9.091  1.00  0.00    -0.002 C 
HETATM   23  C1  UNL     1      -0.859  24.154  -8.318  1.00  0.00     0.009 C 
ENDBRANCH   1  22
TORSDOF 6
ENDMDL
MODEL 3
REMARK VINA RESULT: -4.867710668      2.914      5.045
REMARK  6 active torsions:
REMARK  status: ('A' for Active; 'I' for Inactive)
REMARK    1  A    between atoms: C2_2  and  C3_3 
REMARK    2  A    between atoms: C4_7  and  C5_8 
REMARK    3  A    between atoms: N2_9  and  N3_11 
REMARK    4  A    between atoms: C7_16  and  N6_17 
REMARK    5  A    between atoms: N6_17  and  C8_19 
REMARK    6  A    between atoms: C8_19  and  C10_21 
ROOT
HETATM    1  C3  UNL     1      -0.074  25.557  -9.091  1.00  0.00     0.233 C 
HETATM    2  N1  UNL     1       0.089  24.130  -8.957  1.00  0.00    -0.055 N 
ATOM      3  H11 UNL     1       0.237  23.712  -8.039  1.00  0.00     0.279 HD
ATOM      4  H12 UNL     1       0.937  23.675  -9.293  1.00  0.00     0.279 HD
HETATM    5  C4  UNL     1      -1.171  23.945  -9.655  1.00  0.00     0.251 C 
HETATM    6  C7  UNL     1      -1.274  25.414  -9.990  1.00  0.00     0.147 C 
ENDROOT
BRANCH   5   7
HETATM    7  C5  UNL     1      -1.109  23.016 -10.803  1.00  0.00     0.115 C 
HETATM    8  N2  UNL     1      -1.893  21.989 -10.798  1.00  0.00    -0.311 N 
ATOM      9  H2  UNL     1      -2.523  21.858 -10.006  1.00  0.00     0.185 HD
BRANCH   8  10
HETATM   10  N3  UNL     1      -1.911  21.050 -11.833  1.00  0.00    -0.277 N 
HETATM   11  C6  UNL     1      -2.260  19.824 -11.630  1.00  0.00     0.215 C 
HETATM   12  N4  UNL     1      -2.652  19.327 -10.346  1.00  0.00    -0.065 NA
HETATM   13  N5  UNL     1      -2.253  18.923 -12.732  1.00  0.00    -0.065 NA
ATOM     14  H3  UNL     1      -1.641  21.342 -12.773  1.00  0.00     0.189 HD
ENDBRANCH   8  10
ENDBRANCH   5   7
BRANCH   6  15
HETATM   15  N6  UNL     1      -2.499  25.953  -9.519  1.00  0.00    -0.400 N 
ATOM     16  H6  UNL     1      -2.897  25.666  -8.625  1.00  0.00     0.154 HD
BRANCH  15  17
HETATM   17  C8  UNL     1      -3.147  26.910 -10.346  1.00  0.00     0.175 C 
HETATM   18  C9  UNL     1      -2.315  28.153 -10.556  1.00  0.00     0.043 C 
BRANCH  17  19
HETATM   19  C10 UNL     1      -3.397  26.314 -11.667  1.00  0.00     0.195 C 
HETATM   20  O1  UNL     1      -4.214  25.390 -11.802  1.00  0.00    -0.646 OA
HETATM   21  O2  UNL     1      -2.714  26.790 -12.761  1.00  0.00    -0.646 OA
ENDBRANCH  17  19
ENDBRANCH  15  17
ENDBRANCH   6  15
BRANCH   1  22
HETATM   22  C2  UNL     1       1.089  26.131  -9.838  1.00  0.00    -0.002 C 
HETATM   23  C1  UNL     1       1.890  25.375 -10.583  1.00  0.00     0.009 C 
ENDBRANCH   1  22
TORSDOF 6
ENDMDL
MODEL 4
REMARK VINA RESULT: -4.816605526      4.449      6.407
REMARK  6 active torsions:
REMARK  status: ('A' for Active; 'I' for Inactive)
REMARK    1  A    between atoms: C2_2  and  C3_3 
REMARK    2  A    between atoms: C4_7  and  C5_8 
REMARK    3  A    between atoms: N2_9  and  N3_11 
REMARK    4  A    between atoms: C7_16  and  N6_17 
REMARK    5  A    between atoms: N6_17  and  C8_19 
REMARK    6  A    between atoms: C8_19  and  C10_21 
ROOT
HETATM    1  C3  UNL     1      -3.375  26.082 -10.194  1.00  0.00     0.233 C 
HETATM    2  N1  UNL     1      -3.406  25.148 -11.293  1.00  0.00    -0.055 N 
ATOM      3  H11 UNL     1      -3.916  24.269 -11.209  1.00  0.00     0.279 HD
ATOM      4  H12 UNL     1      -2.569  24.628 -11.552  1.00  0.00     0.279 HD
HETATM    5  C4  UNL     1      -3.907  26.210 -12.149  1.00  0.00     0.251 C 
HETATM    6  C7  UNL     1      -3.696  27.257 -11.081  1.00  0.00     0.147 C 
ENDROOT
BRANCH   5   7
HETATM    7  C5  UNL     1      -3.150  26.396 -13.406  1.00  0.00     0.115 C 
HETATM    8  N2  UNL     1      -3.664  27.153 -14.318  1.00  0.00    -0.311 N 
ATOM      9  H2  UNL     1      -4.567  27.592 -14.139  1.00  0.00     0.185 HD
BRANCH   8  10
HETATM   10  N3  UNL     1      -3.032  27.393 -15.541  1.00  0.00    -0.277 N 
HETATM   11  C6  UNL     1      -3.253  28.469 -16.219  1.00  0.00     0.215 C 
HETATM   12  N4  UNL     1      -4.153  29.494 -15.784  1.00  0.00    -0.065 NA
HETATM   13  N5  UNL     1      -2.575  28.645 -17.458  1.00  0.00    -0.065 NA
ATOM     14  H3  UNL     1      -2.378  26.700 -15.907  1.00  0.00     0.189 HD
ENDBRANCH   8  10
ENDBRANCH   5   7
BRANCH   6  15
HETATM   15  N6  UNL     1      -4.903  27.953 -10.815  1.00  0.00    -0.400 N 
ATOM     16  H6  UNL     1      -5.735  27.467 -10.482  1.00  0.00     0.154 HD
BRANCH  15  17
HETATM   17  C8  UNL     1      -4.902  29.358 -11.032  1.00  0.00     0.175 C 
HETATM   18  C9  UNL     1      -3.517  29.903 -11.293  1.00  0.00     0.043 C 
BRANCH  17  19
HETATM   19  C10 UNL     1      -5.729  29.665 -12.208  1.00  0.00     0.195 C 
HETATM   20  O1  UNL     1      -6.049  28.772 -13.008  1.00  0.00    -0.646 OA
HETATM   21  O2  UNL     1      -6.147  30.957 -12.418  1.00  0.00    -0.646 OA
ENDBRANCH  17  19
ENDBRANCH  15  17
ENDBRANCH   6  15
BRANCH   1  22
HETATM   22  C2  UNL     1      -1.981  26.183  -9.657  1.00  0.00    -0.002 C 
HETATM   23  C1  UNL     1      -1.157  27.162 -10.015  1.00  0.00     0.009 C 
ENDBRANCH   1  22
TORSDOF 6
ENDMDL
MODEL 5
REMARK VINA RESULT: -4.805501404      2.616      4.422
REMARK  6 active torsions:
REMARK  status: ('A' for Active; 'I' for Inactive)
REMARK    1  A    between atoms: C2_2  and  C3_3 
REMARK    2  A    between atoms: C4_7  and  C5_8 
REMARK    3  A    between atoms: N2_9  and  N3_11 
REMARK    4  A    between atoms: C7_16  and  N6_17 
REMARK    5  A    between atoms: N6_17  and  C8_19 
REMARK    6  A    between atoms: C8_19  and  C10_21 
ROOT
HETATM    1  C3  UNL     1      -0.576  24.460  -8.629  1.00  0.00     0.233 C 
HETATM    2  N1  UNL     1      -0.498  23.207  -9.340  1.00  0.00    -0.055 N 
ATOM      3  H11 UNL     1      -0.670  22.327  -8.856  1.00  0.00     0.279 HD
ATOM      4  H12 UNL     1       0.403  22.848  -9.656  1.00  0.00     0.279 HD
HETATM    5  C4  UNL     1      -1.462  23.720 -10.298  1.00  0.00     0.251 C 
HETATM    6  C7  UNL     1      -1.416  25.105  -9.699  1.00  0.00     0.147 C 
ENDROOT
BRANCH   5   7
HETATM    7  C5  UNL     1      -1.046  23.605 -11.712  1.00  0.00     0.115 C 
HETATM    8  N2  UNL     1      -1.968  23.598 -12.618  1.00  0.00    -0.311 N 
ATOM      9  H2  UNL     1      -2.942  23.673 -12.326  1.00  0.00     0.185 HD
BRANCH   8  10
HETATM   10  N3  UNL     1      -1.681  23.492 -13.982  1.00  0.00    -0.277 N 
HETATM   11  C6  UNL     1      -1.872  24.478 -14.794  1.00  0.00     0.215 C 
HETATM   12  N4  UNL     1      -2.386  25.746 -14.372  1.00  0.00    -0.065 NA
HETATM   13  N5  UNL     1      -1.560  24.297 -16.170  1.00  0.00    -0.065 NA
ATOM     14  H3  UNL     1      -1.312  22.613 -14.346  1.00  0.00     0.189 HD
ENDBRANCH   8  10
ENDBRANCH   5   7
BRANCH   6  15
HETATM   15  N6  UNL     1      -2.715  25.536  -9.325  1.00  0.00    -0.400 N 
ATOM     16  H6  UNL     1      -3.318  24.958  -8.741  1.00  0.00     0.154 HD
BRANCH  15  17
HETATM   17  C8  UNL     1      -3.138  26.807  -9.801  1.00  0.00     0.175 C 
HETATM   18  C9  UNL     1      -2.015  27.590 -10.440  1.00  0.00     0.043 C 
BRANCH  17  19
HETATM   19  C10 UNL     1      -4.182  26.617 -10.819  1.00  0.00     0.195 C 
HETATM   20  O1  UNL     1      -4.182  25.613 -11.549  1.00  0.00    -0.646 OA
HETATM   21  O2  UNL     1      -5.166  27.566 -10.959  1.00  0.00    -0.646 OA
ENDBRANCH  17  19
ENDBRANCH  15  17
ENDBRANCH   6  15
BRANCH   1  22
HETATM   22  C2  UNL     1       0.782  25.087  -8.562  1.00  0.00    -0.002 C 
HETATM   23  C1  UNL     1       1.125  26.109  -9.340  1.00  0.00     0.009 C 
ENDBRANCH   1  22
TORSDOF 6
ENDMDL
