MODEL 1
REMARK VINA RESULT: -7.085487785      0.000      0.000
REMARK  8 active torsions:
REMARK  status: ('A' for Active; 'I' for Inactive)
REMARK    1  A    between atoms: C2_2  and  N1_3 
REMARK       I    between atoms: N1_3  and  C3_5 
REMARK    2  A    between atoms: C3_5  and  C4_7 
REMARK    3  A    between atoms: C5_8  and  O2_9 
REMARK    4  A    between atoms: C6_13  and  N3_14 
REMARK    5  A    between atoms: N3_14  and  N4_16 
REMARK    6  A    between atoms: C7_19  and  N5_20 
REMARK    7  A    between atoms: N5_20  and  O3_22 
REMARK    8  A    between atoms: N6_24  and  O4_25 
ROOT
HETATM    1  C4  UNL     1      22.577   6.680  -4.406  1.00  0.00     0.183 A 
HETATM    2  C5  UNL     1      22.773   5.335  -4.573  1.00  0.00     0.177 A 
HETATM    3  N2  UNL     1      22.535   4.413  -3.605  1.00  0.00    -0.317 N 
ATOM      4  H2  UNL     1      22.697   3.421  -3.780  1.00  0.00     0.169 HD
HETATM    5  C6  UNL     1      22.084   4.828  -2.423  1.00  0.00     0.170 A 
HETATM    6  C7  UNL     1      21.879   6.166  -2.228  1.00  0.00     0.199 A 
HETATM    7  N6  UNL     1      22.118   7.064  -3.190  1.00  0.00    -0.193 N 
ENDROOT
BRANCH   1   8
HETATM    8  C3  UNL     1      22.820   7.677  -5.407  1.00  0.00     0.275 C 
HETATM    9  N1  UNL     1      22.301   7.728  -6.702  1.00  0.00    -0.356 N 
ATOM     10  H1  UNL     1      21.670   6.998  -7.031  1.00  0.00     0.162 HD
HETATM   11  O1  UNL     1      23.611   8.642  -5.069  1.00  0.00    -0.266 OA
BRANCH   9  12
HETATM   12  C2  UNL     1      22.673   8.852  -7.595  1.00  0.00     0.118 C 
HETATM   13  C1  UNL     1      21.952   8.664  -8.912  1.00  0.00     0.026 C 
ENDBRANCH   9  12
ENDBRANCH   1   8
BRANCH   2  14
HETATM   14  O2  UNL     1      23.246   4.816  -5.791  1.00  0.00    -0.344 OA
ATOM     15  H2  UNL     1      24.063   5.120  -6.168  1.00  0.00     0.219 HD
ENDBRANCH   2  14
BRANCH   7  16
HETATM   16  O4  UNL     1      21.898   8.404  -2.951  1.00  0.00    -0.280 OA
ATOM     17  H4  UNL     1      22.177   8.775  -2.122  1.00  0.00     0.245 HD
ENDBRANCH   7  16
BRANCH   6  18
HETATM   18  N5  UNL     1      21.390   6.669  -0.958  1.00  0.00    -0.248 N 
ATOM     19  H5  UNL     1      20.552   6.264  -0.540  1.00  0.00     0.196 HD
BRANCH  18  20
HETATM   20  O3  UNL     1      21.989   7.596  -0.374  1.00  0.00    -0.288 OA
ATOM     21  H3  UNL     1      22.901   7.498  -0.129  1.00  0.00     0.244 HD
ENDBRANCH  18  20
ENDBRANCH   6  18
BRANCH   5  22
HETATM   22  N3  UNL     1      21.836   4.007  -1.460  1.00  0.00    -0.289 N 
ATOM     23  H3  UNL     1      21.123   4.217  -0.762  1.00  0.00     0.188 HD
BRANCH  22  24
HETATM   24  N4  UNL     1      22.567   2.831  -1.399  1.00  0.00    -0.344 N 
ATOM     25  H42 UNL     1      23.308   2.655  -2.078  1.00  0.00     0.176 HD
ATOM     26  H41 UNL     1      22.339   2.160  -0.665  1.00  0.00     0.176 HD
ENDBRANCH  22  24
ENDBRANCH   5  22
TORSDOF 8
ENDMDL
MODEL 2
REMARK VINA RESULT: -6.998745722      2.136      5.833
REMARK  8 active torsions:
REMARK  status: ('A' for Active; 'I' for Inactive)
REMARK    1  A    between atoms: C2_2  and  N1_3 
REMARK       I    between atoms: N1_3  and  C3_5 
REMARK    2  A    between atoms: C3_5  and  C4_7 
REMARK    3  A    between atoms: C5_8  and  O2_9 
REMARK    4  A    between atoms: C6_13  and  N3_14 
REMARK    5  A    between atoms: N3_14  and  N4_16 
REMARK    6  A    between atoms: C7_19  and  N5_20 
REMARK    7  A    between atoms: N5_20  and  O3_22 
REMARK    8  A    between atoms: N6_24  and  O4_25 
ROOT
HETATM    1  C4  UNL     1      22.864   7.025  -5.886  1.00  0.00     0.183 A 
HETATM    2  C5  UNL     1      23.645   6.698  -6.962  1.00  0.00     0.177 A 
HETATM    3  N2  UNL     1      24.002   7.580  -7.931  1.00  0.00    -0.317 N 
ATOM      4  H2  UNL     1      24.587   7.285  -8.713  1.00  0.00     0.169 HD
HETATM    5  C6  UNL     1      23.574   8.837  -7.840  1.00  0.00     0.170 A 
HETATM    6  C7  UNL     1      22.791   9.193  -6.777  1.00  0.00     0.199 A 
HETATM    7  N6  UNL     1      22.447   8.314  -5.829  1.00  0.00    -0.193 N 
ENDROOT
BRANCH   1   8
HETATM    8  C3  UNL     1      22.469   6.118  -4.849  1.00  0.00     0.275 C 
HETATM    9  N1  UNL     1      22.598   6.294  -3.469  1.00  0.00    -0.356 N 
ATOM     10  H1  UNL     1      23.014   7.147  -3.098  1.00  0.00     0.162 HD
HETATM   11  O1  UNL     1      21.930   5.009  -5.236  1.00  0.00    -0.266 OA
BRANCH   9  12
HETATM   12  C2  UNL     1      22.125   5.232  -2.550  1.00  0.00     0.118 C 
HETATM   13  C1  UNL     1      21.351   5.890  -1.429  1.00  0.00     0.026 C 
ENDBRANCH   9  12
ENDBRANCH   1   8
BRANCH   2  14
HETATM   14  O2  UNL     1      24.137   5.392  -7.130  1.00  0.00    -0.344 OA
ATOM     15  H2  UNL     1      23.994   4.914  -7.938  1.00  0.00     0.219 HD
ENDBRANCH   2  14
BRANCH   7  16
HETATM   16  O4  UNL     1      21.656   8.714  -4.773  1.00  0.00    -0.280 OA
ATOM     17  H4  UNL     1      21.861   9.527  -4.326  1.00  0.00     0.245 HD
ENDBRANCH   7  16
BRANCH   6  18
HETATM   18  N5  UNL     1      22.299  10.551  -6.632  1.00  0.00    -0.248 N 
ATOM     19  H5  UNL     1      21.317  10.757  -6.818  1.00  0.00     0.196 HD
BRANCH  18  20
HETATM   20  O3  UNL     1      23.070  11.467  -6.282  1.00  0.00    -0.288 OA
ATOM     21  H3  UNL     1      22.793  12.108  -5.639  1.00  0.00     0.244 HD
ENDBRANCH  18  20
ENDBRANCH   6  18
BRANCH   5  22
HETATM   22  N3  UNL     1      23.875   9.727  -8.724  1.00  0.00    -0.289 N 
ATOM     23  H3  UNL     1      24.483  10.512  -8.492  1.00  0.00     0.188 HD
BRANCH  22  24
HETATM   24  N4  UNL     1      23.350   9.585  -9.999  1.00  0.00    -0.344 N 
ATOM     25  H42 UNL     1      23.570   8.757 -10.552  1.00  0.00     0.176 HD
ATOM     26  H41 UNL     1      22.747  10.327 -10.356  1.00  0.00     0.176 HD
ENDBRANCH  22  24
ENDBRANCH   5  22
TORSDOF 8
ENDMDL
MODEL 3
REMARK VINA RESULT: -6.922866674      1.095      1.249
REMARK  8 active torsions:
REMARK  status: ('A' for Active; 'I' for Inactive)
REMARK    1  A    between atoms: C2_2  and  N1_3 
REMARK       I    between atoms: N1_3  and  C3_5 
REMARK    2  A    between atoms: C3_5  and  C4_7 
REMARK    3  A    between atoms: C5_8  and  O2_9 
REMARK    4  A    between atoms: C6_13  and  N3_14 
REMARK    5  A    between atoms: N3_14  and  N4_16 
REMARK    6  A    between atoms: C7_19  and  N5_20 
REMARK    7  A    between atoms: N5_20  and  O3_22 
REMARK    8  A    between atoms: N6_24  and  O4_25 
ROOT
HETATM    1  C4  UNL     1      22.605   6.837  -4.335  1.00  0.00     0.183 A 
HETATM    2  C5  UNL     1      22.758   5.501  -4.598  1.00  0.00     0.177 A 
HETATM    3  N2  UNL     1      22.451   4.519  -3.713  1.00  0.00    -0.317 N 
ATOM      4  H2  UNL     1      22.584   3.538  -3.958  1.00  0.00     0.169 HD
HETATM    5  C6  UNL     1      21.975   4.861  -2.518  1.00  0.00     0.170 A 
HETATM    6  C7  UNL     1      21.812   6.187  -2.226  1.00  0.00     0.199 A 
HETATM    7  N6  UNL     1      22.118   7.145  -3.108  1.00  0.00    -0.193 N 
ENDROOT
BRANCH   1   8
HETATM    8  C3  UNL     1      22.920   7.897  -5.247  1.00  0.00     0.275 C 
HETATM    9  N1  UNL     1      24.117   8.098  -5.938  1.00  0.00    -0.356 N 
ATOM     10  H1  UNL     1      24.894   7.449  -5.819  1.00  0.00     0.162 HD
HETATM   11  O1  UNL     1      21.986   8.766  -5.455  1.00  0.00    -0.266 OA
BRANCH   9  12
HETATM   12  C2  UNL     1      24.250   9.263  -6.845  1.00  0.00     0.118 C 
HETATM   13  C1  UNL     1      25.637   9.234  -7.448  1.00  0.00     0.026 C 
ENDBRANCH   9  12
ENDBRANCH   1   8
BRANCH   2  14
HETATM   14  O2  UNL     1      23.254   5.059  -5.836  1.00  0.00    -0.344 OA
ATOM     15  H2  UNL     1      23.502   4.151  -5.969  1.00  0.00     0.219 HD
ENDBRANCH   2  14
BRANCH   7  16
HETATM   16  O4  UNL     1      21.939   8.471  -2.774  1.00  0.00    -0.280 OA
ATOM     17  H4  UNL     1      21.085   8.866  -2.900  1.00  0.00     0.245 HD
ENDBRANCH   7  16
BRANCH   6  18
HETATM   18  N5  UNL     1      21.297   6.611  -0.938  1.00  0.00    -0.248 N 
ATOM     19  H5  UNL     1      20.440   6.197  -0.572  1.00  0.00     0.196 HD
BRANCH  18  20
HETATM   20  O3  UNL     1      21.897   7.482  -0.275  1.00  0.00    -0.288 OA
ATOM     21  H3  UNL     1      22.051   8.343  -0.643  1.00  0.00     0.244 HD
ENDBRANCH  18  20
ENDBRANCH   6  18
BRANCH   5  22
HETATM   22  N3  UNL     1      21.663   3.979  -1.629  1.00  0.00    -0.289 N 
ATOM     23  H3  UNL     1      20.779   4.034  -1.124  1.00  0.00     0.188 HD
BRANCH  22  24
HETATM   24  N4  UNL     1      22.563   2.955  -1.380  1.00  0.00    -0.344 N 
ATOM     25  H42 UNL     1      23.152   2.984  -0.548  1.00  0.00     0.176 HD
ATOM     26  H41 UNL     1      22.615   2.186  -2.049  1.00  0.00     0.176 HD
ENDBRANCH  22  24
ENDBRANCH   5  22
TORSDOF 8
ENDMDL
MODEL 4
REMARK VINA RESULT: -6.904163723      2.361      6.026
REMARK  8 active torsions:
REMARK  status: ('A' for Active; 'I' for Inactive)
REMARK    1  A    between atoms: C2_2  and  N1_3 
REMARK       I    between atoms: N1_3  and  C3_5 
REMARK    2  A    between atoms: C3_5  and  C4_7 
REMARK    3  A    between atoms: C5_8  and  O2_9 
REMARK    4  A    between atoms: C6_13  and  N3_14 
REMARK    5  A    between atoms: N3_14  and  N4_16 
REMARK    6  A    between atoms: C7_19  and  N5_20 
REMARK    7  A    between atoms: N5_20  and  O3_22 
REMARK    8  A    between atoms: N6_24  and  O4_25 
ROOT
HETATM    1  C4  UNL     1      22.069   7.133  -6.416  1.00  0.00     0.183 A 
HETATM    2  C5  UNL     1      21.767   6.829  -7.717  1.00  0.00     0.177 A 
HETATM    3  N2  UNL     1      22.036   7.649  -8.765  1.00  0.00    -0.317 N 
ATOM      4  H2  UNL     1      21.791   7.375  -9.716  1.00  0.00     0.169 HD
HETATM    5  C6  UNL     1      22.626   8.818  -8.527  1.00  0.00     0.170 A 
HETATM    6  C7  UNL     1      22.939   9.150  -7.237  1.00  0.00     0.199 A 
HETATM    7  N6  UNL     1      22.668   8.332  -6.214  1.00  0.00    -0.193 N 
ENDROOT
BRANCH   1   8
HETATM    8  C3  UNL     1      21.798   6.290  -5.289  1.00  0.00     0.275 C 
HETATM    9  N1  UNL     1      22.699   5.854  -4.316  1.00  0.00    -0.356 N 
ATOM     10  H1  UNL     1      23.678   6.134  -4.360  1.00  0.00     0.162 HD
HETATM   11  O1  UNL     1      20.576   5.889  -5.159  1.00  0.00    -0.266 OA
BRANCH   9  12
HETATM   12  C2  UNL     1      22.222   4.979  -3.218  1.00  0.00     0.118 C 
HETATM   13  C1  UNL     1      21.985   5.843  -1.998  1.00  0.00     0.026 C 
ENDBRANCH   9  12
ENDBRANCH   1   8
BRANCH   2  14
HETATM   14  O2  UNL     1      21.145   5.614  -8.051  1.00  0.00    -0.344 OA
ATOM     15  H2  UNL     1      20.633   5.528  -8.847  1.00  0.00     0.219 HD
ENDBRANCH   2  14
BRANCH   7  16
HETATM   16  O4  UNL     1      23.000   8.705  -4.929  1.00  0.00    -0.280 OA
ATOM     17  H4  UNL     1      23.185   9.619  -4.748  1.00  0.00     0.245 HD
ENDBRANCH   7  16
BRANCH   6  18
HETATM   18  N5  UNL     1      23.582  10.413  -6.925  1.00  0.00    -0.248 N 
ATOM     19  H5  UNL     1      24.542  10.581  -7.226  1.00  0.00     0.196 HD
BRANCH  18  20
HETATM   20  O3  UNL     1      22.966  11.293  -6.290  1.00  0.00    -0.288 OA
ATOM     21  H3  UNL     1      23.285  12.188  -6.280  1.00  0.00     0.244 HD
ENDBRANCH  18  20
ENDBRANCH   6  18
BRANCH   5  22
HETATM   22  N3  UNL     1      22.911   9.645  -9.475  1.00  0.00    -0.289 N 
ATOM     23  H3  UNL     1      22.852  10.652  -9.327  1.00  0.00     0.188 HD
BRANCH  22  24
HETATM   24  N4  UNL     1      23.297   9.127 -10.701  1.00  0.00    -0.344 N 
ATOM     25  H42 UNL     1      22.904   8.244 -11.028  1.00  0.00     0.176 HD
ATOM     26  H41 UNL     1      23.977   9.651 -11.252  1.00  0.00     0.176 HD
ENDBRANCH  22  24
ENDBRANCH   5  22
TORSDOF 8
ENDMDL
MODEL 5
REMARK VINA RESULT: -6.790640012      1.170      2.800
REMARK  8 active torsions:
REMARK  status: ('A' for Active; 'I' for Inactive)
REMARK    1  A    between atoms: C2_2  and  N1_3 
REMARK       I    between atoms: N1_3  and  C3_5 
REMARK    2  A    between atoms: C3_5  and  C4_7 
REMARK    3  A    between atoms: C5_8  and  O2_9 
REMARK    4  A    between atoms: C6_13  and  N3_14 
REMARK    5  A    between atoms: N3_14  and  N4_16 
REMARK    6  A    between atoms: C7_19  and  N5_20 
REMARK    7  A    between atoms: N5_20  and  O3_22 
REMARK    8  A    between atoms: N6_24  and  O4_25 
ROOT
HETATM    1  C4  UNL     1      22.635   6.733  -4.382  1.00  0.00     0.183 A 
HETATM    2  C5  UNL     1      22.241   7.063  -3.112  1.00  0.00     0.177 A 
HETATM    3  N2  UNL     1      22.037   6.152  -2.126  1.00  0.00    -0.317 N 
ATOM      4  H2  UNL     1      21.744   6.450  -1.196  1.00  0.00     0.169 HD
HETATM    5  C6  UNL     1      22.228   4.863  -2.397  1.00  0.00     0.170 A 
HETATM    6  C7  UNL     1      22.621   4.503  -3.656  1.00  0.00     0.199 A 
HETATM    7  N6  UNL     1      22.819   5.411  -4.619  1.00  0.00    -0.193 N 
ENDROOT
BRANCH   1   8
HETATM    8  C3  UNL     1      22.858   7.669  -5.444  1.00  0.00     0.275 C 
HETATM    9  N1  UNL     1      22.305   7.649  -6.727  1.00  0.00    -0.356 N 
ATOM     10  H1  UNL     1      21.663   6.905  -6.997  1.00  0.00     0.162 HD
HETATM   11  O1  UNL     1      23.662   8.647  -5.183  1.00  0.00    -0.266 OA
BRANCH   9  12
HETATM   12  C2  UNL     1      22.660   8.717  -7.692  1.00  0.00     0.118 C 
HETATM   13  C1  UNL     1      21.944   8.431  -8.994  1.00  0.00     0.026 C 
ENDBRANCH   9  12
ENDBRANCH   1   8
BRANCH   2  14
HETATM   14  O2  UNL     1      22.020   8.402  -2.747  1.00  0.00    -0.344 OA
ATOM     15  H2  UNL     1      22.428   9.114  -3.224  1.00  0.00     0.219 HD
ENDBRANCH   2  14
BRANCH   7  16
HETATM   16  O4  UNL     1      23.215   5.006  -5.876  1.00  0.00    -0.280 OA
ATOM     17  H4  UNL     1      23.021   5.562  -6.621  1.00  0.00     0.245 HD
ENDBRANCH   7  16
BRANCH   6  18
HETATM   18  N5  UNL     1      22.842   3.111  -4.002  1.00  0.00    -0.248 N 
ATOM     19  H5  UNL     1      22.409   2.721  -4.839  1.00  0.00     0.196 HD
BRANCH  18  20
HETATM   20  O3  UNL     1      23.558   2.389  -3.279  1.00  0.00    -0.288 OA
ATOM     21  H3  UNL     1      24.445   2.175  -3.544  1.00  0.00     0.244 HD
ENDBRANCH  18  20
ENDBRANCH   6  18
BRANCH   5  22
HETATM   22  N3  UNL     1      22.053   3.945  -1.507  1.00  0.00    -0.289 N 
ATOM     23  H3  UNL     1      22.841   3.412  -1.142  1.00  0.00     0.188 HD
BRANCH  22  24
HETATM   24  N4  UNL     1      20.762   3.704  -1.062  1.00  0.00    -0.344 N 
ATOM     25  H42 UNL     1      19.998   4.308  -1.364  1.00  0.00     0.176 HD
ATOM     26  H41 UNL     1      20.610   2.916  -0.433  1.00  0.00     0.176 HD
ENDBRANCH  22  24
ENDBRANCH   5  22
TORSDOF 8
ENDMDL
