MODEL 1
REMARK VINA RESULT: -5.914873138      0.000      0.000
REMARK  1 active torsions:
REMARK  status: ('A' for Active; 'I' for Inactive)
REMARK    1  A    between atoms: C2_3  and  C3_4 
ROOT
HETATM    1  N1  UNL     1      95.490  13.709 133.139  1.00  0.00    -0.196 NA
HETATM    2  C1  UNL     1      94.454  13.898 132.653  1.00  0.00     0.076 C 
HETATM    3  C2  UNL     1      93.148  14.149 132.017  1.00  0.00     0.104 C 
HETATM    4  C4  UNL     1      93.206  13.894 130.562  1.00  0.00     0.032 C 
HETATM    5  C5  UNL     1      92.386  12.793 130.030  1.00  0.00     0.002 C 
HETATM    6  C6  UNL     1      92.134  11.640 130.918  1.00  0.00     0.000 C 
HETATM    7  C7  UNL     1      92.649  11.819 132.326  1.00  0.00     0.002 C 
HETATM    8  C8  UNL     1      92.169  13.216 132.744  1.00  0.00     0.032 C 
ENDROOT
BRANCH   3   9
HETATM    9  C3  UNL     1      92.796  15.566 132.321  1.00  0.00     0.109 C 
HETATM   10  N2  UNL     1      92.913  16.083 133.496  1.00  0.00    -0.390 N 
ATOM     11  H22 UNL     1      93.265  15.457 134.221  1.00  0.00     0.157 HD
ATOM     12  H21 UNL     1      92.672  17.052 133.704  1.00  0.00     0.157 HD
HETATM   13  N3  UNL     1      92.299  16.447 131.299  1.00  0.00    -0.086 NA
ENDBRANCH   3   9
TORSDOF 1
ENDMDL
MODEL 2
REMARK VINA RESULT: -5.886532258      1.731      2.752
REMARK  1 active torsions:
REMARK  status: ('A' for Active; 'I' for Inactive)
REMARK    1  A    between atoms: C2_3  and  C3_4 
ROOT
HETATM    1  N1  UNL     1      95.649  13.631 132.772  1.00  0.00    -0.196 NA
HETATM    2  C1  UNL     1      94.528  13.922 132.696  1.00  0.00     0.076 C 
HETATM    3  C2  UNL     1      93.109  14.311 132.613  1.00  0.00     0.104 C 
HETATM    4  C4  UNL     1      92.965  15.773 132.451  1.00  0.00     0.032 C 
HETATM    5  C5  UNL     1      92.375  16.263 131.194  1.00  0.00     0.002 C 
HETATM    6  C6  UNL     1      92.595  15.457 129.976  1.00  0.00     0.000 C 
HETATM    7  C7  UNL     1      93.294  14.141 130.224  1.00  0.00     0.002 C 
HETATM    8  C8  UNL     1      92.553  13.523 131.418  1.00  0.00     0.032 C 
ENDROOT
BRANCH   3   9
HETATM    9  C3  UNL     1      92.465  13.823 133.867  1.00  0.00     0.109 C 
HETATM   10  N2  UNL     1      92.038  14.614 134.791  1.00  0.00    -0.390 N 
ATOM     11  H22 UNL     1      92.167  15.611 134.615  1.00  0.00     0.157 HD
ATOM     12  H21 UNL     1      91.597  14.281 135.649  1.00  0.00     0.157 HD
HETATM   13  N3  UNL     1      92.283  12.419 134.115  1.00  0.00    -0.086 NA
ENDBRANCH   3   9
TORSDOF 1
ENDMDL
MODEL 3
REMARK VINA RESULT: -5.223080005      2.206      3.788
REMARK  1 active torsions:
REMARK  status: ('A' for Active; 'I' for Inactive)
REMARK    1  A    between atoms: C2_3  and  C3_4 
ROOT
HETATM    1  N1  UNL     1      95.663  13.746 132.724  1.00  0.00    -0.196 NA
HETATM    2  C1  UNL     1      94.518  13.616 132.854  1.00  0.00     0.076 C 
HETATM    3  C2  UNL     1      93.066  13.432 133.033  1.00  0.00     0.104 C 
HETATM    4  C4  UNL     1      92.739  13.102 134.436  1.00  0.00     0.032 C 
HETATM    5  C5  UNL     1      91.930  14.072 135.193  1.00  0.00     0.002 C 
HETATM    6  C6  UNL     1      92.068  15.499 134.840  1.00  0.00     0.000 C 
HETATM    7  C7  UNL     1      92.936  15.756 133.631  1.00  0.00     0.002 C 
HETATM    8  C8  UNL     1      92.441  14.758 132.574  1.00  0.00     0.032 C 
ENDROOT
BRANCH   3   9
HETATM    9  C3  UNL     1      92.660  12.346 132.095  1.00  0.00     0.109 C 
HETATM   10  N2  UNL     1      92.477  12.538 130.834  1.00  0.00    -0.390 N 
ATOM     11  H22 UNL     1      92.629  13.492 130.505  1.00  0.00     0.157 HD
ATOM     12  H21 UNL     1      92.200  11.795 130.193  1.00  0.00     0.157 HD
HETATM   13  N3  UNL     1      92.446  11.002 132.559  1.00  0.00    -0.086 NA
ENDBRANCH   3   9
TORSDOF 1
ENDMDL
MODEL 4
REMARK VINA RESULT: -5.066901315      5.062      6.286
REMARK  1 active torsions:
REMARK  status: ('A' for Active; 'I' for Inactive)
REMARK    1  A    between atoms: C2_3  and  C3_4 
ROOT
HETATM    1  N1  UNL     1      89.926  14.599 138.945  1.00  0.00    -0.196 NA
HETATM    2  C1  UNL     1      90.958  14.591 138.413  1.00  0.00     0.076 C 
HETATM    3  C2  UNL     1      92.273  14.558 137.747  1.00  0.00     0.104 C 
HETATM    4  C4  UNL     1      92.575  13.207 137.230  1.00  0.00     0.032 C 
HETATM    5  C5  UNL     1      92.693  13.047 135.770  1.00  0.00     0.002 C 
HETATM    6  C6  UNL     1      91.885  13.942 134.918  1.00  0.00     0.000 C 
HETATM    7  C7  UNL     1      91.137  15.011 135.679  1.00  0.00     0.002 C 
HETATM    8  C8  UNL     1      92.178  15.612 136.635  1.00  0.00     0.032 C 
ENDROOT
BRANCH   3   9
HETATM    9  C3  UNL     1      93.270  15.002 138.763  1.00  0.00     0.109 C 
HETATM   10  N2  UNL     1      94.255  14.266 139.149  1.00  0.00    -0.390 N 
ATOM     11  H22 UNL     1      94.317  13.345 138.713  1.00  0.00     0.157 HD
ATOM     12  H21 UNL     1      94.938  14.569 139.844  1.00  0.00     0.157 HD
HETATM   13  N3  UNL     1      93.183  16.299 139.377  1.00  0.00    -0.086 NA
ENDBRANCH   3   9
TORSDOF 1
ENDMDL
MODEL 5
REMARK VINA RESULT: -5.062293697      2.317      4.050
REMARK  1 active torsions:
REMARK  status: ('A' for Active; 'I' for Inactive)
REMARK    1  A    between atoms: C2_3  and  C3_4 
ROOT
HETATM    1  N1  UNL     1      94.025  15.005 128.671  1.00  0.00    -0.196 NA
HETATM    2  C1  UNL     1      93.535  14.878 129.715  1.00  0.00     0.076 C 
HETATM    3  C2  UNL     1      92.934  14.706 131.051  1.00  0.00     0.104 C 
HETATM    4  C4  UNL     1      93.909  15.015 132.118  1.00  0.00     0.032 C 
HETATM    5  C5  UNL     1      93.624  16.170 132.987  1.00  0.00     0.002 C 
HETATM    6  C6  UNL     1      92.872  17.297 132.399  1.00  0.00     0.000 C 
HETATM    7  C7  UNL     1      92.369  17.041 130.998  1.00  0.00     0.002 C 
HETATM    8  C8  UNL     1      91.723  15.650 131.062  1.00  0.00     0.032 C 
ENDROOT
BRANCH   3   9
HETATM    9  C3  UNL     1      92.460  13.294 131.120  1.00  0.00     0.109 C 
HETATM   10  N2  UNL     1      92.445  12.506 130.100  1.00  0.00    -0.390 N 
ATOM     11  H22 UNL     1      92.782  12.909 129.226  1.00  0.00     0.157 HD
ATOM     12  H21 UNL     1      92.120  11.540 130.148  1.00  0.00     0.157 HD
HETATM   13  N3  UNL     1      91.984  12.727 132.354  1.00  0.00    -0.086 NA
ENDBRANCH   3   9
TORSDOF 1
ENDMDL
