MODEL 1
REMARK VINA RESULT: -6.121401637      0.000      0.000
REMARK  5 active torsions:
REMARK  status: ('A' for Active; 'I' for Inactive)
REMARK    1  A    between atoms: C2_2  and  C3_3 
REMARK    2  A    between atoms: C3_3  and  N1_6 
REMARK    3  A    between atoms: N1_6  and  C6_8 
REMARK    4  A    between atoms: C11_13  and  C12_14 
REMARK       I    between atoms: C12_14  and  N2_16 
REMARK    5  A    between atoms: N2_16  and  N3_18 
ROOT
HETATM    1  C6  UNL     1      12.063  16.661  31.072  1.00  0.00     0.044 A 
HETATM    2  C7  UNL     1      11.237  17.206  32.064  1.00  0.00     0.030 A 
HETATM    3  C8  UNL     1       9.947  16.763  32.253  1.00  0.00     0.002 A 
HETATM    4  C9  UNL     1       9.473  15.771  31.449  1.00  0.00     0.001 A 
HETATM    5  C10 UNL     1      10.268  15.228  30.473  1.00  0.00     0.019 A 
HETATM    6  C11 UNL     1      11.584  15.644  30.241  1.00  0.00     0.060 A 
ENDROOT
BRANCH   1   7
HETATM    7  N1  UNL     1      13.417  17.034  30.956  1.00  0.00    -0.381 N 
ATOM      8  H1  UNL     1      13.610  17.716  30.223  1.00  0.00     0.160 HD
BRANCH   7   9
HETATM    9  C3  UNL     1      14.572  16.612  31.702  1.00  0.00     0.022 C 
HETATM   10  C4  UNL     1      14.215  15.540  32.672  1.00  0.00     0.038 C 
HETATM   11  C5  UNL     1      15.484  15.827  30.662  1.00  0.00     0.038 C 
BRANCH   9  12
HETATM   12  C2  UNL     1      15.470  17.685  32.194  1.00  0.00     0.025 C 
HETATM   13  C1  UNL     1      16.747  17.346  32.835  1.00  0.00     0.007 C 
ENDBRANCH   9  12
ENDBRANCH   7   9
ENDBRANCH   1   7
BRANCH   6  14
HETATM   14  C12 UNL     1      12.315  15.065  29.120  1.00  0.00     0.271 C 
HETATM   15  O1  UNL     1      13.126  14.113  29.194  1.00  0.00    -0.266 OA
HETATM   16  N2  UNL     1      12.141  15.572  27.810  1.00  0.00    -0.272 N 
ATOM     17  H2  UNL     1      11.506  16.347  27.623  1.00  0.00     0.189 HD
BRANCH  16  18
HETATM   18  N3  UNL     1      12.885  14.961  26.766  1.00  0.00    -0.342 N 
ATOM     19  H32 UNL     1      12.441  14.751  25.872  1.00  0.00     0.176 HD
ATOM     20  H31 UNL     1      13.866  14.747  26.948  1.00  0.00     0.176 HD
ENDBRANCH  16  18
ENDBRANCH   6  14
TORSDOF 5
ENDMDL
MODEL 2
REMARK VINA RESULT: -6.064193630      2.932      5.746
REMARK  5 active torsions:
REMARK  status: ('A' for Active; 'I' for Inactive)
REMARK    1  A    between atoms: C2_2  and  C3_3 
REMARK    2  A    between atoms: C3_3  and  N1_6 
REMARK    3  A    between atoms: N1_6  and  C6_8 
REMARK    4  A    between atoms: C11_13  and  C12_14 
REMARK       I    between atoms: C12_14  and  N2_16 
REMARK    5  A    between atoms: N2_16  and  N3_18 
ROOT
HETATM    1  C6  UNL     1      16.567  16.225  31.994  1.00  0.00     0.044 A 
HETATM    2  C7  UNL     1      16.665  17.503  32.559  1.00  0.00     0.030 A 
HETATM    3  C8  UNL     1      17.683  17.835  33.424  1.00  0.00     0.002 A 
HETATM    4  C9  UNL     1      18.613  16.888  33.732  1.00  0.00     0.001 A 
HETATM    5  C10 UNL     1      18.530  15.631  33.189  1.00  0.00     0.019 A 
HETATM    6  C11 UNL     1      17.514  15.245  32.307  1.00  0.00     0.060 A 
ENDROOT
BRANCH   1   7
HETATM    7  N1  UNL     1      15.593  15.923  31.022  1.00  0.00    -0.381 N 
ATOM      8  H1  UNL     1      15.966  15.572  30.140  1.00  0.00     0.160 HD
BRANCH   7   9
HETATM    9  C3  UNL     1      14.159  16.028  31.068  1.00  0.00     0.022 C 
HETATM   10  C4  UNL     1      13.528  15.135  30.056  1.00  0.00     0.038 C 
HETATM   11  C5  UNL     1      13.727  15.339  32.434  1.00  0.00     0.038 C 
BRANCH   9  12
HETATM   12  C2  UNL     1      13.600  17.397  31.190  1.00  0.00     0.025 C 
HETATM   13  C1  UNL     1      12.170  17.636  30.962  1.00  0.00     0.007 C 
ENDBRANCH   9  12
ENDBRANCH   7   9
ENDBRANCH   1   7
BRANCH   6  14
HETATM   14  C12 UNL     1      17.467  13.860  31.855  1.00  0.00     0.271 C 
HETATM   15  O1  UNL     1      18.315  13.304  31.120  1.00  0.00    -0.266 OA
HETATM   16  N2  UNL     1      16.400  13.014  32.244  1.00  0.00    -0.272 N 
ATOM     17  H2  UNL     1      15.648  13.353  32.843  1.00  0.00     0.189 HD
BRANCH  16  18
HETATM   18  N3  UNL     1      16.416  11.676  31.767  1.00  0.00    -0.342 N 
ATOM     19  H32 UNL     1      17.237  11.311  31.283  1.00  0.00     0.176 HD
ATOM     20  H31 UNL     1      15.583  11.109  31.927  1.00  0.00     0.176 HD
ENDBRANCH  16  18
ENDBRANCH   6  14
TORSDOF 5
ENDMDL
MODEL 3
REMARK VINA RESULT: -6.020261657      1.343      1.370
REMARK  5 active torsions:
REMARK  status: ('A' for Active; 'I' for Inactive)
REMARK    1  A    between atoms: C2_2  and  C3_3 
REMARK    2  A    between atoms: C3_3  and  N1_6 
REMARK    3  A    between atoms: N1_6  and  C6_8 
REMARK    4  A    between atoms: C11_13  and  C12_14 
REMARK       I    between atoms: C12_14  and  N2_16 
REMARK    5  A    between atoms: N2_16  and  N3_18 
ROOT
HETATM    1  C6  UNL     1      12.805  15.226  31.683  1.00  0.00     0.044 A 
HETATM    2  C7  UNL     1      12.008  15.396  32.824  1.00  0.00     0.030 A 
HETATM    3  C8  UNL     1      10.665  15.684  32.730  1.00  0.00     0.002 A 
HETATM    4  C9  UNL     1      10.108  15.806  31.493  1.00  0.00     0.001 A 
HETATM    5  C10 UNL     1      10.874  15.644  30.367  1.00  0.00     0.019 A 
HETATM    6  C11 UNL     1      12.242  15.352  30.409  1.00  0.00     0.060 A 
ENDROOT
BRANCH   1   7
HETATM    7  N1  UNL     1      14.150  14.817  31.780  1.00  0.00    -0.381 N 
ATOM      8  H1  UNL     1      14.357  13.925  31.331  1.00  0.00     0.160 HD
BRANCH   7   9
HETATM    9  C3  UNL     1      15.279  15.451  32.406  1.00  0.00     0.022 C 
HETATM   10  C4  UNL     1      15.485  14.925  33.784  1.00  0.00     0.038 C 
HETATM   11  C5  UNL     1      16.556  14.891  31.643  1.00  0.00     0.038 C 
BRANCH   9  12
HETATM   12  C2  UNL     1      15.397  16.919  32.228  1.00  0.00     0.025 C 
HETATM   13  C1  UNL     1      16.577  17.634  32.728  1.00  0.00     0.007 C 
ENDBRANCH   9  12
ENDBRANCH   7   9
ENDBRANCH   1   7
BRANCH   6  14
HETATM   14  C12 UNL     1      12.984  15.287  29.156  1.00  0.00     0.271 C 
HETATM   15  O1  UNL     1      14.223  15.417  29.035  1.00  0.00    -0.266 OA
HETATM   16  N2  UNL     1      12.308  15.059  27.933  1.00  0.00    -0.272 N 
ATOM     17  H2  UNL     1      11.296  14.936  27.903  1.00  0.00     0.189 HD
BRANCH  16  18
HETATM   18  N3  UNL     1      13.091  15.009  26.749  1.00  0.00    -0.342 N 
ATOM     19  H32 UNL     1      13.825  15.700  26.588  1.00  0.00     0.176 HD
ATOM     20  H31 UNL     1      12.890  14.265  26.081  1.00  0.00     0.176 HD
ENDBRANCH  16  18
ENDBRANCH   6  14
TORSDOF 5
ENDMDL
MODEL 4
REMARK VINA RESULT: -5.962783657      2.188      2.440
REMARK  5 active torsions:
REMARK  status: ('A' for Active; 'I' for Inactive)
REMARK    1  A    between atoms: C2_2  and  C3_3 
REMARK    2  A    between atoms: C3_3  and  N1_6 
REMARK    3  A    between atoms: N1_6  and  C6_8 
REMARK    4  A    between atoms: C11_13  and  C12_14 
REMARK       I    between atoms: C12_14  and  N2_16 
REMARK    5  A    between atoms: N2_16  and  N3_18 
ROOT
HETATM    1  C6  UNL     1      13.842  16.124  31.175  1.00  0.00     0.044 A 
HETATM    2  C7  UNL     1      13.450  17.469  31.170  1.00  0.00     0.030 A 
HETATM    3  C8  UNL     1      12.122  17.835  31.173  1.00  0.00     0.002 A 
HETATM    4  C9  UNL     1      11.176  16.855  31.182  1.00  0.00     0.001 A 
HETATM    5  C10 UNL     1      11.543  15.533  31.186  1.00  0.00     0.019 A 
HETATM    6  C11 UNL     1      12.878  15.112  31.181  1.00  0.00     0.060 A 
ENDROOT
BRANCH   1   7
HETATM    7  N1  UNL     1      15.197  15.754  31.288  1.00  0.00    -0.381 N 
ATOM      8  H1  UNL     1      15.559  15.219  30.499  1.00  0.00     0.160 HD
BRANCH   7   9
HETATM    9  C3  UNL     1      16.153  16.005  32.333  1.00  0.00     0.022 C 
HETATM   10  C4  UNL     1      15.871  15.159  33.525  1.00  0.00     0.038 C 
HETATM   11  C5  UNL     1      17.524  15.394  31.809  1.00  0.00     0.038 C 
BRANCH   9  12
HETATM   12  C2  UNL     1      16.495  17.426  32.588  1.00  0.00     0.025 C 
HETATM   13  C1  UNL     1      17.722  17.774  33.316  1.00  0.00     0.007 C 
ENDBRANCH   9  12
ENDBRANCH   7   9
ENDBRANCH   1   7
BRANCH   6  14
HETATM   14  C12 UNL     1      13.161  13.684  31.096  1.00  0.00     0.271 C 
HETATM   15  O1  UNL     1      13.778  13.012  31.953  1.00  0.00    -0.266 OA
HETATM   16  N2  UNL     1      12.730  12.932  29.977  1.00  0.00    -0.272 N 
ATOM     17  H2  UNL     1      12.216  13.369  29.212  1.00  0.00     0.189 HD
BRANCH  16  18
HETATM   18  N3  UNL     1      13.041  11.547  29.957  1.00  0.00    -0.342 N 
ATOM     19  H32 UNL     1      13.964  11.222  30.248  1.00  0.00     0.176 HD
ATOM     20  H31 UNL     1      12.313  10.904  29.645  1.00  0.00     0.176 HD
ENDBRANCH  16  18
ENDBRANCH   6  14
TORSDOF 5
ENDMDL
MODEL 5
REMARK VINA RESULT: -5.898048525      2.922      5.795
REMARK  5 active torsions:
REMARK  status: ('A' for Active; 'I' for Inactive)
REMARK    1  A    between atoms: C2_2  and  C3_3 
REMARK    2  A    between atoms: C3_3  and  N1_6 
REMARK    3  A    between atoms: N1_6  and  C6_8 
REMARK    4  A    between atoms: C11_13  and  C12_14 
REMARK       I    between atoms: C12_14  and  N2_16 
REMARK    5  A    between atoms: N2_16  and  N3_18 
ROOT
HETATM    1  C6  UNL     1      16.510  16.230  31.991  1.00  0.00     0.044 A 
HETATM    2  C7  UNL     1      16.602  17.513  32.547  1.00  0.00     0.030 A 
HETATM    3  C8  UNL     1      17.638  17.866  33.384  1.00  0.00     0.002 A 
HETATM    4  C9  UNL     1      18.589  16.935  33.672  1.00  0.00     0.001 A 
HETATM    5  C10 UNL     1      18.513  15.674  33.138  1.00  0.00     0.019 A 
HETATM    6  C11 UNL     1      17.481  15.268  32.284  1.00  0.00     0.060 A 
ENDROOT
BRANCH   1   7
HETATM    7  N1  UNL     1      15.516  15.908  31.046  1.00  0.00    -0.381 N 
ATOM      8  H1  UNL     1      15.856  15.801  30.091  1.00  0.00     0.160 HD
BRANCH   7   9
HETATM    9  C3  UNL     1      14.101  15.706  31.206  1.00  0.00     0.022 C 
HETATM   10  C4  UNL     1      13.765  15.408  32.626  1.00  0.00     0.038 C 
HETATM   11  C5  UNL     1      13.443  17.138  31.002  1.00  0.00     0.038 C 
BRANCH   9  12
HETATM   12  C2  UNL     1      13.431  14.877  30.174  1.00  0.00     0.025 C 
HETATM   13  C1  UNL     1      12.573  15.506  29.163  1.00  0.00     0.007 C 
ENDBRANCH   9  12
ENDBRANCH   7   9
ENDBRANCH   1   7
BRANCH   6  14
HETATM   14  C12 UNL     1      17.444  13.879  31.841  1.00  0.00     0.271 C 
HETATM   15  O1  UNL     1      18.295  13.326  31.108  1.00  0.00    -0.266 OA
HETATM   16  N2  UNL     1      16.385  13.027  32.236  1.00  0.00    -0.272 N 
ATOM     17  H2  UNL     1      15.631  13.364  32.835  1.00  0.00     0.189 HD
BRANCH  16  18
HETATM   18  N3  UNL     1      16.410  11.687  31.767  1.00  0.00    -0.342 N 
ATOM     19  H32 UNL     1      16.092  10.926  32.367  1.00  0.00     0.176 HD
ATOM     20  H31 UNL     1      16.754  11.525  30.821  1.00  0.00     0.176 HD
ENDBRANCH  16  18
ENDBRANCH   6  14
TORSDOF 5
ENDMDL
