MODEL 1
REMARK VINA RESULT: -6.763762257      0.000      0.000
REMARK  5 active torsions:
REMARK  status: ('A' for Active; 'I' for Inactive)
REMARK    1  A    between atoms: C2_2  and  C3_3 
REMARK    2  A    between atoms: C3_3  and  C4_4 
REMARK    3  A    between atoms: C4_4  and  S1_5 
REMARK    4  A    between atoms: S1_5  and  C5_6 
REMARK    5  A    between atoms: C6_9  and  N2_10 
ROOT
HETATM    1  C5  UNL     1      50.024 -45.409  -1.829  1.00  0.00     0.096 A 
HETATM    2  N1  UNL     1      51.092 -44.814  -2.356  1.00  0.00    -0.185 N 
ATOM      3  H1  UNL     1      51.407 -45.066  -3.293  1.00  0.00     0.185 HD
HETATM    4  C6  UNL     1      51.762 -43.871  -1.647  1.00  0.00     0.678 A 
HETATM    5  N3  UNL     1      51.337 -43.551  -0.418  1.00  0.00    -0.177 N 
ATOM      6  H3  UNL     1      51.850 -42.841   0.104  1.00  0.00     0.186 HD
HETATM    7  C7  UNL     1      50.270 -44.118   0.156  1.00  0.00     0.126 A 
HETATM    8  C8  UNL     1      49.590 -45.080  -0.574  1.00  0.00     0.020 A 
HETATM    9  C9  UNL     1      48.407 -45.703   0.071  1.00  0.00     0.047 C 
HETATM   10  C10 UNL     1      48.757 -45.995   1.504  1.00  0.00     0.024 C 
HETATM   11  C11 UNL     1      49.036 -44.715   2.267  1.00  0.00     0.121 C 
HETATM   12  N4  UNL     1      49.809 -43.788   1.461  1.00  0.00    -0.375 N 
ATOM     13  H4  UNL     1      50.029 -42.869   1.843  1.00  0.00     0.161 HD
ENDROOT
BRANCH   1  14
HETATM   14  S1  UNL     1      49.159 -46.638  -2.769  1.00  0.00    -0.111 SA
BRANCH  14  15
HETATM   15  C4  UNL     1      49.875 -46.664  -4.437  1.00  0.00     0.081 C 
BRANCH  15  16
HETATM   16  C3  UNL     1      50.760 -47.877  -4.617  1.00  0.00     0.010 C 
BRANCH  16  17
HETATM   17  C2  UNL     1      50.277 -48.947  -3.664  1.00  0.00    -0.004 C 
HETATM   18  C1  UNL     1      49.542 -50.026  -4.424  1.00  0.00     0.005 C 
ENDBRANCH  16  17
ENDBRANCH  15  16
ENDBRANCH  14  15
ENDBRANCH   1  14
BRANCH   4  19
HETATM   19  N2  UNL     1      52.792 -43.317  -2.190  1.00  0.00    -0.234 N 
ATOM     20  H22 UNL     1      53.563 -43.858  -2.581  1.00  0.00     0.174 HD
ATOM     21  H21 UNL     1      52.829 -42.298  -2.226  1.00  0.00     0.174 HD
ENDBRANCH   4  19
TORSDOF 5
ENDMDL
MODEL 2
REMARK VINA RESULT: -6.520770799      5.960      8.532
REMARK  5 active torsions:
REMARK  status: ('A' for Active; 'I' for Inactive)
REMARK    1  A    between atoms: C2_2  and  C3_3 
REMARK    2  A    between atoms: C3_3  and  C4_4 
REMARK    3  A    between atoms: C4_4  and  S1_5 
REMARK    4  A    between atoms: S1_5  and  C5_6 
REMARK    5  A    between atoms: C6_9  and  N2_10 
ROOT
HETATM    1  C5  UNL     1      51.917 -44.229  -7.966  1.00  0.00     0.096 A 
HETATM    2  N1  UNL     1      53.223 -44.457  -8.087  1.00  0.00    -0.185 N 
ATOM      3  H1  UNL     1      53.719 -44.980  -7.365  1.00  0.00     0.185 HD
HETATM    4  C6  UNL     1      53.895 -43.995  -9.170  1.00  0.00     0.678 A 
HETATM    5  N3  UNL     1      53.231 -43.309 -10.109  1.00  0.00    -0.177 N 
ATOM      6  H3  UNL     1      53.748 -42.966 -10.918  1.00  0.00     0.186 HD
HETATM    7  C7  UNL     1      51.920 -43.053 -10.036  1.00  0.00     0.126 A 
HETATM    8  C8  UNL     1      51.239 -43.529  -8.926  1.00  0.00     0.020 A 
HETATM    9  C9  UNL     1      49.784 -43.241  -8.854  1.00  0.00     0.047 C 
HETATM   10  C10 UNL     1      49.570 -41.813  -9.277  1.00  0.00     0.024 C 
HETATM   11  C11 UNL     1      49.976 -41.610 -10.724  1.00  0.00     0.121 C 
HETATM   12  N4  UNL     1      51.203 -42.324 -11.025  1.00  0.00    -0.375 N 
ATOM     13  H4  UNL     1      51.563 -42.303 -11.979  1.00  0.00     0.161 HD
ENDROOT
BRANCH   1  14
HETATM   14  S1  UNL     1      51.053 -44.841  -6.544  1.00  0.00    -0.111 SA
BRANCH  14  15
HETATM   15  C4  UNL     1      51.431 -43.739  -5.151  1.00  0.00     0.081 C 
BRANCH  15  16
HETATM   16  C3  UNL     1      51.440 -44.511  -3.851  1.00  0.00     0.010 C 
BRANCH  16  17
HETATM   17  C2  UNL     1      52.087 -43.638  -2.799  1.00  0.00    -0.004 C 
HETATM   18  C1  UNL     1      51.741 -44.144  -1.419  1.00  0.00     0.005 C 
ENDBRANCH  16  17
ENDBRANCH  15  16
ENDBRANCH  14  15
ENDBRANCH   1  14
BRANCH   4  19
HETATM   19  N2  UNL     1      55.160 -44.235  -9.253  1.00  0.00    -0.234 N 
ATOM     20  H22 UNL     1      55.846 -43.764  -8.663  1.00  0.00     0.174 HD
ATOM     21  H21 UNL     1      55.476 -44.923  -9.935  1.00  0.00     0.174 HD
ENDBRANCH   4  19
TORSDOF 5
ENDMDL
MODEL 3
REMARK VINA RESULT: -6.459297728      1.748      2.078
REMARK  5 active torsions:
REMARK  status: ('A' for Active; 'I' for Inactive)
REMARK    1  A    between atoms: C2_2  and  C3_3 
REMARK    2  A    between atoms: C3_3  and  C4_4 
REMARK    3  A    between atoms: C4_4  and  S1_5 
REMARK    4  A    between atoms: S1_5  and  C5_6 
REMARK    5  A    between atoms: C6_9  and  N2_10 
ROOT
HETATM    1  C5  UNL     1      50.019 -45.518  -1.862  1.00  0.00     0.096 A 
HETATM    2  N1  UNL     1      51.070 -44.889  -2.383  1.00  0.00    -0.185 N 
ATOM      3  H1  UNL     1      51.406 -45.139  -3.312  1.00  0.00     0.185 HD
HETATM    4  C6  UNL     1      51.694 -43.914  -1.676  1.00  0.00     0.678 A 
HETATM    5  N3  UNL     1      51.242 -43.596  -0.456  1.00  0.00    -0.177 N 
ATOM      6  H3  UNL     1      51.721 -42.862   0.064  1.00  0.00     0.186 HD
HETATM    7  C7  UNL     1      50.190 -44.198   0.111  1.00  0.00     0.126 A 
HETATM    8  C8  UNL     1      49.557 -45.193  -0.616  1.00  0.00     0.020 A 
HETATM    9  C9  UNL     1      48.390 -45.854   0.022  1.00  0.00     0.047 C 
HETATM   10  C10 UNL     1      48.733 -46.117   1.463  1.00  0.00     0.024 C 
HETATM   11  C11 UNL     1      48.953 -44.819   2.214  1.00  0.00     0.121 C 
HETATM   12  N4  UNL     1      49.701 -43.872   1.406  1.00  0.00    -0.375 N 
ATOM     13  H4  UNL     1      49.881 -42.940   1.781  1.00  0.00     0.161 HD
ENDROOT
BRANCH   1  14
HETATM   14  S1  UNL     1      49.213 -46.791  -2.798  1.00  0.00    -0.111 SA
BRANCH  14  15
HETATM   15  C4  UNL     1      47.837 -46.025  -3.701  1.00  0.00     0.081 C 
BRANCH  15  16
HETATM   16  C3  UNL     1      46.511 -46.488  -3.141  1.00  0.00     0.010 C 
BRANCH  16  17
HETATM   17  C2  UNL     1      46.694 -47.896  -2.622  1.00  0.00    -0.004 C 
HETATM   18  C1  UNL     1      45.731 -48.163  -1.490  1.00  0.00     0.005 C 
ENDBRANCH  16  17
ENDBRANCH  15  16
ENDBRANCH  14  15
ENDBRANCH   1  14
BRANCH   4  19
HETATM   19  N2  UNL     1      52.709 -43.326  -2.212  1.00  0.00    -0.234 N 
ATOM     20  H22 UNL     1      53.390 -43.824  -2.787  1.00  0.00     0.174 HD
ATOM     21  H21 UNL     1      52.828 -42.326  -2.052  1.00  0.00     0.174 HD
ENDBRANCH   4  19
TORSDOF 5
ENDMDL
MODEL 4
REMARK VINA RESULT: -6.455225598      6.814      8.152
REMARK  5 active torsions:
REMARK  status: ('A' for Active; 'I' for Inactive)
REMARK    1  A    between atoms: C2_2  and  C3_3 
REMARK    2  A    between atoms: C3_3  and  C4_4 
REMARK    3  A    between atoms: C4_4  and  S1_5 
REMARK    4  A    between atoms: S1_5  and  C5_6 
REMARK    5  A    between atoms: C6_9  and  N2_10 
ROOT
HETATM    1  C5  UNL     1      49.295 -42.408  -9.330  1.00  0.00     0.096 A 
HETATM    2  N1  UNL     1      48.980 -41.148  -9.037  1.00  0.00    -0.185 N 
ATOM      3  H1  UNL     1      49.390 -40.382  -9.570  1.00  0.00     0.185 HD
HETATM    4  C6  UNL     1      48.111 -40.884  -8.029  1.00  0.00     0.678 A 
HETATM    5  N3  UNL     1      47.581 -41.901  -7.338  1.00  0.00    -0.177 N 
ATOM      6  H3  UNL     1      46.930 -41.688  -6.582  1.00  0.00     0.186 HD
HETATM    7  C7  UNL     1      47.865 -43.183  -7.593  1.00  0.00     0.126 A 
HETATM    8  C8  UNL     1      48.752 -43.446  -8.624  1.00  0.00     0.020 A 
HETATM    9  C9  UNL     1      49.060 -44.872  -8.900  1.00  0.00     0.047 C 
HETATM   10  C10 UNL     1      49.254 -45.571  -7.583  1.00  0.00     0.024 C 
HETATM   11  C11 UNL     1      47.975 -45.559  -6.769  1.00  0.00     0.121 C 
HETATM   12  N4  UNL     1      47.310 -44.272  -6.865  1.00  0.00    -0.375 N 
ATOM     13  H4  UNL     1      46.414 -44.146  -6.396  1.00  0.00     0.161 HD
ENDROOT
BRANCH   1  14
HETATM   14  S1  UNL     1      50.432 -42.737 -10.651  1.00  0.00    -0.111 SA
BRANCH  14  15
HETATM   15  C4  UNL     1      52.087 -42.908  -9.926  1.00  0.00     0.081 C 
BRANCH  15  16
HETATM   16  C3  UNL     1      52.578 -44.332 -10.053  1.00  0.00     0.010 C 
BRANCH  16  17
HETATM   17  C2  UNL     1      52.849 -44.855  -8.660  1.00  0.00    -0.004 C 
HETATM   18  C1  UNL     1      52.472 -43.815  -7.632  1.00  0.00     0.005 C 
ENDBRANCH  16  17
ENDBRANCH  15  16
ENDBRANCH  14  15
ENDBRANCH   1  14
BRANCH   4  19
HETATM   19  N2  UNL     1      47.829 -39.652  -7.773  1.00  0.00    -0.234 N 
ATOM     20  H22 UNL     1      47.576 -39.330  -6.839  1.00  0.00     0.174 HD
ATOM     21  H21 UNL     1      47.865 -38.980  -8.539  1.00  0.00     0.174 HD
ENDBRANCH   4  19
TORSDOF 5
ENDMDL
MODEL 5
REMARK VINA RESULT: -6.421158936      3.223      6.794
REMARK  5 active torsions:
REMARK  status: ('A' for Active; 'I' for Inactive)
REMARK    1  A    between atoms: C2_2  and  C3_3 
REMARK    2  A    between atoms: C3_3  and  C4_4 
REMARK    3  A    between atoms: C4_4  and  S1_5 
REMARK    4  A    between atoms: S1_5  and  C5_6 
REMARK    5  A    between atoms: C6_9  and  N2_10 
ROOT
HETATM    1  C5  UNL     1      51.411 -45.445  -4.317  1.00  0.00     0.096 A 
HETATM    2  N1  UNL     1      51.302 -46.645  -3.751  1.00  0.00    -0.185 N 
ATOM      3  H1  UNL     1      51.395 -46.743  -2.741  1.00  0.00     0.185 HD
HETATM    4  C6  UNL     1      51.067 -47.738  -4.520  1.00  0.00     0.678 A 
HETATM    5  N3  UNL     1      50.949 -47.593  -5.846  1.00  0.00    -0.177 N 
ATOM      6  H3  UNL     1      50.774 -48.423  -6.412  1.00  0.00     0.186 HD
HETATM    7  C7  UNL     1      51.050 -46.410  -6.463  1.00  0.00     0.126 A 
HETATM    8  C8  UNL     1      51.289 -45.298  -5.672  1.00  0.00     0.020 A 
HETATM    9  C9  UNL     1      51.398 -43.989  -6.366  1.00  0.00     0.047 C 
HETATM   10  C10 UNL     1      52.224 -44.186  -7.606  1.00  0.00     0.024 C 
HETATM   11  C11 UNL     1      51.535 -45.128  -8.573  1.00  0.00     0.121 C 
HETATM   12  N4  UNL     1      50.927 -46.243  -7.870  1.00  0.00    -0.375 N 
ATOM     13  H4  UNL     1      50.394 -46.929  -8.403  1.00  0.00     0.161 HD
ENDROOT
BRANCH   1  14
HETATM   14  S1  UNL     1      51.717 -44.026  -3.299  1.00  0.00    -0.111 SA
BRANCH  14  15
HETATM   15  C4  UNL     1      51.855 -44.597  -1.581  1.00  0.00     0.081 C 
BRANCH  15  16
HETATM   16  C3  UNL     1      50.556 -44.373  -0.841  1.00  0.00     0.010 C 
BRANCH  16  17
HETATM   17  C2  UNL     1      50.891 -43.835   0.531  1.00  0.00    -0.004 C 
HETATM   18  C1  UNL     1      49.834 -44.252   1.526  1.00  0.00     0.005 C 
ENDBRANCH  16  17
ENDBRANCH  15  16
ENDBRANCH  14  15
ENDBRANCH   1  14
BRANCH   4  19
HETATM   19  N2  UNL     1      50.969 -48.884  -3.937  1.00  0.00    -0.234 N 
ATOM     20  H22 UNL     1      50.404 -49.026  -3.099  1.00  0.00     0.174 HD
ATOM     21  H21 UNL     1      51.476 -49.673  -4.337  1.00  0.00     0.174 HD
ENDBRANCH   4  19
TORSDOF 5
ENDMDL
