MODEL 1
REMARK VINA RESULT: -8.752124376      0.000      0.000
REMARK  23 active torsions:
REMARK  status: ('A' for Active; 'I' for Inactive)
REMARK    1  A    between atoms: C2_2  and  N1_3 
REMARK    2  A    between atoms: C3_4  and  C4_5 
REMARK    3  A    between atoms: C4_5  and  N2_6 
REMARK    4  A    between atoms: N2_6  and  C5_8 
REMARK    5  A    between atoms: C7_12  and  C8_13 
REMARK       I    between atoms: N4_15  and  C9_16 
REMARK    6  A    between atoms: C9_16  and  C10_18 
REMARK    7  A    between atoms: C16_24  and  C17_25 
REMARK    8  A    between atoms: C17_25  and  O2_26 
REMARK    9  A    between atoms: C17_25  and  C18_28 
REMARK   10  A    between atoms: C19_29  and  C20_30 
REMARK   11  A    between atoms: C20_30  and  C22_32 
REMARK   12  A    between atoms: C22_32  and  O3_33 
REMARK   13  A    between atoms: C22_32  and  C23_35 
REMARK   14  A    between atoms: C23_35  and  C24_36 
REMARK   15  A    between atoms: C26_38  and  N5_39 
REMARK   16  A    between atoms: N5_39  and  C27_40 
REMARK   17  A    between atoms: N5_39  and  C29_42 
REMARK   18  A    between atoms: N5_39  and  C30_45 
REMARK   19  A    between atoms: C29_42  and  O4_43 
REMARK   20  A    between atoms: C30_45  and  C31_46 
REMARK   21  A    between atoms: C31_46  and  C32_47 
REMARK   22  A    between atoms: C32_47  and  O5_48 
REMARK   23  A    between atoms: C33_50  and  O6_51 
ROOT
HETATM    1  C17 UNL     1       2.427  23.029   7.418  1.00  0.00     0.159 C 
ENDROOT
BRANCH   1   2
HETATM    2  C16 UNL     1       1.169  22.366   6.993  1.00  0.00     0.095 C 
HETATM    3  N1  UNL     1      -0.020  23.066   7.455  1.00  0.00    -0.279 NA
HETATM    4  C3  UNL     1      -1.166  22.448   6.900  1.00  0.00     0.004 C 
HETATM    5  C13 UNL     1      -1.329  21.091   7.533  1.00  0.00     0.052 C 
HETATM    6  C14 UNL     1      -0.075  20.722   8.319  1.00  0.00     0.007 C 
HETATM    7  C15 UNL     1       1.143  20.954   7.449  1.00  0.00     0.023 C 
BRANCH   3   8
HETATM    8  C2  UNL     1       0.095  24.478   7.362  1.00  0.00     0.091 C 
HETATM    9  C1  UNL     1      -0.085  25.032   5.969  1.00  0.00     0.021 C 
ENDBRANCH   3   8
BRANCH   4  10
HETATM   10  C4  UNL     1      -2.385  23.217   6.647  1.00  0.00     0.125 C 
BRANCH  10  11
HETATM   11  N2  UNL     1      -3.430  23.310   7.578  1.00  0.00    -0.200 N 
ATOM     12  H2  UNL     1      -3.988  22.461   7.666  1.00  0.00     0.183 HD
BRANCH  11  13
HETATM   13  C5  UNL     1      -3.849  24.368   8.415  1.00  0.00     0.683 C 
HETATM   14  N3  UNL     1      -3.456  25.581   8.178  1.00  0.00    -0.224 N 
HETATM   15  C6  UNL     1      -3.982  26.511   9.137  1.00  0.00     0.166 C 
ATOM     16  H3  UNL     1      -2.847  25.842   7.403  1.00  0.00     0.177 HD
HETATM   17  C7  UNL     1      -4.355  25.562  10.310  1.00  0.00     0.158 C 
HETATM   18  N4  UNL     1      -4.708  24.390   9.535  1.00  0.00    -0.142 N 
HETATM   19  C9  UNL     1      -5.719  23.464   9.828  1.00  0.00     0.242 C 
HETATM   20  O1  UNL     1      -6.391  23.657  10.915  1.00  0.00    -0.272 OA
BRANCH  17  21
HETATM   21  C8  UNL     1      -5.459  26.193  11.086  1.00  0.00     0.250 C 
HETATM   22  F1  UNL     1      -5.716  27.479  10.675  1.00  0.00    -0.253 F 
ENDBRANCH  17  21
BRANCH  19  23
HETATM   23  C10 UNL     1      -6.129  22.282   9.060  1.00  0.00     0.071 C 
HETATM   24  C11 UNL     1      -5.501  21.015   9.582  1.00  0.00     0.019 C 
HETATM   25  C12 UNL     1      -7.647  22.067   9.137  1.00  0.00     0.019 C 
ENDBRANCH  19  23
ENDBRANCH  11  13
ENDBRANCH  10  11
ENDBRANCH   4  10
ENDBRANCH   1   2
BRANCH   1  26
HETATM   26  O2  UNL     1       3.183  22.214   8.292  1.00  0.00    -0.390 OA
ATOM     27  H2  UNL     1       3.005  21.291   8.156  1.00  0.00     0.210 HD
ENDBRANCH   1  26
BRANCH   1  28
HETATM   28  C18 UNL     1       3.258  23.359   6.237  1.00  0.00     0.003 C 
HETATM   29  C19 UNL     1       4.542  23.161   6.140  1.00  0.00    -0.021 C 
BRANCH  29  30
HETATM   30  C20 UNL     1       5.370  23.489   4.955  1.00  0.00     0.033 C 
HETATM   31  C21 UNL     1       4.701  24.641   4.253  1.00  0.00     0.017 C 
BRANCH  30  32
HETATM   32  C22 UNL     1       6.811  23.698   5.209  1.00  0.00     0.126 C 
BRANCH  32  33
HETATM   33  O3  UNL     1       7.260  23.260   6.454  1.00  0.00    -0.395 OA
ATOM     34  H3  UNL     1       7.406  23.947   7.094  1.00  0.00     0.210 HD
ENDBRANCH  32  33
BRANCH  32  35
HETATM   35  C23 UNL     1       7.185  25.171   5.144  1.00  0.00     0.039 C 
BRANCH  35  36
HETATM   36  C24 UNL     1       8.400  25.254   4.282  1.00  0.00     0.021 C 
HETATM   37  C25 UNL     1       8.799  26.677   3.848  1.00  0.00     0.043 C 
HETATM   38  C26 UNL     1       9.267  25.971   2.566  1.00  0.00     0.222 C 
HETATM   39  C33 UNL     1       8.114  25.038   2.782  1.00  0.00     0.153 C 
BRANCH  38  40
HETATM   40  N5  UNL     1       9.381  26.738   1.399  1.00  0.00    -0.040 N 
BRANCH  40  41
HETATM   41  C27 UNL     1       8.771  28.044   1.439  1.00  0.00     0.236 C 
HETATM   42  C28 UNL     1       7.805  28.159   0.266  1.00  0.00     0.035 C 
ENDBRANCH  40  41
BRANCH  40  43
HETATM   43  C29 UNL     1      10.823  27.005   1.195  1.00  0.00     0.402 C 
BRANCH  43  44
HETATM   44  O4  UNL     1      11.081  28.355   1.426  1.00  0.00    -0.374 OA
ATOM     45  H4  UNL     1      11.997  28.468   1.650  1.00  0.00     0.211 HD
ENDBRANCH  43  44
ENDBRANCH  40  43
BRANCH  40  46
HETATM   46  C30 UNL     1       9.001  25.941   0.259  1.00  0.00     0.242 C 
BRANCH  46  47
HETATM   47  C31 UNL     1      10.176  25.405  -0.503  1.00  0.00     0.054 C 
BRANCH  47  48
HETATM   48  C32 UNL     1       9.970  23.926  -0.856  1.00  0.00     0.165 C 
BRANCH  48  49
HETATM   49  O5  UNL     1       8.846  23.422  -0.210  1.00  0.00    -0.401 OA
ATOM     50  H5  UNL     1       8.822  22.474  -0.273  1.00  0.00     0.209 HD
ENDBRANCH  48  49
ENDBRANCH  47  48
ENDBRANCH  46  47
ENDBRANCH  40  46
ENDBRANCH  38  40
BRANCH  39  51
HETATM   51  O6  UNL     1       6.856  25.508   2.512  1.00  0.00    -0.393 OA
ATOM     52  H6  UNL     1       6.245  24.784   2.584  1.00  0.00     0.210 HD
ENDBRANCH  39  51
ENDBRANCH  35  36
ENDBRANCH  32  35
ENDBRANCH  30  32
ENDBRANCH  29  30
ENDBRANCH   1  28
TORSDOF 23
ENDMDL
MODEL 2
REMARK VINA RESULT: -8.529213540      4.747     14.906
REMARK  23 active torsions:
REMARK  status: ('A' for Active; 'I' for Inactive)
REMARK    1  A    between atoms: C2_2  and  N1_3 
REMARK    2  A    between atoms: C3_4  and  C4_5 
REMARK    3  A    between atoms: C4_5  and  N2_6 
REMARK    4  A    between atoms: N2_6  and  C5_8 
REMARK    5  A    between atoms: C7_12  and  C8_13 
REMARK       I    between atoms: N4_15  and  C9_16 
REMARK    6  A    between atoms: C9_16  and  C10_18 
REMARK    7  A    between atoms: C16_24  and  C17_25 
REMARK    8  A    between atoms: C17_25  and  O2_26 
REMARK    9  A    between atoms: C17_25  and  C18_28 
REMARK   10  A    between atoms: C19_29  and  C20_30 
REMARK   11  A    between atoms: C20_30  and  C22_32 
REMARK   12  A    between atoms: C22_32  and  O3_33 
REMARK   13  A    between atoms: C22_32  and  C23_35 
REMARK   14  A    between atoms: C23_35  and  C24_36 
REMARK   15  A    between atoms: C26_38  and  N5_39 
REMARK   16  A    between atoms: N5_39  and  C27_40 
REMARK   17  A    between atoms: N5_39  and  C29_42 
REMARK   18  A    between atoms: N5_39  and  C30_45 
REMARK   19  A    between atoms: C29_42  and  O4_43 
REMARK   20  A    between atoms: C30_45  and  C31_46 
REMARK   21  A    between atoms: C31_46  and  C32_47 
REMARK   22  A    between atoms: C32_47  and  O5_48 
REMARK   23  A    between atoms: C33_50  and  O6_51 
ROOT
HETATM    1  C17 UNL     1       8.602  24.688   2.817  1.00  0.00     0.159 C 
ENDROOT
BRANCH   1   2
HETATM    2  C16 UNL     1       8.821  26.006   2.171  1.00  0.00     0.095 C 
HETATM    3  N1  UNL     1       9.363  25.890   0.826  1.00  0.00    -0.279 NA
HETATM    4  C3  UNL     1       9.417  27.176   0.236  1.00  0.00     0.004 C 
HETATM    5  C13 UNL     1      10.479  27.979   0.940  1.00  0.00     0.052 C 
HETATM    6  C14 UNL     1      10.924  27.264   2.211  1.00  0.00     0.007 C 
HETATM    7  C15 UNL     1       9.702  26.859   3.008  1.00  0.00     0.023 C 
BRANCH   3   8
HETATM    8  C2  UNL     1       8.780  24.832   0.081  1.00  0.00     0.091 C 
HETATM    9  C1  UNL     1       9.769  23.966  -0.661  1.00  0.00     0.021 C 
ENDBRANCH   3   8
BRANCH   4  10
HETATM   10  C4  UNL     1       9.306  27.342  -1.214  1.00  0.00     0.125 C 
BRANCH  10  11
HETATM   11  N2  UNL     1      10.418  27.311  -2.068  1.00  0.00    -0.200 N 
ATOM     12  H2  UNL     1      11.087  28.065  -1.911  1.00  0.00     0.183 HD
BRANCH  11  13
HETATM   13  C5  UNL     1      10.777  26.425  -3.107  1.00  0.00     0.683 C 
HETATM   14  N3  UNL     1       9.920  26.123  -4.032  1.00  0.00    -0.224 N 
HETATM   15  C6  UNL     1      10.469  25.208  -4.993  1.00  0.00     0.166 C 
ATOM     16  H3  UNL     1       8.971  26.492  -4.073  1.00  0.00     0.177 HD
HETATM   17  C7  UNL     1      11.658  24.604  -4.195  1.00  0.00     0.158 C 
HETATM   18  N4  UNL     1      11.992  25.765  -3.394  1.00  0.00    -0.142 N 
HETATM   19  C9  UNL     1      13.274  26.168  -2.995  1.00  0.00     0.242 C 
HETATM   20  O1  UNL     1      14.261  25.414  -3.353  1.00  0.00    -0.272 OA
BRANCH  17  21
HETATM   21  C8  UNL     1      12.694  24.158  -5.168  1.00  0.00     0.250 C 
HETATM   22  F1  UNL     1      12.175  23.338  -6.141  1.00  0.00    -0.253 F 
ENDBRANCH  17  21
BRANCH  19  23
HETATM   23  C10 UNL     1      13.661  27.346  -2.210  1.00  0.00     0.071 C 
HETATM   24  C11 UNL     1      13.904  27.013  -0.761  1.00  0.00     0.019 C 
HETATM   25  C12 UNL     1      14.969  27.958  -2.731  1.00  0.00     0.019 C 
ENDBRANCH  19  23
ENDBRANCH  11  13
ENDBRANCH  10  11
ENDBRANCH   4  10
ENDBRANCH   1   2
BRANCH   1  26
HETATM   26  O2  UNL     1       9.643  24.364   3.718  1.00  0.00    -0.390 OA
ATOM     27  H2  UNL     1      10.330  23.859   3.297  1.00  0.00     0.210 HD
ENDBRANCH   1  26
BRANCH   1  28
HETATM   28  C18 UNL     1       7.318  24.684   3.554  1.00  0.00     0.003 C 
HETATM   29  C19 UNL     1       7.077  24.014   4.645  1.00  0.00    -0.021 C 
BRANCH  29  30
HETATM   30  C20 UNL     1       5.791  24.015   5.382  1.00  0.00     0.033 C 
HETATM   31  C21 UNL     1       4.747  24.568   4.449  1.00  0.00     0.017 C 
BRANCH  30  32
HETATM   32  C22 UNL     1       5.408  22.737   6.019  1.00  0.00     0.126 C 
BRANCH  32  33
HETATM   33  O3  UNL     1       6.237  21.658   5.720  1.00  0.00    -0.395 OA
ATOM     34  H3  UNL     1       5.940  20.818   6.052  1.00  0.00     0.210 HD
ENDBRANCH  32  33
BRANCH  32  35
HETATM   35  C23 UNL     1       4.013  22.299   5.604  1.00  0.00     0.039 C 
BRANCH  35  36
HETATM   36  C24 UNL     1       3.162  22.407   6.825  1.00  0.00     0.021 C 
HETATM   37  C25 UNL     1       2.005  21.393   6.910  1.00  0.00     0.043 C 
HETATM   38  C26 UNL     1       1.275  22.542   7.621  1.00  0.00     0.222 C 
HETATM   39  C33 UNL     1       2.036  23.453   6.706  1.00  0.00     0.153 C 
BRANCH  38  40
HETATM   40  N5  UNL     1      -0.126  22.520   7.637  1.00  0.00    -0.040 N 
BRANCH  40  41
HETATM   41  C27 UNL     1      -0.762  22.002   6.451  1.00  0.00     0.236 C 
HETATM   42  C28 UNL     1      -1.867  21.042   6.879  1.00  0.00     0.035 C 
ENDBRANCH  40  41
BRANCH  40  43
HETATM   43  C29 UNL     1      -0.533  21.591   8.716  1.00  0.00     0.402 C 
BRANCH  43  44
HETATM   44  O4  UNL     1       0.273  21.798   9.834  1.00  0.00    -0.374 OA
ATOM     45  H4  UNL     1      -0.147  21.424  10.599  1.00  0.00     0.211 HD
ENDBRANCH  43  44
ENDBRANCH  40  43
BRANCH  40  46
HETATM   46  C30 UNL     1      -0.624  23.804   8.064  1.00  0.00     0.242 C 
BRANCH  46  47
HETATM   47  C31 UNL     1      -1.548  24.438   7.067  1.00  0.00     0.054 C 
BRANCH  47  48
HETATM   48  C32 UNL     1      -1.033  25.821   6.649  1.00  0.00     0.165 C 
BRANCH  48  49
HETATM   49  O5  UNL     1      -0.147  25.711   5.583  1.00  0.00    -0.401 OA
ATOM     50  H5  UNL     1      -0.443  26.236   4.848  1.00  0.00     0.209 HD
ENDBRANCH  48  49
ENDBRANCH  47  48
ENDBRANCH  46  47
ENDBRANCH  40  46
ENDBRANCH  38  40
BRANCH  39  51
HETATM   51  O6  UNL     1       1.641  23.514   5.396  1.00  0.00    -0.393 OA
ATOM     52  H6  UNL     1       0.696  23.611   5.374  1.00  0.00     0.210 HD
ENDBRANCH  39  51
ENDBRANCH  35  36
ENDBRANCH  32  35
ENDBRANCH  30  32
ENDBRANCH  29  30
ENDBRANCH   1  28
TORSDOF 23
ENDMDL
MODEL 3
REMARK VINA RESULT: -8.451119120      1.793      3.300
REMARK  23 active torsions:
REMARK  status: ('A' for Active; 'I' for Inactive)
REMARK    1  A    between atoms: C2_2  and  N1_3 
REMARK    2  A    between atoms: C3_4  and  C4_5 
REMARK    3  A    between atoms: C4_5  and  N2_6 
REMARK    4  A    between atoms: N2_6  and  C5_8 
REMARK    5  A    between atoms: C7_12  and  C8_13 
REMARK       I    between atoms: N4_15  and  C9_16 
REMARK    6  A    between atoms: C9_16  and  C10_18 
REMARK    7  A    between atoms: C16_24  and  C17_25 
REMARK    8  A    between atoms: C17_25  and  O2_26 
REMARK    9  A    between atoms: C17_25  and  C18_28 
REMARK   10  A    between atoms: C19_29  and  C20_30 
REMARK   11  A    between atoms: C20_30  and  C22_32 
REMARK   12  A    between atoms: C22_32  and  O3_33 
REMARK   13  A    between atoms: C22_32  and  C23_35 
REMARK   14  A    between atoms: C23_35  and  C24_36 
REMARK   15  A    between atoms: C26_38  and  N5_39 
REMARK   16  A    between atoms: N5_39  and  C27_40 
REMARK   17  A    between atoms: N5_39  and  C29_42 
REMARK   18  A    between atoms: N5_39  and  C30_45 
REMARK   19  A    between atoms: C29_42  and  O4_43 
REMARK   20  A    between atoms: C30_45  and  C31_46 
REMARK   21  A    between atoms: C31_46  and  C32_47 
REMARK   22  A    between atoms: C32_47  and  O5_48 
REMARK   23  A    between atoms: C33_50  and  O6_51 
ROOT
HETATM    1  C17 UNL     1       3.150  22.197   6.606  1.00  0.00     0.159 C 
ENDROOT
BRANCH   1   2
HETATM    2  C16 UNL     1       2.240  23.368   6.666  1.00  0.00     0.095 C 
HETATM    3  N1  UNL     1       0.868  22.999   6.978  1.00  0.00    -0.279 NA
HETATM    4  C3  UNL     1       0.099  24.175   7.147  1.00  0.00     0.004 C 
HETATM    5  C13 UNL     1      -0.048  24.844   5.805  1.00  0.00     0.052 C 
HETATM    6  C14 UNL     1       0.902  24.211   4.794  1.00  0.00     0.007 C 
HETATM    7  C15 UNL     1       2.289  24.134   5.396  1.00  0.00     0.023 C 
BRANCH   3   8
HETATM    8  C2  UNL     1       0.776  21.987   7.970  1.00  0.00     0.091 C 
HETATM    9  C1  UNL     1      -0.115  20.826   7.603  1.00  0.00     0.021 C 
ENDBRANCH   3   8
BRANCH   4  10
HETATM   10  C4  UNL     1      -1.067  24.189   8.031  1.00  0.00     0.125 C 
BRANCH  10  11
HETATM   11  N2  UNL     1      -2.374  23.980   7.567  1.00  0.00    -0.200 N 
ATOM     12  H2  UNL     1      -2.599  24.485   6.710  1.00  0.00     0.183 HD
BRANCH  11  13
HETATM   13  C5  UNL     1      -3.434  23.197   8.073  1.00  0.00     0.683 C 
HETATM   14  N3  UNL     1      -3.468  21.920   7.847  1.00  0.00    -0.224 N 
HETATM   15  C6  UNL     1      -4.621  21.302   8.438  1.00  0.00     0.166 C 
ATOM     16  H3  UNL     1      -2.759  21.416   7.314  1.00  0.00     0.177 HD
HETATM   17  C7  UNL     1      -5.558  22.525   8.632  1.00  0.00     0.158 C 
HETATM   18  N4  UNL     1      -4.548  23.535   8.873  1.00  0.00    -0.142 N 
HETATM   19  C9  UNL     1      -4.646  24.629   9.745  1.00  0.00     0.242 C 
HETATM   20  O1  UNL     1      -5.761  24.770  10.381  1.00  0.00    -0.272 OA
BRANCH  17  21
HETATM   21  C8  UNL     1      -6.477  22.232   9.767  1.00  0.00     0.250 C 
HETATM   22  F1  UNL     1      -5.837  21.601  10.807  1.00  0.00    -0.253 F 
ENDBRANCH  17  21
BRANCH  19  23
HETATM   23  C10 UNL     1      -3.641  25.658  10.040  1.00  0.00     0.071 C 
HETATM   24  C11 UNL     1      -3.803  26.880   9.173  1.00  0.00     0.019 C 
HETATM   25  C12 UNL     1      -3.755  26.147  11.491  1.00  0.00     0.019 C 
ENDBRANCH  19  23
ENDBRANCH  11  13
ENDBRANCH  10  11
ENDBRANCH   4  10
ENDBRANCH   1   2
BRANCH   1  26
HETATM   26  O2  UNL     1       2.957  21.440   5.427  1.00  0.00    -0.390 OA
ATOM     27  H2  UNL     1       3.359  20.581   5.488  1.00  0.00     0.210 HD
ENDBRANCH   1  26
BRANCH   1  28
HETATM   28  C18 UNL     1       4.562  22.639   6.662  1.00  0.00     0.003 C 
HETATM   29  C19 UNL     1       5.306  22.914   5.629  1.00  0.00    -0.021 C 
BRANCH  29  30
HETATM   30  C20 UNL     1       6.719  23.360   5.688  1.00  0.00     0.033 C 
HETATM   31  C21 UNL     1       7.513  22.435   4.805  1.00  0.00     0.017 C 
BRANCH  30  32
HETATM   32  C22 UNL     1       6.957  24.795   5.421  1.00  0.00     0.126 C 
BRANCH  32  33
HETATM   33  O3  UNL     1       6.020  25.403   4.589  1.00  0.00    -0.395 OA
ATOM     34  H3  UNL     1       5.619  26.189   4.940  1.00  0.00     0.210 HD
ENDBRANCH  32  33
BRANCH  32  35
HETATM   35  C23 UNL     1       8.301  25.026   4.748  1.00  0.00     0.039 C 
BRANCH  35  36
HETATM   36  C24 UNL     1       8.056  26.015   3.659  1.00  0.00     0.021 C 
HETATM   37  C25 UNL     1       8.066  25.436   2.232  1.00  0.00     0.043 C 
HETATM   38  C26 UNL     1       8.655  26.805   1.862  1.00  0.00     0.222 C 
HETATM   39  C33 UNL     1       9.325  26.762   3.202  1.00  0.00     0.153 C 
BRANCH  38  40
HETATM   40  N5  UNL     1       9.394  26.903   0.675  1.00  0.00    -0.040 N 
BRANCH  40  41
HETATM   41  C27 UNL     1       9.820  25.655   0.092  1.00  0.00     0.236 C 
HETATM   42  C28 UNL     1       9.162  25.515  -1.277  1.00  0.00     0.035 C 
ENDBRANCH  40  41
BRANCH  40  43
HETATM   43  C29 UNL     1       8.503  27.506  -0.341  1.00  0.00     0.402 C 
BRANCH  43  44
HETATM   44  O4  UNL     1       7.443  28.150   0.295  1.00  0.00    -0.374 OA
ATOM     45  H4  UNL     1       7.785  28.789   0.909  1.00  0.00     0.211 HD
ENDBRANCH  43  44
ENDBRANCH  40  43
BRANCH  40  46
HETATM   46  C30 UNL     1      10.451  27.869   0.843  1.00  0.00     0.242 C 
BRANCH  46  47
HETATM   47  C31 UNL     1      11.780  27.380   0.350  1.00  0.00     0.054 C 
BRANCH  47  48
HETATM   48  C32 UNL     1      12.318  28.288  -0.764  1.00  0.00     0.165 C 
BRANCH  48  49
HETATM   49  O5  UNL     1      11.773  27.929  -1.992  1.00  0.00    -0.401 OA
ATOM     50  H5  UNL     1      12.362  27.349  -2.461  1.00  0.00     0.209 HD
ENDBRANCH  48  49
ENDBRANCH  47  48
ENDBRANCH  46  47
ENDBRANCH  40  46
ENDBRANCH  38  40
BRANCH  39  51
HETATM   51  O6  UNL     1      10.396  25.922   3.352  1.00  0.00    -0.393 OA
ATOM     52  H6  UNL     1      10.817  25.822   2.506  1.00  0.00     0.210 HD
ENDBRANCH  39  51
ENDBRANCH  35  36
ENDBRANCH  32  35
ENDBRANCH  30  32
ENDBRANCH  29  30
ENDBRANCH   1  28
TORSDOF 23
ENDMDL
MODEL 4
REMARK VINA RESULT: -8.417949580      1.128      2.190
REMARK  23 active torsions:
REMARK  status: ('A' for Active; 'I' for Inactive)
REMARK    1  A    between atoms: C2_2  and  N1_3 
REMARK    2  A    between atoms: C3_4  and  C4_5 
REMARK    3  A    between atoms: C4_5  and  N2_6 
REMARK    4  A    between atoms: N2_6  and  C5_8 
REMARK    5  A    between atoms: C7_12  and  C8_13 
REMARK       I    between atoms: N4_15  and  C9_16 
REMARK    6  A    between atoms: C9_16  and  C10_18 
REMARK    7  A    between atoms: C16_24  and  C17_25 
REMARK    8  A    between atoms: C17_25  and  O2_26 
REMARK    9  A    between atoms: C17_25  and  C18_28 
REMARK   10  A    between atoms: C19_29  and  C20_30 
REMARK   11  A    between atoms: C20_30  and  C22_32 
REMARK   12  A    between atoms: C22_32  and  O3_33 
REMARK   13  A    between atoms: C22_32  and  C23_35 
REMARK   14  A    between atoms: C23_35  and  C24_36 
REMARK   15  A    between atoms: C26_38  and  N5_39 
REMARK   16  A    between atoms: N5_39  and  C27_40 
REMARK   17  A    between atoms: N5_39  and  C29_42 
REMARK   18  A    between atoms: N5_39  and  C30_45 
REMARK   19  A    between atoms: C29_42  and  O4_43 
REMARK   20  A    between atoms: C30_45  and  C31_46 
REMARK   21  A    between atoms: C31_46  and  C32_47 
REMARK   22  A    between atoms: C32_47  and  O5_48 
REMARK   23  A    between atoms: C33_50  and  O6_51 
ROOT
HETATM    1  C17 UNL     1       2.403  23.108   7.457  1.00  0.00     0.159 C 
ENDROOT
BRANCH   1   2
HETATM    2  C16 UNL     1       1.136  22.458   7.038  1.00  0.00     0.095 C 
HETATM    3  N1  UNL     1      -0.041  23.216   7.431  1.00  0.00    -0.279 NA
HETATM    4  C3  UNL     1      -1.192  22.602   6.882  1.00  0.00     0.004 C 
HETATM    5  C13 UNL     1      -1.411  21.287   7.584  1.00  0.00     0.052 C 
HETATM    6  C14 UNL     1      -0.187  20.927   8.419  1.00  0.00     0.007 C 
HETATM    7  C15 UNL     1       1.057  21.075   7.570  1.00  0.00     0.023 C 
BRANCH   3   8
HETATM    8  C2  UNL     1       0.118  24.617   7.264  1.00  0.00     0.091 C 
HETATM    9  C1  UNL     1      -0.056  25.104   5.846  1.00  0.00     0.021 C 
ENDBRANCH   3   8
BRANCH   4  10
HETATM   10  C4  UNL     1      -2.381  23.391   6.557  1.00  0.00     0.125 C 
BRANCH  10  11
HETATM   11  N2  UNL     1      -3.242  23.905   7.538  1.00  0.00    -0.200 N 
ATOM     12  H2  UNL     1      -3.145  24.908   7.696  1.00  0.00     0.183 HD
BRANCH  11  13
HETATM   13  C5  UNL     1      -4.218  23.282   8.347  1.00  0.00     0.683 C 
HETATM   14  N3  UNL     1      -4.438  22.009   8.241  1.00  0.00    -0.224 N 
HETATM   15  C6  UNL     1      -5.466  21.566   9.140  1.00  0.00     0.166 C 
ATOM     16  H3  UNL     1      -3.940  21.396   7.595  1.00  0.00     0.177 HD
HETATM   17  C7  UNL     1      -6.194  22.901   9.453  1.00  0.00     0.158 C 
HETATM   18  N4  UNL     1      -5.057  23.794   9.361  1.00  0.00    -0.142 N 
HETATM   19  C9  UNL     1      -4.822  24.937  10.139  1.00  0.00     0.242 C 
HETATM   20  O1  UNL     1      -5.724  25.245  11.012  1.00  0.00    -0.272 OA
BRANCH  17  21
HETATM   21  C8  UNL     1      -6.828  22.783  10.797  1.00  0.00     0.250 C 
HETATM   22  F1  UNL     1      -6.181  21.873  11.599  1.00  0.00    -0.253 F 
ENDBRANCH  17  21
BRANCH  19  23
HETATM   23  C10 UNL     1      -3.675  25.852  10.099  1.00  0.00     0.071 C 
HETATM   24  C11 UNL     1      -3.969  27.103   9.311  1.00  0.00     0.019 C 
HETATM   25  C12 UNL     1      -3.286  26.319  11.509  1.00  0.00     0.019 C 
ENDBRANCH  19  23
ENDBRANCH  11  13
ENDBRANCH  10  11
ENDBRANCH   4  10
ENDBRANCH   1   2
BRANCH   1  26
HETATM   26  O2  UNL     1       3.154  22.284   8.329  1.00  0.00    -0.390 OA
ATOM     27  H2  UNL     1       3.497  22.772   9.068  1.00  0.00     0.210 HD
ENDBRANCH   1  26
BRANCH   1  28
HETATM   28  C18 UNL     1       3.233  23.428   6.273  1.00  0.00     0.003 C 
HETATM   29  C19 UNL     1       4.513  23.210   6.169  1.00  0.00    -0.021 C 
BRANCH  29  30
HETATM   30  C20 UNL     1       5.340  23.529   4.980  1.00  0.00     0.033 C 
HETATM   31  C21 UNL     1       4.669  24.675   4.270  1.00  0.00     0.017 C 
BRANCH  30  32
HETATM   32  C22 UNL     1       6.781  23.741   5.231  1.00  0.00     0.126 C 
BRANCH  32  33
HETATM   33  O3  UNL     1       7.224  23.348   6.493  1.00  0.00    -0.395 OA
ATOM     34  H3  UNL     1       7.288  22.409   6.623  1.00  0.00     0.210 HD
ENDBRANCH  32  33
BRANCH  32  35
HETATM   35  C23 UNL     1       7.163  25.208   5.112  1.00  0.00     0.039 C 
BRANCH  35  36
HETATM   36  C24 UNL     1       8.394  25.251   4.271  1.00  0.00     0.021 C 
HETATM   37  C25 UNL     1       8.800  26.651   3.773  1.00  0.00     0.043 C 
HETATM   38  C26 UNL     1       9.295  25.883   2.539  1.00  0.00     0.222 C 
HETATM   39  C33 UNL     1       8.139  24.959   2.779  1.00  0.00     0.153 C 
BRANCH  38  40
HETATM   40  N5  UNL     1       9.431  26.590   1.336  1.00  0.00    -0.040 N 
BRANCH  40  41
HETATM   41  C27 UNL     1       8.816  27.893   1.298  1.00  0.00     0.236 C 
HETATM   42  C28 UNL     1       7.819  27.920   0.144  1.00  0.00     0.035 C 
ENDBRANCH  40  41
BRANCH  40  43
HETATM   43  C29 UNL     1      10.876  26.853   1.150  1.00  0.00     0.402 C 
BRANCH  43  44
HETATM   44  O4  UNL     1      11.133  28.205   1.370  1.00  0.00    -0.374 OA
ATOM     45  H4  UNL     1      11.936  28.450   0.926  1.00  0.00     0.211 HD
ENDBRANCH  43  44
ENDBRANCH  40  43
BRANCH  40  46
HETATM   46  C30 UNL     1       9.077  25.735   0.231  1.00  0.00     0.242 C 
BRANCH  46  47
HETATM   47  C31 UNL     1      10.254  25.343  -0.611  1.00  0.00     0.054 C 
BRANCH  47  48
HETATM   48  C32 UNL     1       9.818  24.453  -1.782  1.00  0.00     0.165 C 
BRANCH  48  49
HETATM   49  O5  UNL     1       8.544  24.806  -2.215  1.00  0.00    -0.401 OA
ATOM     50  H5  UNL     1       8.245  24.210  -2.892  1.00  0.00     0.209 HD
ENDBRANCH  48  49
ENDBRANCH  47  48
ENDBRANCH  46  47
ENDBRANCH  40  46
ENDBRANCH  38  40
BRANCH  39  51
HETATM   51  O6  UNL     1       6.886  25.411   2.461  1.00  0.00    -0.393 OA
ATOM     52  H6  UNL     1       6.794  26.296   2.795  1.00  0.00     0.210 HD
ENDBRANCH  39  51
ENDBRANCH  35  36
ENDBRANCH  32  35
ENDBRANCH  30  32
ENDBRANCH  29  30
ENDBRANCH   1  28
TORSDOF 23
ENDMDL
MODEL 5
REMARK VINA RESULT: -8.339612165      2.035      3.233
REMARK  23 active torsions:
REMARK  status: ('A' for Active; 'I' for Inactive)
REMARK    1  A    between atoms: C2_2  and  N1_3 
REMARK    2  A    between atoms: C3_4  and  C4_5 
REMARK    3  A    between atoms: C4_5  and  N2_6 
REMARK    4  A    between atoms: N2_6  and  C5_8 
REMARK    5  A    between atoms: C7_12  and  C8_13 
REMARK       I    between atoms: N4_15  and  C9_16 
REMARK    6  A    between atoms: C9_16  and  C10_18 
REMARK    7  A    between atoms: C16_24  and  C17_25 
REMARK    8  A    between atoms: C17_25  and  O2_26 
REMARK    9  A    between atoms: C17_25  and  C18_28 
REMARK   10  A    between atoms: C19_29  and  C20_30 
REMARK   11  A    between atoms: C20_30  and  C22_32 
REMARK   12  A    between atoms: C22_32  and  O3_33 
REMARK   13  A    between atoms: C22_32  and  C23_35 
REMARK   14  A    between atoms: C23_35  and  C24_36 
REMARK   15  A    between atoms: C26_38  and  N5_39 
REMARK   16  A    between atoms: N5_39  and  C27_40 
REMARK   17  A    between atoms: N5_39  and  C29_42 
REMARK   18  A    between atoms: N5_39  and  C30_45 
REMARK   19  A    between atoms: C29_42  and  O4_43 
REMARK   20  A    between atoms: C30_45  and  C31_46 
REMARK   21  A    between atoms: C31_46  and  C32_47 
REMARK   22  A    between atoms: C32_47  and  O5_48 
REMARK   23  A    between atoms: C33_50  and  O6_51 
ROOT
HETATM    1  C17 UNL     1       0.990  23.441   5.772  1.00  0.00     0.159 C 
ENDROOT
BRANCH   1   2
HETATM    2  C16 UNL     1       0.070  23.953   6.818  1.00  0.00     0.095 C 
HETATM    3  N1  UNL     1      -1.215  23.271   6.819  1.00  0.00    -0.279 NA
HETATM    4  C3  UNL     1      -1.978  23.722   7.923  1.00  0.00     0.004 C 
HETATM    5  C13 UNL     1      -2.377  25.153   7.672  1.00  0.00     0.052 C 
HETATM    6  C14 UNL     1      -1.599  25.717   6.487  1.00  0.00     0.007 C 
HETATM    7  C15 UNL     1      -0.127  25.416   6.671  1.00  0.00     0.023 C 
BRANCH   3   8
HETATM    8  C2  UNL     1      -1.101  21.872   6.608  1.00  0.00     0.091 C 
HETATM    9  C1  UNL     1      -0.385  21.126   7.707  1.00  0.00     0.021 C 
ENDBRANCH   3   8
BRANCH   4  10
HETATM   10  C4  UNL     1      -2.972  22.853   8.554  1.00  0.00     0.125 C 
BRANCH  10  11
HETATM   11  N2  UNL     1      -4.351  23.100   8.482  1.00  0.00    -0.200 N 
ATOM     12  H2  UNL     1      -4.598  24.089   8.458  1.00  0.00     0.183 HD
BRANCH  11  13
HETATM   13  C5  UNL     1      -5.458  22.224   8.436  1.00  0.00     0.683 C 
HETATM   14  N3  UNL     1      -5.431  21.179   7.668  1.00  0.00    -0.224 N 
HETATM   15  C6  UNL     1      -6.646  20.419   7.757  1.00  0.00     0.166 C 
ATOM     16  H3  UNL     1      -4.642  20.927   7.074  1.00  0.00     0.177 HD
HETATM   17  C7  UNL     1      -7.626  21.476   8.336  1.00  0.00     0.158 C 
HETATM   18  N4  UNL     1      -6.683  22.229   9.137  1.00  0.00    -0.142 N 
HETATM   19  C9  UNL     1      -6.931  22.833  10.378  1.00  0.00     0.242 C 
HETATM   20  O1  UNL     1      -8.131  22.733  10.847  1.00  0.00    -0.272 OA
BRANCH  17  21
HETATM   21  C8  UNL     1      -8.697  20.758   9.084  1.00  0.00     0.250 C 
HETATM   22  F1  UNL     1      -8.308  19.496   9.466  1.00  0.00    -0.253 F 
ENDBRANCH  17  21
BRANCH  19  23
HETATM   23  C10 UNL     1      -6.002  23.580  11.235  1.00  0.00     0.071 C 
HETATM   24  C11 UNL     1      -6.222  25.068  11.155  1.00  0.00     0.019 C 
HETATM   25  C12 UNL     1      -6.180  23.201  12.712  1.00  0.00     0.019 C 
ENDBRANCH  19  23
ENDBRANCH  11  13
ENDBRANCH  10  11
ENDBRANCH   4  10
ENDBRANCH   1   2
BRANCH   1  26
HETATM   26  O2  UNL     1       1.020  24.286   4.637  1.00  0.00    -0.390 OA
ATOM     27  H2  UNL     1       1.709  24.936   4.699  1.00  0.00     0.210 HD
ENDBRANCH   1  26
BRANCH   1  28
HETATM   28  C18 UNL     1       2.364  23.320   6.311  1.00  0.00     0.003 C 
HETATM   29  C19 UNL     1       3.459  23.421   5.612  1.00  0.00    -0.021 C 
BRANCH  29  30
HETATM   30  C20 UNL     1       4.833  23.303   6.155  1.00  0.00     0.033 C 
HETATM   31  C21 UNL     1       4.860  22.076   7.028  1.00  0.00     0.017 C 
BRANCH  30  32
HETATM   32  C22 UNL     1       5.929  23.356   5.164  1.00  0.00     0.126 C 
BRANCH  32  33
HETATM   33  O3  UNL     1       7.210  23.216   5.693  1.00  0.00    -0.395 OA
ATOM     34  H3  UNL     1       7.816  22.721   5.155  1.00  0.00     0.210 HD
ENDBRANCH  32  33
BRANCH  32  35
HETATM   35  C23 UNL     1       5.947  24.681   4.418  1.00  0.00     0.039 C 
BRANCH  35  36
HETATM   36  C24 UNL     1       7.380  24.979   4.131  1.00  0.00     0.021 C 
HETATM   37  C25 UNL     1       7.736  26.476   4.053  1.00  0.00     0.043 C 
HETATM   38  C26 UNL     1       8.749  26.005   2.998  1.00  0.00     0.222 C 
HETATM   39  C33 UNL     1       7.728  24.971   2.629  1.00  0.00     0.153 C 
BRANCH  38  40
HETATM   40  N5  UNL     1       9.211  26.945   2.066  1.00  0.00    -0.040 N 
BRANCH  40  41
HETATM   41  C27 UNL     1       8.751  28.298   2.255  1.00  0.00     0.236 C 
HETATM   42  C28 UNL     1       9.967  29.217   2.300  1.00  0.00     0.035 C 
ENDBRANCH  40  41
BRANCH  40  43
HETATM   43  C29 UNL     1      10.681  27.024   2.224  1.00  0.00     0.402 C 
BRANCH  43  44
HETATM   44  O4  UNL     1      11.086  26.156   3.236  1.00  0.00    -0.374 OA
ATOM     45  H4  UNL     1      11.836  26.525   3.686  1.00  0.00     0.211 HD
ENDBRANCH  43  44
ENDBRANCH  40  43
BRANCH  40  46
HETATM   46  C30 UNL     1       9.021  26.434   0.731  1.00  0.00     0.242 C 
BRANCH  46  47
HETATM   47  C31 UNL     1      10.308  26.231  -0.010  1.00  0.00     0.054 C 
BRANCH  47  48
HETATM   48  C32 UNL     1      10.263  24.941  -0.840  1.00  0.00     0.165 C 
BRANCH  48  49
HETATM   49  O5  UNL     1       9.981  23.849  -0.028  1.00  0.00    -0.401 OA
ATOM     50  H5  UNL     1      10.782  23.407   0.229  1.00  0.00     0.209 HD
ENDBRANCH  48  49
ENDBRANCH  47  48
ENDBRANCH  46  47
ENDBRANCH  40  46
ENDBRANCH  38  40
BRANCH  39  51
HETATM   51  O6  UNL     1       6.626  25.386   1.930  1.00  0.00    -0.393 OA
ATOM     52  H6  UNL     1       6.086  24.626   1.746  1.00  0.00     0.210 HD
ENDBRANCH  39  51
ENDBRANCH  35  36
ENDBRANCH  32  35
ENDBRANCH  30  32
ENDBRANCH  29  30
ENDBRANCH   1  28
TORSDOF 23
ENDMDL
