MODEL 1
REMARK VINA RESULT: -8.180979993      0.000      0.000
REMARK  6 active torsions:
REMARK  status: ('A' for Active; 'I' for Inactive)
REMARK       I    between atoms: C1_2  and  N1_3 
REMARK    1  A    between atoms: C1_2  and  C17_21 
REMARK    2  A    between atoms: N1_3  and  C2_5 
REMARK    3  A    between atoms: C2_5  and  C3_6 
REMARK    4  A    between atoms: N2_9  and  C6_10 
REMARK    5  A    between atoms: C6_10  and  C7_11 
REMARK    6  A    between atoms: C7_11  and  C8_12 
ROOT
HETATM    1  C3  UNL     1      -6.052  21.459  -1.431  1.00  0.00     0.027 C 
HETATM    2  C4  UNL     1      -6.332  22.277  -2.628  1.00  0.00     0.029 C 
HETATM    3  C5  UNL     1      -5.394  21.811  -3.779  1.00  0.00     0.117 C 
HETATM    4  N2  UNL     1      -5.864  20.534  -4.194  1.00  0.00    -0.412 N 
HETATM    5  C15 UNL     1      -6.290  19.650  -3.165  1.00  0.00     0.117 C 
HETATM    6  C16 UNL     1      -5.634  20.041  -1.867  1.00  0.00     0.029 C 
ENDROOT
BRANCH   1   7
HETATM    7  C2  UNL     1      -7.064  21.351  -0.358  1.00  0.00     0.068 C 
BRANCH   7   8
HETATM    8  N1  UNL     1      -7.655  20.112  -0.047  1.00  0.00    -0.338 N 
HETATM    9  C1  UNL     1      -8.168  19.627   1.151  1.00  0.00     0.250 C 
HETATM   10  O1  UNL     1      -8.206  20.271   2.213  1.00  0.00    -0.270 OA
ATOM     11  H1  UNL     1      -7.716  19.461  -0.830  1.00  0.00     0.167 HD
BRANCH   9  12
HETATM   12  C17 UNL     1      -8.734  18.232   1.245  1.00  0.00     0.213 C 
HETATM   13  C18 UNL     1      -9.799  17.976   0.228  1.00  0.00     0.044 C 
HETATM   14  C19 UNL     1     -10.428  16.697   0.794  1.00  0.00     0.029 C 
HETATM   15  C20 UNL     1      -9.937  16.749   2.229  1.00  0.00     0.168 C 
HETATM   16  O2  UNL     1      -9.392  18.005   2.431  1.00  0.00    -0.376 OA
ENDBRANCH   9  12
ENDBRANCH   7   8
ENDBRANCH   1   7
BRANCH   4  17
HETATM   17  C6  UNL     1      -5.173  19.955  -5.297  1.00  0.00     0.117 C 
BRANCH  17  18
HETATM   18  C7  UNL     1      -5.603  18.520  -5.439  1.00  0.00     0.024 C 
BRANCH  18  19
HETATM   19  C8  UNL     1      -4.468  17.530  -5.234  1.00  0.00    -0.013 C 
HETATM   20  C9  UNL     1      -4.023  17.002  -6.552  1.00  0.00     0.005 C 
HETATM   21  C10 UNL     1      -2.560  16.648  -6.468  1.00  0.00     0.000 C 
HETATM   22  C11 UNL     1      -2.344  15.829  -5.224  1.00  0.00     0.000 C 
HETATM   23  C12 UNL     1      -3.329  14.703  -5.169  1.00  0.00     0.000 C 
HETATM   24  C13 UNL     1      -4.661  15.089  -4.603  1.00  0.00     0.000 C 
HETATM   25  C14 UNL     1      -4.777  16.514  -4.191  1.00  0.00     0.005 C 
ENDBRANCH  18  19
ENDBRANCH  17  18
ENDBRANCH   4  17
TORSDOF 6
ENDMDL
MODEL 2
REMARK VINA RESULT: -7.970114390      1.080      1.814
REMARK  6 active torsions:
REMARK  status: ('A' for Active; 'I' for Inactive)
REMARK       I    between atoms: C1_2  and  N1_3 
REMARK    1  A    between atoms: C1_2  and  C17_21 
REMARK    2  A    between atoms: N1_3  and  C2_5 
REMARK    3  A    between atoms: C2_5  and  C3_6 
REMARK    4  A    between atoms: N2_9  and  C6_10 
REMARK    5  A    between atoms: C6_10  and  C7_11 
REMARK    6  A    between atoms: C7_11  and  C8_12 
ROOT
HETATM    1  C3  UNL     1      -6.041  21.620  -1.151  1.00  0.00     0.027 C 
HETATM    2  C4  UNL     1      -6.126  22.671  -2.185  1.00  0.00     0.029 C 
HETATM    3  C5  UNL     1      -5.124  22.331  -3.324  1.00  0.00     0.117 C 
HETATM    4  N2  UNL     1      -5.662  21.211  -4.018  1.00  0.00    -0.412 N 
HETATM    5  C15 UNL     1      -6.265  20.201  -3.218  1.00  0.00     0.117 C 
HETATM    6  C16 UNL     1      -5.709  20.272  -1.820  1.00  0.00     0.029 C 
ENDROOT
BRANCH   1   7
HETATM    7  C2  UNL     1      -7.161  21.423  -0.205  1.00  0.00     0.068 C 
BRANCH   7   8
HETATM    8  N1  UNL     1      -7.668  20.135   0.052  1.00  0.00    -0.338 N 
HETATM    9  C1  UNL     1      -8.194  19.584   1.214  1.00  0.00     0.250 C 
HETATM   10  O1  UNL     1      -8.326  20.196   2.287  1.00  0.00    -0.270 OA
ATOM     11  H1  UNL     1      -7.646  19.502  -0.747  1.00  0.00     0.167 HD
BRANCH   9  12
HETATM   12  C17 UNL     1      -8.656  18.148   1.253  1.00  0.00     0.213 C 
HETATM   13  C18 UNL     1      -9.501  17.786   0.074  1.00  0.00     0.044 C 
HETATM   14  C19 UNL     1     -10.118  16.469   0.562  1.00  0.00     0.029 C 
HETATM   15  C20 UNL     1      -9.892  16.587   2.059  1.00  0.00     0.168 C 
HETATM   16  O2  UNL     1      -9.492  17.887   2.313  1.00  0.00    -0.376 OA
ENDBRANCH   9  12
ENDBRANCH   7   8
ENDBRANCH   1   7
BRANCH   4  17
HETATM   17  C6  UNL     1      -4.918  20.777  -5.152  1.00  0.00     0.117 C 
BRANCH  17  18
HETATM   18  C7  UNL     1      -5.855  20.103  -6.117  1.00  0.00     0.024 C 
BRANCH  18  19
HETATM   19  C8  UNL     1      -5.295  18.815  -6.698  1.00  0.00    -0.013 C 
HETATM   20  C9  UNL     1      -5.020  17.850  -5.599  1.00  0.00     0.005 C 
HETATM   21  C10 UNL     1      -5.175  16.447  -6.128  1.00  0.00     0.000 C 
HETATM   22  C11 UNL     1      -4.411  16.345  -7.420  1.00  0.00     0.000 C 
HETATM   23  C12 UNL     1      -3.017  16.862  -7.239  1.00  0.00     0.000 C 
HETATM   24  C13 UNL     1      -2.901  18.350  -7.366  1.00  0.00     0.000 C 
HETATM   25  C14 UNL     1      -4.180  19.056  -7.653  1.00  0.00     0.005 C 
ENDBRANCH  18  19
ENDBRANCH  17  18
ENDBRANCH   4  17
TORSDOF 6
ENDMDL
MODEL 3
REMARK VINA RESULT: -7.894074463      1.075      1.278
REMARK  6 active torsions:
REMARK  status: ('A' for Active; 'I' for Inactive)
REMARK       I    between atoms: C1_2  and  N1_3 
REMARK    1  A    between atoms: C1_2  and  C17_21 
REMARK    2  A    between atoms: N1_3  and  C2_5 
REMARK    3  A    between atoms: C2_5  and  C3_6 
REMARK    4  A    between atoms: N2_9  and  C6_10 
REMARK    5  A    between atoms: C6_10  and  C7_11 
REMARK    6  A    between atoms: C7_11  and  C8_12 
ROOT
HETATM    1  C3  UNL     1      -6.008  21.655  -1.053  1.00  0.00     0.027 C 
HETATM    2  C4  UNL     1      -5.993  22.827  -1.951  1.00  0.00     0.029 C 
HETATM    3  C5  UNL     1      -4.984  22.558  -3.104  1.00  0.00     0.117 C 
HETATM    4  N2  UNL     1      -5.576  21.570  -3.940  1.00  0.00    -0.412 N 
HETATM    5  C15 UNL     1      -6.268  20.516  -3.282  1.00  0.00     0.117 C 
HETATM    6  C16 UNL     1      -5.749  20.378  -1.876  1.00  0.00     0.029 C 
ENDROOT
BRANCH   1   7
HETATM    7  C2  UNL     1      -7.165  21.424  -0.160  1.00  0.00     0.068 C 
BRANCH   7   8
HETATM    8  N1  UNL     1      -7.645  20.122   0.072  1.00  0.00    -0.338 N 
HETATM    9  C1  UNL     1      -8.211  19.554   1.208  1.00  0.00     0.250 C 
HETATM   10  O1  UNL     1      -8.413  20.161   2.273  1.00  0.00    -0.270 OA
ATOM     11  H1  UNL     1      -7.565  19.490  -0.725  1.00  0.00     0.167 HD
BRANCH   9  12
HETATM   12  C17 UNL     1      -8.632  18.104   1.224  1.00  0.00     0.213 C 
HETATM   13  C18 UNL     1      -9.406  17.719   0.005  1.00  0.00     0.044 C 
HETATM   14  C19 UNL     1     -10.007  16.384   0.463  1.00  0.00     0.029 C 
HETATM   15  C20 UNL     1      -9.860  16.508   1.968  1.00  0.00     0.168 C 
HETATM   16  O2  UNL     1      -9.512  17.819   2.241  1.00  0.00    -0.376 OA
ENDBRANCH   9  12
ENDBRANCH   7   8
ENDBRANCH   1   7
BRANCH   4  17
HETATM   17  C6  UNL     1      -4.832  21.225  -5.104  1.00  0.00     0.117 C 
BRANCH  17  18
HETATM   18  C7  UNL     1      -5.508  20.067  -5.787  1.00  0.00     0.024 C 
BRANCH  18  19
HETATM   19  C8  UNL     1      -4.582  18.885  -6.020  1.00  0.00    -0.013 C 
HETATM   20  C9  UNL     1      -4.133  18.877  -7.439  1.00  0.00     0.005 C 
HETATM   21  C10 UNL     1      -2.765  18.248  -7.516  1.00  0.00     0.000 C 
HETATM   22  C11 UNL     1      -2.793  16.962  -6.734  1.00  0.00     0.000 C 
HETATM   23  C12 UNL     1      -3.960  16.125  -7.159  1.00  0.00     0.000 C 
HETATM   24  C13 UNL     1      -5.246  16.488  -6.480  1.00  0.00     0.000 C 
HETATM   25  C14 UNL     1      -5.145  17.607  -5.504  1.00  0.00     0.005 C 
ENDBRANCH  18  19
ENDBRANCH  17  18
ENDBRANCH   4  17
TORSDOF 6
ENDMDL
MODEL 4
REMARK VINA RESULT: -7.827339439      4.326      7.368
REMARK  6 active torsions:
REMARK  status: ('A' for Active; 'I' for Inactive)
REMARK       I    between atoms: C1_2  and  N1_3 
REMARK    1  A    between atoms: C1_2  and  C17_21 
REMARK    2  A    between atoms: N1_3  and  C2_5 
REMARK    3  A    between atoms: C2_5  and  C3_6 
REMARK    4  A    between atoms: N2_9  and  C6_10 
REMARK    5  A    between atoms: C6_10  and  C7_11 
REMARK    6  A    between atoms: C7_11  and  C8_12 
ROOT
HETATM    1  C3  UNL     1      -5.664  23.650  -1.726  1.00  0.00     0.027 C 
HETATM    2  C4  UNL     1      -6.323  22.928  -2.833  1.00  0.00     0.029 C 
HETATM    3  C5  UNL     1      -6.070  21.404  -2.653  1.00  0.00     0.117 C 
HETATM    4  N2  UNL     1      -6.855  20.990  -1.540  1.00  0.00    -0.412 N 
HETATM    5  C15 UNL     1      -6.905  21.882  -0.434  1.00  0.00     0.117 C 
HETATM    6  C16 UNL     1      -5.693  22.776  -0.457  1.00  0.00     0.029 C 
ENDROOT
BRANCH   1   7
HETATM    7  C2  UNL     1      -6.101  25.019  -1.374  1.00  0.00     0.068 C 
BRANCH   7   8
HETATM    8  N1  UNL     1      -5.602  25.661  -0.226  1.00  0.00    -0.338 N 
HETATM    9  C1  UNL     1      -4.336  26.163   0.054  1.00  0.00     0.250 C 
HETATM   10  O1  UNL     1      -3.377  26.137  -0.736  1.00  0.00    -0.270 OA
ATOM     11  H1  UNL     1      -6.281  25.778   0.526  1.00  0.00     0.167 HD
BRANCH   9  12
HETATM   12  C17 UNL     1      -4.029  26.795   1.390  1.00  0.00     0.213 C 
HETATM   13  C18 UNL     1      -2.821  26.202   2.040  1.00  0.00     0.044 C 
HETATM   14  C19 UNL     1      -2.983  26.730   3.471  1.00  0.00     0.029 C 
HETATM   15  C20 UNL     1      -4.456  27.100   3.472  1.00  0.00     0.168 C 
HETATM   16  O2  UNL     1      -5.014  26.569   2.322  1.00  0.00    -0.376 OA
ENDBRANCH   9  12
ENDBRANCH   7   8
ENDBRANCH   1   7
BRANCH   4  17
HETATM   17  C6  UNL     1      -6.815  19.597  -1.246  1.00  0.00     0.117 C 
BRANCH  17  18
HETATM   18  C7  UNL     1      -7.482  19.364   0.082  1.00  0.00     0.024 C 
BRANCH  18  19
HETATM   19  C8  UNL     1      -7.991  17.942   0.257  1.00  0.00    -0.013 C 
HETATM   20  C9  UNL     1      -8.463  17.417  -1.053  1.00  0.00     0.005 C 
HETATM   21  C10 UNL     1      -8.278  15.921  -1.076  1.00  0.00     0.000 C 
HETATM   22  C11 UNL     1      -8.840  15.357   0.200  1.00  0.00     0.000 C 
HETATM   23  C12 UNL     1     -10.227  15.875   0.427  1.00  0.00     0.000 C 
HETATM   24  C13 UNL     1     -10.271  17.223   1.082  1.00  0.00     0.000 C 
HETATM   25  C14 UNL     1      -8.940  17.811   1.396  1.00  0.00     0.005 C 
ENDBRANCH  18  19
ENDBRANCH  17  18
ENDBRANCH   4  17
TORSDOF 6
ENDMDL
MODEL 5
REMARK VINA RESULT: -7.775459795      4.313      7.369
REMARK  6 active torsions:
REMARK  status: ('A' for Active; 'I' for Inactive)
REMARK       I    between atoms: C1_2  and  N1_3 
REMARK    1  A    between atoms: C1_2  and  C17_21 
REMARK    2  A    between atoms: N1_3  and  C2_5 
REMARK    3  A    between atoms: C2_5  and  C3_6 
REMARK    4  A    between atoms: N2_9  and  C6_10 
REMARK    5  A    between atoms: C6_10  and  C7_11 
REMARK    6  A    between atoms: C7_11  and  C8_12 
ROOT
HETATM    1  C3  UNL     1      -5.728  23.650  -1.821  1.00  0.00     0.027 C 
HETATM    2  C4  UNL     1      -6.386  22.889  -2.903  1.00  0.00     0.029 C 
HETATM    3  C5  UNL     1      -5.991  21.391  -2.769  1.00  0.00     0.117 C 
HETATM    4  N2  UNL     1      -6.669  20.893  -1.621  1.00  0.00    -0.412 N 
HETATM    5  C15 UNL     1      -6.730  21.760  -0.495  1.00  0.00     0.117 C 
HETATM    6  C16 UNL     1      -5.605  22.757  -0.571  1.00  0.00     0.029 C 
ENDROOT
BRANCH   1   7
HETATM    7  C2  UNL     1      -6.260  24.969  -1.418  1.00  0.00     0.068 C 
BRANCH   7   8
HETATM    8  N1  UNL     1      -5.728  25.651  -0.307  1.00  0.00    -0.338 N 
HETATM    9  C1  UNL     1      -4.469  26.205  -0.102  1.00  0.00     0.250 C 
HETATM   10  O1  UNL     1      -3.552  26.199  -0.939  1.00  0.00    -0.270 OA
ATOM     11  H1  UNL     1      -6.372  25.757   0.476  1.00  0.00     0.167 HD
BRANCH   9  12
HETATM   12  C17 UNL     1      -4.119  26.873   1.205  1.00  0.00     0.213 C 
HETATM   13  C18 UNL     1      -3.075  26.125   1.970  1.00  0.00     0.044 C 
HETATM   14  C19 UNL     1      -3.210  26.782   3.349  1.00  0.00     0.029 C 
HETATM   15  C20 UNL     1      -4.588  27.410   3.231  1.00  0.00     0.168 C 
HETATM   16  O2  UNL     1      -5.175  26.900   2.086  1.00  0.00    -0.376 OA
ENDBRANCH   9  12
ENDBRANCH   7   8
ENDBRANCH   1   7
BRANCH   4  17
HETATM   17  C6  UNL     1      -6.491  19.504  -1.357  1.00  0.00     0.117 C 
BRANCH  17  18
HETATM   18  C7  UNL     1      -7.643  18.745  -1.956  1.00  0.00     0.024 C 
BRANCH  18  19
HETATM   19  C8  UNL     1      -8.548  18.106  -0.915  1.00  0.00    -0.013 C 
HETATM   20  C9  UNL     1      -7.972  18.315   0.441  1.00  0.00     0.005 C 
HETATM   21  C10 UNL     1      -9.094  18.367   1.446  1.00  0.00     0.000 C 
HETATM   22  C11 UNL     1     -10.007  17.198   1.194  1.00  0.00     0.000 C 
HETATM   23  C12 UNL     1      -9.213  15.930   1.115  1.00  0.00     0.000 C 
HETATM   24  C13 UNL     1      -8.618  15.672  -0.236  1.00  0.00     0.000 C 
HETATM   25  C14 UNL     1      -8.918  16.707  -1.262  1.00  0.00     0.005 C 
ENDBRANCH  18  19
ENDBRANCH  17  18
ENDBRANCH   4  17
TORSDOF 6
ENDMDL
