MODEL 1
REMARK VINA RESULT: -6.556060998      0.000      0.000
REMARK  5 active torsions:
REMARK  status: ('A' for Active; 'I' for Inactive)
REMARK    1  A    between atoms: C2_2  and  S1_3 
REMARK    2  A    between atoms: S1_3  and  C3_4 
REMARK    3  A    between atoms: C5_12  and  C7_14 
REMARK       I    between atoms: C7_14  and  N3_16 
REMARK    4  A    between atoms: N3_16  and  C8_18 
REMARK    5  A    between atoms: C8_18  and  C9_19 
ROOT
HETATM    1  C7  UNL     1       1.241   9.884   2.187  1.00  0.00     0.246 C 
HETATM    2  O3  UNL     1       0.403  10.562   2.836  1.00  0.00    -0.271 OA
HETATM    3  N3  UNL     1       2.134   9.047   2.893  1.00  0.00    -0.358 N 
ATOM      4  H3  UNL     1       2.813   8.498   2.364  1.00  0.00     0.162 HD
ENDROOT
BRANCH   1   5
HETATM    5  C5  UNL     1       1.235  10.011   0.711  1.00  0.00     0.126 C 
HETATM    6  N2  UNL     1      -0.038   9.761   0.126  1.00  0.00    -0.279 N 
HETATM    7  S2  UNL     1      -0.008   8.762  -1.258  1.00  0.00     0.322 S 
HETATM    8  C4  UNL     1      -0.878  10.900   0.046  1.00  0.00     0.166 C 
HETATM    9  N1  UNL     1       1.489   9.056  -2.035  1.00  0.00    -0.265 N 
HETATM   10  O1  UNL     1      -1.099   9.204  -2.217  1.00  0.00    -0.182 OA
HETATM   11  O2  UNL     1      -0.155   7.306  -0.925  1.00  0.00    -0.182 OA
HETATM   12  C3  UNL     1       2.502   9.196  -1.268  1.00  0.00     0.061 C 
ATOM     13  H1  UNL     1       1.568   9.117  -3.050  1.00  0.00     0.180 HD
HETATM   14  C19 UNL     1       2.317   9.099   0.183  1.00  0.00     0.106 C 
HETATM   15  C6  UNL     1       1.647  11.432   0.390  1.00  0.00     0.050 C 
BRANCH  12  16
HETATM   16  S1  UNL     1       4.112   9.507  -1.987  1.00  0.00    -0.116 SA
BRANCH  16  17
HETATM   17  C2  UNL     1       5.315   8.390  -1.218  1.00  0.00     0.076 C 
HETATM   18  C1  UNL     1       6.013   9.058  -0.069  1.00  0.00     0.016 C 
ENDBRANCH  16  17
ENDBRANCH  12  16
ENDBRANCH   1   5
BRANCH   3  19
HETATM   19  C8  UNL     1       2.124   8.938   4.324  1.00  0.00     0.132 C 
BRANCH  19  20
HETATM   20  C9  UNL     1       3.402   8.341   4.828  1.00  0.00    -0.023 C 
HETATM   21  C10 UNL     1       4.510   8.555   3.811  1.00  0.00     0.015 C 
HETATM   22  C11 UNL     1       5.809   7.997   4.323  1.00  0.00    -0.013 C 
HETATM   23  C12 UNL     1       5.698   6.520   4.608  1.00  0.00     0.009 C 
HETATM   24  C16 UNL     1       6.239   8.679   5.609  1.00  0.00     0.009 C 
HETATM   25  C13 UNL     1       4.581   6.328   5.609  1.00  0.00    -0.013 C 
HETATM   26  C14 UNL     1       4.935   7.005   6.905  1.00  0.00     0.009 C 
HETATM   27  C18 UNL     1       3.280   6.869   5.089  1.00  0.00     0.015 C 
HETATM   28  C15 UNL     1       5.126   8.474   6.623  1.00  0.00    -0.013 C 
HETATM   29  C17 UNL     1       3.843   9.045   6.100  1.00  0.00     0.015 C 
ENDBRANCH  19  20
ENDBRANCH   3  19
TORSDOF 5
ENDMDL
MODEL 2
REMARK VINA RESULT: -6.535115896      0.051      1.416
REMARK  5 active torsions:
REMARK  status: ('A' for Active; 'I' for Inactive)
REMARK    1  A    between atoms: C2_2  and  S1_3 
REMARK    2  A    between atoms: S1_3  and  C3_4 
REMARK    3  A    between atoms: C5_12  and  C7_14 
REMARK       I    between atoms: C7_14  and  N3_16 
REMARK    4  A    between atoms: N3_16  and  C8_18 
REMARK    5  A    between atoms: C8_18  and  C9_19 
ROOT
HETATM    1  C7  UNL     1       1.242   9.874   2.211  1.00  0.00     0.246 C 
HETATM    2  O3  UNL     1       0.383  10.528   2.857  1.00  0.00    -0.271 OA
HETATM    3  N3  UNL     1       2.147   9.050   2.918  1.00  0.00    -0.358 N 
ATOM      4  H3  UNL     1       2.842   8.522   2.392  1.00  0.00     0.162 HD
ENDROOT
BRANCH   1   5
HETATM    5  C5  UNL     1       1.247  10.013   0.736  1.00  0.00     0.126 C 
HETATM    6  N2  UNL     1      -0.022   9.771   0.140  1.00  0.00    -0.279 N 
HETATM    7  S2  UNL     1       0.015   8.783  -1.253  1.00  0.00     0.322 S 
HETATM    8  C4  UNL     1      -0.860  10.912   0.063  1.00  0.00     0.166 C 
HETATM    9  N1  UNL     1       1.519   9.081  -2.016  1.00  0.00    -0.265 N 
HETATM   10  O1  UNL     1      -1.067   9.235  -2.215  1.00  0.00    -0.182 OA
HETATM   11  O2  UNL     1      -0.136   7.324  -0.933  1.00  0.00    -0.182 OA
HETATM   12  C3  UNL     1       2.526   9.213  -1.241  1.00  0.00     0.061 C 
ATOM     13  H1  UNL     1       1.605   9.149  -3.030  1.00  0.00     0.180 HD
HETATM   14  C19 UNL     1       2.330   9.104   0.208  1.00  0.00     0.106 C 
HETATM   15  C6  UNL     1       1.664  11.436   0.429  1.00  0.00     0.050 C 
BRANCH  12  16
HETATM   16  S1  UNL     1       4.142   9.526  -1.945  1.00  0.00    -0.116 SA
BRANCH  16  17
HETATM   17  C2  UNL     1       5.342   8.418  -1.158  1.00  0.00     0.076 C 
HETATM   18  C1  UNL     1       6.037   9.099  -0.016  1.00  0.00     0.016 C 
ENDBRANCH  16  17
ENDBRANCH  12  16
ENDBRANCH   1   5
BRANCH   3  19
HETATM   19  C8  UNL     1       2.125   8.930   4.348  1.00  0.00     0.132 C 
BRANCH  19  20
HETATM   20  C9  UNL     1       3.425   8.390   4.862  1.00  0.00    -0.023 C 
HETATM   21  C10 UNL     1       3.303   6.897   5.114  1.00  0.00     0.015 C 
HETATM   22  C11 UNL     1       4.614   6.335   5.590  1.00  0.00    -0.013 C 
HETATM   23  C12 UNL     1       5.067   7.001   6.865  1.00  0.00     0.009 C 
HETATM   24  C16 UNL     1       5.710   6.530   4.559  1.00  0.00     0.009 C 
HETATM   25  C13 UNL     1       5.166   8.486   6.597  1.00  0.00    -0.013 C 
HETATM   26  C14 UNL     1       6.224   8.748   5.560  1.00  0.00     0.009 C 
HETATM   27  C18 UNL     1       3.852   9.050   6.140  1.00  0.00     0.015 C 
HETATM   28  C15 UNL     1       5.825   8.023   4.299  1.00  0.00    -0.013 C 
HETATM   29  C17 UNL     1       4.513   8.563   3.816  1.00  0.00     0.015 C 
ENDBRANCH  19  20
ENDBRANCH   3  19
TORSDOF 5
ENDMDL
MODEL 3
REMARK VINA RESULT: -6.502828262      0.049      1.423
REMARK  5 active torsions:
REMARK  status: ('A' for Active; 'I' for Inactive)
REMARK    1  A    between atoms: C2_2  and  S1_3 
REMARK    2  A    between atoms: S1_3  and  C3_4 
REMARK    3  A    between atoms: C5_12  and  C7_14 
REMARK       I    between atoms: C7_14  and  N3_16 
REMARK    4  A    between atoms: N3_16  and  C8_18 
REMARK    5  A    between atoms: C8_18  and  C9_19 
ROOT
HETATM    1  C7  UNL     1       1.247   9.857   2.209  1.00  0.00     0.246 C 
HETATM    2  O3  UNL     1       0.404  10.519   2.869  1.00  0.00    -0.271 OA
HETATM    3  N3  UNL     1       2.150   9.019   2.902  1.00  0.00    -0.358 N 
ATOM      4  H3  UNL     1       2.832   8.484   2.364  1.00  0.00     0.162 HD
ENDROOT
BRANCH   1   5
HETATM    5  C5  UNL     1       1.235  10.003   0.735  1.00  0.00     0.126 C 
HETATM    6  N2  UNL     1      -0.039   9.759   0.152  1.00  0.00    -0.279 N 
HETATM    7  S2  UNL     1      -0.014   8.777  -1.246  1.00  0.00     0.322 S 
HETATM    8  C4  UNL     1      -0.882  10.898   0.089  1.00  0.00     0.166 C 
HETATM    9  N1  UNL     1       1.480   9.083  -2.024  1.00  0.00    -0.265 N 
HETATM   10  O1  UNL     1      -1.109   9.231  -2.195  1.00  0.00    -0.182 OA
HETATM   11  O2  UNL     1      -0.158   7.317  -0.931  1.00  0.00    -0.182 OA
HETATM   12  C3  UNL     1       2.495   9.215  -1.259  1.00  0.00     0.061 C 
ATOM     13  H1  UNL     1       1.555   9.157  -3.039  1.00  0.00     0.180 HD
HETATM   14  C19 UNL     1       2.316   9.099   0.191  1.00  0.00     0.106 C 
HETATM   15  C6  UNL     1       1.644  11.428   0.430  1.00  0.00     0.050 C 
BRANCH  12  16
HETATM   16  S1  UNL     1       4.102   9.537  -1.980  1.00  0.00    -0.116 SA
BRANCH  16  17
HETATM   17  C2  UNL     1       5.309   8.408  -1.232  1.00  0.00     0.076 C 
HETATM   18  C1  UNL     1       6.019   9.063  -0.083  1.00  0.00     0.016 C 
ENDBRANCH  16  17
ENDBRANCH  12  16
ENDBRANCH   1   5
BRANCH   3  19
HETATM   19  C8  UNL     1       2.145   8.892   4.331  1.00  0.00     0.132 C 
BRANCH  19  20
HETATM   20  C9  UNL     1       3.446   8.341   4.827  1.00  0.00    -0.023 C 
HETATM   21  C10 UNL     1       3.822   9.002   6.142  1.00  0.00     0.015 C 
HETATM   22  C11 UNL     1       5.106   8.427   6.672  1.00  0.00    -0.013 C 
HETATM   23  C12 UNL     1       6.240   8.621   5.696  1.00  0.00     0.009 C 
HETATM   24  C16 UNL     1       4.982   6.937   6.936  1.00  0.00     0.009 C 
HETATM   25  C13 UNL     1       5.839   7.970   4.392  1.00  0.00    -0.013 C 
HETATM   26  C14 UNL     1       5.674   6.488   4.590  1.00  0.00     0.009 C 
HETATM   27  C18 UNL     1       4.566   8.558   3.853  1.00  0.00     0.015 C 
HETATM   28  C15 UNL     1       4.595   6.277   5.623  1.00  0.00    -0.013 C 
HETATM   29  C17 UNL     1       3.309   6.856   5.116  1.00  0.00     0.015 C 
ENDBRANCH  19  20
ENDBRANCH   3  19
TORSDOF 5
ENDMDL
MODEL 4
REMARK VINA RESULT: -6.266002969      2.634      4.085
REMARK  5 active torsions:
REMARK  status: ('A' for Active; 'I' for Inactive)
REMARK    1  A    between atoms: C2_2  and  S1_3 
REMARK    2  A    between atoms: S1_3  and  C3_4 
REMARK    3  A    between atoms: C5_12  and  C7_14 
REMARK       I    between atoms: C7_14  and  N3_16 
REMARK    4  A    between atoms: N3_16  and  C8_18 
REMARK    5  A    between atoms: C8_18  and  C9_19 
ROOT
HETATM    1  C7  UNL     1       5.246  10.421   1.414  1.00  0.00     0.246 C 
HETATM    2  O3  UNL     1       5.190  11.532   2.002  1.00  0.00    -0.271 OA
HETATM    3  N3  UNL     1       5.719   9.295   2.126  1.00  0.00    -0.358 N 
ATOM      4  H3  UNL     1       5.763   8.396   1.647  1.00  0.00     0.162 HD
ENDROOT
BRANCH   1   5
HETATM    5  C5  UNL     1       4.808  10.367   0.000  1.00  0.00     0.126 C 
HETATM    6  N2  UNL     1       5.029  11.581  -0.708  1.00  0.00    -0.279 N 
HETATM    7  S2  UNL     1       3.720  12.095  -1.678  1.00  0.00     0.322 S 
HETATM    8  C4  UNL     1       6.313  11.689  -1.300  1.00  0.00     0.166 C 
HETATM    9  N1  UNL     1       2.924  10.674  -2.208  1.00  0.00    -0.265 N 
HETATM   10  O1  UNL     1       4.258  12.789  -2.916  1.00  0.00    -0.182 OA
HETATM   11  O2  UNL     1       2.768  12.990  -0.940  1.00  0.00    -0.182 OA
HETATM   12  C3  UNL     1       2.813   9.737  -1.346  1.00  0.00     0.061 C 
ATOM     13  H1  UNL     1       2.561  10.581  -3.156  1.00  0.00     0.180 HD
HETATM   14  C19 UNL     1       3.361   9.937  -0.001  1.00  0.00     0.106 C 
HETATM   15  C6  UNL     1       5.605   9.265  -0.666  1.00  0.00     0.050 C 
BRANCH  12  16
HETATM   16  S1  UNL     1       1.996   8.212  -1.805  1.00  0.00    -0.116 SA
BRANCH  16  17
HETATM   17  C2  UNL     1       0.218   8.531  -1.960  1.00  0.00     0.076 C 
HETATM   18  C1  UNL     1      -0.532   7.980  -0.782  1.00  0.00     0.016 C 
ENDBRANCH  16  17
ENDBRANCH  12  16
ENDBRANCH   1   5
BRANCH   3  19
HETATM   19  C8  UNL     1       6.139   9.369   3.497  1.00  0.00     0.132 C 
BRANCH  19  20
HETATM   20  C9  UNL     1       5.128   8.736   4.404  1.00  0.00    -0.023 C 
HETATM   21  C10 UNL     1       4.982   9.559   5.671  1.00  0.00     0.015 C 
HETATM   22  C11 UNL     1       3.939   8.956   6.572  1.00  0.00    -0.013 C 
HETATM   23  C12 UNL     1       4.296   7.542   6.957  1.00  0.00     0.009 C 
HETATM   24  C16 UNL     1       2.579   8.918   5.901  1.00  0.00     0.009 C 
HETATM   25  C13 UNL     1       4.452   6.745   5.681  1.00  0.00    -0.013 C 
HETATM   26  C14 UNL     1       3.138   6.689   4.951  1.00  0.00     0.009 C 
HETATM   27  C18 UNL     1       5.506   7.336   4.791  1.00  0.00     0.015 C 
HETATM   28  C15 UNL     1       2.727   8.104   4.626  1.00  0.00    -0.013 C 
HETATM   29  C17 UNL     1       3.763   8.724   3.738  1.00  0.00     0.015 C 
ENDBRANCH  19  20
ENDBRANCH   3  19
TORSDOF 5
ENDMDL
MODEL 5
REMARK VINA RESULT: -6.245480646      2.639      4.012
REMARK  5 active torsions:
REMARK  status: ('A' for Active; 'I' for Inactive)
REMARK    1  A    between atoms: C2_2  and  S1_3 
REMARK    2  A    between atoms: S1_3  and  C3_4 
REMARK    3  A    between atoms: C5_12  and  C7_14 
REMARK       I    between atoms: C7_14  and  N3_16 
REMARK    4  A    between atoms: N3_16  and  C8_18 
REMARK    5  A    between atoms: C8_18  and  C9_19 
ROOT
HETATM    1  C7  UNL     1       5.240  10.401   1.497  1.00  0.00     0.246 C 
HETATM    2  O3  UNL     1       5.094  11.496   2.101  1.00  0.00    -0.271 OA
HETATM    3  N3  UNL     1       5.754   9.293   2.207  1.00  0.00    -0.358 N 
ATOM      4  H3  UNL     1       5.871   8.407   1.715  1.00  0.00     0.162 HD
ENDROOT
BRANCH   1   5
HETATM    5  C5  UNL     1       4.857  10.348   0.067  1.00  0.00     0.126 C 
HETATM    6  N2  UNL     1       5.091  11.568  -0.628  1.00  0.00    -0.279 N 
HETATM    7  S2  UNL     1       3.815  12.071  -1.645  1.00  0.00     0.322 S 
HETATM    8  C4  UNL     1       6.395  11.694  -1.168  1.00  0.00     0.166 C 
HETATM    9  N1  UNL     1       3.057  10.643  -2.212  1.00  0.00    -0.265 N 
HETATM   10  O1  UNL     1       4.392  12.776  -2.859  1.00  0.00    -0.182 OA
HETATM   11  O2  UNL     1       2.825  12.952  -0.941  1.00  0.00    -0.182 OA
HETATM   12  C3  UNL     1       2.924   9.701  -1.358  1.00  0.00     0.061 C 
ATOM     13  H1  UNL     1       2.732  10.550  -3.173  1.00  0.00     0.180 HD
HETATM   14  C19 UNL     1       3.416   9.902   0.008  1.00  0.00     0.106 C 
HETATM   15  C6  UNL     1       5.692   9.259  -0.572  1.00  0.00     0.050 C 
BRANCH  12  16
HETATM   16  S1  UNL     1       2.143   8.169  -1.854  1.00  0.00    -0.116 SA
BRANCH  16  17
HETATM   17  C2  UNL     1       0.354   8.439  -1.965  1.00  0.00     0.076 C 
HETATM   18  C1  UNL     1      -0.343   7.945  -0.731  1.00  0.00     0.016 C 
ENDBRANCH  16  17
ENDBRANCH  12  16
ENDBRANCH   1   5
BRANCH   3  19
HETATM   19  C8  UNL     1       6.118   9.365   3.593  1.00  0.00     0.132 C 
BRANCH  19  20
HETATM   20  C9  UNL     1       5.055   8.764   4.461  1.00  0.00    -0.023 C 
HETATM   21  C10 UNL     1       5.454   7.356   4.868  1.00  0.00     0.015 C 
HETATM   22  C11 UNL     1       4.415   6.756   5.774  1.00  0.00    -0.013 C 
HETATM   23  C12 UNL     1       3.066   6.697   5.100  1.00  0.00     0.009 C 
HETATM   24  C16 UNL     1       4.254   7.565   7.048  1.00  0.00     0.009 C 
HETATM   25  C13 UNL     1       2.697   8.105   4.690  1.00  0.00    -0.013 C 
HETATM   26  C14 UNL     1       2.545   8.969   5.912  1.00  0.00     0.009 C 
HETATM   27  C18 UNL     1       3.725   8.696   3.770  1.00  0.00     0.015 C 
HETATM   28  C15 UNL     1       3.866   8.976   6.641  1.00  0.00    -0.013 C 
HETATM   29  C17 UNL     1       4.916   9.561   5.747  1.00  0.00     0.015 C 
ENDBRANCH  19  20
ENDBRANCH   3  19
TORSDOF 5
ENDMDL
