MODEL 1
REMARK VINA RESULT: -6.802101570      0.000      0.000
REMARK  6 active torsions:
REMARK  status: ('A' for Active; 'I' for Inactive)
REMARK    1  A    between atoms: C3_3  and  O1_4 
REMARK    2  A    between atoms: O1_4  and  C4_5 
REMARK    3  A    between atoms: C4_5  and  C5_6 
REMARK    4  A    between atoms: N2_16  and  C13_17 
REMARK    5  A    between atoms: C18_22  and  C20_24 
REMARK    6  A    between atoms: C22_26  and  O3_27 
ROOT
HETATM    1  C1  UNL     1       5.515   6.086   5.253  1.00  0.00     0.014 C 
HETATM    2  C2  UNL     1       5.740   7.254   5.092  1.00  0.00    -0.091 C 
HETATM    3  C3  UNL     1       6.027   8.664   4.918  1.00  0.00     0.260 C 
ENDROOT
BRANCH   3   4
HETATM    4  O1  UNL     1       6.160   9.041   3.586  1.00  0.00    -0.377 OA
BRANCH   4   5
HETATM    5  C4  UNL     1       5.126   9.971   3.330  1.00  0.00     0.200 C 
BRANCH   5   6
HETATM    6  C5  UNL     1       4.648  10.009   1.975  1.00  0.00     0.061 C 
HETATM    7  C6  UNL     1       5.539   8.993   1.196  1.00  0.00     0.042 C 
HETATM    8  C7  UNL     1       5.746   9.732  -0.074  1.00  0.00     0.040 C 
HETATM    9  C8  UNL     1       6.426  10.931   0.656  1.00  0.00     0.133 C 
HETATM   10  C15 UNL     1       4.483  10.344  -0.666  1.00  0.00     0.233 C 
HETATM   11  N1  UNL     1       5.153  11.246   1.333  1.00  0.00    -0.339 N 
HETATM   12  C9  UNL     1       4.417  12.431   1.391  1.00  0.00     0.226 C 
HETATM   13  O2  UNL     1       3.983  12.593   2.527  1.00  0.00    -0.273 OA
HETATM   14  C10 UNL     1       4.114  13.437   0.329  1.00  0.00     0.102 C 
HETATM   15  C11 UNL     1       2.878  14.236   0.623  1.00  0.00     0.022 C 
HETATM   16  C12 UNL     1       4.011  12.752  -1.054  1.00  0.00     0.286 C 
HETATM   17  N2  UNL     1       4.823  11.618  -1.190  1.00  0.00     0.094 N 
HETATM   18  C16 UNL     1       3.236  10.137   0.051  1.00  0.00     0.027 C 
HETATM   19  C17 UNL     1       2.249   9.173  -0.642  1.00  0.00     0.023 C 
HETATM   20  C25 UNL     1       3.316   9.638   1.508  1.00  0.00     0.028 C 
HETATM   21  C18 UNL     1       0.884   9.318  -0.016  1.00  0.00    -0.000 C 
HETATM   22  C19 UNL     1       0.136  10.538  -0.414  1.00  0.00     0.022 C 
HETATM   23  C22 UNL     1       0.958   9.129   1.451  1.00  0.00     0.134 C 
HETATM   24  C23 UNL     1       2.049  10.002   2.133  1.00  0.00     0.018 C 
HETATM   25  C24 UNL     1       1.821   9.701   3.569  1.00  0.00     0.013 C 
BRANCH  17  26
HETATM   26  C13 UNL     1       5.266  11.542  -2.583  1.00  0.00     0.268 C 
HETATM   27  C14 UNL     1       4.429  10.700  -3.465  1.00  0.00     0.037 C 
ENDBRANCH  17  26
BRANCH  21  28
HETATM   28  C20 UNL     1       0.073   8.151  -0.540  1.00  0.00    -0.025 C 
HETATM   29  C21 UNL     1      -1.053   8.370  -1.208  1.00  0.00     0.008 C 
ENDBRANCH  21  28
BRANCH  23  30
HETATM   30  O3  UNL     1      -0.248   9.608   2.004  1.00  0.00    -0.394 OA
ATOM     31  H3  UNL     1      -0.486   9.030   2.719  1.00  0.00     0.210 HD
ENDBRANCH  23  30
ENDBRANCH   5   6
ENDBRANCH   4   5
ENDBRANCH   3   4
TORSDOF 6
ENDMDL
MODEL 2
REMARK VINA RESULT: -6.492516057      0.926      1.373
REMARK  6 active torsions:
REMARK  status: ('A' for Active; 'I' for Inactive)
REMARK    1  A    between atoms: C3_3  and  O1_4 
REMARK    2  A    between atoms: O1_4  and  C4_5 
REMARK    3  A    between atoms: C4_5  and  C5_6 
REMARK    4  A    between atoms: N2_16  and  C13_17 
REMARK    5  A    between atoms: C18_22  and  C20_24 
REMARK    6  A    between atoms: C22_26  and  O3_27 
ROOT
HETATM    1  C1  UNL     1       8.783  10.386   2.756  1.00  0.00     0.014 C 
HETATM    2  C2  UNL     1       7.887   9.858   3.354  1.00  0.00    -0.091 C 
HETATM    3  C3  UNL     1       6.807   9.237   4.096  1.00  0.00     0.260 C 
ENDROOT
BRANCH   3   4
HETATM    4  O1  UNL     1       5.740   8.844   3.294  1.00  0.00    -0.377 OA
BRANCH   4   5
HETATM    5  C4  UNL     1       5.025  10.022   2.978  1.00  0.00     0.200 C 
BRANCH   5   6
HETATM    6  C5  UNL     1       4.446  10.061   1.662  1.00  0.00     0.061 C 
HETATM    7  C6  UNL     1       5.298   9.071   0.810  1.00  0.00     0.042 C 
HETATM    8  C7  UNL     1       5.394   9.825  -0.465  1.00  0.00     0.040 C 
HETATM    9  C8  UNL     1       6.101  11.033   0.225  1.00  0.00     0.133 C 
HETATM   10  C15 UNL     1       4.078  10.415  -0.955  1.00  0.00     0.233 C 
HETATM   11  N1  UNL     1       4.876  11.313   0.998  1.00  0.00    -0.339 N 
HETATM   12  C9  UNL     1       4.121  12.482   1.122  1.00  0.00     0.226 C 
HETATM   13  O2  UNL     1       3.770  12.625   2.289  1.00  0.00    -0.273 OA
HETATM   14  C10 UNL     1       3.719  13.490   0.096  1.00  0.00     0.102 C 
HETATM   15  C11 UNL     1       2.491  14.259   0.489  1.00  0.00     0.022 C 
HETATM   16  C12 UNL     1       3.528  12.815  -1.283  1.00  0.00     0.286 C 
HETATM   17  N2  UNL     1       4.351  11.700  -1.490  1.00  0.00     0.094 N 
HETATM   18  C16 UNL     1       2.893  10.174  -0.150  1.00  0.00     0.027 C 
HETATM   19  C17 UNL     1       1.877   9.194  -0.777  1.00  0.00     0.023 C 
HETATM   20  C25 UNL     1       3.091   9.665   1.292  1.00  0.00     0.028 C 
HETATM   21  C18 UNL     1       0.559   9.304  -0.050  1.00  0.00    -0.000 C 
HETATM   22  C19 UNL     1      -0.242  10.511  -0.378  1.00  0.00     0.022 C 
HETATM   23  C22 UNL     1       0.747   9.105   1.406  1.00  0.00     0.134 C 
HETATM   24  C23 UNL     1       1.867   9.995   2.013  1.00  0.00     0.018 C 
HETATM   25  C24 UNL     1       1.753   9.677   3.459  1.00  0.00     0.013 C 
BRANCH  17  26
HETATM   26  C13 UNL     1       4.690  11.645  -2.913  1.00  0.00     0.268 C 
HETATM   27  C14 UNL     1       3.776  10.836  -3.748  1.00  0.00     0.037 C 
ENDBRANCH  17  26
BRANCH  21  28
HETATM   28  C20 UNL     1      -0.263   8.124  -0.524  1.00  0.00    -0.025 C 
HETATM   29  C21 UNL     1      -1.131   8.274  -1.517  1.00  0.00     0.008 C 
ENDBRANCH  21  28
BRANCH  23  30
HETATM   30  O3  UNL     1      -0.425   9.552   2.051  1.00  0.00    -0.394 OA
ATOM     31  H3  UNL     1      -0.329  10.483   2.207  1.00  0.00     0.210 HD
ENDBRANCH  23  30
ENDBRANCH   5   6
ENDBRANCH   4   5
ENDBRANCH   3   4
TORSDOF 6
ENDMDL
MODEL 3
REMARK VINA RESULT: -6.440094650      2.837      6.688
REMARK  6 active torsions:
REMARK  status: ('A' for Active; 'I' for Inactive)
REMARK    1  A    between atoms: C3_3  and  O1_4 
REMARK    2  A    between atoms: O1_4  and  C4_5 
REMARK    3  A    between atoms: C4_5  and  C5_6 
REMARK    4  A    between atoms: N2_16  and  C13_17 
REMARK    5  A    between atoms: C18_22  and  C20_24 
REMARK    6  A    between atoms: C22_26  and  O3_27 
ROOT
HETATM    1  C1  UNL     1      -4.100   8.967  -2.530  1.00  0.00     0.014 C 
HETATM    2  C2  UNL     1      -2.998   8.496  -2.607  1.00  0.00    -0.091 C 
HETATM    3  C3  UNL     1      -1.663   7.944  -2.719  1.00  0.00     0.260 C 
ENDROOT
BRANCH   3   4
HETATM    4  O1  UNL     1      -1.057   7.709  -1.489  1.00  0.00    -0.377 OA
BRANCH   4   5
HETATM    5  C4  UNL     1      -0.036   8.679  -1.357  1.00  0.00     0.200 C 
BRANCH   5   6
HETATM    6  C5  UNL     1       0.036   9.331  -0.078  1.00  0.00     0.061 C 
HETATM    7  C6  UNL     1      -1.057   8.644   0.796  1.00  0.00     0.042 C 
HETATM    8  C7  UNL     1      -1.605   9.819   1.519  1.00  0.00     0.040 C 
HETATM    9  C8  UNL     1      -2.028  10.521   0.191  1.00  0.00     0.133 C 
HETATM   10  C15 UNL     1      -0.553  10.756   2.098  1.00  0.00     0.233 C 
HETATM   11  N1  UNL     1      -0.610  10.660  -0.192  1.00  0.00    -0.339 N 
HETATM   12  C9  UNL     1       0.132  11.785  -0.559  1.00  0.00     0.226 C 
HETATM   13  O2  UNL     1       0.875  11.503  -1.495  1.00  0.00    -0.273 OA
HETATM   14  C10 UNL     1       0.136  13.169   0.003  1.00  0.00     0.102 C 
HETATM   15  C11 UNL     1       1.419  13.901  -0.269  1.00  0.00     0.022 C 
HETATM   16  C12 UNL     1      -0.171  13.141   1.518  1.00  0.00     0.286 C 
HETATM   17  N2  UNL     1      -1.007  12.087   1.911  1.00  0.00     0.094 N 
HETATM   18  C16 UNL     1       0.842  10.405   1.899  1.00  0.00     0.027 C 
HETATM   19  C17 UNL     1       1.575   9.932   3.174  1.00  0.00     0.023 C 
HETATM   20  C25 UNL     1       1.174   9.337   0.836  1.00  0.00     0.028 C 
HETATM   21  C18 UNL     1       3.064   9.949   2.932  1.00  0.00    -0.000 C 
HETATM   22  C19 UNL     1       3.688  11.297   2.946  1.00  0.00     0.022 C 
HETATM   23  C22 UNL     1       3.409   9.157   1.728  1.00  0.00     0.134 C 
HETATM   24  C23 UNL     1       2.572   9.541   0.476  1.00  0.00     0.018 C 
HETATM   25  C24 UNL     1       3.195   8.694  -0.573  1.00  0.00     0.013 C 
BRANCH  17  26
HETATM   26  C13 UNL     1      -1.830  12.552   3.028  1.00  0.00     0.268 C 
HETATM   27  C14 UNL     1      -2.758  13.659   2.707  1.00  0.00     0.037 C 
ENDBRANCH  17  26
BRANCH  21  28
HETATM   28  C20 UNL     1       3.672   9.203   4.102  1.00  0.00    -0.025 C 
HETATM   29  C21 UNL     1       2.947   8.319   4.776  1.00  0.00     0.008 C 
ENDBRANCH  21  28
BRANCH  23  30
HETATM   30  O3  UNL     1       4.730   9.489   1.364  1.00  0.00    -0.394 OA
ATOM     31  H3  UNL     1       5.114   8.726   0.950  1.00  0.00     0.210 HD
ENDBRANCH  23  30
ENDBRANCH   5   6
ENDBRANCH   4   5
ENDBRANCH   3   4
TORSDOF 6
ENDMDL
MODEL 4
REMARK VINA RESULT: -6.368452720      2.246      5.521
REMARK  6 active torsions:
REMARK  status: ('A' for Active; 'I' for Inactive)
REMARK    1  A    between atoms: C3_3  and  O1_4 
REMARK    2  A    between atoms: O1_4  and  C4_5 
REMARK    3  A    between atoms: C4_5  and  C5_6 
REMARK    4  A    between atoms: N2_16  and  C13_17 
REMARK    5  A    between atoms: C18_22  and  C20_24 
REMARK    6  A    between atoms: C22_26  and  O3_27 
ROOT
HETATM    1  C1  UNL     1      -1.649   8.315  -1.901  1.00  0.00     0.014 C 
HETATM    2  C2  UNL     1      -1.987   9.084  -1.044  1.00  0.00    -0.091 C 
HETATM    3  C3  UNL     1      -2.420  10.005  -0.011  1.00  0.00     0.260 C 
ENDROOT
BRANCH   3   4
HETATM    4  O1  UNL     1      -1.532  10.098   1.054  1.00  0.00    -0.377 OA
BRANCH   4   5
HETATM    5  C4  UNL     1      -0.475  10.931   0.620  1.00  0.00     0.200 C 
BRANCH   5   6
HETATM    6  C5  UNL     1       0.849  10.414   0.834  1.00  0.00     0.061 C 
HETATM    7  C6  UNL     1       0.651   9.102   1.654  1.00  0.00     0.042 C 
HETATM    8  C7  UNL     1       1.783   9.204   2.607  1.00  0.00     0.040 C 
HETATM    9  C8  UNL     1       1.256  10.551   3.192  1.00  0.00     0.133 C 
HETATM   10  C15 UNL     1       3.114   9.588   1.974  1.00  0.00     0.233 C 
HETATM   11  N1  UNL     1       1.499  11.214   1.897  1.00  0.00    -0.339 N 
HETATM   12  C9  UNL     1       2.238  12.357   1.580  1.00  0.00     0.226 C 
HETATM   13  O2  UNL     1       1.631  13.023   0.747  1.00  0.00    -0.273 OA
HETATM   14  C10 UNL     1       3.564  12.825   2.083  1.00  0.00     0.102 C 
HETATM   15  C11 UNL     1       4.251  13.756   1.126  1.00  0.00     0.022 C 
HETATM   16  C12 UNL     1       4.472  11.620   2.425  1.00  0.00     0.286 C 
HETATM   17  N2  UNL     1       3.772  10.484   2.855  1.00  0.00     0.094 N 
HETATM   18  C16 UNL     1       3.139   9.797   0.536  1.00  0.00     0.027 C 
HETATM   19  C17 UNL     1       3.877   8.700  -0.261  1.00  0.00     0.023 C 
HETATM   20  C25 UNL     1       1.790   9.972  -0.191  1.00  0.00     0.028 C 
HETATM   21  C18 UNL     1       4.153   9.195  -1.659  1.00  0.00    -0.000 C 
HETATM   22  C19 UNL     1       5.265  10.174  -1.772  1.00  0.00     0.022 C 
HETATM   23  C22 UNL     1       2.903   9.653  -2.308  1.00  0.00     0.134 C 
HETATM   24  C23 UNL     1       2.088  10.656  -1.444  1.00  0.00     0.018 C 
HETATM   25  C24 UNL     1       0.984  11.021  -2.367  1.00  0.00     0.013 C 
BRANCH  17  26
HETATM   26  C13 UNL     1       4.604   9.784   3.835  1.00  0.00     0.268 C 
HETATM   27  C14 UNL     1       5.773   9.073   3.275  1.00  0.00     0.037 C 
ENDBRANCH  17  26
BRANCH  21  28
HETATM   28  C20 UNL     1       4.598   7.976  -2.440  1.00  0.00    -0.025 C 
HETATM   29  C21 UNL     1       5.866   7.584  -2.394  1.00  0.00     0.008 C 
ENDBRANCH  21  28
BRANCH  23  30
HETATM   30  O3  UNL     1       3.264  10.406  -3.445  1.00  0.00    -0.394 OA
ATOM     31  H3  UNL     1       4.207  10.344  -3.543  1.00  0.00     0.210 HD
ENDBRANCH  23  30
ENDBRANCH   5   6
ENDBRANCH   4   5
ENDBRANCH   3   4
TORSDOF 6
ENDMDL
MODEL 5
REMARK VINA RESULT: -6.245532447      1.842      2.706
REMARK  6 active torsions:
REMARK  status: ('A' for Active; 'I' for Inactive)
REMARK    1  A    between atoms: C3_3  and  O1_4 
REMARK    2  A    between atoms: O1_4  and  C4_5 
REMARK    3  A    between atoms: C4_5  and  C5_6 
REMARK    4  A    between atoms: N2_16  and  C13_17 
REMARK    5  A    between atoms: C18_22  and  C20_24 
REMARK    6  A    between atoms: C22_26  and  O3_27 
ROOT
HETATM    1  C1  UNL     1       4.206   7.102   6.952  1.00  0.00     0.014 C 
HETATM    2  C2  UNL     1       3.396   7.826   6.441  1.00  0.00    -0.091 C 
HETATM    3  C3  UNL     1       2.427   8.719   5.838  1.00  0.00     0.260 C 
ENDROOT
BRANCH   3   4
HETATM    4  O1  UNL     1       2.170   8.434   4.501  1.00  0.00    -0.377 OA
BRANCH   4   5
HETATM    5  C4  UNL     1       2.202   9.671   3.816  1.00  0.00     0.200 C 
BRANCH   5   6
HETATM    6  C5  UNL     1       3.052   9.715   2.658  1.00  0.00     0.061 C 
HETATM    7  C6  UNL     1       4.245   8.767   2.987  1.00  0.00     0.042 C 
HETATM    8  C7  UNL     1       5.375   9.545   2.420  1.00  0.00     0.040 C 
HETATM    9  C8  UNL     1       5.093  10.761   3.357  1.00  0.00     0.133 C 
HETATM   10  C15 UNL     1       5.124  10.104   1.026  1.00  0.00     0.233 C 
HETATM   11  N1  UNL     1       3.804  10.992   2.677  1.00  0.00    -0.339 N 
HETATM   12  C9  UNL     1       3.284  12.135   2.065  1.00  0.00     0.226 C 
HETATM   13  O2  UNL     1       2.094  12.247   2.341  1.00  0.00    -0.273 OA
HETATM   14  C10 UNL     1       3.942  13.148   1.187  1.00  0.00     0.102 C 
HETATM   15  C11 UNL     1       2.966  13.873   0.306  1.00  0.00     0.022 C 
HETATM   16  C12 UNL     1       5.062  12.492   0.344  1.00  0.00     0.286 C 
HETATM   17  N2  UNL     1       5.685  11.406   0.973  1.00  0.00     0.094 N 
HETATM   18  C16 UNL     1       3.843   9.814   0.405  1.00  0.00     0.027 C 
HETATM   19  C17 UNL     1       3.909   8.816  -0.771  1.00  0.00     0.023 C 
HETATM   20  C25 UNL     1       2.708   9.286   1.306  1.00  0.00     0.028 C 
HETATM   21  C18 UNL     1       2.619   8.873  -1.551  1.00  0.00    -0.000 C 
HETATM   22  C19 UNL     1       2.467  10.062  -2.430  1.00  0.00     0.022 C 
HETATM   23  C22 UNL     1       1.457   8.654  -0.659  1.00  0.00     0.134 C 
HETATM   24  C23 UNL     1       1.463   9.567   0.600  1.00  0.00     0.018 C 
HETATM   25  C24 UNL     1       0.164   9.220   1.228  1.00  0.00     0.013 C 
BRANCH  17  26
HETATM   26  C13 UNL     1       7.088  11.387   0.557  1.00  0.00     0.268 C 
HETATM   27  C14 UNL     1       7.469  12.427  -0.423  1.00  0.00     0.037 C 
ENDBRANCH  17  26
BRANCH  21  28
HETATM   28  C20 UNL     1       2.655   7.678  -2.480  1.00  0.00    -0.025 C 
HETATM   29  C21 UNL     1       3.775   7.367  -3.121  1.00  0.00     0.008 C 
ENDBRANCH  21  28
BRANCH  23  30
HETATM   30  O3  UNL     1       0.301   9.054  -1.359  1.00  0.00    -0.394 OA
ATOM     31  H3  UNL     1      -0.046   9.825  -0.924  1.00  0.00     0.210 HD
ENDBRANCH  23  30
ENDBRANCH   5   6
ENDBRANCH   4   5
ENDBRANCH   3   4
TORSDOF 6
ENDMDL
