MODEL 1
REMARK VINA RESULT: -8.833263762      0.000      0.000
REMARK  5 active torsions:
REMARK  status: ('A' for Active; 'I' for Inactive)
REMARK    1  A    between atoms: C2_2  and  N1_5 
REMARK    2  A    between atoms: N1_5  and  C4_7 
REMARK    3  A    between atoms: C4_7  and  C5_11 
REMARK    4  A    between atoms: C9_15  and  C10_16 
REMARK    5  A    between atoms: C12_19  and  C13_20 
ROOT
HETATM    1  C5  UNL     1      18.915  27.910   0.793  1.00  0.00     0.008 A 
HETATM    2  C6  UNL     1      20.046  28.051   1.593  1.00  0.00     0.015 A 
HETATM    3  C7  UNL     1      20.402  27.140   2.552  1.00  0.00     0.002 A 
HETATM    4  C8  UNL     1      19.579  26.044   2.705  1.00  0.00     0.014 A 
HETATM    5  C9  UNL     1      18.454  25.846   1.953  1.00  0.00    -0.008 A 
HETATM    6  C14 UNL     1      18.124  26.776   0.997  1.00  0.00     0.029 A 
ENDROOT
BRANCH   1   7
HETATM    7  C4  UNL     1      18.610  28.921  -0.185  1.00  0.00     0.106 C 
HETATM    8  N2  UNL     1      19.270  29.990  -0.259  1.00  0.00    -0.385 N 
ATOM      9  H22 UNL     1      19.054  30.707  -0.953  1.00  0.00     0.157 HD
ATOM     10  H21 UNL     1      20.082  30.067   0.354  1.00  0.00     0.157 HD
BRANCH   7  11
HETATM   11  N1  UNL     1      17.468  28.814  -1.047  1.00  0.00    -0.354 N 
ATOM     12  H1  UNL     1      17.547  28.283  -1.915  1.00  0.00     0.163 HD
BRANCH  11  13
HETATM   13  C2  UNL     1      16.206  29.440  -0.715  1.00  0.00     0.101 C 
HETATM   14  C1  UNL     1      15.174  28.431  -0.233  1.00  0.00     0.056 C 
HETATM   15  C3  UNL     1      15.586  30.191  -1.879  1.00  0.00     0.056 C 
HETATM   16 CL1  UNL     1      16.474  30.598   0.597  1.00  0.00    -0.096 Cl
ENDBRANCH  11  13
ENDBRANCH   7  11
ENDBRANCH   1   7
BRANCH   5  17
HETATM   17  C10 UNL     1      17.584  24.658   2.215  1.00  0.00     0.050 A 
HETATM   18  C11 UNL     1      16.362  24.804   2.855  1.00  0.00     0.082 A 
HETATM   19  S1  UNL     1      15.770  23.210   2.832  1.00  0.00    -0.077 SA
HETATM   20  C12 UNL     1      17.101  22.449   2.015  1.00  0.00     0.159 A 
HETATM   21  N3  UNL     1      17.903  23.479   1.819  1.00  0.00    -0.346 N 
ATOM     22  H3  UNL     1      18.793  23.335   1.344  1.00  0.00     0.166 HD
BRANCH  20  23
HETATM   23  C13 UNL     1      17.238  20.987   1.665  1.00  0.00     0.439 C 
HETATM   24  F1  UNL     1      16.025  20.407   2.002  1.00  0.00    -0.164 F 
HETATM   25  F2  UNL     1      17.394  20.919   0.287  1.00  0.00    -0.164 F 
HETATM   26  F3  UNL     1      18.290  20.452   2.350  1.00  0.00    -0.164 F 
ENDBRANCH  20  23
ENDBRANCH   5  17
TORSDOF 5
ENDMDL
MODEL 2
REMARK VINA RESULT: -8.574111320      5.298      7.641
REMARK  5 active torsions:
REMARK  status: ('A' for Active; 'I' for Inactive)
REMARK    1  A    between atoms: C2_2  and  N1_5 
REMARK    2  A    between atoms: N1_5  and  C4_7 
REMARK    3  A    between atoms: C4_7  and  C5_11 
REMARK    4  A    between atoms: C9_15  and  C10_16 
REMARK    5  A    between atoms: C12_19  and  C13_20 
ROOT
HETATM    1  C5  UNL     1      15.741  26.725   0.165  1.00  0.00     0.008 A 
HETATM    2  C6  UNL     1      14.552  27.402   0.423  1.00  0.00     0.015 A 
HETATM    3  C7  UNL     1      14.340  28.706   0.060  1.00  0.00     0.002 A 
HETATM    4  C8  UNL     1      15.373  29.347  -0.588  1.00  0.00     0.014 A 
HETATM    5  C9  UNL     1      16.566  28.741  -0.872  1.00  0.00    -0.008 A 
HETATM    6  C14 UNL     1      16.748  27.431  -0.498  1.00  0.00     0.029 A 
ENDROOT
BRANCH   1   7
HETATM    7  C4  UNL     1      15.882  25.357   0.589  1.00  0.00     0.106 C 
HETATM    8  N2  UNL     1      16.491  24.506  -0.110  1.00  0.00    -0.385 N 
ATOM      9  H22 UNL     1      16.590  23.536   0.191  1.00  0.00     0.157 HD
ATOM     10  H21 UNL     1      16.950  24.854  -0.951  1.00  0.00     0.157 HD
BRANCH   7  11
HETATM   11  N1  UNL     1      15.235  24.867   1.773  1.00  0.00    -0.354 N 
ATOM     12  H1  UNL     1      14.216  24.834   1.806  1.00  0.00     0.163 HD
BRANCH  11  13
HETATM   13  C2  UNL     1      15.994  24.418   2.921  1.00  0.00     0.101 C 
HETATM   14  C1  UNL     1      15.322  24.792   4.234  1.00  0.00     0.056 C 
HETATM   15  C3  UNL     1      17.402  24.980   2.964  1.00  0.00     0.056 C 
HETATM   16 CL1  UNL     1      16.115  22.652   2.866  1.00  0.00    -0.096 Cl
ENDBRANCH  11  13
ENDBRANCH   7  11
ENDBRANCH   1   7
BRANCH   5  17
HETATM   17  C10 UNL     1      17.659  29.519  -1.533  1.00  0.00     0.050 A 
HETATM   18  C11 UNL     1      18.264  30.582  -0.878  1.00  0.00     0.082 A 
HETATM   19  S1  UNL     1      19.446  31.051  -2.008  1.00  0.00    -0.077 SA
HETATM   20  C12 UNL     1      19.106  29.878  -3.243  1.00  0.00     0.159 A 
HETATM   21  N3  UNL     1      18.109  29.210  -2.695  1.00  0.00    -0.346 N 
ATOM     22  H3  UNL     1      17.688  28.434  -3.204  1.00  0.00     0.166 HD
BRANCH  20  23
HETATM   23  C13 UNL     1      19.804  29.730  -4.574  1.00  0.00     0.439 C 
HETATM   24  F1  UNL     1      19.095  28.757  -5.262  1.00  0.00    -0.164 F 
HETATM   25  F2  UNL     1      19.656  30.940  -5.239  1.00  0.00    -0.164 F 
HETATM   26  F3  UNL     1      21.110  29.389  -4.368  1.00  0.00    -0.164 F 
ENDBRANCH  20  23
ENDBRANCH   5  17
TORSDOF 5
ENDMDL
MODEL 3
REMARK VINA RESULT: -8.439238540      4.657      6.991
REMARK  5 active torsions:
REMARK  status: ('A' for Active; 'I' for Inactive)
REMARK    1  A    between atoms: C2_2  and  N1_5 
REMARK    2  A    between atoms: N1_5  and  C4_7 
REMARK    3  A    between atoms: C4_7  and  C5_11 
REMARK    4  A    between atoms: C9_15  and  C10_16 
REMARK    5  A    between atoms: C12_19  and  C13_20 
ROOT
HETATM    1  C5  UNL     1      18.614  26.096   1.580  1.00  0.00     0.008 A 
HETATM    2  C6  UNL     1      19.699  26.401   2.398  1.00  0.00     0.015 A 
HETATM    3  C7  UNL     1      20.392  27.580   2.312  1.00  0.00     0.002 A 
HETATM    4  C8  UNL     1      19.969  28.483   1.360  1.00  0.00     0.014 A 
HETATM    5  C9  UNL     1      18.912  28.245   0.526  1.00  0.00    -0.008 A 
HETATM    6  C14 UNL     1      18.234  27.055   0.637  1.00  0.00     0.029 A 
ENDROOT
BRANCH   1   7
HETATM    7  C4  UNL     1      17.949  24.829   1.732  1.00  0.00     0.106 C 
HETATM    8  N2  UNL     1      17.835  24.022   0.774  1.00  0.00    -0.385 N 
ATOM      9  H22 UNL     1      17.363  23.123   0.882  1.00  0.00     0.157 HD
ATOM     10  H21 UNL     1      18.310  24.274  -0.093  1.00  0.00     0.157 HD
BRANCH   7  11
HETATM   11  N1  UNL     1      17.280  24.473   2.951  1.00  0.00    -0.354 N 
ATOM     12  H1  UNL     1      17.835  24.253   3.778  1.00  0.00     0.163 HD
BRANCH  11  13
HETATM   13  C2  UNL     1      15.836  24.418   3.035  1.00  0.00     0.101 C 
HETATM   14  C1  UNL     1      15.321  24.896   4.385  1.00  0.00     0.056 C 
HETATM   15  C3  UNL     1      15.276  23.025   2.813  1.00  0.00     0.056 C 
HETATM   16 CL1  UNL     1      15.153  25.482   1.795  1.00  0.00    -0.096 Cl
ENDBRANCH  11  13
ENDBRANCH   7  11
ENDBRANCH   1   7
BRANCH   5  17
HETATM   17  C10 UNL     1      18.545  29.253  -0.517  1.00  0.00     0.050 A 
HETATM   18  C11 UNL     1      18.188  30.544  -0.156  1.00  0.00     0.082 A 
HETATM   19  S1  UNL     1      17.949  31.270  -1.676  1.00  0.00    -0.077 SA
HETATM   20  C12 UNL     1      18.315  29.900  -2.680  1.00  0.00     0.159 A 
HETATM   21  N3  UNL     1      18.595  28.985  -1.771  1.00  0.00    -0.346 N 
ATOM     22  H3  UNL     1      18.855  28.046  -2.072  1.00  0.00     0.166 HD
BRANCH  20  23
HETATM   23  C13 UNL     1      18.287  29.845  -4.188  1.00  0.00     0.439 C 
HETATM   24  F1  UNL     1      18.532  28.521  -4.518  1.00  0.00    -0.164 F 
HETATM   25  F2  UNL     1      16.993  30.166  -4.576  1.00  0.00    -0.164 F 
HETATM   26  F3  UNL     1      19.224  30.699  -4.693  1.00  0.00    -0.164 F 
ENDBRANCH  20  23
ENDBRANCH   5  17
TORSDOF 5
ENDMDL
MODEL 4
REMARK VINA RESULT: -8.417743871      5.240      7.547
REMARK  5 active torsions:
REMARK  status: ('A' for Active; 'I' for Inactive)
REMARK    1  A    between atoms: C2_2  and  N1_5 
REMARK    2  A    between atoms: N1_5  and  C4_7 
REMARK    3  A    between atoms: C4_7  and  C5_11 
REMARK    4  A    between atoms: C9_15  and  C10_16 
REMARK    5  A    between atoms: C12_19  and  C13_20 
ROOT
HETATM    1  C5  UNL     1      17.342  26.586   0.474  1.00  0.00     0.008 A 
HETATM    2  C6  UNL     1      18.414  26.753   1.347  1.00  0.00     0.015 A 
HETATM    3  C7  UNL     1      19.296  27.797   1.257  1.00  0.00     0.002 A 
HETATM    4  C8  UNL     1      19.083  28.706   0.243  1.00  0.00     0.014 A 
HETATM    5  C9  UNL     1      18.051  28.601  -0.647  1.00  0.00    -0.008 A 
HETATM    6  C14 UNL     1      17.180  27.544  -0.530  1.00  0.00     0.029 A 
ENDROOT
BRANCH   1   7
HETATM    7  C4  UNL     1      16.468  25.454   0.636  1.00  0.00     0.106 C 
HETATM    8  N2  UNL     1      16.330  24.590  -0.267  1.00  0.00    -0.385 N 
ATOM      9  H22 UNL     1      15.710  23.787  -0.152  1.00  0.00     0.157 HD
ATOM     10  H21 UNL     1      16.930  24.688  -1.086  1.00  0.00     0.157 HD
BRANCH   7  11
HETATM   11  N1  UNL     1      15.623  25.316   1.788  1.00  0.00    -0.354 N 
ATOM     12  H1  UNL     1      14.765  25.865   1.844  1.00  0.00     0.163 HD
BRANCH  11  13
HETATM   13  C2  UNL     1      15.957  24.416   2.871  1.00  0.00     0.101 C 
HETATM   14  C1  UNL     1      15.376  23.025   2.662  1.00  0.00     0.056 C 
HETATM   15  C3  UNL     1      15.474  24.903   4.224  1.00  0.00     0.056 C 
HETATM   16 CL1  UNL     1      17.719  24.252   2.949  1.00  0.00    -0.096 Cl
ENDBRANCH  11  13
ENDBRANCH   7  11
ENDBRANCH   1   7
BRANCH   5  17
HETATM   17  C10 UNL     1      17.916  29.599  -1.753  1.00  0.00     0.050 A 
HETATM   18  C11 UNL     1      17.533  30.905  -1.482  1.00  0.00     0.082 A 
HETATM   19  S1  UNL     1      17.606  31.610  -3.028  1.00  0.00    -0.077 SA
HETATM   20  C12 UNL     1      18.117  30.214  -3.928  1.00  0.00     0.159 A 
HETATM   21  N3  UNL     1      18.194  29.308  -2.972  1.00  0.00    -0.346 N 
ATOM     22  H3  UNL     1      18.480  28.358  -3.206  1.00  0.00     0.166 HD
BRANCH  20  23
HETATM   23  C13 UNL     1      18.373  30.133  -5.413  1.00  0.00     0.439 C 
HETATM   24  F1  UNL     1      19.228  29.056  -5.587  1.00  0.00    -0.164 F 
HETATM   25  F2  UNL     1      17.156  29.833  -6.013  1.00  0.00    -0.164 F 
HETATM   26  F3  UNL     1      18.907  31.311  -5.849  1.00  0.00    -0.164 F 
ENDBRANCH  20  23
ENDBRANCH   5  17
TORSDOF 5
ENDMDL
MODEL 5
REMARK VINA RESULT: -8.301822637      1.535      2.000
REMARK  5 active torsions:
REMARK  status: ('A' for Active; 'I' for Inactive)
REMARK    1  A    between atoms: C2_2  and  N1_5 
REMARK    2  A    between atoms: N1_5  and  C4_7 
REMARK    3  A    between atoms: C4_7  and  C5_11 
REMARK    4  A    between atoms: C9_15  and  C10_16 
REMARK    5  A    between atoms: C12_19  and  C13_20 
ROOT
HETATM    1  C5  UNL     1      18.076  28.153   0.329  1.00  0.00     0.008 A 
HETATM    2  C6  UNL     1      19.383  28.309   0.785  1.00  0.00     0.015 A 
HETATM    3  C7  UNL     1      20.024  27.372   1.551  1.00  0.00     0.002 A 
HETATM    4  C8  UNL     1      19.313  26.233   1.866  1.00  0.00     0.014 A 
HETATM    5  C9  UNL     1      18.028  26.019   1.451  1.00  0.00    -0.008 A 
HETATM    6  C14 UNL     1      17.411  26.976   0.682  1.00  0.00     0.029 A 
ENDROOT
BRANCH   1   7
HETATM    7  C4  UNL     1      17.476  29.194  -0.464  1.00  0.00     0.106 C 
HETATM    8  N2  UNL     1      16.975  30.221   0.061  1.00  0.00    -0.385 N 
ATOM      9  H22 UNL     1      16.550  30.959  -0.501  1.00  0.00     0.157 HD
ATOM     10  H21 UNL     1      17.090  30.318   1.070  1.00  0.00     0.157 HD
BRANCH   7  11
HETATM   11  N1  UNL     1      17.314  29.058  -1.883  1.00  0.00    -0.354 N 
ATOM     12  H1  UNL     1      16.669  28.355  -2.246  1.00  0.00     0.163 HD
BRANCH  11  13
HETATM   13  C2  UNL     1      18.043  29.893  -2.814  1.00  0.00     0.101 C 
HETATM   14  C1  UNL     1      17.169  30.988  -3.409  1.00  0.00     0.056 C 
HETATM   15  C3  UNL     1      18.638  29.118  -3.974  1.00  0.00     0.056 C 
HETATM   16 CL1  UNL     1      19.371  30.682  -1.948  1.00  0.00    -0.096 Cl
ENDBRANCH  11  13
ENDBRANCH   7  11
ENDBRANCH   1   7
BRANCH   5  17
HETATM   17  C10 UNL     1      17.305  24.781   1.878  1.00  0.00     0.050 A 
HETATM   18  C11 UNL     1      16.125  24.867   2.602  1.00  0.00     0.082 A 
HETATM   19  S1  UNL     1      15.698  23.228   2.757  1.00  0.00    -0.077 SA
HETATM   20  C12 UNL     1      17.036  22.528   1.897  1.00  0.00     0.159 A 
HETATM   21  N3  UNL     1      17.712  23.607   1.554  1.00  0.00    -0.346 N 
ATOM     22  H3  UNL     1      18.575  23.508   1.021  1.00  0.00     0.166 HD
BRANCH  20  23
HETATM   23  C13 UNL     1      17.295  21.060   1.657  1.00  0.00     0.439 C 
HETATM   24  F1  UNL     1      18.418  20.751   2.409  1.00  0.00    -0.164 F 
HETATM   25  F2  UNL     1      16.208  20.372   2.182  1.00  0.00    -0.164 F 
HETATM   26  F3  UNL     1      17.473  20.841   0.322  1.00  0.00    -0.164 F 
ENDBRANCH  20  23
ENDBRANCH   5  17
TORSDOF 5
ENDMDL
