MODEL 1
REMARK VINA RESULT: -7.592400452      0.000      0.000
REMARK  11 active torsions:
REMARK  status: ('A' for Active; 'I' for Inactive)
REMARK    1  A    between atoms: C1_2  and  C2_3 
REMARK    2  A    between atoms: C2_3  and  C3_4 
REMARK    3  A    between atoms: C3_4  and  C4_5 
REMARK    4  A    between atoms: C4_5  and  C5_6 
REMARK    5  A    between atoms: C5_6  and  C6_7 
REMARK    6  A    between atoms: C7_8  and  C8_9 
REMARK    7  A    between atoms: C8_9  and  C9_10 
REMARK    8  A    between atoms: C9_10  and  C10_11 
REMARK    9  A    between atoms: C10_11  and  C11_12 
REMARK   10  A    between atoms: C11_12  and  C12_13 
REMARK   11  A    between atoms: C12_13  and  C13_14 
ROOT
HETATM    1  C9  UNL     1     -15.776 -10.008 157.922  1.00  0.00     0.004 C 
ENDROOT
BRANCH   1   2
HETATM    2  C8  UNL     1     -15.297 -10.201 156.494  1.00  0.00     0.027 C 
BRANCH   2   3
HETATM    3  C7  UNL     1     -16.117  -9.399 155.565  1.00  0.00    -0.031 C 
HETATM    4  C6  UNL     1     -16.508  -9.781 154.384  1.00  0.00    -0.031 C 
BRANCH   4   5
HETATM    5  C5  UNL     1     -16.220 -11.060 153.743  1.00  0.00     0.027 C 
BRANCH   5   6
HETATM    6  C4  UNL     1     -17.006 -12.161 154.408  1.00  0.00     0.004 C 
BRANCH   6   7
HETATM    7  C3  UNL     1     -18.461 -11.920 154.306  1.00  0.00     0.007 C 
BRANCH   7   8
HETATM    8  C2  UNL     1     -19.209 -13.177 154.025  1.00  0.00     0.069 C 
BRANCH   8   9
HETATM    9  C1  UNL     1     -18.213 -14.292 153.944  1.00  0.00     0.231 C 
HETATM   10  O1  UNL     1     -18.550 -15.448 154.038  1.00  0.00    -0.307 OA
ENDBRANCH   8   9
ENDBRANCH   7   8
ENDBRANCH   6   7
ENDBRANCH   5   6
ENDBRANCH   4   5
ENDBRANCH   2   3
ENDBRANCH   1   2
BRANCH   1  11
HETATM   11  C10 UNL     1     -16.567  -8.756 158.144  1.00  0.00     0.001 C 
BRANCH  11  12
HETATM   12  C11 UNL     1     -17.322  -8.822 159.419  1.00  0.00     0.006 C 
BRANCH  12  13
HETATM   13  C12 UNL     1     -17.503  -7.537 160.148  1.00  0.00     0.052 C 
BRANCH  13  14
HETATM   14  C13 UNL     1     -18.702  -6.753 159.798  1.00  0.00    -0.018 C 
HETATM   15  N1  UNL     1     -19.454  -6.015 160.487  1.00  0.00    -0.396 N 
HETATM   16  C14 UNL     1     -20.525  -5.439 159.722  1.00  0.00     0.119 C 
ATOM     17  H1  UNL     1     -19.318  -5.844 161.483  1.00  0.00     0.159 HD
HETATM   18  C15 UNL     1     -20.669  -6.476 158.597  1.00  0.00     0.025 C 
HETATM   19  C16 UNL     1     -19.201  -6.763 158.367  1.00  0.00     0.053 C 
ENDBRANCH  13  14
ENDBRANCH  12  13
ENDBRANCH  11  12
ENDBRANCH   1  11
TORSDOF 11
ENDMDL
MODEL 2
REMARK VINA RESULT: -7.470889972      1.408      1.946
REMARK  11 active torsions:
REMARK  status: ('A' for Active; 'I' for Inactive)
REMARK    1  A    between atoms: C1_2  and  C2_3 
REMARK    2  A    between atoms: C2_3  and  C3_4 
REMARK    3  A    between atoms: C3_4  and  C4_5 
REMARK    4  A    between atoms: C4_5  and  C5_6 
REMARK    5  A    between atoms: C5_6  and  C6_7 
REMARK    6  A    between atoms: C7_8  and  C8_9 
REMARK    7  A    between atoms: C8_9  and  C9_10 
REMARK    8  A    between atoms: C9_10  and  C10_11 
REMARK    9  A    between atoms: C10_11  and  C11_12 
REMARK   10  A    between atoms: C11_12  and  C12_13 
REMARK   11  A    between atoms: C12_13  and  C13_14 
ROOT
HETATM    1  C9  UNL     1     -17.039  -8.228 157.351  1.00  0.00     0.004 C 
ENDROOT
BRANCH   1   2
HETATM    2  C8  UNL     1     -16.253  -8.591 156.102  1.00  0.00     0.027 C 
BRANCH   2   3
HETATM    3  C7  UNL     1     -15.567  -9.884 156.286  1.00  0.00    -0.031 C 
HETATM    4  C6  UNL     1     -15.539 -10.852 155.416  1.00  0.00    -0.031 C 
BRANCH   4   5
HETATM    5  C5  UNL     1     -16.170 -10.859 154.101  1.00  0.00     0.027 C 
BRANCH   5   6
HETATM    6  C4  UNL     1     -16.747 -12.220 153.809  1.00  0.00     0.004 C 
BRANCH   6   7
HETATM    7  C3  UNL     1     -18.067 -12.394 154.453  1.00  0.00     0.007 C 
BRANCH   7   8
HETATM    8  C2  UNL     1     -18.571 -13.788 154.305  1.00  0.00     0.069 C 
BRANCH   8   9
HETATM    9  C1  UNL     1     -19.113 -13.932 152.917  1.00  0.00     0.231 C 
HETATM   10  O1  UNL     1     -19.947 -13.173 152.482  1.00  0.00    -0.307 OA
ENDBRANCH   8   9
ENDBRANCH   7   8
ENDBRANCH   6   7
ENDBRANCH   5   6
ENDBRANCH   4   5
ENDBRANCH   2   3
ENDBRANCH   1   2
BRANCH   1  11
HETATM   11  C10 UNL     1     -16.683  -9.037 158.560  1.00  0.00     0.001 C 
BRANCH  11  12
HETATM   12  C11 UNL     1     -17.563  -8.696 159.705  1.00  0.00     0.006 C 
BRANCH  12  13
HETATM   13  C12 UNL     1     -18.620  -7.682 159.448  1.00  0.00     0.052 C 
BRANCH  13  14
HETATM   14  C13 UNL     1     -18.640  -6.517 160.352  1.00  0.00    -0.018 C 
HETATM   15  N1  UNL     1     -19.441  -5.551 160.461  1.00  0.00    -0.396 N 
HETATM   16  C14 UNL     1     -19.065  -4.628 161.496  1.00  0.00     0.119 C 
ATOM     17  H1  UNL     1     -20.269  -5.436 159.877  1.00  0.00     0.159 HD
HETATM   18  C15 UNL     1     -17.546  -4.860 161.554  1.00  0.00     0.025 C 
HETATM   19  C16 UNL     1     -17.542  -6.364 161.384  1.00  0.00     0.053 C 
ENDBRANCH  13  14
ENDBRANCH  12  13
ENDBRANCH  11  12
ENDBRANCH   1  11
TORSDOF 11
ENDMDL
MODEL 3
REMARK VINA RESULT: -7.449759440      1.365      1.591
REMARK  11 active torsions:
REMARK  status: ('A' for Active; 'I' for Inactive)
REMARK    1  A    between atoms: C1_2  and  C2_3 
REMARK    2  A    between atoms: C2_3  and  C3_4 
REMARK    3  A    between atoms: C3_4  and  C4_5 
REMARK    4  A    between atoms: C4_5  and  C5_6 
REMARK    5  A    between atoms: C5_6  and  C6_7 
REMARK    6  A    between atoms: C7_8  and  C8_9 
REMARK    7  A    between atoms: C8_9  and  C9_10 
REMARK    8  A    between atoms: C9_10  and  C10_11 
REMARK    9  A    between atoms: C10_11  and  C11_12 
REMARK   10  A    between atoms: C11_12  and  C12_13 
REMARK   11  A    between atoms: C12_13  and  C13_14 
ROOT
HETATM    1  C9  UNL     1     -17.353  -7.758 157.023  1.00  0.00     0.004 C 
ENDROOT
BRANCH   1   2
HETATM    2  C8  UNL     1     -16.592  -8.943 156.452  1.00  0.00     0.027 C 
BRANCH   2   3
HETATM    3  C7  UNL     1     -16.624  -8.910 154.977  1.00  0.00    -0.031 C 
HETATM    4  C6  UNL     1     -16.341  -9.911 154.194  1.00  0.00    -0.031 C 
BRANCH   4   5
HETATM    5  C5  UNL     1     -15.940 -11.251 154.607  1.00  0.00     0.027 C 
BRANCH   5   6
HETATM    6  C4  UNL     1     -16.851 -12.279 153.988  1.00  0.00     0.004 C 
BRANCH   6   7
HETATM    7  C3  UNL     1     -18.260 -12.053 154.379  1.00  0.00     0.007 C 
BRANCH   7   8
HETATM    8  C2  UNL     1     -19.058 -13.308 154.309  1.00  0.00     0.069 C 
BRANCH   8   9
HETATM    9  C1  UNL     1     -19.362 -13.577 152.868  1.00  0.00     0.231 C 
HETATM   10  O1  UNL     1     -20.158 -12.906 152.255  1.00  0.00    -0.307 OA
ENDBRANCH   8   9
ENDBRANCH   7   8
ENDBRANCH   6   7
ENDBRANCH   5   6
ENDBRANCH   4   5
ENDBRANCH   2   3
ENDBRANCH   1   2
BRANCH   1  11
HETATM   11  C10 UNL     1     -16.655  -7.062 158.149  1.00  0.00     0.001 C 
BRANCH  11  12
HETATM   12  C11 UNL     1     -17.130  -7.564 159.462  1.00  0.00     0.006 C 
BRANCH  12  13
HETATM   13  C12 UNL     1     -18.605  -7.621 159.653  1.00  0.00     0.052 C 
BRANCH  13  14
HETATM   14  C13 UNL     1     -19.276  -6.339 159.933  1.00  0.00    -0.018 C 
HETATM   15  N1  UNL     1     -19.090  -5.469 160.825  1.00  0.00    -0.396 N 
HETATM   16  C14 UNL     1     -19.993  -4.357 160.719  1.00  0.00     0.119 C 
ATOM     17  H1  UNL     1     -18.373  -5.547 161.547  1.00  0.00     0.159 HD
HETATM   18  C15 UNL     1     -21.182  -5.017 160.003  1.00  0.00     0.025 C 
HETATM   19  C16 UNL     1     -20.409  -5.885 159.035  1.00  0.00     0.053 C 
ENDBRANCH  13  14
ENDBRANCH  12  13
ENDBRANCH  11  12
ENDBRANCH   1  11
TORSDOF 11
ENDMDL
MODEL 4
REMARK VINA RESULT: -7.417729716      3.941      7.609
REMARK  11 active torsions:
REMARK  status: ('A' for Active; 'I' for Inactive)
REMARK    1  A    between atoms: C1_2  and  C2_3 
REMARK    2  A    between atoms: C2_3  and  C3_4 
REMARK    3  A    between atoms: C3_4  and  C4_5 
REMARK    4  A    between atoms: C4_5  and  C5_6 
REMARK    5  A    between atoms: C5_6  and  C6_7 
REMARK    6  A    between atoms: C7_8  and  C8_9 
REMARK    7  A    between atoms: C8_9  and  C9_10 
REMARK    8  A    between atoms: C9_10  and  C10_11 
REMARK    9  A    between atoms: C10_11  and  C11_12 
REMARK   10  A    between atoms: C11_12  and  C12_13 
REMARK   11  A    between atoms: C12_13  and  C13_14 
ROOT
HETATM    1  C9  UNL     1     -16.864  -9.337 155.279  1.00  0.00     0.004 C 
ENDROOT
BRANCH   1   2
HETATM    2  C8  UNL     1     -15.718  -9.200 156.267  1.00  0.00     0.027 C 
BRANCH   2   3
HETATM    3  C7  UNL     1     -16.186  -9.484 157.638  1.00  0.00    -0.031 C 
HETATM    4  C6  UNL     1     -16.640  -8.598 158.477  1.00  0.00    -0.031 C 
BRANCH   4   5
HETATM    5  C5  UNL     1     -16.779  -7.166 158.240  1.00  0.00     0.027 C 
BRANCH   5   6
HETATM    6  C4  UNL     1     -18.174  -6.852 157.762  1.00  0.00     0.004 C 
BRANCH   6   7
HETATM    7  C3  UNL     1     -19.171  -7.074 158.832  1.00  0.00     0.007 C 
BRANCH   7   8
HETATM    8  C2  UNL     1     -20.484  -6.457 158.495  1.00  0.00     0.069 C 
BRANCH   8   9
HETATM    9  C1  UNL     1     -20.744  -5.366 159.487  1.00  0.00     0.231 C 
HETATM   10  O1  UNL     1     -20.054  -5.228 160.469  1.00  0.00    -0.307 OA
ENDBRANCH   8   9
ENDBRANCH   7   8
ENDBRANCH   6   7
ENDBRANCH   5   6
ENDBRANCH   4   5
ENDBRANCH   2   3
ENDBRANCH   1   2
BRANCH   1  11
HETATM   11  C10 UNL     1     -16.465  -9.875 153.941  1.00  0.00     0.001 C 
BRANCH  11  12
HETATM   12  C11 UNL     1     -16.215 -11.336 154.007  1.00  0.00     0.006 C 
BRANCH  12  13
HETATM   13  C12 UNL     1     -17.205 -12.141 154.772  1.00  0.00     0.052 C 
BRANCH  13  14
HETATM   14  C13 UNL     1     -18.176 -12.910 153.973  1.00  0.00    -0.018 C 
HETATM   15  N1  UNL     1     -18.043 -13.916 153.227  1.00  0.00    -0.396 N 
HETATM   16  C14 UNL     1     -19.280 -14.342 152.634  1.00  0.00     0.119 C 
ATOM     17  H1  UNL     1     -17.150 -14.380 153.060  1.00  0.00     0.159 HD
HETATM   18  C15 UNL     1     -20.071 -13.023 152.637  1.00  0.00     0.025 C 
HETATM   19  C16 UNL     1     -19.636 -12.503 153.989  1.00  0.00     0.053 C 
ENDBRANCH  13  14
ENDBRANCH  12  13
ENDBRANCH  11  12
ENDBRANCH   1  11
TORSDOF 11
ENDMDL
MODEL 5
REMARK VINA RESULT: -7.362584373      1.631      2.375
REMARK  11 active torsions:
REMARK  status: ('A' for Active; 'I' for Inactive)
REMARK    1  A    between atoms: C1_2  and  C2_3 
REMARK    2  A    between atoms: C2_3  and  C3_4 
REMARK    3  A    between atoms: C3_4  and  C4_5 
REMARK    4  A    between atoms: C4_5  and  C5_6 
REMARK    5  A    between atoms: C5_6  and  C6_7 
REMARK    6  A    between atoms: C7_8  and  C8_9 
REMARK    7  A    between atoms: C8_9  and  C9_10 
REMARK    8  A    between atoms: C9_10  and  C10_11 
REMARK    9  A    between atoms: C10_11  and  C11_12 
REMARK   10  A    between atoms: C11_12  and  C12_13 
REMARK   11  A    between atoms: C12_13  and  C13_14 
ROOT
HETATM    1  C9  UNL     1     -17.016  -8.152 157.320  1.00  0.00     0.004 C 
ENDROOT
BRANCH   1   2
HETATM    2  C8  UNL     1     -16.447  -8.669 156.010  1.00  0.00     0.027 C 
BRANCH   2   3
HETATM    3  C7  UNL     1     -15.662  -9.898 156.242  1.00  0.00    -0.031 C 
HETATM    4  C6  UNL     1     -15.538 -10.883 155.401  1.00  0.00    -0.031 C 
BRANCH   4   5
HETATM    5  C5  UNL     1     -16.140 -10.976 154.076  1.00  0.00     0.027 C 
BRANCH   5   6
HETATM    6  C4  UNL     1     -17.003 -12.208 153.982  1.00  0.00     0.004 C 
BRANCH   6   7
HETATM    7  C3  UNL     1     -18.408 -11.909 154.335  1.00  0.00     0.007 C 
BRANCH   7   8
HETATM    8  C2  UNL     1     -19.243 -13.142 154.356  1.00  0.00     0.069 C 
BRANCH   8   9
HETATM    9  C1  UNL     1     -18.473 -14.227 153.670  1.00  0.00     0.231 C 
HETATM   10  O1  UNL     1     -18.457 -15.357 154.097  1.00  0.00    -0.307 OA
ENDBRANCH   8   9
ENDBRANCH   7   8
ENDBRANCH   6   7
ENDBRANCH   5   6
ENDBRANCH   4   5
ENDBRANCH   2   3
ENDBRANCH   1   2
BRANCH   1  11
HETATM   11  C10 UNL     1     -16.769  -9.044 158.496  1.00  0.00     0.001 C 
BRANCH  11  12
HETATM   12  C11 UNL     1     -17.611  -8.648 159.651  1.00  0.00     0.006 C 
BRANCH  12  13
HETATM   13  C12 UNL     1     -17.923  -7.198 159.775  1.00  0.00     0.052 C 
BRANCH  13  14
HETATM   14  C13 UNL     1     -17.395  -6.517 160.971  1.00  0.00    -0.018 C 
HETATM   15  N1  UNL     1     -16.238  -6.461 161.465  1.00  0.00    -0.396 N 
HETATM   16  C14 UNL     1     -16.178  -5.669 162.662  1.00  0.00     0.119 C 
ATOM     17  H1  UNL     1     -15.428  -6.930 161.058  1.00  0.00     0.159 HD
HETATM   18  C15 UNL     1     -17.625  -5.793 163.164  1.00  0.00     0.025 C 
HETATM   19  C16 UNL     1     -18.335  -5.697 161.831  1.00  0.00     0.053 C 
ENDBRANCH  13  14
ENDBRANCH  12  13
ENDBRANCH  11  12
ENDBRANCH   1  11
TORSDOF 11
ENDMDL
