MODEL 1
REMARK VINA RESULT: -8.699819593      0.000      0.000
REMARK  8 active torsions:
REMARK  status: ('A' for Active; 'I' for Inactive)
REMARK    1  A    between atoms: N1_1  and  C1_4 
REMARK    2  A    between atoms: C2_7  and  O1_8 
REMARK    3  A    between atoms: O1_8  and  C3_9 
REMARK    4  A    between atoms: C3_9  and  C4_10 
REMARK    5  A    between atoms: C10_16  and  C11_17 
REMARK    6  A    between atoms: C11_17  and  C12_18 
REMARK    7  A    between atoms: C12_18  and  N3_19 
REMARK    8  A    between atoms: C19_28  and  C20_29 
ROOT
HETATM    1  C4  UNL     1       4.855  60.204  22.770  1.00  0.00    -0.017 C 
HETATM    2  C5  UNL     1       5.185  61.135  23.932  1.00  0.00     0.016 C 
HETATM    3  C6  UNL     1       5.289  62.535  23.439  1.00  0.00    -0.013 C 
HETATM    4  C7  UNL     1       3.878  63.027  23.137  1.00  0.00     0.009 C 
HETATM    5  C8  UNL     1       3.391  62.116  22.035  1.00  0.00    -0.013 C 
HETATM    6  C9  UNL     1       4.239  62.385  20.812  1.00  0.00     0.014 C 
HETATM    7  C10 UNL     1       5.621  61.810  21.054  1.00  0.00    -0.037 C 
HETATM    8  C16 UNL     1       6.145  62.705  22.239  1.00  0.00     0.014 C 
HETATM    9  C17 UNL     1       5.698  60.441  21.580  1.00  0.00     0.021 C 
HETATM   10  C18 UNL     1       3.410  60.672  22.340  1.00  0.00     0.016 C 
ENDROOT
BRANCH   1  11
HETATM   11  C3  UNL     1       4.661  58.814  23.244  1.00  0.00     0.187 C 
BRANCH  11  12
HETATM   12  O1  UNL     1       4.738  57.776  22.321  1.00  0.00    -0.334 OA
BRANCH  12  13
HETATM   13  C2  UNL     1       3.660  56.855  22.364  1.00  0.00     0.169 A 
HETATM   14  N2  UNL     1       3.127  56.714  23.606  1.00  0.00    -0.170 N 
HETATM   15  C1  UNL     1       2.083  55.875  23.846  1.00  0.00     0.680 A 
ATOM     16  H2  UNL     1       3.519  57.251  24.380  1.00  0.00     0.186 HD
HETATM   17  N5  UNL     1       1.593  55.186  22.826  1.00  0.00    -0.156 N 
HETATM   18  C23 UNL     1       2.086  55.283  21.551  1.00  0.00     0.270 A 
ATOM     19  H5  UNL     1       0.811  54.554  22.998  1.00  0.00     0.187 HD
HETATM   20  C19 UNL     1       3.131  56.130  21.324  1.00  0.00     0.066 A 
HETATM   21  O2  UNL     1       1.518  54.567  20.713  1.00  0.00    -0.267 OA
BRANCH  15  22
HETATM   22  N1  UNL     1       1.594  55.760  25.063  1.00  0.00    -0.234 N 
ATOM     23  H12 UNL     1       1.415  56.574  25.652  1.00  0.00     0.174 HD
ATOM     24  H11 UNL     1       1.377  54.838  25.441  1.00  0.00     0.174 HD
ENDBRANCH  15  22
BRANCH  20  25
HETATM   25  C20 UNL     1       3.681  56.384  19.976  1.00  0.00     0.029 A 
HETATM   26  C21 UNL     1       2.805  56.746  18.820  1.00  0.00     0.010 A 
HETATM   27  C22 UNL     1       3.536  57.883  19.449  1.00  0.00     0.010 A 
ENDBRANCH  20  25
ENDBRANCH  12  13
ENDBRANCH  11  12
ENDBRANCH   1  11
BRANCH   7  28
HETATM   28  C11 UNL     1       6.513  62.164  19.928  1.00  0.00     0.029 C 
BRANCH  28  29
HETATM   29  C12 UNL     1       7.671  61.209  19.743  1.00  0.00     0.130 C 
BRANCH  29  30
HETATM   30  N3  UNL     1       7.904  60.873  18.358  1.00  0.00    -0.352 N 
HETATM   31  C13 UNL     1       7.705  59.723  17.706  1.00  0.00     0.108 A 
HETATM   32  C14 UNL     1       8.068  59.901  16.364  1.00  0.00     0.106 A 
HETATM   33  N4  UNL     1       8.477  61.151  16.273  1.00  0.00    -0.361 N 
HETATM   34  C15 UNL     1       8.405  61.805  17.436  1.00  0.00     0.182 A 
ATOM     35  H4  UNL     1       8.812  61.573  15.407  1.00  0.00     0.166 HD
ENDBRANCH  29  30
ENDBRANCH  28  29
ENDBRANCH   7  28
TORSDOF 8
ENDMDL
MODEL 2
REMARK VINA RESULT: -8.343503536      1.502      2.575
REMARK  8 active torsions:
REMARK  status: ('A' for Active; 'I' for Inactive)
REMARK    1  A    between atoms: N1_1  and  C1_4 
REMARK    2  A    between atoms: C2_7  and  O1_8 
REMARK    3  A    between atoms: O1_8  and  C3_9 
REMARK    4  A    between atoms: C3_9  and  C4_10 
REMARK    5  A    between atoms: C10_16  and  C11_17 
REMARK    6  A    between atoms: C11_17  and  C12_18 
REMARK    7  A    between atoms: C12_18  and  N3_19 
REMARK    8  A    between atoms: C19_28  and  C20_29 
ROOT
HETATM    1  C4  UNL     1       4.505  60.289  22.595  1.00  0.00    -0.017 C 
HETATM    2  C5  UNL     1       4.568  61.263  23.768  1.00  0.00     0.016 C 
HETATM    3  C6  UNL     1       5.054  62.588  23.296  1.00  0.00    -0.013 C 
HETATM    4  C7  UNL     1       3.925  63.242  22.508  1.00  0.00     0.009 C 
HETATM    5  C8  UNL     1       3.701  62.316  21.336  1.00  0.00    -0.013 C 
HETATM    6  C9  UNL     1       4.943  62.358  20.475  1.00  0.00     0.014 C 
HETATM    7  C10 UNL     1       6.052  61.620  21.200  1.00  0.00    -0.037 C 
HETATM    8  C16 UNL     1       6.280  62.533  22.463  1.00  0.00     0.014 C 
HETATM    9  C17 UNL     1       5.727  60.305  21.765  1.00  0.00     0.021 C 
HETATM   10  C18 UNL     1       3.385  60.914  21.676  1.00  0.00     0.016 C 
ENDROOT
BRANCH   1  11
HETATM   11  C3  UNL     1       3.943  58.986  23.018  1.00  0.00     0.187 C 
BRANCH  11  12
HETATM   12  O1  UNL     1       4.584  57.820  22.615  1.00  0.00    -0.334 OA
BRANCH  12  13
HETATM   13  C2  UNL     1       3.878  57.048  21.657  1.00  0.00     0.169 A 
HETATM   14  N2  UNL     1       4.175  57.387  20.374  1.00  0.00    -0.170 N 
HETATM   15  C1  UNL     1       3.598  56.757  19.316  1.00  0.00     0.680 A 
ATOM     16  H2  UNL     1       4.848  58.134  20.201  1.00  0.00     0.186 HD
HETATM   17  N5  UNL     1       2.725  55.793  19.567  1.00  0.00    -0.156 N 
HETATM   18  C23 UNL     1       2.383  55.406  20.837  1.00  0.00     0.270 A 
ATOM     19  H5  UNL     1       2.287  55.316  18.779  1.00  0.00     0.187 HD
HETATM   20  C19 UNL     1       2.971  56.043  21.889  1.00  0.00     0.066 A 
HETATM   21  O2  UNL     1       1.546  54.491  20.899  1.00  0.00    -0.267 OA
BRANCH  15  22
HETATM   22  N1  UNL     1       3.906  57.114  18.087  1.00  0.00    -0.234 N 
ATOM     23  H12 UNL     1       4.339  58.014  17.879  1.00  0.00     0.174 HD
ATOM     24  H11 UNL     1       3.719  56.482  17.309  1.00  0.00     0.174 HD
ENDBRANCH  15  22
BRANCH  20  25
HETATM   25  C20 UNL     1       2.747  55.646  23.295  1.00  0.00     0.029 A 
HETATM   26  C21 UNL     1       1.915  56.468  24.225  1.00  0.00     0.010 A 
HETATM   27  C22 UNL     1       1.244  55.260  23.666  1.00  0.00     0.010 A 
ENDBRANCH  20  25
ENDBRANCH  12  13
ENDBRANCH  11  12
ENDBRANCH   1  11
BRANCH   7  28
HETATM   28  C11 UNL     1       7.316  61.750  20.442  1.00  0.00     0.029 C 
BRANCH  28  29
HETATM   29  C12 UNL     1       7.569  60.612  19.478  1.00  0.00     0.130 C 
BRANCH  29  30
HETATM   30  N3  UNL     1       7.969  61.067  18.167  1.00  0.00    -0.352 N 
HETATM   31  C13 UNL     1       8.362  62.277  17.758  1.00  0.00     0.108 A 
HETATM   32  C14 UNL     1       8.662  62.212  16.391  1.00  0.00     0.106 A 
HETATM   33  N4  UNL     1       8.426  60.964  16.038  1.00  0.00    -0.361 N 
HETATM   34  C15 UNL     1       8.007  60.208  17.057  1.00  0.00     0.182 A 
ATOM     35  H4  UNL     1       8.551  60.612  15.088  1.00  0.00     0.166 HD
ENDBRANCH  29  30
ENDBRANCH  28  29
ENDBRANCH   7  28
TORSDOF 8
ENDMDL
MODEL 3
REMARK VINA RESULT: -8.317182172      3.659      7.673
REMARK  8 active torsions:
REMARK  status: ('A' for Active; 'I' for Inactive)
REMARK    1  A    between atoms: N1_1  and  C1_4 
REMARK    2  A    between atoms: C2_7  and  O1_8 
REMARK    3  A    between atoms: O1_8  and  C3_9 
REMARK    4  A    between atoms: C3_9  and  C4_10 
REMARK    5  A    between atoms: C10_16  and  C11_17 
REMARK    6  A    between atoms: C11_17  and  C12_18 
REMARK    7  A    between atoms: C12_18  and  N3_19 
REMARK    8  A    between atoms: C19_28  and  C20_29 
ROOT
HETATM    1  C4  UNL     1       5.043  59.954  22.045  1.00  0.00    -0.017 C 
HETATM    2  C5  UNL     1       5.086  58.624  22.792  1.00  0.00     0.016 C 
HETATM    3  C6  UNL     1       4.426  58.771  24.118  1.00  0.00    -0.013 C 
HETATM    4  C7  UNL     1       2.923  58.859  23.881  1.00  0.00     0.009 C 
HETATM    5  C8  UNL     1       2.745  60.116  23.063  1.00  0.00    -0.013 C 
HETATM    6  C9  UNL     1       3.139  61.288  23.933  1.00  0.00     0.014 C 
HETATM    7  C10 UNL     1       4.647  61.277  24.096  1.00  0.00    -0.037 C 
HETATM    8  C16 UNL     1       4.878  59.945  24.905  1.00  0.00     0.014 C 
HETATM    9  C17 UNL     1       5.453  61.101  22.882  1.00  0.00     0.021 C 
HETATM   10  C18 UNL     1       3.500  60.169  21.795  1.00  0.00     0.016 C 
ENDROOT
BRANCH   1  11
HETATM   11  C3  UNL     1       5.616  59.817  20.687  1.00  0.00     0.187 C 
BRANCH  11  12
HETATM   12  O1  UNL     1       6.996  59.899  20.533  1.00  0.00    -0.334 OA
BRANCH  12  13
HETATM   13  C2  UNL     1       7.430  60.512  19.330  1.00  0.00     0.169 A 
HETATM   14  N2  UNL     1       7.525  59.642  18.290  1.00  0.00    -0.170 N 
HETATM   15  C1  UNL     1       7.924  60.045  17.054  1.00  0.00     0.680 A 
ATOM     16  H2  UNL     1       7.292  58.660  18.441  1.00  0.00     0.186 HD
HETATM   17  N5  UNL     1       8.225  61.324  16.884  1.00  0.00    -0.156 N 
HETATM   18  C23 UNL     1       8.150  62.250  17.892  1.00  0.00     0.270 A 
ATOM     19  H5  UNL     1       8.526  61.634  15.961  1.00  0.00     0.187 HD
HETATM   20  C19 UNL     1       7.746  61.833  19.126  1.00  0.00     0.066 A 
HETATM   21  O2  UNL     1       8.471  63.404  17.568  1.00  0.00    -0.267 OA
BRANCH  15  22
HETATM   22  N1  UNL     1       8.010  59.173  16.071  1.00  0.00    -0.234 N 
ATOM     23  H12 UNL     1       7.985  58.167  16.238  1.00  0.00     0.174 HD
ATOM     24  H11 UNL     1       8.097  59.496  15.108  1.00  0.00     0.174 HD
ENDBRANCH  15  22
BRANCH  20  25
HETATM   25  C20 UNL     1       7.540  62.760  20.259  1.00  0.00     0.029 A 
HETATM   26  C21 UNL     1       7.217  64.204  20.050  1.00  0.00     0.010 A 
HETATM   27  C22 UNL     1       6.059  63.336  20.411  1.00  0.00     0.010 A 
ENDBRANCH  20  25
ENDBRANCH  12  13
ENDBRANCH  11  12
ENDBRANCH   1  11
BRANCH   7  28
HETATM   28  C11 UNL     1       5.054  62.336  25.044  1.00  0.00     0.029 C 
BRANCH  28  29
HETATM   29  C12 UNL     1       3.990  62.688  26.061  1.00  0.00     0.130 C 
BRANCH  29  30
HETATM   30  N3  UNL     1       4.114  64.039  26.557  1.00  0.00    -0.352 N 
HETATM   31  C13 UNL     1       3.401  65.131  26.268  1.00  0.00     0.108 A 
HETATM   32  C14 UNL     1       3.898  66.202  27.022  1.00  0.00     0.106 A 
HETATM   33  N4  UNL     1       4.895  65.705  27.726  1.00  0.00    -0.361 N 
HETATM   34  C15 UNL     1       5.087  64.401  27.502  1.00  0.00     0.182 A 
ATOM     35  H4  UNL     1       5.460  66.256  28.373  1.00  0.00     0.166 HD
ENDBRANCH  29  30
ENDBRANCH  28  29
ENDBRANCH   7  28
TORSDOF 8
ENDMDL
MODEL 4
REMARK VINA RESULT: -8.279881125      3.077      7.854
REMARK  8 active torsions:
REMARK  status: ('A' for Active; 'I' for Inactive)
REMARK    1  A    between atoms: N1_1  and  C1_4 
REMARK    2  A    between atoms: C2_7  and  O1_8 
REMARK    3  A    between atoms: O1_8  and  C3_9 
REMARK    4  A    between atoms: C3_9  and  C4_10 
REMARK    5  A    between atoms: C10_16  and  C11_17 
REMARK    6  A    between atoms: C11_17  and  C12_18 
REMARK    7  A    between atoms: C12_18  and  N3_19 
REMARK    8  A    between atoms: C19_28  and  C20_29 
ROOT
HETATM    1  C4  UNL     1       4.987  59.946  21.761  1.00  0.00    -0.017 C 
HETATM    2  C5  UNL     1       3.574  60.500  21.603  1.00  0.00     0.016 C 
HETATM    3  C6  UNL     1       2.954  60.684  22.943  1.00  0.00    -0.013 C 
HETATM    4  C7  UNL     1       3.609  61.895  23.596  1.00  0.00     0.009 C 
HETATM    5  C8  UNL     1       5.062  61.504  23.738  1.00  0.00    -0.013 C 
HETATM    6  C9  UNL     1       5.133  60.360  24.723  1.00  0.00     0.014 C 
HETATM    7  C10 UNL     1       4.578  59.118  24.054  1.00  0.00    -0.037 C 
HETATM    8  C16 UNL     1       3.067  59.508  23.842  1.00  0.00     0.014 C 
HETATM    9  C17 UNL     1       5.060  58.809  22.702  1.00  0.00     0.021 C 
HETATM   10  C18 UNL     1       5.748  61.121  22.488  1.00  0.00     0.016 C 
ENDROOT
BRANCH   1  11
HETATM   11  C3  UNL     1       5.661  59.833  20.447  1.00  0.00     0.187 C 
BRANCH  11  12
HETATM   12  O1  UNL     1       7.033  60.048  20.380  1.00  0.00    -0.334 OA
BRANCH  12  13
HETATM   13  C2  UNL     1       7.495  60.589  19.153  1.00  0.00     0.169 A 
HETATM   14  N2  UNL     1       7.558  59.671  18.153  1.00  0.00    -0.170 N 
HETATM   15  C1  UNL     1       7.977  60.003  16.902  1.00  0.00     0.680 A 
ATOM     16  H2  UNL     1       7.284  58.707  18.345  1.00  0.00     0.186 HD
HETATM   17  N5  UNL     1       8.330  61.259  16.678  1.00  0.00    -0.156 N 
HETATM   18  C23 UNL     1       8.291  62.232  17.644  1.00  0.00     0.270 A 
ATOM     19  H5  UNL     1       8.646  61.516  15.743  1.00  0.00     0.187 HD
HETATM   20  C19 UNL     1       7.866  61.886  18.893  1.00  0.00     0.066 A 
HETATM   21  O2  UNL     1       8.660  63.356  17.271  1.00  0.00    -0.267 OA
BRANCH  15  22
HETATM   22  N1  UNL     1       8.029  59.086  15.959  1.00  0.00    -0.234 N 
ATOM     23  H12 UNL     1       8.630  59.188  15.140  1.00  0.00     0.174 HD
ATOM     24  H11 UNL     1       7.464  58.240  16.035  1.00  0.00     0.174 HD
ENDBRANCH  15  22
BRANCH  20  25
HETATM   25  C20 UNL     1       7.695  62.870  19.983  1.00  0.00     0.029 A 
HETATM   26  C21 UNL     1       7.344  64.297  19.712  1.00  0.00     0.010 A 
HETATM   27  C22 UNL     1       6.214  63.437  20.166  1.00  0.00     0.010 A 
ENDBRANCH  20  25
ENDBRANCH  12  13
ENDBRANCH  11  12
ENDBRANCH   1  11
BRANCH   7  28
HETATM   28  C11 UNL     1       4.518  58.009  25.032  1.00  0.00     0.029 C 
BRANCH  28  29
HETATM   29  C12 UNL     1       5.859  57.651  25.632  1.00  0.00     0.130 C 
BRANCH  29  30
HETATM   30  N3  UNL     1       5.831  57.599  27.075  1.00  0.00    -0.352 N 
HETATM   31  C13 UNL     1       4.882  57.987  27.933  1.00  0.00     0.108 A 
HETATM   32  C14 UNL     1       5.318  57.714  29.236  1.00  0.00     0.106 A 
HETATM   33  N4  UNL     1       6.515  57.180  29.102  1.00  0.00    -0.361 N 
HETATM   34  C15 UNL     1       6.895  57.074  27.825  1.00  0.00     0.182 A 
ATOM     35  H4  UNL     1       7.090  56.879  29.889  1.00  0.00     0.166 HD
ENDBRANCH  29  30
ENDBRANCH  28  29
ENDBRANCH   7  28
TORSDOF 8
ENDMDL
MODEL 5
REMARK VINA RESULT: -8.145458434      2.219      7.606
REMARK  8 active torsions:
REMARK  status: ('A' for Active; 'I' for Inactive)
REMARK    1  A    between atoms: N1_1  and  C1_4 
REMARK    2  A    between atoms: C2_7  and  O1_8 
REMARK    3  A    between atoms: O1_8  and  C3_9 
REMARK    4  A    between atoms: C3_9  and  C4_10 
REMARK    5  A    between atoms: C10_16  and  C11_17 
REMARK    6  A    between atoms: C11_17  and  C12_18 
REMARK    7  A    between atoms: C12_18  and  N3_19 
REMARK    8  A    between atoms: C19_28  and  C20_29 
ROOT
HETATM    1  C4  UNL     1       4.849  59.730  21.783  1.00  0.00    -0.017 C 
HETATM    2  C5  UNL     1       3.564  60.545  21.680  1.00  0.00     0.016 C 
HETATM    3  C6  UNL     1       2.924  60.646  23.020  1.00  0.00    -0.013 C 
HETATM    4  C7  UNL     1       3.751  61.616  23.857  1.00  0.00     0.009 C 
HETATM    5  C8  UNL     1       5.104  60.955  23.968  1.00  0.00    -0.013 C 
HETATM    6  C9  UNL     1       4.930  59.689  24.776  1.00  0.00     0.014 C 
HETATM    7  C10 UNL     1       4.198  58.673  23.921  1.00  0.00    -0.037 C 
HETATM    8  C16 UNL     1       2.790  59.354  23.738  1.00  0.00     0.014 C 
HETATM    9  C17 UNL     1       4.680  58.478  22.548  1.00  0.00     0.021 C 
HETATM   10  C18 UNL     1       5.770  60.636  22.689  1.00  0.00     0.016 C 
ENDROOT
BRANCH   1  11
HETATM   11  C3  UNL     1       5.553  59.685  20.481  1.00  0.00     0.187 C 
BRANCH  11  12
HETATM   12  O1  UNL     1       6.924  59.912  20.454  1.00  0.00    -0.334 OA
BRANCH  12  13
HETATM   13  C2  UNL     1       7.405  60.540  19.276  1.00  0.00     0.169 A 
HETATM   14  N2  UNL     1       7.536  59.683  18.229  1.00  0.00    -0.170 N 
HETATM   15  C1  UNL     1       7.982  60.101  17.014  1.00  0.00     0.680 A 
ATOM     16  H2  UNL     1       7.294  58.701  18.357  1.00  0.00     0.186 HD
HETATM   17  N5  UNL     1       8.293  61.381  16.872  1.00  0.00    -0.156 N 
HETATM   18  C23 UNL     1       8.184  62.294  17.889  1.00  0.00     0.270 A 
ATOM     19  H5  UNL     1       8.629  61.702  15.965  1.00  0.00     0.187 HD
HETATM   20  C19 UNL     1       7.732  61.863  19.101  1.00  0.00     0.066 A 
HETATM   21  O2  UNL     1       8.520  63.451  17.592  1.00  0.00    -0.267 OA
BRANCH  15  22
HETATM   22  N1  UNL     1       8.101  59.242  16.023  1.00  0.00    -0.234 N 
ATOM     23  H12 UNL     1       8.881  58.586  15.969  1.00  0.00     0.174 HD
ATOM     24  H11 UNL     1       7.399  59.214  15.283  1.00  0.00     0.174 HD
ENDBRANCH  15  22
BRANCH  20  25
HETATM   25  C20 UNL     1       7.487  62.775  20.238  1.00  0.00     0.029 A 
HETATM   26  C21 UNL     1       7.106  64.206  20.035  1.00  0.00     0.010 A 
HETATM   27  C22 UNL     1       5.984  63.290  20.390  1.00  0.00     0.010 A 
ENDBRANCH  20  25
ENDBRANCH  12  13
ENDBRANCH  11  12
ENDBRANCH   1  11
BRANCH   7  28
HETATM   28  C11 UNL     1       3.901  57.467  24.723  1.00  0.00     0.029 C 
BRANCH  28  29
HETATM   29  C12 UNL     1       2.428  57.125  24.789  1.00  0.00     0.130 C 
BRANCH  29  30
HETATM   30  N3  UNL     1       2.089  55.958  24.011  1.00  0.00    -0.352 N 
HETATM   31  C13 UNL     1       2.274  55.705  22.711  1.00  0.00     0.108 A 
HETATM   32  C14 UNL     1       1.788  54.421  22.432  1.00  0.00     0.106 A 
HETATM   33  N4  UNL     1       1.325  53.962  23.578  1.00  0.00    -0.361 N 
HETATM   34  C15 UNL     1       1.474  54.832  24.581  1.00  0.00     0.182 A 
ATOM     35  H4  UNL     1       0.900  53.041  23.686  1.00  0.00     0.166 HD
ENDBRANCH  29  30
ENDBRANCH  28  29
ENDBRANCH   7  28
TORSDOF 8
ENDMDL
