MODEL 1
REMARK VINA RESULT: -8.427485165      0.000      0.000
REMARK  9 active torsions:
REMARK  status: ('A' for Active; 'I' for Inactive)
REMARK    1  A    between atoms: C2_2  and  C3_3 
REMARK    2  A    between atoms: C2_2  and  C15_30 
REMARK    3  A    between atoms: C3_3  and  C4_4 
REMARK    4  A    between atoms: C4_4  and  N1_5 
REMARK    5  A    between atoms: N2_8  and  C7_9 
REMARK    6  A    between atoms: C7_9  and  C8_10 
REMARK    7  A    between atoms: C8_10  and  C9_11 
REMARK    8  A    between atoms: C9_11  and  N3_12 
REMARK    9  A    between atoms: C11_19  and  N6_20 
REMARK       I    between atoms: N6_20  and  C12_22 
ROOT
HETATM    1  C8  UNL     1       4.910  62.817  22.003  1.00  0.00     0.050 C 
ENDROOT
BRANCH   1   2
HETATM    2  C7  UNL     1       4.157  61.814  22.875  1.00  0.00     0.274 C 
BRANCH   2   3
HETATM    3  N2  UNL     1       4.000  62.347  24.209  1.00  0.00     0.094 N 
HETATM    4  C6  UNL     1       2.704  62.004  24.791  1.00  0.00     0.292 C 
HETATM    5  C5  UNL     1       2.435  60.559  24.770  1.00  0.00     0.152 C 
HETATM    6  N1  UNL     1       3.527  59.684  25.095  1.00  0.00    -0.390 N 
HETATM    7  C14 UNL     1       4.784  60.246  25.270  1.00  0.00     0.088 C 
HETATM    8  C13 UNL     1       4.956  61.716  25.132  1.00  0.00     0.316 C 
BRANCH   6   9
HETATM    9  C4  UNL     1       3.131  58.520  25.787  1.00  0.00     0.122 C 
BRANCH   9  10
HETATM   10  C3  UNL     1       3.607  57.282  25.126  1.00  0.00     0.024 C 
BRANCH  10  11
HETATM   11  C2  UNL     1       3.064  57.111  23.728  1.00  0.00    -0.013 C 
HETATM   12  C1  UNL     1       2.213  55.825  23.802  1.00  0.00     0.010 C 
BRANCH  11  13
HETATM   13  C15 UNL     1       4.063  56.902  22.643  1.00  0.00    -0.011 C 
HETATM   14  C16 UNL     1       4.716  58.120  22.125  1.00  0.00     0.005 C 
HETATM   15  C17 UNL     1       4.441  58.486  20.711  1.00  0.00     0.000 C 
HETATM   16  C18 UNL     1       3.462  57.633  19.986  1.00  0.00     0.000 C 
HETATM   17  C19 UNL     1       3.901  56.186  20.242  1.00  0.00     0.000 C 
HETATM   18  C20 UNL     1       3.466  55.949  21.667  1.00  0.00     0.005 C 
ENDBRANCH  11  13
ENDBRANCH  10  11
ENDBRANCH   9  10
ENDBRANCH   6   9
ENDBRANCH   2   3
ENDBRANCH   1   2
BRANCH   1  19
HETATM   19  C9  UNL     1       6.174  62.056  21.554  1.00  0.00     0.123 C 
BRANCH  19  20
HETATM   20  N3  UNL     1       6.963  62.876  20.683  1.00  0.00    -0.369 N 
HETATM   21  C10 UNL     1       7.361  62.383  19.545  1.00  0.00     0.162 A 
HETATM   22  N4  UNL     1       8.098  62.980  18.606  1.00  0.00    -0.278 N 
HETATM   23  S1  UNL     1       7.108  60.825  18.832  1.00  0.00    -0.015 SA
HETATM   24  N5  UNL     1       8.402  62.347  17.546  1.00  0.00    -0.277 N 
ATOM     25  H4  UNL     1       8.415  63.940  18.738  1.00  0.00     0.189 HD
HETATM   26  C11 UNL     1       7.977  61.094  17.389  1.00  0.00     0.169 A 
ATOM     27  H5  UNL     1       8.966  62.795  16.823  1.00  0.00     0.189 HD
ATOM     28  H3  UNL     1       7.210  63.829  20.951  1.00  0.00     0.161 HD
BRANCH  26  29
HETATM   29  N6  UNL     1       8.185  60.280  16.383  1.00  0.00    -0.310 N 
HETATM   30  C12 UNL     1       7.182  59.370  16.031  1.00  0.00     0.187 C 
HETATM   31  N7  UNL     1       7.048  58.218  16.600  1.00  0.00    -0.373 N 
HETATM   32  N8  UNL     1       6.284  59.744  15.003  1.00  0.00    -0.064 NA
ATOM     33  H72 UNL     1       7.695  57.949  17.342  1.00  0.00     0.158 HD
ATOM     34  H71 UNL     1       6.317  57.555  16.344  1.00  0.00     0.158 HD
ATOM     35  H6  UNL     1       9.063  60.310  15.865  1.00  0.00     0.170 HD
ENDBRANCH  26  29
ENDBRANCH  19  20
ENDBRANCH   1  19
TORSDOF 9
ENDMDL
MODEL 2
REMARK VINA RESULT: -8.352377611      1.725      2.508
REMARK  9 active torsions:
REMARK  status: ('A' for Active; 'I' for Inactive)
REMARK    1  A    between atoms: C2_2  and  C3_3 
REMARK    2  A    between atoms: C2_2  and  C15_30 
REMARK    3  A    between atoms: C3_3  and  C4_4 
REMARK    4  A    between atoms: C4_4  and  N1_5 
REMARK    5  A    between atoms: N2_8  and  C7_9 
REMARK    6  A    between atoms: C7_9  and  C8_10 
REMARK    7  A    between atoms: C8_10  and  C9_11 
REMARK    8  A    between atoms: C9_11  and  N3_12 
REMARK    9  A    between atoms: C11_19  and  N6_20 
REMARK       I    between atoms: N6_20  and  C12_22 
ROOT
HETATM    1  C8  UNL     1       5.568  62.704  21.973  1.00  0.00     0.050 C 
ENDROOT
BRANCH   1   2
HETATM    2  C7  UNL     1       5.021  61.635  22.916  1.00  0.00     0.274 C 
BRANCH   2   3
HETATM    3  N2  UNL     1       3.692  61.249  22.500  1.00  0.00     0.094 N 
HETATM    4  C6  UNL     1       3.716  60.215  21.467  1.00  0.00     0.292 C 
HETATM    5  C5  UNL     1       4.504  59.038  21.858  1.00  0.00     0.152 C 
HETATM    6  N1  UNL     1       4.367  58.578  23.212  1.00  0.00    -0.390 N 
HETATM    7  C14 UNL     1       3.617  59.347  24.091  1.00  0.00     0.088 C 
HETATM    8  C13 UNL     1       2.974  60.596  23.606  1.00  0.00     0.316 C 
BRANCH   6   9
HETATM    9  C4  UNL     1       4.458  57.176  23.343  1.00  0.00     0.122 C 
BRANCH   9  10
HETATM   10  C3  UNL     1       4.091  56.467  22.095  1.00  0.00     0.024 C 
BRANCH  10  11
HETATM   11  C2  UNL     1       2.629  56.096  22.033  1.00  0.00    -0.013 C 
HETATM   12  C1  UNL     1       2.302  55.587  23.454  1.00  0.00     0.010 C 
BRANCH  11  13
HETATM   13  C15 UNL     1       2.255  55.005  21.091  1.00  0.00    -0.011 C 
HETATM   14  C16 UNL     1       2.216  55.373  19.662  1.00  0.00     0.005 C 
HETATM   15  C17 UNL     1       0.894  55.327  18.986  1.00  0.00     0.000 C 
HETATM   16  C18 UNL     1      -0.276  54.998  19.845  1.00  0.00     0.000 C 
HETATM   17  C19 UNL     1       0.128  53.749  20.638  1.00  0.00     0.000 C 
HETATM   18  C20 UNL     1       1.079  54.299  21.671  1.00  0.00     0.005 C 
ENDBRANCH  11  13
ENDBRANCH  10  11
ENDBRANCH   9  10
ENDBRANCH   6   9
ENDBRANCH   2   3
ENDBRANCH   1   2
BRANCH   1  19
HETATM   19  C9  UNL     1       6.909  62.123  21.477  1.00  0.00     0.123 C 
BRANCH  19  20
HETATM   20  N3  UNL     1       7.465  62.962  20.457  1.00  0.00    -0.369 N 
HETATM   21  C10 UNL     1       7.703  62.450  19.284  1.00  0.00     0.162 A 
HETATM   22  N4  UNL     1       8.216  63.058  18.212  1.00  0.00    -0.278 N 
HETATM   23  S1  UNL     1       7.466  60.846  18.675  1.00  0.00    -0.015 SA
HETATM   24  N5  UNL     1       8.388  62.403  17.136  1.00  0.00    -0.277 N 
ATOM     25  H4  UNL     1       8.468  64.045  18.256  1.00  0.00     0.189 HD
HETATM   26  C11 UNL     1       8.050  61.115  17.095  1.00  0.00     0.169 A 
ATOM     27  H5  UNL     1       8.780  62.860  16.312  1.00  0.00     0.189 HD
ATOM     28  H3  UNL     1       7.672  63.942  20.647  1.00  0.00     0.161 HD
BRANCH  26  29
HETATM   29  N6  UNL     1       8.151  60.275  16.095  1.00  0.00    -0.310 N 
HETATM   30  C12 UNL     1       7.108  59.371  15.862  1.00  0.00     0.187 C 
HETATM   31  N7  UNL     1       7.014  58.235  16.469  1.00  0.00    -0.373 N 
HETATM   32  N8  UNL     1       6.121  59.734  14.914  1.00  0.00    -0.064 NA
ATOM     33  H72 UNL     1       7.726  57.974  17.153  1.00  0.00     0.158 HD
ATOM     34  H71 UNL     1       6.254  57.577  16.300  1.00  0.00     0.158 HD
ATOM     35  H6  UNL     1       8.976  60.279  15.495  1.00  0.00     0.170 HD
ENDBRANCH  26  29
ENDBRANCH  19  20
ENDBRANCH   1  19
TORSDOF 9
ENDMDL
MODEL 3
REMARK VINA RESULT: -8.012729595      1.149      1.865
REMARK  9 active torsions:
REMARK  status: ('A' for Active; 'I' for Inactive)
REMARK    1  A    between atoms: C2_2  and  C3_3 
REMARK    2  A    between atoms: C2_2  and  C15_30 
REMARK    3  A    between atoms: C3_3  and  C4_4 
REMARK    4  A    between atoms: C4_4  and  N1_5 
REMARK    5  A    between atoms: N2_8  and  C7_9 
REMARK    6  A    between atoms: C7_9  and  C8_10 
REMARK    7  A    between atoms: C8_10  and  C9_11 
REMARK    8  A    between atoms: C9_11  and  N3_12 
REMARK    9  A    between atoms: C11_19  and  N6_20 
REMARK       I    between atoms: N6_20  and  C12_22 
ROOT
HETATM    1  C8  UNL     1       5.300  62.504  22.845  1.00  0.00     0.050 C 
ENDROOT
BRANCH   1   2
HETATM    2  C7  UNL     1       4.018  61.708  23.080  1.00  0.00     0.274 C 
BRANCH   2   3
HETATM    3  N2  UNL     1       3.806  61.530  24.498  1.00  0.00     0.094 N 
HETATM    4  C6  UNL     1       2.591  60.768  24.783  1.00  0.00     0.292 C 
HETATM    5  C5  UNL     1       2.553  59.477  24.082  1.00  0.00     0.152 C 
HETATM    6  N1  UNL     1       3.775  58.724  24.027  1.00  0.00    -0.390 N 
HETATM    7  C14 UNL     1       4.932  59.320  24.511  1.00  0.00     0.088 C 
HETATM    8  C13 UNL     1       4.867  60.692  25.078  1.00  0.00     0.316 C 
BRANCH   6   9
HETATM    9  C4  UNL     1       3.581  57.328  24.080  1.00  0.00     0.122 C 
BRANCH   9  10
HETATM   10  C3  UNL     1       3.013  56.789  22.821  1.00  0.00     0.024 C 
BRANCH  10  11
HETATM   11  C2  UNL     1       4.045  56.610  21.735  1.00  0.00    -0.013 C 
HETATM   12  C1  UNL     1       4.139  57.997  21.063  1.00  0.00     0.010 C 
BRANCH  11  13
HETATM   13  C15 UNL     1       3.720  55.634  20.658  1.00  0.00    -0.011 C 
HETATM   14  C16 UNL     1       3.244  56.212  19.386  1.00  0.00     0.005 C 
HETATM   15  C17 UNL     1       1.847  55.909  18.985  1.00  0.00     0.000 C 
HETATM   16  C18 UNL     1       1.037  55.123  19.954  1.00  0.00     0.000 C 
HETATM   17  C19 UNL     1       1.908  53.924  20.348  1.00  0.00     0.000 C 
HETATM   18  C20 UNL     1       2.925  54.537  21.277  1.00  0.00     0.005 C 
ENDBRANCH  11  13
ENDBRANCH  10  11
ENDBRANCH   9  10
ENDBRANCH   6   9
ENDBRANCH   2   3
ENDBRANCH   1   2
BRANCH   1  19
HETATM   19  C9  UNL     1       6.022  61.738  21.717  1.00  0.00     0.123 C 
BRANCH  19  20
HETATM   20  N3  UNL     1       6.746  62.650  20.883  1.00  0.00    -0.369 N 
HETATM   21  C10 UNL     1       7.180  62.235  19.727  1.00  0.00     0.162 A 
HETATM   22  N4  UNL     1       7.869  62.923  18.814  1.00  0.00    -0.278 N 
HETATM   23  S1  UNL     1       7.045  60.693  18.951  1.00  0.00    -0.015 SA
HETATM   24  N5  UNL     1       8.220  62.359  17.730  1.00  0.00    -0.277 N 
ATOM     25  H4  UNL     1       8.112  63.899  18.985  1.00  0.00     0.189 HD
HETATM   26  C11 UNL     1       7.891  61.084  17.522  1.00  0.00     0.169 A 
ATOM     27  H5  UNL     1       8.748  62.877  17.028  1.00  0.00     0.189 HD
ATOM     28  H3  UNL     1       6.919  63.608  21.189  1.00  0.00     0.161 HD
BRANCH  26  29
HETATM   29  N6  UNL     1       8.160  60.330  16.485  1.00  0.00    -0.310 N 
HETATM   30  C12 UNL     1       7.207  59.395  16.063  1.00  0.00     0.187 C 
HETATM   31  N7  UNL     1       7.110  58.213  16.574  1.00  0.00    -0.373 N 
HETATM   32  N8  UNL     1       6.319  59.780  15.030  1.00  0.00    -0.064 NA
ATOM     33  H72 UNL     1       7.750  57.936  17.318  1.00  0.00     0.158 HD
ATOM     34  H71 UNL     1       6.416  57.532  16.267  1.00  0.00     0.158 HD
ATOM     35  H6  UNL     1       9.048  60.422  15.993  1.00  0.00     0.170 HD
ENDBRANCH  26  29
ENDBRANCH  19  20
ENDBRANCH   1  19
TORSDOF 9
ENDMDL
MODEL 4
REMARK VINA RESULT: -7.832593400      1.570      2.158
REMARK  9 active torsions:
REMARK  status: ('A' for Active; 'I' for Inactive)
REMARK    1  A    between atoms: C2_2  and  C3_3 
REMARK    2  A    between atoms: C2_2  and  C15_30 
REMARK    3  A    between atoms: C3_3  and  C4_4 
REMARK    4  A    between atoms: C4_4  and  N1_5 
REMARK    5  A    between atoms: N2_8  and  C7_9 
REMARK    6  A    between atoms: C7_9  and  C8_10 
REMARK    7  A    between atoms: C8_10  and  C9_11 
REMARK    8  A    between atoms: C9_11  and  N3_12 
REMARK    9  A    between atoms: C11_19  and  N6_20 
REMARK       I    between atoms: N6_20  and  C12_22 
ROOT
HETATM    1  C8  UNL     1       4.087  62.865  23.561  1.00  0.00     0.050 C 
ENDROOT
BRANCH   1   2
HETATM    2  C7  UNL     1       4.867  61.805  24.336  1.00  0.00     0.274 C 
BRANCH   2   3
HETATM    3  N2  UNL     1       4.206  61.531  25.591  1.00  0.00     0.094 N 
HETATM    4  C6  UNL     1       2.956  60.795  25.407  1.00  0.00     0.292 C 
HETATM    5  C5  UNL     1       3.133  59.560  24.629  1.00  0.00     0.152 C 
HETATM    6  N1  UNL     1       4.299  58.770  24.909  1.00  0.00    -0.390 N 
HETATM    7  C14 UNL     1       5.244  59.286  25.786  1.00  0.00     0.088 C 
HETATM    8  C13 UNL     1       5.014  60.615  26.411  1.00  0.00     0.316 C 
BRANCH   6   9
HETATM    9  C4  UNL     1       4.084  57.382  24.784  1.00  0.00     0.122 C 
BRANCH   9  10
HETATM   10  C3  UNL     1       4.421  56.879  23.430  1.00  0.00     0.024 C 
BRANCH  10  11
HETATM   11  C2  UNL     1       3.203  56.535  22.607  1.00  0.00    -0.013 C 
HETATM   12  C1  UNL     1       2.308  55.723  23.567  1.00  0.00     0.010 C 
BRANCH  11  13
HETATM   13  C15 UNL     1       3.427  55.684  21.406  1.00  0.00    -0.011 C 
HETATM   14  C16 UNL     1       3.773  56.400  20.163  1.00  0.00     0.005 C 
HETATM   15  C17 UNL     1       2.796  56.331  19.046  1.00  0.00     0.000 C 
HETATM   16  C18 UNL     1       1.522  55.616  19.327  1.00  0.00     0.000 C 
HETATM   17  C19 UNL     1       1.926  54.280  19.963  1.00  0.00     0.000 C 
HETATM   18  C20 UNL     1       2.327  54.681  21.360  1.00  0.00     0.005 C 
ENDBRANCH  11  13
ENDBRANCH  10  11
ENDBRANCH   9  10
ENDBRANCH   6   9
ENDBRANCH   2   3
ENDBRANCH   1   2
BRANCH   1  19
HETATM   19  C9  UNL     1       4.619  62.749  22.117  1.00  0.00     0.123 C 
BRANCH  19  20
HETATM   20  N3  UNL     1       5.008  61.398  21.840  1.00  0.00    -0.369 N 
HETATM   21  C10 UNL     1       5.900  61.178  20.917  1.00  0.00     0.162 A 
HETATM   22  N4  UNL     1       6.390  60.005  20.513  1.00  0.00    -0.278 N 
HETATM   23  S1  UNL     1       6.764  62.273  19.889  1.00  0.00    -0.015 SA
HETATM   24  N5  UNL     1       7.262  59.969  19.588  1.00  0.00    -0.277 N 
ATOM     25  H4  UNL     1       6.067  59.139  20.945  1.00  0.00     0.189 HD
HETATM   26  C11 UNL     1       7.676  61.110  19.037  1.00  0.00     0.169 A 
ATOM     27  H5  UNL     1       7.641  59.076  19.271  1.00  0.00     0.189 HD
ATOM     28  H3  UNL     1       4.593  60.622  22.356  1.00  0.00     0.161 HD
BRANCH  26  29
HETATM   29  N6  UNL     1       8.553  61.284  18.079  1.00  0.00    -0.310 N 
HETATM   30  C12 UNL     1       8.194  60.958  16.766  1.00  0.00     0.187 C 
HETATM   31  N7  UNL     1       8.292  59.763  16.288  1.00  0.00    -0.373 N 
HETATM   32  N8  UNL     1       7.705  61.999  15.940  1.00  0.00    -0.064 NA
ATOM     33  H72 UNL     1       8.644  59.013  16.883  1.00  0.00     0.158 HD
ATOM     34  H71 UNL     1       8.031  59.525  15.331  1.00  0.00     0.158 HD
ATOM     35  H6  UNL     1       9.482  61.650  18.287  1.00  0.00     0.170 HD
ENDBRANCH  26  29
ENDBRANCH  19  20
ENDBRANCH   1  19
TORSDOF 9
ENDMDL
MODEL 5
REMARK VINA RESULT: -7.818917686      1.684      2.703
REMARK  9 active torsions:
REMARK  status: ('A' for Active; 'I' for Inactive)
REMARK    1  A    between atoms: C2_2  and  C3_3 
REMARK    2  A    between atoms: C2_2  and  C15_30 
REMARK    3  A    between atoms: C3_3  and  C4_4 
REMARK    4  A    between atoms: C4_4  and  N1_5 
REMARK    5  A    between atoms: N2_8  and  C7_9 
REMARK    6  A    between atoms: C7_9  and  C8_10 
REMARK    7  A    between atoms: C8_10  and  C9_11 
REMARK    8  A    between atoms: C9_11  and  N3_12 
REMARK    9  A    between atoms: C11_19  and  N6_20 
REMARK       I    between atoms: N6_20  and  C12_22 
ROOT
HETATM    1  C8  UNL     1       5.349  62.610  21.221  1.00  0.00     0.050 C 
ENDROOT
BRANCH   1   2
HETATM    2  C7  UNL     1       4.997  63.047  22.641  1.00  0.00     0.274 C 
BRANCH   2   3
HETATM    3  N2  UNL     1       3.708  62.509  23.013  1.00  0.00     0.094 N 
HETATM    4  C6  UNL     1       3.758  61.067  23.245  1.00  0.00     0.292 C 
HETATM    5  C5  UNL     1       4.786  60.684  24.223  1.00  0.00     0.152 C 
HETATM    6  N1  UNL     1       4.931  61.518  25.383  1.00  0.00    -0.390 N 
HETATM    7  C14 UNL     1       4.196  62.695  25.438  1.00  0.00     0.088 C 
HETATM    8  C13 UNL     1       3.283  63.042  24.317  1.00  0.00     0.316 C 
BRANCH   6   9
HETATM    9  C4  UNL     1       5.281  60.807  26.550  1.00  0.00     0.122 C 
BRANCH   9  10
HETATM   10  C3  UNL     1       4.362  59.674  26.817  1.00  0.00     0.024 C 
BRANCH  10  11
HETATM   11  C2  UNL     1       5.084  58.403  27.194  1.00  0.00    -0.013 C 
HETATM   12  C1  UNL     1       6.579  58.739  27.002  1.00  0.00     0.010 C 
BRANCH  11  13
HETATM   13  C15 UNL     1       4.804  57.203  26.359  1.00  0.00    -0.011 C 
HETATM   14  C16 UNL     1       5.460  57.170  25.037  1.00  0.00     0.005 C 
HETATM   15  C17 UNL     1       4.579  57.223  23.842  1.00  0.00     0.000 C 
HETATM   16  C18 UNL     1       3.124  57.393  24.101  1.00  0.00     0.000 C 
HETATM   17  C19 UNL     1       2.766  56.348  25.166  1.00  0.00     0.000 C 
HETATM   18  C20 UNL     1       3.339  56.944  26.427  1.00  0.00     0.005 C 
ENDBRANCH  11  13
ENDBRANCH  10  11
ENDBRANCH   9  10
ENDBRANCH   6   9
ENDBRANCH   2   3
ENDBRANCH   1   2
BRANCH   1  19
HETATM   19  C9  UNL     1       6.850  62.261  21.292  1.00  0.00     0.123 C 
BRANCH  19  20
HETATM   20  N3  UNL     1       7.578  63.001  20.304  1.00  0.00    -0.369 N 
HETATM   21  C10 UNL     1       7.825  62.440  19.155  1.00  0.00     0.162 A 
HETATM   22  N4  UNL     1       8.482  62.956  18.114  1.00  0.00    -0.278 N 
HETATM   23  S1  UNL     1       7.420  60.868  18.549  1.00  0.00    -0.015 SA
HETATM   24  N5  UNL     1       8.638  62.263  17.059  1.00  0.00    -0.277 N 
ATOM     25  H4  UNL     1       8.857  63.903  18.165  1.00  0.00     0.189 HD
HETATM   26  C11 UNL     1       8.139  61.028  17.009  1.00  0.00     0.169 A 
ATOM     27  H5  UNL     1       9.141  62.649  16.260  1.00  0.00     0.189 HD
ATOM     28  H3  UNL     1       7.897  63.950  20.497  1.00  0.00     0.161 HD
BRANCH  26  29
HETATM   29  N6  UNL     1       8.196  60.163  16.027  1.00  0.00    -0.310 N 
HETATM   30  C12 UNL     1       7.116  59.295  15.826  1.00  0.00     0.187 C 
HETATM   31  N7  UNL     1       6.987  58.178  16.461  1.00  0.00    -0.373 N 
HETATM   32  N8  UNL     1       6.133  59.675  14.882  1.00  0.00    -0.064 NA
ATOM     33  H72 UNL     1       7.695  57.904  17.142  1.00  0.00     0.158 HD
ATOM     34  H71 UNL     1       6.200  57.546  16.315  1.00  0.00     0.158 HD
ATOM     35  H6  UNL     1       9.014  60.123  15.419  1.00  0.00     0.170 HD
ENDBRANCH  26  29
ENDBRANCH  19  20
ENDBRANCH   1  19
TORSDOF 9
ENDMDL
