MODEL 1
REMARK VINA RESULT: -5.901010045      0.000      0.000
REMARK  15 active torsions:
REMARK  status: ('A' for Active; 'I' for Inactive)
REMARK    1  A    between atoms: N1_1  and  C1_5 
REMARK    2  A    between atoms: C1_5  and  C2_6 
REMARK    3  A    between atoms: C2_6  and  C3_7 
REMARK    4  A    between atoms: C3_7  and  N2_8 
REMARK       I    between atoms: C4_10  and  N3_11 
REMARK       I    between atoms: C4_10  and  N5_16 
REMARK    5  A    between atoms: N3_11  and  N4_13 
REMARK    6  A    between atoms: N5_16  and  C5_18 
REMARK    7  A    between atoms: C5_18  and  C6_19 
REMARK    8  A    between atoms: C6_19  and  C7_20 
REMARK    9  A    between atoms: C7_20  and  C8_21 
REMARK   10  A    between atoms: C8_21  and  C9_22 
REMARK   11  A    between atoms: C9_22  and  C10_23 
REMARK   12  A    between atoms: C10_23  and  C11_24 
REMARK   13  A    between atoms: C11_24  and  N6_25 
REMARK   14  A    between atoms: N6_25  and  S1_27 
REMARK   15  A    between atoms: S1_27  and  N7_30 
ROOT
HETATM    1  C6  UNL     1      -1.737  21.200  -7.680  1.00  0.00     0.020 C 
ENDROOT
BRANCH   1   2
HETATM    2  C5  UNL     1      -0.755  21.736  -6.660  1.00  0.00     0.138 C 
BRANCH   2   3
HETATM    3  N5  UNL     1      -0.390  23.106  -6.959  1.00  0.00    -0.225 N 
HETATM    4  C4  UNL     1       0.566  23.838  -6.220  1.00  0.00     0.688 C 
HETATM    5  N2  UNL     1       0.464  25.124  -6.031  1.00  0.00    -0.225 N 
HETATM    6  N3  UNL     1       1.687  23.190  -5.652  1.00  0.00    -0.139 N 
ATOM      7  H2  UNL     1       1.180  25.609  -5.490  1.00  0.00     0.177 HD
ATOM      8  H3  UNL     1       2.539  23.094  -6.203  1.00  0.00     0.205 HD
ATOM      9  H5  UNL     1      -0.848  23.566  -7.744  1.00  0.00     0.177 HD
BRANCH   5  10
HETATM   10  C3  UNL     1      -0.649  25.879  -6.573  1.00  0.00     0.139 C 
BRANCH  10  11
HETATM   11  C2  UNL     1      -0.317  26.637  -7.812  1.00  0.00     0.047 C 
BRANCH  11  12
HETATM   12  C1  UNL     1       0.622  27.784  -7.576  1.00  0.00     0.231 C 
BRANCH  12  13
HETATM   13  N1  UNL     1      -0.097  29.044  -7.567  1.00  0.00    -0.079 N 
ATOM     14  H13 UNL     1      -0.598  29.199  -8.442  1.00  0.00     0.274 HD
ATOM     15  H12 UNL     1      -0.896  29.018  -6.935  1.00  0.00     0.274 HD
ATOM     16  H11 UNL     1       0.531  29.818  -7.350  1.00  0.00     0.274 HD
ENDBRANCH  12  13
ENDBRANCH  11  12
ENDBRANCH  10  11
ENDBRANCH   5  10
BRANCH   6  17
HETATM   17  N4  UNL     1       1.653  22.678  -4.353  1.00  0.00    -0.331 N 
ATOM     18  H42 UNL     1       0.778  22.741  -3.833  1.00  0.00     0.177 HD
ATOM     19  H41 UNL     1       2.476  22.250  -3.927  1.00  0.00     0.177 HD
ENDBRANCH   6  17
ENDBRANCH   2   3
ENDBRANCH   1   2
BRANCH   1  20
HETATM   20  C7  UNL     1      -2.232  19.860  -7.184  1.00  0.00     0.002 C 
BRANCH  20  21
HETATM   21  C8  UNL     1      -2.316  18.900  -8.318  1.00  0.00     0.000 C 
BRANCH  21  22
HETATM   22  C9  UNL     1      -1.120  18.811  -9.194  1.00  0.00     0.002 C 
BRANCH  22  23
HETATM   23  C10 UNL     1      -0.940  17.488  -9.888  1.00  0.00     0.020 C 
BRANCH  23  24
HETATM   24  C11 UNL     1       0.507  17.084 -10.002  1.00  0.00     0.133 C 
BRANCH  24  25
HETATM   25  N6  UNL     1       1.392  18.068  -9.414  1.00  0.00    -0.302 N 
ATOM     26  H6  UNL     1       1.491  19.018  -9.772  1.00  0.00     0.173 HD
BRANCH  25  27
HETATM   27  S1  UNL     1       2.249  17.482  -8.068  1.00  0.00     0.325 S 
HETATM   28  O1  UNL     1       3.612  18.132  -8.030  1.00  0.00    -0.182 OA
HETATM   29  O2  UNL     1       2.520  16.001  -8.304  1.00  0.00    -0.182 OA
BRANCH  27  30
HETATM   30  N7  UNL     1       1.478  17.729  -6.565  1.00  0.00    -0.201 N 
HETATM   31  C12 UNL     1       1.989  18.579  -5.500  1.00  0.00     0.251 C 
HETATM   32  C13 UNL     1       0.768  18.920  -4.708  1.00  0.00     0.244 C 
HETATM   33  O3  UNL     1       0.576  19.890  -3.938  1.00  0.00    -0.271 OA
HETATM   34  N8  UNL     1      -0.177  17.893  -5.005  1.00  0.00    -0.277 N 
HETATM   35  C14 UNL     1       0.238  17.145  -6.146  1.00  0.00     0.340 C 
ATOM     36  H8  UNL     1      -1.031  17.718  -4.475  1.00  0.00     0.173 HD
HETATM   37  O4  UNL     1      -0.386  16.184  -6.642  1.00  0.00    -0.246 OA
ENDBRANCH  27  30
ENDBRANCH  25  27
ENDBRANCH  24  25
ENDBRANCH  23  24
ENDBRANCH  22  23
ENDBRANCH  21  22
ENDBRANCH  20  21
ENDBRANCH   1  20
TORSDOF 15
ENDMDL
MODEL 2
REMARK VINA RESULT: -5.885841544      1.036      1.453
REMARK  15 active torsions:
REMARK  status: ('A' for Active; 'I' for Inactive)
REMARK    1  A    between atoms: N1_1  and  C1_5 
REMARK    2  A    between atoms: C1_5  and  C2_6 
REMARK    3  A    between atoms: C2_6  and  C3_7 
REMARK    4  A    between atoms: C3_7  and  N2_8 
REMARK       I    between atoms: C4_10  and  N3_11 
REMARK       I    between atoms: C4_10  and  N5_16 
REMARK    5  A    between atoms: N3_11  and  N4_13 
REMARK    6  A    between atoms: N5_16  and  C5_18 
REMARK    7  A    between atoms: C5_18  and  C6_19 
REMARK    8  A    between atoms: C6_19  and  C7_20 
REMARK    9  A    between atoms: C7_20  and  C8_21 
REMARK   10  A    between atoms: C8_21  and  C9_22 
REMARK   11  A    between atoms: C9_22  and  C10_23 
REMARK   12  A    between atoms: C10_23  and  C11_24 
REMARK   13  A    between atoms: C11_24  and  N6_25 
REMARK   14  A    between atoms: N6_25  and  S1_27 
REMARK   15  A    between atoms: S1_27  and  N7_30 
ROOT
HETATM    1  C6  UNL     1      -1.797  21.344  -7.598  1.00  0.00     0.020 C 
ENDROOT
BRANCH   1   2
HETATM    2  C5  UNL     1      -0.784  21.892  -6.614  1.00  0.00     0.138 C 
BRANCH   2   3
HETATM    3  N5  UNL     1      -0.392  23.241  -6.966  1.00  0.00    -0.225 N 
HETATM    4  C4  UNL     1       0.584  23.980  -6.262  1.00  0.00     0.688 C 
HETATM    5  N2  UNL     1       0.511  25.274  -6.120  1.00  0.00    -0.225 N 
HETATM    6  N3  UNL     1       1.695  23.330  -5.676  1.00  0.00    -0.139 N 
ATOM      7  H2  UNL     1       1.241  25.763  -5.603  1.00  0.00     0.177 HD
ATOM      8  H3  UNL     1       2.541  23.194  -6.228  1.00  0.00     0.205 HD
ATOM      9  H5  UNL     1      -0.846  23.681  -7.766  1.00  0.00     0.177 HD
BRANCH   5  10
HETATM   10  C3  UNL     1      -0.590  26.032  -6.684  1.00  0.00     0.139 C 
BRANCH  10  11
HETATM   11  C2  UNL     1      -0.230  26.793  -7.913  1.00  0.00     0.047 C 
BRANCH  11  12
HETATM   12  C1  UNL     1       0.541  28.050  -7.633  1.00  0.00     0.231 C 
BRANCH  12  13
HETATM   13  N1  UNL     1       0.315  29.035  -8.673  1.00  0.00    -0.079 N 
ATOM     14  H13 UNL     1       0.872  28.841  -9.504  1.00  0.00     0.274 HD
ATOM     15  H12 UNL     1      -0.613  28.944  -9.084  1.00  0.00     0.274 HD
ATOM     16  H11 UNL     1       0.481  29.978  -8.320  1.00  0.00     0.274 HD
ENDBRANCH  12  13
ENDBRANCH  11  12
ENDBRANCH  10  11
ENDBRANCH   5  10
BRANCH   6  17
HETATM   17  N4  UNL     1       1.659  22.868  -4.359  1.00  0.00    -0.331 N 
ATOM     18  H42 UNL     1       1.207  23.452  -3.655  1.00  0.00     0.177 HD
ATOM     19  H41 UNL     1       2.071  21.972  -4.096  1.00  0.00     0.177 HD
ENDBRANCH   6  17
ENDBRANCH   2   3
ENDBRANCH   1   2
BRANCH   1  20
HETATM   20  C7  UNL     1      -1.369  19.942  -7.968  1.00  0.00     0.002 C 
BRANCH  20  21
HETATM   21  C8  UNL     1      -1.828  19.619  -9.346  1.00  0.00     0.000 C 
BRANCH  21  22
HETATM   22  C9  UNL     1      -1.084  18.548 -10.054  1.00  0.00     0.002 C 
BRANCH  22  23
HETATM   23  C10 UNL     1      -0.917  17.271  -9.275  1.00  0.00     0.020 C 
BRANCH  23  24
HETATM   24  C11 UNL     1       0.478  16.709  -9.372  1.00  0.00     0.133 C 
BRANCH  24  25
HETATM   25  N6  UNL     1       1.486  17.710  -9.088  1.00  0.00    -0.302 N 
ATOM     26  H6  UNL     1       1.726  18.463  -9.732  1.00  0.00     0.173 HD
BRANCH  25  27
HETATM   27  S1  UNL     1       2.228  17.503  -7.572  1.00  0.00     0.325 S 
HETATM   28  O1  UNL     1       3.624  18.079  -7.626  1.00  0.00    -0.182 OA
HETATM   29  O2  UNL     1       2.422  16.008  -7.355  1.00  0.00    -0.182 OA
BRANCH  27  30
HETATM   30  N7  UNL     1       1.391  18.207  -6.262  1.00  0.00    -0.201 N 
HETATM   31  C12 UNL     1       0.220  17.631  -5.619  1.00  0.00     0.251 C 
HETATM   32  C13 UNL     1       0.224  18.253  -4.259  1.00  0.00     0.244 C 
HETATM   33  O3  UNL     1      -0.316  17.843  -3.206  1.00  0.00    -0.271 OA
HETATM   34  N8  UNL     1       0.990  19.450  -4.393  1.00  0.00    -0.277 N 
HETATM   35  C14 UNL     1       1.718  19.445  -5.618  1.00  0.00     0.340 C 
ATOM     36  H8  UNL     1       1.013  20.204  -3.706  1.00  0.00     0.173 HD
HETATM   37  O4  UNL     1       2.475  20.358  -6.009  1.00  0.00    -0.246 OA
ENDBRANCH  27  30
ENDBRANCH  25  27
ENDBRANCH  24  25
ENDBRANCH  23  24
ENDBRANCH  22  23
ENDBRANCH  21  22
ENDBRANCH  20  21
ENDBRANCH   1  20
TORSDOF 15
ENDMDL
MODEL 3
REMARK VINA RESULT: -5.881609059      1.951      3.461
REMARK  15 active torsions:
REMARK  status: ('A' for Active; 'I' for Inactive)
REMARK    1  A    between atoms: N1_1  and  C1_5 
REMARK    2  A    between atoms: C1_5  and  C2_6 
REMARK    3  A    between atoms: C2_6  and  C3_7 
REMARK    4  A    between atoms: C3_7  and  N2_8 
REMARK       I    between atoms: C4_10  and  N3_11 
REMARK       I    between atoms: C4_10  and  N5_16 
REMARK    5  A    between atoms: N3_11  and  N4_13 
REMARK    6  A    between atoms: N5_16  and  C5_18 
REMARK    7  A    between atoms: C5_18  and  C6_19 
REMARK    8  A    between atoms: C6_19  and  C7_20 
REMARK    9  A    between atoms: C7_20  and  C8_21 
REMARK   10  A    between atoms: C8_21  and  C9_22 
REMARK   11  A    between atoms: C9_22  and  C10_23 
REMARK   12  A    between atoms: C10_23  and  C11_24 
REMARK   13  A    between atoms: C11_24  and  N6_25 
REMARK   14  A    between atoms: N6_25  and  S1_27 
REMARK   15  A    between atoms: S1_27  and  N7_30 
ROOT
HETATM    1  C6  UNL     1      -1.796  20.808  -7.414  1.00  0.00     0.020 C 
ENDROOT
BRANCH   1   2
HETATM    2  C5  UNL     1      -0.636  21.083  -6.480  1.00  0.00     0.138 C 
BRANCH   2   3
HETATM    3  N5  UNL     1      -0.169  22.447  -6.616  1.00  0.00    -0.225 N 
HETATM    4  C4  UNL     1       0.751  23.050  -5.729  1.00  0.00     0.688 C 
HETATM    5  N2  UNL     1       0.702  24.318  -5.431  1.00  0.00    -0.225 N 
HETATM    6  N3  UNL     1       1.774  22.284  -5.124  1.00  0.00    -0.139 N 
ATOM      7  H2  UNL     1       1.389  24.707  -4.785  1.00  0.00     0.177 HD
ATOM      8  H3  UNL     1       2.669  22.183  -5.602  1.00  0.00     0.205 HD
ATOM      9  H5  UNL     1      -0.524  23.003  -7.393  1.00  0.00     0.177 HD
BRANCH   5  10
HETATM   10  C3  UNL     1      -0.311  25.187  -5.999  1.00  0.00     0.139 C 
BRANCH  10  11
HETATM   11  C2  UNL     1       0.045  25.731  -7.340  1.00  0.00     0.047 C 
BRANCH  11  12
HETATM   12  C1  UNL     1      -0.060  27.226  -7.424  1.00  0.00     0.231 C 
BRANCH  12  13
HETATM   13  N1  UNL     1       1.249  27.841  -7.313  1.00  0.00    -0.079 N 
ATOM     14  H13 UNL     1       1.735  27.543  -6.467  1.00  0.00     0.274 HD
ATOM     15  H12 UNL     1       1.901  27.470  -8.003  1.00  0.00     0.274 HD
ATOM     16  H11 UNL     1       1.178  28.857  -7.369  1.00  0.00     0.274 HD
ENDBRANCH  12  13
ENDBRANCH  11  12
ENDBRANCH  10  11
ENDBRANCH   5  10
BRANCH   6  17
HETATM   17  N4  UNL     1       1.588  21.665  -3.887  1.00  0.00    -0.331 N 
ATOM     18  H42 UNL     1       1.545  20.646  -3.860  1.00  0.00     0.177 HD
ATOM     19  H41 UNL     1       1.496  22.206  -3.027  1.00  0.00     0.177 HD
ENDBRANCH   6  17
ENDBRANCH   2   3
ENDBRANCH   1   2
BRANCH   1  20
HETATM   20  C7  UNL     1      -1.439  19.600  -8.251  1.00  0.00     0.002 C 
BRANCH  20  21
HETATM   21  C8  UNL     1      -0.744  18.589  -7.409  1.00  0.00     0.000 C 
BRANCH  21  22
HETATM   22  C9  UNL     1      -1.406  17.266  -7.287  1.00  0.00     0.002 C 
BRANCH  22  23
HETATM   23  C10 UNL     1      -2.558  17.220  -6.320  1.00  0.00     0.020 C 
BRANCH  23  24
HETATM   24  C11 UNL     1      -2.276  17.973  -5.045  1.00  0.00     0.133 C 
BRANCH  24  25
HETATM   25  N6  UNL     1      -1.694  17.120  -4.029  1.00  0.00    -0.302 N 
ATOM     26  H6  UNL     1      -2.169  16.304  -3.643  1.00  0.00     0.173 HD
BRANCH  25  27
HETATM   27  S1  UNL     1      -0.141  17.616  -3.546  1.00  0.00     0.325 S 
HETATM   28  O1  UNL     1       0.155  17.043  -2.180  1.00  0.00    -0.182 OA
HETATM   29  O2  UNL     1      -0.181  19.125  -3.345  1.00  0.00    -0.182 OA
BRANCH  27  30
HETATM   30  N7  UNL     1       1.116  17.175  -4.614  1.00  0.00    -0.201 N 
HETATM   31  C12 UNL     1       1.277  15.857  -5.208  1.00  0.00     0.251 C 
HETATM   32  C13 UNL     1       2.092  16.121  -6.433  1.00  0.00     0.244 C 
HETATM   33  O3  UNL     1       2.195  15.429  -7.472  1.00  0.00    -0.271 OA
HETATM   34  N8  UNL     1       2.757  17.359  -6.186  1.00  0.00    -0.277 N 
HETATM   35  C14 UNL     1       2.173  18.028  -5.070  1.00  0.00     0.340 C 
ATOM     36  H8  UNL     1       3.542  17.716  -6.732  1.00  0.00     0.173 HD
HETATM   37  O4  UNL     1       2.544  19.132  -4.618  1.00  0.00    -0.246 OA
ENDBRANCH  27  30
ENDBRANCH  25  27
ENDBRANCH  24  25
ENDBRANCH  23  24
ENDBRANCH  22  23
ENDBRANCH  21  22
ENDBRANCH  20  21
ENDBRANCH   1  20
TORSDOF 15
ENDMDL
MODEL 4
REMARK VINA RESULT: -5.846722712      4.010      7.296
REMARK  15 active torsions:
REMARK  status: ('A' for Active; 'I' for Inactive)
REMARK    1  A    between atoms: N1_1  and  C1_5 
REMARK    2  A    between atoms: C1_5  and  C2_6 
REMARK    3  A    between atoms: C2_6  and  C3_7 
REMARK    4  A    between atoms: C3_7  and  N2_8 
REMARK       I    between atoms: C4_10  and  N3_11 
REMARK       I    between atoms: C4_10  and  N5_16 
REMARK    5  A    between atoms: N3_11  and  N4_13 
REMARK    6  A    between atoms: N5_16  and  C5_18 
REMARK    7  A    between atoms: C5_18  and  C6_19 
REMARK    8  A    between atoms: C6_19  and  C7_20 
REMARK    9  A    between atoms: C7_20  and  C8_21 
REMARK   10  A    between atoms: C8_21  and  C9_22 
REMARK   11  A    between atoms: C9_22  and  C10_23 
REMARK   12  A    between atoms: C10_23  and  C11_24 
REMARK   13  A    between atoms: C11_24  and  N6_25 
REMARK   14  A    between atoms: N6_25  and  S1_27 
REMARK   15  A    between atoms: S1_27  and  N7_30 
ROOT
HETATM    1  C6  UNL     1      -1.358  19.773  -6.857  1.00  0.00     0.020 C 
ENDROOT
BRANCH   1   2
HETATM    2  C5  UNL     1      -2.026  18.839  -7.845  1.00  0.00     0.138 C 
BRANCH   2   3
HETATM    3  N5  UNL     1      -2.604  19.577  -8.950  1.00  0.00    -0.225 N 
HETATM    4  C4  UNL     1      -1.996  19.685 -10.220  1.00  0.00     0.688 C 
HETATM    5  N2  UNL     1      -2.107  20.755 -10.957  1.00  0.00    -0.225 N 
HETATM    6  N3  UNL     1      -1.231  18.618 -10.745  1.00  0.00    -0.139 N 
ATOM      7  H2  UNL     1      -1.649  20.786 -11.867  1.00  0.00     0.177 HD
ATOM      8  H3  UNL     1      -1.695  17.896 -11.295  1.00  0.00     0.205 HD
ATOM      9  H5  UNL     1      -3.499  20.043  -8.802  1.00  0.00     0.177 HD
BRANCH   5  10
HETATM   10  C3  UNL     1      -2.870  21.903 -10.506  1.00  0.00     0.139 C 
BRANCH  10  11
HETATM   11  C2  UNL     1      -3.640  22.578 -11.589  1.00  0.00     0.047 C 
BRANCH  11  12
HETATM   12  C1  UNL     1      -2.870  22.718 -12.870  1.00  0.00     0.231 C 
BRANCH  12  13
HETATM   13  N1  UNL     1      -2.868  24.096 -13.322  1.00  0.00    -0.079 N 
ATOM     14  H13 UNL     1      -2.320  24.213 -14.174  1.00  0.00     0.274 HD
ATOM     15  H12 UNL     1      -3.779  24.375 -13.686  1.00  0.00     0.274 HD
ATOM     16  H11 UNL     1      -2.551  24.720 -12.581  1.00  0.00     0.274 HD
ENDBRANCH  12  13
ENDBRANCH  11  12
ENDBRANCH  10  11
ENDBRANCH   5  10
BRANCH   6  17
HETATM   17  N4  UNL     1       0.146  18.530 -10.527  1.00  0.00    -0.331 N 
ATOM     18  H42 UNL     1       0.484  18.558  -9.565  1.00  0.00     0.177 HD
ATOM     19  H41 UNL     1       0.804  18.440 -11.302  1.00  0.00     0.177 HD
ENDBRANCH   6  17
ENDBRANCH   2   3
ENDBRANCH   1   2
BRANCH   1  20
HETATM   20  C7  UNL     1       0.088  19.352  -6.730  1.00  0.00     0.002 C 
BRANCH  20  21
HETATM   21  C8  UNL     1       0.518  19.440  -5.308  1.00  0.00     0.000 C 
BRANCH  21  22
HETATM   22  C9  UNL     1       1.775  20.186  -5.046  1.00  0.00     0.002 C 
BRANCH  22  23
HETATM   23  C10 UNL     1       1.586  21.583  -4.522  1.00  0.00     0.020 C 
BRANCH  23  24
HETATM   24  C11 UNL     1       2.095  22.635  -5.474  1.00  0.00     0.133 C 
BRANCH  24  25
HETATM   25  N6  UNL     1       1.519  23.936  -5.201  1.00  0.00    -0.302 N 
ATOM     26  H6  UNL     1       1.994  24.657  -4.657  1.00  0.00     0.173 HD
BRANCH  25  27
HETATM   27  S1  UNL     1      -0.027  24.141  -5.877  1.00  0.00     0.325 S 
HETATM   28  O1  UNL     1      -1.068  23.829  -4.827  1.00  0.00    -0.182 OA
HETATM   29  O2  UNL     1      -0.207  23.072  -6.947  1.00  0.00    -0.182 OA
BRANCH  27  30
HETATM   30  N7  UNL     1      -0.333  25.697  -6.510  1.00  0.00    -0.201 N 
HETATM   31  C12 UNL     1       0.684  26.590  -7.045  1.00  0.00     0.251 C 
HETATM   32  C13 UNL     1      -0.086  27.492  -7.955  1.00  0.00     0.244 C 
HETATM   33  O3  UNL     1       0.329  28.173  -8.922  1.00  0.00    -0.271 OA
HETATM   34  N8  UNL     1      -1.436  27.432  -7.496  1.00  0.00    -0.277 N 
HETATM   35  C14 UNL     1      -1.613  26.333  -6.606  1.00  0.00     0.340 C 
ATOM     36  H8  UNL     1      -2.172  28.084  -7.768  1.00  0.00     0.173 HD
HETATM   37  O4  UNL     1      -2.687  26.027  -6.045  1.00  0.00    -0.246 OA
ENDBRANCH  27  30
ENDBRANCH  25  27
ENDBRANCH  24  25
ENDBRANCH  23  24
ENDBRANCH  22  23
ENDBRANCH  21  22
ENDBRANCH  20  21
ENDBRANCH   1  20
TORSDOF 15
ENDMDL
MODEL 5
REMARK VINA RESULT: -5.791545625      1.639      3.290
REMARK  15 active torsions:
REMARK  status: ('A' for Active; 'I' for Inactive)
REMARK    1  A    between atoms: N1_1  and  C1_5 
REMARK    2  A    between atoms: C1_5  and  C2_6 
REMARK    3  A    between atoms: C2_6  and  C3_7 
REMARK    4  A    between atoms: C3_7  and  N2_8 
REMARK       I    between atoms: C4_10  and  N3_11 
REMARK       I    between atoms: C4_10  and  N5_16 
REMARK    5  A    between atoms: N3_11  and  N4_13 
REMARK    6  A    between atoms: N5_16  and  C5_18 
REMARK    7  A    between atoms: C5_18  and  C6_19 
REMARK    8  A    between atoms: C6_19  and  C7_20 
REMARK    9  A    between atoms: C7_20  and  C8_21 
REMARK   10  A    between atoms: C8_21  and  C9_22 
REMARK   11  A    between atoms: C9_22  and  C10_23 
REMARK   12  A    between atoms: C10_23  and  C11_24 
REMARK   13  A    between atoms: C11_24  and  N6_25 
REMARK   14  A    between atoms: N6_25  and  S1_27 
REMARK   15  A    between atoms: S1_27  and  N7_30 
ROOT
HETATM    1  C6  UNL     1      -1.949  21.131  -7.443  1.00  0.00     0.020 C 
ENDROOT
BRANCH   1   2
HETATM    2  C5  UNL     1      -0.706  21.519  -6.671  1.00  0.00     0.138 C 
BRANCH   2   3
HETATM    3  N5  UNL     1      -0.381  22.916  -6.872  1.00  0.00    -0.225 N 
HETATM    4  C4  UNL     1       0.564  23.619  -6.092  1.00  0.00     0.688 C 
HETATM    5  N2  UNL     1       0.430  24.885  -5.808  1.00  0.00    -0.225 N 
HETATM    6  N3  UNL     1       1.708  22.962  -5.584  1.00  0.00    -0.139 N 
ATOM      7  H2  UNL     1       1.139  25.348  -5.241  1.00  0.00     0.177 HD
ATOM      8  H3  UNL     1       2.556  22.930  -6.149  1.00  0.00     0.205 HD
ATOM      9  H5  UNL     1      -0.861  23.419  -7.617  1.00  0.00     0.177 HD
BRANCH   5  10
HETATM   10  C3  UNL     1      -0.710  25.646  -6.283  1.00  0.00     0.139 C 
BRANCH  10  11
HETATM   11  C2  UNL     1      -0.502  26.272  -7.619  1.00  0.00     0.047 C 
BRANCH  11  12
HETATM   12  C1  UNL     1      -0.178  27.736  -7.548  1.00  0.00     0.231 C 
BRANCH  12  13
HETATM   13  N1  UNL     1       1.243  27.939  -7.341  1.00  0.00    -0.079 N 
ATOM     14  H13 UNL     1       1.486  27.930  -6.350  1.00  0.00     0.274 HD
ATOM     15  H12 UNL     1       1.787  27.130  -7.639  1.00  0.00     0.274 HD
ATOM     16  H11 UNL     1       1.558  28.794  -7.798  1.00  0.00     0.274 HD
ENDBRANCH  12  13
ENDBRANCH  11  12
ENDBRANCH  10  11
ENDBRANCH   5  10
BRANCH   6  17
HETATM   17  N4  UNL     1       1.704  22.357  -4.325  1.00  0.00    -0.331 N 
ATOM     18  H42 UNL     1       1.457  21.369  -4.267  1.00  0.00     0.177 HD
ATOM     19  H41 UNL     1       1.939  22.880  -3.481  1.00  0.00     0.177 HD
ENDBRANCH   6  17
ENDBRANCH   2   3
ENDBRANCH   1   2
BRANCH   1  20
HETATM   20  C7  UNL     1      -1.710  19.766  -8.048  1.00  0.00     0.002 C 
BRANCH  20  21
HETATM   21  C8  UNL     1      -0.795  18.980  -7.177  1.00  0.00     0.000 C 
BRANCH  21  22
HETATM   22  C9  UNL     1      -1.411  17.870  -6.408  1.00  0.00     0.002 C 
BRANCH  22  23
HETATM   23  C10 UNL     1      -1.606  18.147  -4.942  1.00  0.00     0.020 C 
BRANCH  23  24
HETATM   24  C11 UNL     1      -0.337  18.590  -4.260  1.00  0.00     0.133 C 
BRANCH  24  25
HETATM   25  N6  UNL     1       0.589  17.492  -4.072  1.00  0.00    -0.302 N 
ATOM     26  H6  UNL     1       0.357  16.645  -3.553  1.00  0.00     0.173 HD
BRANCH  25  27
HETATM   27  S1  UNL     1       2.101  17.757  -4.803  1.00  0.00     0.325 S 
HETATM   28  O1  UNL     1       3.173  17.095  -3.969  1.00  0.00    -0.182 OA
HETATM   29  O2  UNL     1       2.397  19.249  -4.720  1.00  0.00    -0.182 OA
BRANCH  27  30
HETATM   30  N7  UNL     1       2.228  17.197  -6.410  1.00  0.00    -0.201 N 
HETATM   31  C12 UNL     1       1.751  15.905  -6.880  1.00  0.00     0.251 C 
HETATM   32  C13 UNL     1       1.555  16.116  -8.347  1.00  0.00     0.244 C 
HETATM   33  O3  UNL     1       0.829  15.476  -9.142  1.00  0.00    -0.271 OA
HETATM   34  N8  UNL     1       2.384  17.226  -8.685  1.00  0.00    -0.277 N 
HETATM   35  C14 UNL     1       2.811  17.910  -7.509  1.00  0.00     0.340 C 
ATOM     36  H8  UNL     1       2.637  17.495  -9.637  1.00  0.00     0.173 HD
HETATM   37  O4  UNL     1       3.545  18.920  -7.489  1.00  0.00    -0.246 OA
ENDBRANCH  27  30
ENDBRANCH  25  27
ENDBRANCH  24  25
ENDBRANCH  23  24
ENDBRANCH  22  23
ENDBRANCH  21  22
ENDBRANCH  20  21
ENDBRANCH   1  20
TORSDOF 15
ENDMDL
