MODEL 1
REMARK VINA RESULT: -7.071813519      0.000      0.000
REMARK  9 active torsions:
REMARK  status: ('A' for Active; 'I' for Inactive)
REMARK    1  A    between atoms: N1_7  and  C7_8 
REMARK    2  A    between atoms: C7_8  and  C8_9 
REMARK    3  A    between atoms: C17_18  and  O1_19 
REMARK    4  A    between atoms: N2_22  and  C19_23 
REMARK    5  A    between atoms: C19_23  and  C20_24 
REMARK    6  A    between atoms: C20_24  and  C21_25 
REMARK    7  A    between atoms: C21_25  and  C22_26 
REMARK    8  A    between atoms: C22_26  and  C23_27 
REMARK    9  A    between atoms: C23_27  and  C24_28 
ROOT
HETATM    1  C1  UNL     1       5.273  57.720  24.540  1.00  0.00     0.043 C 
HETATM    2  C2  UNL     1       5.156  59.007  23.848  1.00  0.00    -0.084 C 
HETATM    3  C3  UNL     1       4.951  58.953  22.515  1.00  0.00     0.001 C 
HETATM    4  C4  UNL     1       4.772  59.929  21.396  1.00  0.00     0.110 C 
HETATM    5  C5  UNL     1       3.552  60.805  21.589  1.00  0.00     0.069 C 
HETATM    6  C6  UNL     1       2.838  60.603  22.865  1.00  0.00     0.282 C 
HETATM    7  N1  UNL     1       3.255  61.356  23.996  1.00  0.00     0.094 N 
HETATM    8  C13 UNL     1       4.661  61.429  24.257  1.00  0.00     0.232 C 
HETATM    9  C14 UNL     1       5.286  60.152  24.756  1.00  0.00     0.069 C 
HETATM   10  C15 UNL     1       5.464  62.179  23.249  1.00  0.00     0.039 C 
HETATM   11  C16 UNL     1       4.516  62.990  22.403  1.00  0.00     0.040 C 
HETATM   12  C17 UNL     1       3.815  62.260  21.339  1.00  0.00     0.126 C 
HETATM   13  C18 UNL     1       6.426  61.381  22.419  1.00  0.00     0.124 C 
HETATM   14  N2  UNL     1       5.881  60.810  21.241  1.00  0.00    -0.404 N 
ENDROOT
BRANCH  14  15
HETATM   15  C19 UNL     1       6.795  60.475  20.216  1.00  0.00     0.117 C 
BRANCH  15  16
HETATM   16  C20 UNL     1       8.005  61.389  20.120  1.00  0.00     0.019 C 
BRANCH  16  17
HETATM   17  C21 UNL     1       7.667  62.426  19.071  1.00  0.00     0.002 C 
BRANCH  17  18
HETATM   18  C22 UNL     1       8.734  62.577  18.028  1.00  0.00     0.010 C 
BRANCH  18  19
HETATM   19  C23 UNL     1       9.028  61.269  17.351  1.00  0.00     0.113 C 
BRANCH  19  20
HETATM   20  C24 UNL     1       7.875  60.914  16.473  1.00  0.00     0.172 C 
HETATM   21  O2  UNL     1       7.269  61.816  15.817  1.00  0.00    -0.648 OA
HETATM   22  O3  UNL     1       7.441  59.606  16.352  1.00  0.00    -0.648 OA
ENDBRANCH  19  20
ENDBRANCH  18  19
ENDBRANCH  17  18
ENDBRANCH  16  17
ENDBRANCH  15  16
ENDBRANCH  14  15
BRANCH  12  23
HETATM   23  O1  UNL     1       4.411  62.450  20.070  1.00  0.00    -0.395 OA
ATOM     24  H1  UNL     1       5.339  62.244  20.099  1.00  0.00     0.210 HD
ENDBRANCH  12  23
BRANCH   7  25
HETATM   25  C7  UNL     1       2.448  60.980  25.104  1.00  0.00     0.277 C 
BRANCH  25  26
HETATM   26  C8  UNL     1       1.440  59.913  24.891  1.00  0.00     0.014 C 
HETATM   27  C9  UNL     1       0.094  60.513  25.348  1.00  0.00     0.006 C 
HETATM   28  C10 UNL     1       0.052  60.112  26.815  1.00  0.00     0.000 C 
HETATM   29  C11 UNL     1       0.433  58.632  26.678  1.00  0.00     0.000 C 
HETATM   30  C12 UNL     1       1.653  58.716  25.806  1.00  0.00     0.006 C 
ENDBRANCH  25  26
ENDBRANCH   7  25
TORSDOF 9
ENDMDL
MODEL 2
REMARK VINA RESULT: -7.008700208      2.301      3.577
REMARK  9 active torsions:
REMARK  status: ('A' for Active; 'I' for Inactive)
REMARK    1  A    between atoms: N1_7  and  C7_8 
REMARK    2  A    between atoms: C7_8  and  C8_9 
REMARK    3  A    between atoms: C17_18  and  O1_19 
REMARK    4  A    between atoms: N2_22  and  C19_23 
REMARK    5  A    between atoms: C19_23  and  C20_24 
REMARK    6  A    between atoms: C20_24  and  C21_25 
REMARK    7  A    between atoms: C21_25  and  C22_26 
REMARK    8  A    between atoms: C22_26  and  C23_27 
REMARK    9  A    between atoms: C23_27  and  C24_28 
ROOT
HETATM    1  C1  UNL     1       4.575  57.638  21.547  1.00  0.00     0.043 C 
HETATM    2  C2  UNL     1       4.432  58.612  22.634  1.00  0.00    -0.084 C 
HETATM    3  C3  UNL     1       3.580  59.635  22.412  1.00  0.00     0.001 C 
HETATM    4  C4  UNL     1       3.098  60.838  23.158  1.00  0.00     0.110 C 
HETATM    5  C5  UNL     1       2.382  60.469  24.441  1.00  0.00     0.069 C 
HETATM    6  C6  UNL     1       2.380  59.026  24.757  1.00  0.00     0.282 C 
HETATM    7  N1  UNL     1       3.470  58.499  25.500  1.00  0.00     0.094 N 
HETATM    8  C13 UNL     1       4.789  58.884  25.099  1.00  0.00     0.232 C 
HETATM    9  C14 UNL     1       5.262  58.287  23.799  1.00  0.00     0.069 C 
HETATM   10  C15 UNL     1       5.129  60.322  25.299  1.00  0.00     0.039 C 
HETATM   11  C16 UNL     1       4.103  60.920  26.229  1.00  0.00     0.040 C 
HETATM   12  C17 UNL     1       2.816  61.283  25.623  1.00  0.00     0.126 C 
HETATM   13  C18 UNL     1       5.328  61.150  24.064  1.00  0.00     0.124 C 
HETATM   14  N2  UNL     1       4.150  61.727  23.524  1.00  0.00    -0.404 N 
ENDROOT
BRANCH  14  15
HETATM   15  C19 UNL     1       4.320  62.857  22.693  1.00  0.00     0.117 C 
BRANCH  15  16
HETATM   16  C20 UNL     1       4.380  62.549  21.207  1.00  0.00     0.019 C 
BRANCH  16  17
HETATM   17  C21 UNL     1       5.816  62.777  20.787  1.00  0.00     0.002 C 
BRANCH  17  18
HETATM   18  C22 UNL     1       6.557  61.502  20.509  1.00  0.00     0.010 C 
BRANCH  18  19
HETATM   19  C23 UNL     1       7.987  61.769  20.140  1.00  0.00     0.113 C 
BRANCH  19  20
HETATM   20  C24 UNL     1       8.056  62.090  18.685  1.00  0.00     0.172 C 
HETATM   21  O2  UNL     1       7.967  61.163  17.822  1.00  0.00    -0.648 OA
HETATM   22  O3  UNL     1       8.216  63.390  18.243  1.00  0.00    -0.648 OA
ENDBRANCH  19  20
ENDBRANCH  18  19
ENDBRANCH  17  18
ENDBRANCH  16  17
ENDBRANCH  15  16
ENDBRANCH  14  15
BRANCH  12  23
HETATM   23  O1  UNL     1       2.721  62.666  25.341  1.00  0.00    -0.395 OA
ATOM     24  H1  UNL     1       2.057  63.075  25.884  1.00  0.00     0.210 HD
ENDBRANCH  12  23
BRANCH   7  25
HETATM   25  C7  UNL     1       3.265  57.102  25.660  1.00  0.00     0.277 C 
BRANCH  25  26
HETATM   26  C8  UNL     1       2.030  56.516  25.084  1.00  0.00     0.014 C 
HETATM   27  C9  UNL     1       1.351  55.750  26.238  1.00  0.00     0.006 C 
HETATM   28  C10 UNL     1       1.952  54.360  26.091  1.00  0.00     0.000 C 
HETATM   29  C11 UNL     1       1.759  54.166  24.581  1.00  0.00     0.000 C 
HETATM   30  C12 UNL     1       2.322  55.448  24.039  1.00  0.00     0.006 C 
ENDBRANCH  25  26
ENDBRANCH   7  25
TORSDOF 9
ENDMDL
MODEL 3
REMARK VINA RESULT: -6.789261034      2.879      4.387
REMARK  9 active torsions:
REMARK  status: ('A' for Active; 'I' for Inactive)
REMARK    1  A    between atoms: N1_7  and  C7_8 
REMARK    2  A    between atoms: C7_8  and  C8_9 
REMARK    3  A    between atoms: C17_18  and  O1_19 
REMARK    4  A    between atoms: N2_22  and  C19_23 
REMARK    5  A    between atoms: C19_23  and  C20_24 
REMARK    6  A    between atoms: C20_24  and  C21_25 
REMARK    7  A    between atoms: C21_25  and  C22_26 
REMARK    8  A    between atoms: C22_26  and  C23_27 
REMARK    9  A    between atoms: C23_27  and  C24_28 
ROOT
HETATM    1  C1  UNL     1       3.119  64.147  25.257  1.00  0.00     0.043 C 
HETATM    2  C2  UNL     1       3.273  62.707  25.030  1.00  0.00    -0.084 C 
HETATM    3  C3  UNL     1       4.344  62.328  24.300  1.00  0.00     0.001 C 
HETATM    4  C4  UNL     1       4.930  61.045  23.805  1.00  0.00     0.110 C 
HETATM    5  C5  UNL     1       5.324  60.119  24.936  1.00  0.00     0.069 C 
HETATM    6  C6  UNL     1       4.973  60.605  26.286  1.00  0.00     0.282 C 
HETATM    7  N1  UNL     1       3.686  60.289  26.801  1.00  0.00     0.094 N 
HETATM    8  C13 UNL     1       2.565  60.480  25.933  1.00  0.00     0.232 C 
HETATM    9  C14 UNL     1       2.207  61.917  25.656  1.00  0.00     0.069 C 
HETATM   10  C15 UNL     1       2.501  59.570  24.754  1.00  0.00     0.039 C 
HETATM   11  C16 UNL     1       3.454  58.426  24.993  1.00  0.00     0.040 C 
HETATM   12  C17 UNL     1       4.873  58.702  24.735  1.00  0.00     0.126 C 
HETATM   13  C18 UNL     1       2.691  60.195  23.404  1.00  0.00     0.124 C 
HETATM   14  N2  UNL     1       4.038  60.308  22.972  1.00  0.00    -0.404 N 
ENDROOT
BRANCH  14  15
HETATM   15  C19 UNL     1       4.250  60.431  21.580  1.00  0.00     0.117 C 
BRANCH  15  16
HETATM   16  C20 UNL     1       5.626  60.942  21.190  1.00  0.00     0.019 C 
BRANCH  16  17
HETATM   17  C21 UNL     1       6.352  59.765  20.575  1.00  0.00     0.002 C 
BRANCH  17  18
HETATM   18  C22 UNL     1       7.577  60.166  19.806  1.00  0.00     0.010 C 
BRANCH  18  19
HETATM   19  C23 UNL     1       7.830  61.642  19.909  1.00  0.00     0.113 C 
BRANCH  19  20
HETATM   20  C24 UNL     1       8.326  62.138  18.592  1.00  0.00     0.172 C 
HETATM   21  O2  UNL     1       8.851  61.332  17.763  1.00  0.00    -0.648 OA
HETATM   22  O3  UNL     1       8.228  63.472  18.243  1.00  0.00    -0.648 OA
ENDBRANCH  19  20
ENDBRANCH  18  19
ENDBRANCH  17  18
ENDBRANCH  16  17
ENDBRANCH  15  16
ENDBRANCH  14  15
BRANCH  12  23
HETATM   23  O1  UNL     1       5.299  58.215  23.477  1.00  0.00    -0.395 OA
ATOM     24  H1  UNL     1       5.648  57.335  23.558  1.00  0.00     0.210 HD
ENDBRANCH  12  23
BRANCH   7  25
HETATM   25  C7  UNL     1       3.568  60.876  28.090  1.00  0.00     0.277 C 
BRANCH  25  26
HETATM   26  C8  UNL     1       4.651  61.787  28.536  1.00  0.00     0.014 C 
HETATM   27  C9  UNL     1       5.054  61.300  29.943  1.00  0.00     0.006 C 
HETATM   28  C10 UNL     1       4.139  62.125  30.836  1.00  0.00     0.000 C 
HETATM   29  C11 UNL     1       4.364  63.508  30.210  1.00  0.00     0.000 C 
HETATM   30  C12 UNL     1       4.165  63.212  28.751  1.00  0.00     0.006 C 
ENDBRANCH  25  26
ENDBRANCH   7  25
TORSDOF 9
ENDMDL
MODEL 4
REMARK VINA RESULT: -6.721308101      2.341      3.648
REMARK  9 active torsions:
REMARK  status: ('A' for Active; 'I' for Inactive)
REMARK    1  A    between atoms: N1_7  and  C7_8 
REMARK    2  A    between atoms: C7_8  and  C8_9 
REMARK    3  A    between atoms: C17_18  and  O1_19 
REMARK    4  A    between atoms: N2_22  and  C19_23 
REMARK    5  A    between atoms: C19_23  and  C20_24 
REMARK    6  A    between atoms: C20_24  and  C21_25 
REMARK    7  A    between atoms: C21_25  and  C22_26 
REMARK    8  A    between atoms: C22_26  and  C23_27 
REMARK    9  A    between atoms: C23_27  and  C24_28 
ROOT
HETATM    1  C1  UNL     1       4.623  57.626  21.520  1.00  0.00     0.043 C 
HETATM    2  C2  UNL     1       4.458  58.588  22.614  1.00  0.00    -0.084 C 
HETATM    3  C3  UNL     1       3.604  59.609  22.388  1.00  0.00     0.001 C 
HETATM    4  C4  UNL     1       3.104  60.802  23.138  1.00  0.00     0.110 C 
HETATM    5  C5  UNL     1       2.371  60.417  24.406  1.00  0.00     0.069 C 
HETATM    6  C6  UNL     1       2.372  58.972  24.708  1.00  0.00     0.282 C 
HETATM    7  N1  UNL     1       3.453  58.443  25.464  1.00  0.00     0.094 N 
HETATM    8  C13 UNL     1       4.776  58.839  25.086  1.00  0.00     0.232 C 
HETATM    9  C14 UNL     1       5.272  58.257  23.788  1.00  0.00     0.069 C 
HETATM   10  C15 UNL     1       5.105  60.277  25.305  1.00  0.00     0.039 C 
HETATM   11  C16 UNL     1       4.062  60.861  26.225  1.00  0.00     0.040 C 
HETATM   12  C17 UNL     1       2.782  61.223  25.602  1.00  0.00     0.126 C 
HETATM   13  C18 UNL     1       5.319  61.118  24.081  1.00  0.00     0.124 C 
HETATM   14  N2  UNL     1       4.146  61.693  23.528  1.00  0.00    -0.404 N 
ENDROOT
BRANCH  14  15
HETATM   15  C19 UNL     1       4.323  62.832  22.710  1.00  0.00     0.117 C 
BRANCH  15  16
HETATM   16  C20 UNL     1       4.310  62.550  21.218  1.00  0.00     0.019 C 
BRANCH  16  17
HETATM   17  C21 UNL     1       5.730  62.755  20.738  1.00  0.00     0.002 C 
BRANCH  17  18
HETATM   18  C22 UNL     1       6.477  61.469  20.543  1.00  0.00     0.010 C 
BRANCH  18  19
HETATM   19  C23 UNL     1       7.915  61.717  20.193  1.00  0.00     0.113 C 
BRANCH  19  20
HETATM   20  C24 UNL     1       8.007  62.044  18.740  1.00  0.00     0.172 C 
HETATM   21  O2  UNL     1       7.884  61.128  17.870  1.00  0.00    -0.648 OA
HETATM   22  O3  UNL     1       8.226  63.339  18.308  1.00  0.00    -0.648 OA
ENDBRANCH  19  20
ENDBRANCH  18  19
ENDBRANCH  17  18
ENDBRANCH  16  17
ENDBRANCH  15  16
ENDBRANCH  14  15
BRANCH  12  23
HETATM   23  O1  UNL     1       2.684  62.608  25.331  1.00  0.00    -0.395 OA
ATOM     24  H1  UNL     1       3.314  62.866  24.668  1.00  0.00     0.210 HD
ENDBRANCH  12  23
BRANCH   7  25
HETATM   25  C7  UNL     1       3.253  57.044  25.608  1.00  0.00     0.277 C 
BRANCH  25  26
HETATM   26  C8  UNL     1       2.568  56.568  26.835  1.00  0.00     0.014 C 
HETATM   27  C9  UNL     1       3.427  57.069  28.014  1.00  0.00     0.006 C 
HETATM   28  C10 UNL     1       4.384  55.906  28.225  1.00  0.00     0.000 C 
HETATM   29  C11 UNL     1       3.374  54.750  28.211  1.00  0.00     0.000 C 
HETATM   30  C12 UNL     1       2.590  55.052  26.966  1.00  0.00     0.006 C 
ENDBRANCH  25  26
ENDBRANCH   7  25
TORSDOF 9
ENDMDL
MODEL 5
REMARK VINA RESULT: -6.656207313      2.088      3.484
REMARK  9 active torsions:
REMARK  status: ('A' for Active; 'I' for Inactive)
REMARK    1  A    between atoms: N1_7  and  C7_8 
REMARK    2  A    between atoms: C7_8  and  C8_9 
REMARK    3  A    between atoms: C17_18  and  O1_19 
REMARK    4  A    between atoms: N2_22  and  C19_23 
REMARK    5  A    between atoms: C19_23  and  C20_24 
REMARK    6  A    between atoms: C20_24  and  C21_25 
REMARK    7  A    between atoms: C21_25  and  C22_26 
REMARK    8  A    between atoms: C22_26  and  C23_27 
REMARK    9  A    between atoms: C23_27  and  C24_28 
ROOT
HETATM    1  C1  UNL     1       4.669  57.803  21.289  1.00  0.00     0.043 C 
HETATM    2  C2  UNL     1       4.484  58.673  22.455  1.00  0.00    -0.084 C 
HETATM    3  C3  UNL     1       3.604  59.687  22.310  1.00  0.00     0.001 C 
HETATM    4  C4  UNL     1       3.078  60.805  23.152  1.00  0.00     0.110 C 
HETATM    5  C5  UNL     1       2.358  60.304  24.387  1.00  0.00     0.069 C 
HETATM    6  C6  UNL     1       2.396  58.840  24.576  1.00  0.00     0.282 C 
HETATM    7  N1  UNL     1       3.493  58.281  25.286  1.00  0.00     0.094 N 
HETATM    8  C13 UNL     1       4.804  58.738  24.939  1.00  0.00     0.232 C 
HETATM    9  C14 UNL     1       5.310  58.272  23.598  1.00  0.00     0.069 C 
HETATM   10  C15 UNL     1       5.098  60.162  25.269  1.00  0.00     0.039 C 
HETATM   11  C16 UNL     1       4.044  60.647  26.233  1.00  0.00     0.040 C 
HETATM   12  C17 UNL     1       2.754  61.024  25.643  1.00  0.00     0.126 C 
HETATM   13  C18 UNL     1       5.287  61.101  24.114  1.00  0.00     0.124 C 
HETATM   14  N2  UNL     1       4.098  61.688  23.610  1.00  0.00    -0.404 N 
ENDROOT
BRANCH  14  15
HETATM   15  C19 UNL     1       4.244  62.892  22.882  1.00  0.00     0.117 C 
BRANCH  15  16
HETATM   16  C20 UNL     1       4.296  62.720  21.374  1.00  0.00     0.019 C 
BRANCH  16  17
HETATM   17  C21 UNL     1       5.746  62.898  20.980  1.00  0.00     0.002 C 
BRANCH  17  18
HETATM   18  C22 UNL     1       6.409  61.613  20.580  1.00  0.00     0.010 C 
BRANCH  18  19
HETATM   19  C23 UNL     1       7.854  61.825  20.237  1.00  0.00     0.113 C 
BRANCH  19  20
HETATM   20  C24 UNL     1       7.963  62.133  18.781  1.00  0.00     0.172 C 
HETATM   21  O2  UNL     1       7.881  61.201  17.923  1.00  0.00    -0.648 OA
HETATM   22  O3  UNL     1       8.153  63.427  18.333  1.00  0.00    -0.648 OA
ENDBRANCH  19  20
ENDBRANCH  18  19
ENDBRANCH  17  18
ENDBRANCH  16  17
ENDBRANCH  15  16
ENDBRANCH  14  15
BRANCH  12  23
HETATM   23  O1  UNL     1       2.621  62.423  25.481  1.00  0.00    -0.395 OA
ATOM     24  H1  UNL     1       1.836  62.739  25.914  1.00  0.00     0.210 HD
ENDBRANCH  12  23
BRANCH   7  25
HETATM   25  C7  UNL     1       3.327  56.870  25.321  1.00  0.00     0.277 C 
BRANCH  25  26
HETATM   26  C8  UNL     1       3.180  56.225  26.648  1.00  0.00     0.014 C 
HETATM   27  C9  UNL     1       1.826  55.488  26.608  1.00  0.00     0.006 C 
HETATM   28  C10 UNL     1       0.872  56.549  27.136  1.00  0.00     0.000 C 
HETATM   29  C11 UNL     1       1.668  57.005  28.367  1.00  0.00     0.000 C 
HETATM   30  C12 UNL     1       3.029  57.236  27.776  1.00  0.00     0.006 C 
ENDBRANCH  25  26
ENDBRANCH   7  25
TORSDOF 9
ENDMDL
