MODEL 1
REMARK VINA RESULT: -8.723289560      0.000      0.000
REMARK  6 active torsions:
REMARK  status: ('A' for Active; 'I' for Inactive)
REMARK    1  A    between atoms: N1_2  and  C2_3 
REMARK    2  A    between atoms: N1_2  and  C13_21 
REMARK    3  A    between atoms: C3_6  and  N3_7 
REMARK    4  A    between atoms: N3_7  and  C4_9 
REMARK    5  A    between atoms: N6_24  and  C16_25 
REMARK    6  A    between atoms: C16_25  and  C17_26 
ROOT
HETATM    1  C2  UNL     1      -8.970   6.909   1.241  1.00  0.00     0.681 A 
HETATM    2  N2  UNL     1      -9.535   5.833   1.762  1.00  0.00    -0.175 N 
ATOM      3  H2  UNL     1      -8.948   5.202   2.308  1.00  0.00     0.186 HD
HETATM    4  C3  UNL     1     -10.872   5.510   1.613  1.00  0.00     0.139 A 
HETATM    5  C10 UNL     1     -11.665   6.357   0.878  1.00  0.00     0.104 A 
HETATM    6  C11 UNL     1     -13.074   6.151   0.636  1.00  0.00     0.104 C 
HETATM    7  N4  UNL     1     -14.186   6.012   0.428  1.00  0.00    -0.191 NA
HETATM    8  C12 UNL     1     -11.067   7.488   0.331  1.00  0.00     0.132 A 
HETATM    9  N5  UNL     1      -9.763   7.736   0.518  1.00  0.00    -0.200 N 
ATOM     10  H5  UNL     1      -9.356   8.574   0.104  1.00  0.00     0.183 HD
ENDROOT
BRANCH   4  11
HETATM   11  N3  UNL     1     -11.321   4.484   2.137  1.00  0.00    -0.370 N 
ATOM     12  H3  UNL     1     -10.850   3.700   1.685  1.00  0.00     0.161 HD
BRANCH  11  13
HETATM   13  C4  UNL     1     -12.173   3.942   3.057  1.00  0.00     0.083 C 
HETATM   14  C5  UNL     1     -11.340   3.288   4.196  1.00  0.00     0.025 C 
HETATM   15  C6  UNL     1     -12.274   2.503   5.049  1.00  0.00     0.002 C 
HETATM   16  C7  UNL     1     -13.718   2.884   4.899  1.00  0.00     0.000 C 
HETATM   17  C8  UNL     1     -14.222   2.685   3.491  1.00  0.00     0.002 C 
HETATM   18  C9  UNL     1     -13.042   2.797   2.558  1.00  0.00     0.025 C 
ENDBRANCH  11  13
ENDBRANCH   4  11
BRANCH   1  19
HETATM   19  N1  UNL     1      -7.593   7.231   1.398  1.00  0.00    -0.217 N 
HETATM   20  C1  UNL     1      -6.785   7.355   0.217  1.00  0.00     0.169 C 
BRANCH  19  21
HETATM   21  C13 UNL     1      -6.999   7.429   2.690  1.00  0.00     0.105 C 
HETATM   22  C14 UNL     1      -7.826   8.281   3.620  1.00  0.00     0.056 C 
HETATM   23  C15 UNL     1      -7.000   8.405   4.908  1.00  0.00     0.275 C 
HETATM   24  N6  UNL     1      -5.997   9.411   4.636  1.00  0.00     0.092 N 
HETATM   25  C21 UNL     1      -5.639   9.434   3.250  1.00  0.00     0.275 C 
HETATM   26  C22 UNL     1      -5.629   8.057   2.607  1.00  0.00     0.056 C 
BRANCH  24  27
HETATM   27  C16 UNL     1      -4.873   9.392   5.514  1.00  0.00     0.312 C 
BRANCH  27  28
HETATM   28  C17 UNL     1      -4.852  10.463   6.526  1.00  0.00    -0.013 A 
HETATM   29  C18 UNL     1      -5.142  10.363   7.881  1.00  0.00     0.027 A 
HETATM   30  C19 UNL     1      -4.969  11.651   8.380  1.00  0.00     0.088 A 
HETATM   31  N7  UNL     1      -4.602  12.463   7.385  1.00  0.00    -0.375 N 
HETATM   32  C20 UNL     1      -4.522  11.766   6.247  1.00  0.00     0.096 A 
ATOM     33  H7  UNL     1      -4.412  13.460   7.480  1.00  0.00     0.164 HD
ENDBRANCH  27  28
ENDBRANCH  24  27
ENDBRANCH  19  21
ENDBRANCH   1  19
TORSDOF 6
ENDMDL
MODEL 2
REMARK VINA RESULT: -7.946357382      1.707      2.232
REMARK  6 active torsions:
REMARK  status: ('A' for Active; 'I' for Inactive)
REMARK    1  A    between atoms: N1_2  and  C2_3 
REMARK    2  A    between atoms: N1_2  and  C13_21 
REMARK    3  A    between atoms: C3_6  and  N3_7 
REMARK    4  A    between atoms: N3_7  and  C4_9 
REMARK    5  A    between atoms: N6_24  and  C16_25 
REMARK    6  A    between atoms: C16_25  and  C17_26 
ROOT
HETATM    1  C2  UNL     1      -9.298   7.002   0.561  1.00  0.00     0.681 A 
HETATM    2  N2  UNL     1      -9.786   5.930   1.161  1.00  0.00    -0.175 N 
ATOM      3  H2  UNL     1      -9.129   5.294   1.611  1.00  0.00     0.186 HD
HETATM    4  C3  UNL     1     -11.133   5.617   1.215  1.00  0.00     0.139 A 
HETATM    5  C10 UNL     1     -12.021   6.471   0.609  1.00  0.00     0.104 A 
HETATM    6  C11 UNL     1     -13.453   6.277   0.582  1.00  0.00     0.104 C 
HETATM    7  N4  UNL     1     -14.584   6.146   0.545  1.00  0.00    -0.191 NA
HETATM    8  C12 UNL     1     -11.504   7.599  -0.021  1.00  0.00     0.132 A 
HETATM    9  N5  UNL     1     -10.186   7.837  -0.033  1.00  0.00    -0.200 N 
ATOM     10  H5  UNL     1      -9.839   8.673  -0.504  1.00  0.00     0.183 HD
ENDROOT
BRANCH   4  11
HETATM   11  N3  UNL     1     -11.505   4.594   1.800  1.00  0.00    -0.370 N 
ATOM     12  H3  UNL     1     -11.082   3.809   1.305  1.00  0.00     0.161 HD
BRANCH  11  13
HETATM   13  C4  UNL     1     -12.237   4.056   2.821  1.00  0.00     0.083 C 
HETATM   14  C5  UNL     1     -11.267   3.516   3.910  1.00  0.00     0.025 C 
HETATM   15  C6  UNL     1     -12.071   2.727   4.883  1.00  0.00     0.002 C 
HETATM   16  C7  UNL     1     -13.543   3.014   4.848  1.00  0.00     0.000 C 
HETATM   17  C8  UNL     1     -14.156   2.707   3.503  1.00  0.00     0.002 C 
HETATM   18  C9  UNL     1     -13.072   2.835   2.461  1.00  0.00     0.025 C 
ENDBRANCH  11  13
ENDBRANCH   4  11
BRANCH   1  19
HETATM   19  N1  UNL     1      -7.911   7.314   0.508  1.00  0.00    -0.217 N 
HETATM   20  C1  UNL     1      -7.132   6.770  -0.570  1.00  0.00     0.169 C 
BRANCH  19  21
HETATM   21  C13 UNL     1      -7.279   8.145   1.493  1.00  0.00     0.105 C 
HETATM   22  C14 UNL     1      -6.002   8.794   1.019  1.00  0.00     0.056 C 
HETATM   23  C15 UNL     1      -5.473   9.587   2.222  1.00  0.00     0.275 C 
HETATM   24  N6  UNL     1      -4.835   8.615   3.083  1.00  0.00     0.092 N 
HETATM   25  C21 UNL     1      -5.449   7.328   2.966  1.00  0.00     0.275 C 
HETATM   26  C22 UNL     1      -6.954   7.394   2.761  1.00  0.00     0.056 C 
BRANCH  24  27
HETATM   27  C16 UNL     1      -4.650   9.037   4.433  1.00  0.00     0.312 C 
BRANCH  27  28
HETATM   28  C17 UNL     1      -3.349   8.678   5.027  1.00  0.00    -0.013 A 
HETATM   29  C18 UNL     1      -2.319   7.948   4.449  1.00  0.00     0.027 A 
HETATM   30  C19 UNL     1      -1.326   7.898   5.422  1.00  0.00     0.088 A 
HETATM   31  N7  UNL     1      -1.740   8.555   6.508  1.00  0.00    -0.375 N 
HETATM   32  C20 UNL     1      -2.968   9.040   6.295  1.00  0.00     0.096 A 
ATOM     33  H7  UNL     1      -1.203   8.669   7.367  1.00  0.00     0.164 HD
ENDBRANCH  27  28
ENDBRANCH  24  27
ENDBRANCH  19  21
ENDBRANCH   1  19
TORSDOF 6
ENDMDL
MODEL 3
REMARK VINA RESULT: -7.906239857      4.170      8.788
REMARK  6 active torsions:
REMARK  status: ('A' for Active; 'I' for Inactive)
REMARK    1  A    between atoms: N1_2  and  C2_3 
REMARK    2  A    between atoms: N1_2  and  C13_21 
REMARK    3  A    between atoms: C3_6  and  N3_7 
REMARK    4  A    between atoms: N3_7  and  C4_9 
REMARK    5  A    between atoms: N6_24  and  C16_25 
REMARK    6  A    between atoms: C16_25  and  C17_26 
ROOT
HETATM    1  C2  UNL     1      -7.423   7.495  -0.498  1.00  0.00     0.681 A 
HETATM    2  N2  UNL     1      -8.370   6.755   0.052  1.00  0.00    -0.175 N 
ATOM      3  H2  UNL     1      -8.999   6.245  -0.567  1.00  0.00     0.186 HD
HETATM    4  C3  UNL     1      -8.561   6.629   1.417  1.00  0.00     0.139 A 
HETATM    5  C10 UNL     1      -7.716   7.315   2.255  1.00  0.00     0.104 A 
HETATM    6  C11 UNL     1      -7.793   7.282   3.697  1.00  0.00     0.104 C 
HETATM    7  N4  UNL     1      -7.832   7.275   4.837  1.00  0.00    -0.191 NA
HETATM    8  C12 UNL     1      -6.720   8.093   1.673  1.00  0.00     0.132 A 
HETATM    9  N5  UNL     1      -6.596   8.166   0.340  1.00  0.00    -0.200 N 
ATOM     10  H5  UNL     1      -5.855   8.745  -0.055  1.00  0.00     0.183 HD
ENDROOT
BRANCH   4  11
HETATM   11  N3  UNL     1      -9.471   5.913   1.849  1.00  0.00    -0.370 N 
ATOM     12  H3  UNL     1      -9.035   5.244   2.484  1.00  0.00     0.161 HD
BRANCH  11  13
HETATM   13  C4  UNL     1     -10.807   5.627   1.847  1.00  0.00     0.083 C 
HETATM   14  C5  UNL     1     -10.996   4.088   1.972  1.00  0.00     0.025 C 
HETATM   15  C6  UNL     1     -12.433   3.785   1.724  1.00  0.00     0.002 C 
HETATM   16  C7  UNL     1     -13.348   4.964   1.874  1.00  0.00     0.000 C 
HETATM   17  C8  UNL     1     -13.017   6.076   0.909  1.00  0.00     0.002 C 
HETATM   18  C9  UNL     1     -11.552   5.967   0.565  1.00  0.00     0.025 C 
ENDBRANCH  11  13
ENDBRANCH   4  11
BRANCH   1  19
HETATM   19  N1  UNL     1      -7.236   7.620  -1.903  1.00  0.00    -0.217 N 
HETATM   20  C1  UNL     1      -6.274   8.574  -2.379  1.00  0.00     0.169 C 
BRANCH  19  21
HETATM   21  C13 UNL     1      -7.979   6.829  -2.844  1.00  0.00     0.105 C 
HETATM   22  C14 UNL     1      -7.275   6.625  -4.162  1.00  0.00     0.056 C 
HETATM   23  C15 UNL     1      -8.246   5.807  -5.024  1.00  0.00     0.275 C 
HETATM   24  N6  UNL     1      -9.223   6.752  -5.521  1.00  0.00     0.092 N 
HETATM   25  C21 UNL     1      -9.417   7.835  -4.605  1.00  0.00     0.275 C 
HETATM   26  C22 UNL     1      -9.336   7.414  -3.147  1.00  0.00     0.056 C 
BRANCH  24  27
HETATM   27  C16 UNL     1     -10.441   6.171  -5.983  1.00  0.00     0.312 C 
BRANCH  27  28
HETATM   28  C17 UNL     1     -11.439   7.132  -6.488  1.00  0.00    -0.013 A 
HETATM   29  C18 UNL     1     -11.470   7.758  -7.727  1.00  0.00     0.027 A 
HETATM   30  C19 UNL     1     -12.611   8.554  -7.697  1.00  0.00     0.088 A 
HETATM   31  N7  UNL     1     -13.216   8.411  -6.516  1.00  0.00    -0.375 N 
HETATM   32  C20 UNL     1     -12.525   7.551  -5.761  1.00  0.00     0.096 A 
ATOM     33  H7  UNL     1     -14.074   8.885  -6.233  1.00  0.00     0.164 HD
ENDBRANCH  27  28
ENDBRANCH  24  27
ENDBRANCH  19  21
ENDBRANCH   1  19
TORSDOF 6
ENDMDL
MODEL 4
REMARK VINA RESULT: -7.865373535      1.261      1.904
REMARK  6 active torsions:
REMARK  status: ('A' for Active; 'I' for Inactive)
REMARK    1  A    between atoms: N1_2  and  C2_3 
REMARK    2  A    between atoms: N1_2  and  C13_21 
REMARK    3  A    between atoms: C3_6  and  N3_7 
REMARK    4  A    between atoms: N3_7  and  C4_9 
REMARK    5  A    between atoms: N6_24  and  C16_25 
REMARK    6  A    between atoms: C16_25  and  C17_26 
ROOT
HETATM    1  C2  UNL     1      -8.998   6.889   1.246  1.00  0.00     0.681 A 
HETATM    2  N2  UNL     1      -9.580   5.812   1.744  1.00  0.00    -0.175 N 
ATOM      3  H2  UNL     1      -9.005   5.161   2.278  1.00  0.00     0.186 HD
HETATM    4  C3  UNL     1     -10.922   5.512   1.585  1.00  0.00     0.139 A 
HETATM    5  C10 UNL     1     -11.700   6.385   0.865  1.00  0.00     0.104 A 
HETATM    6  C11 UNL     1     -13.111   6.206   0.614  1.00  0.00     0.104 C 
HETATM    7  N4  UNL     1     -14.224   6.088   0.401  1.00  0.00    -0.191 NA
HETATM    8  C12 UNL     1     -11.083   7.518   0.342  1.00  0.00     0.132 A 
HETATM    9  N5  UNL     1      -9.777   7.743   0.538  1.00  0.00    -0.200 N 
ATOM     10  H5  UNL     1      -9.356   8.582   0.142  1.00  0.00     0.183 HD
ENDROOT
BRANCH   4  11
HETATM   11  N3  UNL     1     -11.388   4.482   2.086  1.00  0.00    -0.370 N 
ATOM     12  H3  UNL     1     -10.957   3.701   1.592  1.00  0.00     0.161 HD
BRANCH  11  13
HETATM   13  C4  UNL     1     -12.228   3.935   3.014  1.00  0.00     0.083 C 
HETATM   14  C5  UNL     1     -11.381   3.281   4.143  1.00  0.00     0.025 C 
HETATM   15  C6  UNL     1     -12.303   2.491   5.003  1.00  0.00     0.002 C 
HETATM   16  C7  UNL     1     -13.749   2.867   4.869  1.00  0.00     0.000 C 
HETATM   17  C8  UNL     1     -14.267   2.669   3.466  1.00  0.00     0.002 C 
HETATM   18  C9  UNL     1     -13.097   2.787   2.521  1.00  0.00     0.025 C 
ENDBRANCH  11  13
ENDBRANCH   4  11
BRANCH   1  19
HETATM   19  N1  UNL     1      -7.617   7.187   1.413  1.00  0.00    -0.217 N 
HETATM   20  C1  UNL     1      -6.789   7.256   0.241  1.00  0.00     0.169 C 
BRANCH  19  21
HETATM   21  C13 UNL     1      -7.037   7.415   2.707  1.00  0.00     0.105 C 
HETATM   22  C14 UNL     1      -7.910   8.222   3.635  1.00  0.00     0.056 C 
HETATM   23  C15 UNL     1      -7.095   8.388   4.926  1.00  0.00     0.275 C 
HETATM   24  N6  UNL     1      -6.145   9.445   4.658  1.00  0.00     0.092 N 
HETATM   25  C21 UNL     1      -5.785   9.487   3.273  1.00  0.00     0.275 C 
HETATM   26  C22 UNL     1      -5.702   8.113   2.629  1.00  0.00     0.056 C 
BRANCH  24  27
HETATM   27  C16 UNL     1      -5.024   9.483   5.538  1.00  0.00     0.312 C 
BRANCH  27  28
HETATM   28  C17 UNL     1      -3.707   9.474   4.875  1.00  0.00    -0.013 A 
HETATM   29  C18 UNL     1      -3.059  10.531   4.250  1.00  0.00     0.027 A 
HETATM   30  C19 UNL     1      -1.857   9.997   3.797  1.00  0.00     0.088 A 
HETATM   31  N7  UNL     1      -1.796   8.705   4.130  1.00  0.00    -0.375 N 
HETATM   32  C20 UNL     1      -2.909   8.361   4.787  1.00  0.00     0.096 A 
ATOM     33  H7  UNL     1      -1.021   8.078   3.915  1.00  0.00     0.164 HD
ENDBRANCH  27  28
ENDBRANCH  24  27
ENDBRANCH  19  21
ENDBRANCH   1  19
TORSDOF 6
ENDMDL
MODEL 5
REMARK VINA RESULT: -7.834763285      1.855      4.359
REMARK  6 active torsions:
REMARK  status: ('A' for Active; 'I' for Inactive)
REMARK    1  A    between atoms: N1_2  and  C2_3 
REMARK    2  A    between atoms: N1_2  and  C13_21 
REMARK    3  A    between atoms: C3_6  and  N3_7 
REMARK    4  A    between atoms: N3_7  and  C4_9 
REMARK    5  A    between atoms: N6_24  and  C16_25 
REMARK    6  A    between atoms: C16_25  and  C17_26 
ROOT
HETATM    1  C2  UNL     1      -8.943   6.891   1.271  1.00  0.00     0.681 A 
HETATM    2  N2  UNL     1      -9.821   7.461   0.463  1.00  0.00    -0.175 N 
ATOM      3  H2  UNL     1      -9.527   8.289  -0.054  1.00  0.00     0.186 HD
HETATM    4  C3  UNL     1     -11.113   7.002   0.276  1.00  0.00     0.139 A 
HETATM    5  C10 UNL     1     -11.512   5.887   0.971  1.00  0.00     0.104 A 
HETATM    6  C11 UNL     1     -12.826   5.294   0.879  1.00  0.00     0.104 C 
HETATM    7  N4  UNL     1     -13.855   4.808   0.826  1.00  0.00    -0.191 NA
HETATM    8  C12 UNL     1     -10.585   5.290   1.820  1.00  0.00     0.132 A 
HETATM    9  N5  UNL     1      -9.349   5.791   1.951  1.00  0.00    -0.200 N 
ATOM     10  H5  UNL     1      -8.694   5.330   2.581  1.00  0.00     0.183 HD
ENDROOT
BRANCH   4  11
HETATM   11  N3  UNL     1     -11.870   7.594  -0.502  1.00  0.00    -0.370 N 
ATOM     12  H3  UNL     1     -12.710   7.821   0.031  1.00  0.00     0.161 HD
BRANCH  11  13
HETATM   13  C4  UNL     1     -12.073   8.075  -1.764  1.00  0.00     0.083 C 
HETATM   14  C5  UNL     1     -11.378   7.131  -2.786  1.00  0.00     0.025 C 
HETATM   15  C6  UNL     1     -11.405   7.800  -4.115  1.00  0.00     0.002 C 
HETATM   16  C7  UNL     1     -12.418   8.900  -4.234  1.00  0.00     0.000 C 
HETATM   17  C8  UNL     1     -12.176  10.015  -3.246  1.00  0.00     0.002 C 
HETATM   18  C9  UNL     1     -11.447   9.431  -2.061  1.00  0.00     0.025 C 
ENDBRANCH  11  13
ENDBRANCH   4  11
BRANCH   1  19
HETATM   19  N1  UNL     1      -7.617   7.372   1.460  1.00  0.00    -0.217 N 
HETATM   20  C1  UNL     1      -6.834   7.681   0.296  1.00  0.00     0.169 C 
BRANCH  19  21
HETATM   21  C13 UNL     1      -7.049   7.550   2.767  1.00  0.00     0.105 C 
HETATM   22  C14 UNL     1      -7.871   8.427   3.677  1.00  0.00     0.056 C 
HETATM   23  C15 UNL     1      -7.074   8.524   4.985  1.00  0.00     0.275 C 
HETATM   24  N6  UNL     1      -6.033   9.497   4.741  1.00  0.00     0.092 N 
HETATM   25  C21 UNL     1      -5.640   9.510   3.364  1.00  0.00     0.275 C 
HETATM   26  C22 UNL     1      -5.658   8.134   2.719  1.00  0.00     0.056 C 
BRANCH  24  27
HETATM   27  C16 UNL     1      -4.932   9.441   5.646  1.00  0.00     0.312 C 
BRANCH  27  28
HETATM   28  C17 UNL     1      -4.916  10.496   6.676  1.00  0.00    -0.013 A 
HETATM   29  C18 UNL     1      -5.306  10.396   8.005  1.00  0.00     0.027 A 
HETATM   30  C19 UNL     1      -5.089  11.663   8.537  1.00  0.00     0.088 A 
HETATM   31  N7  UNL     1      -4.603  12.463   7.585  1.00  0.00    -0.375 N 
HETATM   32  C20 UNL     1      -4.487  11.778   6.443  1.00  0.00     0.096 A 
ATOM     33  H7  UNL     1      -4.358  13.446   7.710  1.00  0.00     0.164 HD
ENDBRANCH  27  28
ENDBRANCH  24  27
ENDBRANCH  19  21
ENDBRANCH   1  19
TORSDOF 6
ENDMDL
