MODEL 1
REMARK VINA RESULT: -6.480950343      0.000      0.000
REMARK  8 active torsions:
REMARK  status: ('A' for Active; 'I' for Inactive)
REMARK    1  A    between atoms: C2_2  and  C3_3 
REMARK    2  A    between atoms: C3_3  and  N1_4 
REMARK    3  A    between atoms: N1_4  and  C4_6 
REMARK    4  A    between atoms: C4_6  and  N2_8 
REMARK    5  A    between atoms: N2_8  and  C5_10 
REMARK    6  A    between atoms: C5_10  and  C6_11 
REMARK    7  A    between atoms: C6_11  and  C7_12 
REMARK    8  A    between atoms: C7_12  and  N3_13 
ROOT
HETATM    1  C4  UNL     1      11.899   5.559   1.877  1.00  0.00     0.168 C 
HETATM    2  S1  UNL     1      12.571   6.769   2.740  1.00  0.00    -0.041 SA
ENDROOT
BRANCH   1   3
HETATM    3  N1  UNL     1      12.698   4.669   1.157  1.00  0.00    -0.358 N 
ATOM      4  H1  UNL     1      13.280   4.032   1.700  1.00  0.00     0.162 HD
BRANCH   3   5
HETATM    5  C3  UNL     1      12.784   4.558  -0.308  1.00  0.00     0.032 C 
HETATM    6  C13 UNL     1      11.583   3.797  -0.762  1.00  0.00     0.031 C 
HETATM    7  C14 UNL     1      11.688   3.203  -2.133  1.00  0.00     0.007 C 
HETATM    8  C15 UNL     1      12.907   2.364  -2.227  1.00  0.00    -0.019 C 
HETATM    9  C16 UNL     1      13.034   1.810  -3.639  1.00  0.00     0.010 C 
HETATM   10  C17 UNL     1      14.170   2.945  -1.706  1.00  0.00     0.007 C 
HETATM   11  C18 UNL     1      14.098   4.099  -0.799  1.00  0.00     0.031 C 
BRANCH   5  12
HETATM   12  C2  UNL     1      12.619   6.007  -0.792  1.00  0.00     0.026 C 
HETATM   13  C1  UNL     1      13.883   6.780  -0.833  1.00  0.00     0.007 C 
ENDBRANCH   5  12
ENDBRANCH   3   5
ENDBRANCH   1   3
BRANCH   1  14
HETATM   14  N2  UNL     1      10.501   5.457   1.876  1.00  0.00    -0.367 N 
ATOM     15  H2  UNL     1      10.091   4.656   2.356  1.00  0.00     0.161 HD
BRANCH  14  16
HETATM   16  C5  UNL     1       9.608   6.377   1.262  1.00  0.00     0.127 C 
BRANCH  16  17
HETATM   17  C6  UNL     1       8.366   5.801   0.654  1.00  0.00     0.064 C 
BRANCH  17  18
HETATM   18  C7  UNL     1       7.923   6.755  -0.451  1.00  0.00     0.060 C 
BRANCH  18  19
HETATM   19  N3  UNL     1       7.651   6.150  -1.686  1.00  0.00    -0.390 N 
HETATM   20  C8  UNL     1       8.714   6.101  -2.633  1.00  0.00     0.141 C 
HETATM   21  C9  UNL     1       8.625   7.050  -3.777  1.00  0.00     0.136 C 
HETATM   22  N4  UNL     1       7.639   8.067  -3.725  1.00  0.00    -0.414 N 
HETATM   23  C10 UNL     1       7.279   8.608  -5.016  1.00  0.00     0.143 C 
HETATM   24  C11 UNL     1       6.519   7.862  -2.864  1.00  0.00     0.136 C 
HETATM   25  C12 UNL     1       6.431   6.447  -2.339  1.00  0.00     0.141 C 
ENDBRANCH  18  19
ENDBRANCH  17  18
ENDBRANCH  16  17
ENDBRANCH  14  16
ENDBRANCH   1  14
TORSDOF 8
ENDMDL
MODEL 2
REMARK VINA RESULT: -6.312987334      2.111      6.475
REMARK  8 active torsions:
REMARK  status: ('A' for Active; 'I' for Inactive)
REMARK    1  A    between atoms: C2_2  and  C3_3 
REMARK    2  A    between atoms: C3_3  and  N1_4 
REMARK    3  A    between atoms: N1_4  and  C4_6 
REMARK    4  A    between atoms: C4_6  and  N2_8 
REMARK    5  A    between atoms: N2_8  and  C5_10 
REMARK    6  A    between atoms: C5_10  and  C6_11 
REMARK    7  A    between atoms: C6_11  and  C7_12 
REMARK    8  A    between atoms: C7_12  and  N3_13 
ROOT
HETATM    1  C4  UNL     1      10.708   6.014   2.129  1.00  0.00     0.168 C 
HETATM    2  S1  UNL     1      10.974   5.739   3.716  1.00  0.00    -0.041 SA
ENDROOT
BRANCH   1   3
HETATM    3  N1  UNL     1       9.658   6.836   1.715  1.00  0.00    -0.358 N 
ATOM      4  H1  UNL     1       9.760   7.835   1.894  1.00  0.00     0.162 HD
BRANCH   3   5
HETATM    5  C3  UNL     1       8.421   6.405   1.047  1.00  0.00     0.032 C 
HETATM    6  C13 UNL     1       8.762   6.141  -0.382  1.00  0.00     0.031 C 
HETATM    7  C14 UNL     1       7.594   6.117  -1.321  1.00  0.00     0.007 C 
HETATM    8  C15 UNL     1       6.816   7.373  -1.191  1.00  0.00    -0.019 C 
HETATM    9  C16 UNL     1       5.603   7.315  -2.108  1.00  0.00     0.010 C 
HETATM   10  C17 UNL     1       6.496   7.830   0.185  1.00  0.00     0.007 C 
HETATM   11  C18 UNL     1       7.260   7.278   1.312  1.00  0.00     0.031 C 
BRANCH   5  12
HETATM   12  C2  UNL     1       8.107   5.051   1.701  1.00  0.00     0.026 C 
HETATM   13  C1  UNL     1       7.273   5.147   2.923  1.00  0.00     0.007 C 
ENDBRANCH   5  12
ENDBRANCH   3   5
ENDBRANCH   1   3
BRANCH   1  14
HETATM   14  N2  UNL     1      11.558   5.388   1.208  1.00  0.00    -0.367 N 
ATOM     15  H2  UNL     1      11.127   4.969   0.384  1.00  0.00     0.161 HD
BRANCH  14  16
HETATM   16  C5  UNL     1      12.971   5.287   1.326  1.00  0.00     0.127 C 
BRANCH  16  17
HETATM   17  C6  UNL     1      13.774   5.670   0.122  1.00  0.00     0.064 C 
BRANCH  17  18
HETATM   18  C7  UNL     1      13.251   4.844  -1.049  1.00  0.00     0.060 C 
BRANCH  18  19
HETATM   19  N3  UNL     1      13.420   3.458  -0.921  1.00  0.00    -0.390 N 
HETATM   20  C8  UNL     1      14.645   2.908  -1.398  1.00  0.00     0.141 C 
HETATM   21  C9  UNL     1      14.579   2.159  -2.683  1.00  0.00     0.136 C 
HETATM   22  N4  UNL     1      13.384   2.239  -3.441  1.00  0.00    -0.414 N 
HETATM   23  C10 UNL     1      13.197   1.147  -4.369  1.00  0.00     0.143 C 
HETATM   24  C11 UNL     1      12.188   2.615  -2.758  1.00  0.00     0.136 C 
HETATM   25  C12 UNL     1      12.341   2.603  -1.254  1.00  0.00     0.141 C 
ENDBRANCH  18  19
ENDBRANCH  17  18
ENDBRANCH  16  17
ENDBRANCH  14  16
ENDBRANCH   1  14
TORSDOF 8
ENDMDL
MODEL 3
REMARK VINA RESULT: -6.312613312      2.824      6.619
REMARK  8 active torsions:
REMARK  status: ('A' for Active; 'I' for Inactive)
REMARK    1  A    between atoms: C2_2  and  C3_3 
REMARK    2  A    between atoms: C3_3  and  N1_4 
REMARK    3  A    between atoms: N1_4  and  C4_6 
REMARK    4  A    between atoms: C4_6  and  N2_8 
REMARK    5  A    between atoms: N2_8  and  C5_10 
REMARK    6  A    between atoms: C5_10  and  C6_11 
REMARK    7  A    between atoms: C6_11  and  C7_12 
REMARK    8  A    between atoms: C7_12  and  N3_13 
ROOT
HETATM    1  C4  UNL     1       9.796   5.660  -0.845  1.00  0.00     0.168 C 
HETATM    2  S1  UNL     1       8.618   6.098  -1.886  1.00  0.00    -0.041 SA
ENDROOT
BRANCH   1   3
HETATM    3  N1  UNL     1       9.499   4.903   0.289  1.00  0.00    -0.358 N 
ATOM      4  H1  UNL     1       9.685   3.902   0.235  1.00  0.00     0.162 HD
BRANCH   3   5
HETATM    5  C3  UNL     1       8.943   5.406   1.555  1.00  0.00     0.032 C 
HETATM    6  C13 UNL     1      10.042   5.363   2.565  1.00  0.00     0.031 C 
HETATM    7  C14 UNL     1       9.594   5.413   3.994  1.00  0.00     0.007 C 
HETATM    8  C15 UNL     1       8.604   4.339   4.251  1.00  0.00    -0.019 C 
HETATM    9  C16 UNL     1       8.115   4.433   5.689  1.00  0.00     0.010 C 
HETATM   10  C17 UNL     1       7.507   4.182   3.263  1.00  0.00     0.007 C 
HETATM   11  C18 UNL     1       7.657   4.789   1.933  1.00  0.00     0.031 C 
BRANCH   5  12
HETATM   12  C2  UNL     1       8.648   6.885   1.261  1.00  0.00     0.026 C 
HETATM   13  C1  UNL     1       7.222   7.260   1.415  1.00  0.00     0.007 C 
ENDBRANCH   5  12
ENDBRANCH   3   5
ENDBRANCH   1   3
BRANCH   1  14
HETATM   14  N2  UNL     1      11.103   6.081  -1.126  1.00  0.00    -0.367 N 
ATOM     15  H2  UNL     1      11.390   6.091  -2.105  1.00  0.00     0.161 HD
BRANCH  14  16
HETATM   16  C5  UNL     1      12.062   6.493  -0.161  1.00  0.00     0.127 C 
BRANCH  16  17
HETATM   17  C6  UNL     1      13.049   5.460   0.287  1.00  0.00     0.064 C 
BRANCH  17  18
HETATM   18  C7  UNL     1      13.586   4.776  -0.966  1.00  0.00     0.060 C 
BRANCH  18  19
HETATM   19  N3  UNL     1      13.634   3.376  -0.905  1.00  0.00    -0.390 N 
HETATM   20  C8  UNL     1      14.760   2.739  -1.501  1.00  0.00     0.141 C 
HETATM   21  C9  UNL     1      14.523   2.058  -2.804  1.00  0.00     0.136 C 
HETATM   22  N4  UNL     1      13.285   2.280  -3.457  1.00  0.00    -0.414 N 
HETATM   23  C10 UNL     1      12.923   1.252  -4.407  1.00  0.00     0.143 C 
HETATM   24  C11 UNL     1      12.187   2.731  -2.664  1.00  0.00     0.136 C 
HETATM   25  C12 UNL     1      12.457   2.638  -1.179  1.00  0.00     0.141 C 
ENDBRANCH  18  19
ENDBRANCH  17  18
ENDBRANCH  16  17
ENDBRANCH  14  16
ENDBRANCH   1  14
TORSDOF 8
ENDMDL
MODEL 4
REMARK VINA RESULT: -6.304275185      3.270      6.429
REMARK  8 active torsions:
REMARK  status: ('A' for Active; 'I' for Inactive)
REMARK    1  A    between atoms: C2_2  and  C3_3 
REMARK    2  A    between atoms: C3_3  and  N1_4 
REMARK    3  A    between atoms: N1_4  and  C4_6 
REMARK    4  A    between atoms: C4_6  and  N2_8 
REMARK    5  A    between atoms: N2_8  and  C5_10 
REMARK    6  A    between atoms: C5_10  and  C6_11 
REMARK    7  A    between atoms: C6_11  and  C7_12 
REMARK    8  A    between atoms: C7_12  and  N3_13 
ROOT
HETATM    1  C4  UNL     1      11.148   5.803  -0.342  1.00  0.00     0.168 C 
HETATM    2  S1  UNL     1      10.219   5.743  -1.682  1.00  0.00    -0.041 SA
ENDROOT
BRANCH   1   3
HETATM    3  N1  UNL     1      10.685   5.286   0.869  1.00  0.00    -0.358 N 
ATOM      4  H1  UNL     1      10.254   4.363   0.840  1.00  0.00     0.162 HD
BRANCH   3   5
HETATM    5  C3  UNL     1      10.757   5.942   2.184  1.00  0.00     0.032 C 
HETATM    6  C13 UNL     1      10.349   7.364   1.989  1.00  0.00     0.031 C 
HETATM    7  C14 UNL     1      10.762   8.301   3.084  1.00  0.00     0.007 C 
HETATM    8  C15 UNL     1      12.225   8.202   3.307  1.00  0.00    -0.019 C 
HETATM    9  C16 UNL     1      12.625   9.115   4.457  1.00  0.00     0.010 C 
HETATM   10  C17 UNL     1      12.802   6.838   3.408  1.00  0.00     0.007 C 
HETATM   11  C18 UNL     1      12.020   5.698   2.908  1.00  0.00     0.031 C 
BRANCH   5  12
HETATM   12  C2  UNL     1       9.649   5.254   2.996  1.00  0.00     0.026 C 
HETATM   13  C1  UNL     1       8.339   5.198   2.305  1.00  0.00     0.007 C 
ENDBRANCH   5  12
ENDBRANCH   3   5
ENDBRANCH   1   3
BRANCH   1  14
HETATM   14  N2  UNL     1      12.413   6.398  -0.452  1.00  0.00    -0.367 N 
ATOM     15  H2  UNL     1      12.470   7.405  -0.298  1.00  0.00     0.161 HD
BRANCH  14  16
HETATM   16  C5  UNL     1      13.621   5.716  -0.759  1.00  0.00     0.127 C 
BRANCH  16  17
HETATM   17  C6  UNL     1      13.666   4.254  -0.438  1.00  0.00     0.064 C 
BRANCH  17  18
HETATM   18  C7  UNL     1      14.361   3.557  -1.604  1.00  0.00     0.060 C 
BRANCH  18  19
HETATM   19  N3  UNL     1      13.889   2.269  -1.893  1.00  0.00    -0.390 N 
HETATM   20  C8  UNL     1      14.470   1.601  -3.009  1.00  0.00     0.141 C 
HETATM   21  C9  UNL     1      13.632   1.514  -4.237  1.00  0.00     0.136 C 
HETATM   22  N4  UNL     1      12.441   2.280  -4.288  1.00  0.00    -0.414 N 
HETATM   23  C10 UNL     1      11.463   1.791  -5.233  1.00  0.00     0.143 C 
HETATM   24  C11 UNL     1      11.871   2.704  -3.050  1.00  0.00     0.136 C 
HETATM   25  C12 UNL     1      12.495   2.026  -1.852  1.00  0.00     0.141 C 
ENDBRANCH  18  19
ENDBRANCH  17  18
ENDBRANCH  16  17
ENDBRANCH  14  16
ENDBRANCH   1  14
TORSDOF 8
ENDMDL
MODEL 5
REMARK VINA RESULT: -6.247849142      2.615      5.942
REMARK  8 active torsions:
REMARK  status: ('A' for Active; 'I' for Inactive)
REMARK    1  A    between atoms: C2_2  and  C3_3 
REMARK    2  A    between atoms: C3_3  and  N1_4 
REMARK    3  A    between atoms: N1_4  and  C4_6 
REMARK    4  A    between atoms: C4_6  and  N2_8 
REMARK    5  A    between atoms: N2_8  and  C5_10 
REMARK    6  A    between atoms: C5_10  and  C6_11 
REMARK    7  A    between atoms: C6_11  and  C7_12 
REMARK    8  A    between atoms: C7_12  and  N3_13 
ROOT
HETATM    1  C4  UNL     1      12.085   5.715   3.003  1.00  0.00     0.168 C 
HETATM    2  S1  UNL     1      12.765   6.618   4.179  1.00  0.00    -0.041 SA
ENDROOT
BRANCH   1   3
HETATM    3  N1  UNL     1      10.724   5.406   3.039  1.00  0.00    -0.358 N 
ATOM      4  H1  UNL     1      10.454   4.585   3.580  1.00  0.00     0.162 HD
BRANCH   3   5
HETATM    5  C3  UNL     1       9.641   6.147   2.376  1.00  0.00     0.032 C 
HETATM    6  C13 UNL     1       8.460   5.237   2.312  1.00  0.00     0.031 C 
HETATM    7  C14 UNL     1       7.414   5.622   1.310  1.00  0.00     0.007 C 
HETATM    8  C15 UNL     1       8.031   5.774  -0.030  1.00  0.00    -0.019 C 
HETATM    9  C16 UNL     1       6.971   6.218  -1.028  1.00  0.00     0.010 C 
HETATM   10  C17 UNL     1       9.285   6.564  -0.110  1.00  0.00     0.007 C 
HETATM   11  C18 UNL     1      10.048   6.810   1.122  1.00  0.00     0.031 C 
BRANCH   5  12
HETATM   12  C2  UNL     1       9.303   7.268   3.372  1.00  0.00     0.026 C 
HETATM   13  C1  UNL     1       8.895   6.784   4.712  1.00  0.00     0.007 C 
ENDBRANCH   5  12
ENDBRANCH   3   5
ENDBRANCH   1   3
BRANCH   1  14
HETATM   14  N2  UNL     1      12.915   5.257   1.971  1.00  0.00    -0.367 N 
ATOM     15  H2  UNL     1      13.037   4.248   1.882  1.00  0.00     0.161 HD
BRANCH  14  16
HETATM   16  C5  UNL     1      13.602   6.081   1.038  1.00  0.00     0.127 C 
BRANCH  16  17
HETATM   17  C6  UNL     1      14.029   5.433  -0.243  1.00  0.00     0.064 C 
BRANCH  17  18
HETATM   18  C7  UNL     1      12.808   4.722  -0.817  1.00  0.00     0.060 C 
BRANCH  18  19
HETATM   19  N3  UNL     1      12.885   3.322  -0.826  1.00  0.00    -0.390 N 
HETATM   20  C8  UNL     1      14.139   2.743  -1.173  1.00  0.00     0.141 C 
HETATM   21  C9  UNL     1      14.236   2.141  -2.531  1.00  0.00     0.136 C 
HETATM   22  N4  UNL     1      13.181   2.382  -3.446  1.00  0.00    -0.414 N 
HETATM   23  C10 UNL     1      13.085   1.409  -4.510  1.00  0.00     0.143 C 
HETATM   24  C11 UNL     1      11.913   2.764  -2.910  1.00  0.00     0.136 C 
HETATM   25  C12 UNL     1      11.829   2.583  -1.412  1.00  0.00     0.141 C 
ENDBRANCH  18  19
ENDBRANCH  17  18
ENDBRANCH  16  17
ENDBRANCH  14  16
ENDBRANCH   1  14
TORSDOF 8
ENDMDL
