MODEL 1
REMARK VINA RESULT: -6.989076292      0.000      0.000
REMARK  6 active torsions:
REMARK  status: ('A' for Active; 'I' for Inactive)
REMARK    1  A    between atoms: C5_6  and  C6_7 
REMARK    2  A    between atoms: C6_7  and  N2_8 
REMARK       I    between atoms: N2_8  and  C7_10 
REMARK       I    between atoms: C7_10  and  N3_12 
REMARK    3  A    between atoms: N3_12  and  C8_14 
REMARK    4  A    between atoms: C8_14  and  C9_15 
REMARK    5  A    between atoms: C11_17  and  C12_18 
REMARK    6  A    between atoms: C12_18  and  C13_19 
ROOT
HETATM    1  N2  UNL     1       7.442   6.948   0.076  1.00  0.00    -0.343 N 
ATOM      2  H2  UNL     1       7.295   7.957   0.057  1.00  0.00     0.164 HD
HETATM    3  C7  UNL     1       8.256   6.444   1.096  1.00  0.00     0.316 C 
HETATM    4  O1  UNL     1       8.489   5.195   1.191  1.00  0.00    -0.247 OA
HETATM    5  N3  UNL     1       8.872   7.261   2.083  1.00  0.00    -0.341 N 
ATOM      6  H3  UNL     1       8.708   8.268   2.040  1.00  0.00     0.164 HD
ENDROOT
BRANCH   5   7
HETATM    7  C8  UNL     1       9.704   6.767   3.129  1.00  0.00     0.156 C 
BRANCH   7   8
HETATM    8  C9  UNL     1      11.111   7.267   2.953  1.00  0.00     0.139 C 
HETATM    9  C10 UNL     1      11.459   7.400   1.462  1.00  0.00     0.040 C 
HETATM   10  C11 UNL     1      11.926   6.021   1.148  1.00  0.00     0.012 C 
HETATM   11  C18 UNL     1      12.386   5.495   2.489  1.00  0.00     0.172 C 
HETATM   12  O2  UNL     1      12.068   6.422   3.443  1.00  0.00    -0.384 OA
BRANCH  10  13
HETATM   13  C12 UNL     1      13.065   5.909   0.199  1.00  0.00     0.011 C 
BRANCH  13  14
HETATM   14  C13 UNL     1      12.902   4.935  -0.918  1.00  0.00    -0.014 C 
HETATM   15  C14 UNL     1      11.404   4.674  -1.144  1.00  0.00     0.005 C 
HETATM   16  C15 UNL     1      11.261   3.239  -1.526  1.00  0.00     0.000 C 
HETATM   17  C16 UNL     1      12.668   2.718  -1.681  1.00  0.00     0.000 C 
HETATM   18  C17 UNL     1      13.403   3.550  -0.623  1.00  0.00     0.005 C 
ENDBRANCH  13  14
ENDBRANCH  10  13
ENDBRANCH   7   8
ENDBRANCH   5   7
BRANCH   1  19
HETATM   19  C6  UNL     1       6.799   6.181  -0.940  1.00  0.00     0.130 C 
BRANCH  19  20
HETATM   20  C5  UNL     1       7.076   6.705  -2.329  1.00  0.00     0.032 C 
HETATM   21  C4  UNL     1       8.519   6.478  -2.739  1.00  0.00     0.010 C 
HETATM   22  C3  UNL     1       8.576   6.825  -4.233  1.00  0.00     0.031 C 
HETATM   23  C2  UNL     1       8.147   8.235  -4.433  1.00  0.00     0.272 C 
HETATM   24  N1  UNL     1       6.966   8.626  -3.751  1.00  0.00     0.084 N 
HETATM   25  C1  UNL     1       5.746   8.459  -4.472  1.00  0.00     0.309 C 
HETATM   26  C19 UNL     1       6.851   8.201  -2.398  1.00  0.00     0.278 C 
ENDBRANCH  19  20
ENDBRANCH   1  19
TORSDOF 6
ENDMDL
MODEL 2
REMARK VINA RESULT: -6.947608472      1.766      2.825
REMARK  6 active torsions:
REMARK  status: ('A' for Active; 'I' for Inactive)
REMARK    1  A    between atoms: C5_6  and  C6_7 
REMARK    2  A    between atoms: C6_7  and  N2_8 
REMARK       I    between atoms: N2_8  and  C7_10 
REMARK       I    between atoms: C7_10  and  N3_12 
REMARK    3  A    between atoms: N3_12  and  C8_14 
REMARK    4  A    between atoms: C8_14  and  C9_15 
REMARK    5  A    between atoms: C11_17  and  C12_18 
REMARK    6  A    between atoms: C12_18  and  C13_19 
ROOT
HETATM    1  N2  UNL     1       7.083   7.583   0.003  1.00  0.00    -0.343 N 
ATOM      2  H2  UNL     1       7.111   8.210   0.807  1.00  0.00     0.164 HD
HETATM    3  C7  UNL     1       8.076   6.600  -0.070  1.00  0.00     0.316 C 
HETATM    4  O1  UNL     1       8.112   5.777  -1.041  1.00  0.00    -0.247 OA
HETATM    5  N3  UNL     1       9.097   6.443   0.907  1.00  0.00    -0.341 N 
ATOM      6  H3  UNL     1       9.100   7.084   1.701  1.00  0.00     0.164 HD
ENDROOT
BRANCH   5   7
HETATM    7  C8  UNL     1      10.116   5.448   0.851  1.00  0.00     0.156 C 
BRANCH   7   8
HETATM    8  C9  UNL     1      11.332   5.990   0.152  1.00  0.00     0.139 C 
HETATM    9  C10 UNL     1      11.646   5.170  -1.109  1.00  0.00     0.040 C 
HETATM   10  C11 UNL     1      12.479   4.073  -0.543  1.00  0.00     0.012 C 
HETATM   11  C18 UNL     1      13.052   4.685   0.716  1.00  0.00     0.172 C 
HETATM   12  O2  UNL     1      12.479   5.915   0.892  1.00  0.00    -0.384 OA
BRANCH  10  13
HETATM   13  C12 UNL     1      13.616   3.606  -1.380  1.00  0.00     0.011 C 
BRANCH  13  14
HETATM   14  C13 UNL     1      13.390   2.359  -2.166  1.00  0.00    -0.014 C 
HETATM   15  C14 UNL     1      14.674   2.011  -2.936  1.00  0.00     0.005 C 
HETATM   16  C15 UNL     1      14.256   1.429  -4.245  1.00  0.00     0.000 C 
HETATM   17  C16 UNL     1      12.756   1.290  -4.167  1.00  0.00     0.000 C 
HETATM   18  C17 UNL     1      12.399   2.494  -3.286  1.00  0.00     0.005 C 
ENDBRANCH  13  14
ENDBRANCH  10  13
ENDBRANCH   7   8
ENDBRANCH   5   7
BRANCH   1  19
HETATM   19  C6  UNL     1       6.036   7.791  -0.943  1.00  0.00     0.130 C 
BRANCH  19  20
HETATM   20  C5  UNL     1       6.477   8.614  -2.129  1.00  0.00     0.032 C 
HETATM   21  C4  UNL     1       6.009  10.052  -2.023  1.00  0.00     0.010 C 
HETATM   22  C3  UNL     1       6.735  10.802  -3.148  1.00  0.00     0.031 C 
HETATM   23  C2  UNL     1       6.387  10.189  -4.459  1.00  0.00     0.272 C 
HETATM   24  N1  UNL     1       6.448   8.773  -4.516  1.00  0.00     0.084 N 
HETATM   25  C1  UNL     1       7.699   8.220  -4.920  1.00  0.00     0.309 C 
HETATM   26  C19 UNL     1       5.884   8.074  -3.414  1.00  0.00     0.278 C 
ENDBRANCH  19  20
ENDBRANCH   1  19
TORSDOF 6
ENDMDL
MODEL 3
REMARK VINA RESULT: -6.841494657      3.279      5.901
REMARK  6 active torsions:
REMARK  status: ('A' for Active; 'I' for Inactive)
REMARK    1  A    between atoms: C5_6  and  C6_7 
REMARK    2  A    between atoms: C6_7  and  N2_8 
REMARK       I    between atoms: N2_8  and  C7_10 
REMARK       I    between atoms: C7_10  and  N3_12 
REMARK    3  A    between atoms: N3_12  and  C8_14 
REMARK    4  A    between atoms: C8_14  and  C9_15 
REMARK    5  A    between atoms: C11_17  and  C12_18 
REMARK    6  A    between atoms: C12_18  and  C13_19 
ROOT
HETATM    1  N2  UNL     1      13.691   5.679   1.440  1.00  0.00    -0.343 N 
ATOM      2  H2  UNL     1      14.237   4.914   1.838  1.00  0.00     0.164 HD
HETATM    3  C7  UNL     1      12.845   6.375   2.311  1.00  0.00     0.316 C 
HETATM    4  O1  UNL     1      12.131   7.344   1.894  1.00  0.00    -0.247 OA
HETATM    5  N3  UNL     1      12.718   6.066   3.692  1.00  0.00    -0.341 N 
ATOM      6  H3  UNL     1      13.275   5.296   4.063  1.00  0.00     0.164 HD
ENDROOT
BRANCH   5   7
HETATM    7  C8  UNL     1      11.862   6.763   4.595  1.00  0.00     0.156 C 
BRANCH   7   8
HETATM    8  C9  UNL     1      10.813   5.832   5.138  1.00  0.00     0.139 C 
HETATM    9  C10 UNL     1      10.126   5.062   3.999  1.00  0.00     0.040 C 
HETATM   10  C11 UNL     1       9.054   6.018   3.606  1.00  0.00     0.012 C 
HETATM   11  C18 UNL     1       8.838   6.834   4.861  1.00  0.00     0.172 C 
HETATM   12  O2  UNL     1       9.784   6.467   5.778  1.00  0.00    -0.384 OA
BRANCH  10  13
HETATM   13  C12 UNL     1       7.747   5.423   3.219  1.00  0.00     0.011 C 
BRANCH  13  14
HETATM   14  C13 UNL     1       7.253   5.746   1.850  1.00  0.00    -0.014 C 
HETATM   15  C14 UNL     1       8.336   5.373   0.823  1.00  0.00     0.005 C 
HETATM   16  C15 UNL     1       8.277   6.392  -0.265  1.00  0.00     0.000 C 
HETATM   17  C16 UNL     1       7.072   7.245   0.042  1.00  0.00     0.000 C 
HETATM   18  C17 UNL     1       7.075   7.211   1.575  1.00  0.00     0.005 C 
ENDBRANCH  13  14
ENDBRANCH  10  13
ENDBRANCH   7   8
ENDBRANCH   5   7
BRANCH   1  19
HETATM   19  C6  UNL     1      13.861   5.939   0.048  1.00  0.00     0.130 C 
BRANCH  19  20
HETATM   20  C5  UNL     1      13.174   4.917  -0.825  1.00  0.00     0.032 C 
HETATM   21  C4  UNL     1      11.664   4.998  -0.706  1.00  0.00     0.010 C 
HETATM   22  C3  UNL     1      11.120   4.091  -1.818  1.00  0.00     0.031 C 
HETATM   23  C2  UNL     1      11.629   2.706  -1.625  1.00  0.00     0.272 C 
HETATM   24  N1  UNL     1      13.016   2.589  -1.353  1.00  0.00     0.084 N 
HETATM   25  C1  UNL     1      13.862   2.429  -2.490  1.00  0.00     0.309 C 
HETATM   26  C19 UNL     1      13.553   3.510  -0.412  1.00  0.00     0.278 C 
ENDBRANCH  19  20
ENDBRANCH   1  19
TORSDOF 6
ENDMDL
MODEL 4
REMARK VINA RESULT: -6.768285408      1.225      1.809
REMARK  6 active torsions:
REMARK  status: ('A' for Active; 'I' for Inactive)
REMARK    1  A    between atoms: C5_6  and  C6_7 
REMARK    2  A    between atoms: C6_7  and  N2_8 
REMARK       I    between atoms: N2_8  and  C7_10 
REMARK       I    between atoms: C7_10  and  N3_12 
REMARK    3  A    between atoms: N3_12  and  C8_14 
REMARK    4  A    between atoms: C8_14  and  C9_15 
REMARK    5  A    between atoms: C11_17  and  C12_18 
REMARK    6  A    between atoms: C12_18  and  C13_19 
ROOT
HETATM    1  N2  UNL     1       6.836   7.601  -0.022  1.00  0.00    -0.343 N 
ATOM      2  H2  UNL     1       6.588   8.399   0.563  1.00  0.00     0.164 HD
HETATM    3  C7  UNL     1       7.867   6.773   0.438  1.00  0.00     0.316 C 
HETATM    4  O1  UNL     1       8.237   5.755  -0.232  1.00  0.00    -0.247 OA
HETATM    5  N3  UNL     1       8.565   6.994   1.656  1.00  0.00    -0.341 N 
ATOM      6  H3  UNL     1       8.296   7.801   2.221  1.00  0.00     0.164 HD
ENDROOT
BRANCH   5   7
HETATM    7  C8  UNL     1       9.617   6.164   2.141  1.00  0.00     0.156 C 
BRANCH   7   8
HETATM    8  C9  UNL     1      10.931   6.891   2.061  1.00  0.00     0.139 C 
HETATM    9  C10 UNL     1      11.537   6.767   0.654  1.00  0.00     0.040 C 
HETATM   10  C11 UNL     1      12.273   5.478   0.766  1.00  0.00     0.012 C 
HETATM   11  C18 UNL     1      12.543   5.359   2.250  1.00  0.00     0.172 C 
HETATM   12  O2  UNL     1      11.898   6.384   2.885  1.00  0.00    -0.384 OA
BRANCH  10  13
HETATM   13  C12 UNL     1      13.579   5.398   0.059  1.00  0.00     0.011 C 
BRANCH  13  14
HETATM   14  C13 UNL     1      13.630   4.507  -1.136  1.00  0.00    -0.014 C 
HETATM   15  C14 UNL     1      12.345   3.665  -1.192  1.00  0.00     0.005 C 
HETATM   16  C15 UNL     1      12.724   2.322  -1.721  1.00  0.00     0.000 C 
HETATM   17  C16 UNL     1      14.173   2.437  -2.120  1.00  0.00     0.000 C 
HETATM   18  C17 UNL     1      14.683   3.438  -1.076  1.00  0.00     0.005 C 
ENDBRANCH  13  14
ENDBRANCH  10  13
ENDBRANCH   7   8
ENDBRANCH   5   7
BRANCH   1  19
HETATM   19  C6  UNL     1       6.101   7.432  -1.232  1.00  0.00     0.130 C 
BRANCH  19  20
HETATM   20  C5  UNL     1       6.487   8.433  -2.293  1.00  0.00     0.032 C 
HETATM   21  C4  UNL     1       6.100   9.847  -1.902  1.00  0.00     0.010 C 
HETATM   22  C3  UNL     1       6.771  10.755  -2.941  1.00  0.00     0.031 C 
HETATM   23  C2  UNL     1       6.290  10.393  -4.302  1.00  0.00     0.272 C 
HETATM   24  N1  UNL     1       6.277   9.008  -4.606  1.00  0.00     0.084 N 
HETATM   25  C1  UNL     1       7.463   8.490  -5.205  1.00  0.00     0.309 C 
HETATM   26  C19 UNL     1       5.768   8.147  -3.595  1.00  0.00     0.278 C 
ENDBRANCH  19  20
ENDBRANCH   1  19
TORSDOF 6
ENDMDL
MODEL 5
REMARK VINA RESULT: -6.717109828      1.360      1.583
REMARK  6 active torsions:
REMARK  status: ('A' for Active; 'I' for Inactive)
REMARK    1  A    between atoms: C5_6  and  C6_7 
REMARK    2  A    between atoms: C6_7  and  N2_8 
REMARK       I    between atoms: N2_8  and  C7_10 
REMARK       I    between atoms: C7_10  and  N3_12 
REMARK    3  A    between atoms: N3_12  and  C8_14 
REMARK    4  A    between atoms: C8_14  and  C9_15 
REMARK    5  A    between atoms: C11_17  and  C12_18 
REMARK    6  A    between atoms: C12_18  and  C13_19 
ROOT
HETATM    1  N2  UNL     1       7.523   6.206  -1.426  1.00  0.00    -0.343 N 
ATOM      2  H2  UNL     1       8.210   5.753  -2.030  1.00  0.00     0.164 HD
HETATM    3  C7  UNL     1       7.947   6.563  -0.141  1.00  0.00     0.316 C 
HETATM    4  O1  UNL     1       7.152   7.133   0.675  1.00  0.00    -0.247 OA
HETATM    5  N3  UNL     1       9.261   6.325   0.345  1.00  0.00    -0.341 N 
ATOM      6  H3  UNL     1       9.927   5.870  -0.281  1.00  0.00     0.164 HD
ENDROOT
BRANCH   5   7
HETATM    7  C8  UNL     1       9.711   6.681   1.650  1.00  0.00     0.156 C 
BRANCH   7   8
HETATM    8  C9  UNL     1      11.107   7.236   1.584  1.00  0.00     0.139 C 
HETATM    9  C10 UNL     1      11.810   6.790   0.293  1.00  0.00     0.040 C 
HETATM   10  C11 UNL     1      12.369   5.473   0.705  1.00  0.00     0.012 C 
HETATM   11  C18 UNL     1      12.495   5.603   2.207  1.00  0.00     0.172 C 
HETATM   12  O2  UNL     1      11.931   6.791   2.581  1.00  0.00    -0.384 OA
BRANCH  10  13
HETATM   13  C12 UNL     1      13.710   5.125   0.165  1.00  0.00     0.011 C 
BRANCH  13  14
HETATM   14  C13 UNL     1      13.729   4.355  -1.112  1.00  0.00    -0.014 C 
HETATM   15  C14 UNL     1      12.376   3.648  -1.294  1.00  0.00     0.005 C 
HETATM   16  C15 UNL     1      12.652   2.333  -1.944  1.00  0.00     0.000 C 
HETATM   17  C16 UNL     1      14.121   2.349  -2.284  1.00  0.00     0.000 C 
HETATM   18  C17 UNL     1      14.677   3.190  -1.128  1.00  0.00     0.005 C 
ENDBRANCH  13  14
ENDBRANCH  10  13
ENDBRANCH   7   8
ENDBRANCH   5   7
BRANCH   1  19
HETATM   19  C6  UNL     1       6.222   6.417  -1.970  1.00  0.00     0.130 C 
BRANCH  19  20
HETATM   20  C5  UNL     1       6.185   7.545  -2.972  1.00  0.00     0.032 C 
HETATM   21  C4  UNL     1       7.505   7.692  -3.705  1.00  0.00     0.010 C 
HETATM   22  C3  UNL     1       7.231   8.689  -4.840  1.00  0.00     0.031 C 
HETATM   23  C2  UNL     1       6.757   9.977  -4.266  1.00  0.00     0.272 C 
HETATM   24  N1  UNL     1       5.752   9.879  -3.271  1.00  0.00     0.084 N 
HETATM   25  C1  UNL     1       4.405   9.928  -3.739  1.00  0.00     0.309 C 
HETATM   26  C19 UNL     1       5.939   8.872  -2.284  1.00  0.00     0.278 C 
ENDBRANCH  19  20
ENDBRANCH   1  19
TORSDOF 6
ENDMDL
