MODEL 1
REMARK VINA RESULT: -8.143117968      0.000      0.000
REMARK  12 active torsions:
REMARK  status: ('A' for Active; 'I' for Inactive)
REMARK    1  A    between atoms: C2_2  and  C3_3 
REMARK    2  A    between atoms: C3_3  and  C4_4 
REMARK    3  A    between atoms: C9_9  and  C10_10 
REMARK    4  A    between atoms: C11_11  and  C12_12 
REMARK    5  A    between atoms: C12_12  and  C13_13 
REMARK    6  A    between atoms: C13_13  and  C15_15 
REMARK    7  A    between atoms: C15_15  and  C16_16 
REMARK    8  A    between atoms: C16_16  and  C17_17 
REMARK    9  A    between atoms: C20_20  and  O1_21 
REMARK   10  A    between atoms: C20_20  and  C21_23 
REMARK   11  A    between atoms: C21_23  and  C22_24 
REMARK   12  A    between atoms: C28_30  and  O2_31 
ROOT
HETATM    1  C17 UNL     1       1.605   6.845  16.722  1.00  0.00     0.017 C 
HETATM    2  C18 UNL     1       1.533   8.218  17.150  1.00  0.00    -0.035 C 
HETATM    3  C19 UNL     1       0.431   8.678  17.921  1.00  0.00     0.048 C 
HETATM    4  C20 UNL     1       2.715   9.001  16.690  1.00  0.00     0.091 C 
HETATM    5  C26 UNL     1       2.908   8.669  15.237  1.00  0.00     0.057 C 
HETATM    6  C27 UNL     1       3.635   9.691  14.427  1.00  0.00     0.016 C 
HETATM    7  C28 UNL     1       3.336   7.263  14.922  1.00  0.00     0.199 C 
HETATM    8  C29 UNL     1       2.783   6.414  16.052  1.00  0.00     0.188 C 
HETATM    9  O3  UNL     1       3.331   5.371  16.396  1.00  0.00    -0.289 OA
ENDROOT
BRANCH   1  10
HETATM   10  C16 UNL     1       0.511   6.119  17.141  1.00  0.00     0.017 C 
BRANCH  10  11
HETATM   11  C15 UNL     1       0.587   4.814  17.728  1.00  0.00     0.016 C 
BRANCH  11  12
HETATM   12  C13 UNL     1       1.313   4.899  18.834  1.00  0.00    -0.017 C 
HETATM   13  C14 UNL     1       1.799   3.116  18.721  1.00  0.00     0.057 C 
BRANCH  12  14
HETATM   14  C12 UNL     1       1.980   4.977  19.851  1.00  0.00    -0.122 C 
BRANCH  14  15
HETATM   15  C11 UNL     1       2.927   5.301  20.862  1.00  0.00     0.054 C 
HETATM   16  C10 UNL     1       3.769   6.308  20.405  1.00  0.00     0.014 C 
BRANCH  16  17
HETATM   17  C9  UNL     1       4.861   6.940  21.062  1.00  0.00     0.155 C 
HETATM   18  C7  UNL     1       4.466   8.014  22.018  1.00  0.00     0.018 C 
HETATM   19  C6  UNL     1       5.474   9.120  22.162  1.00  0.00     0.036 C 
HETATM   20  C8  UNL     1       4.254   7.353  23.374  1.00  0.00     0.013 C 
HETATM   21  C5  UNL     1       6.724   8.952  21.413  1.00  0.00     0.006 C 
HETATM   22  C4  UNL     1       6.875   8.160  20.382  1.00  0.00     0.043 C 
HETATM   23  O4  UNL     1       5.734   7.434  20.029  1.00  0.00    -0.346 OA
BRANCH  22  24
HETATM   24  C3  UNL     1       8.068   7.934  19.557  1.00  0.00     0.064 C 
BRANCH  24  25
HETATM   25  C2  UNL     1       7.900   7.062  18.362  1.00  0.00     0.002 C 
HETATM   26  C1  UNL     1       7.485   7.845  17.150  1.00  0.00     0.005 C 
ENDBRANCH  24  25
ENDBRANCH  22  24
ENDBRANCH  16  17
ENDBRANCH  14  15
ENDBRANCH  12  14
ENDBRANCH  11  12
ENDBRANCH  10  11
ENDBRANCH   1  10
BRANCH   4  27
HETATM   27  O1  UNL     1       2.383  10.374  16.722  1.00  0.00    -0.384 OA
ATOM     28  H1  UNL     1       3.117  10.869  16.375  1.00  0.00     0.211 HD
ENDBRANCH   4  27
BRANCH   4  29
HETATM   29  C21 UNL     1       3.842   8.803  17.623  1.00  0.00     0.070 C 
BRANCH  29  30
HETATM   30  C22 UNL     1       3.992   9.887  18.621  1.00  0.00    -0.021 C 
HETATM   31  C23 UNL     1       4.901  10.838  18.612  1.00  0.00    -0.091 C 
HETATM   32  C24 UNL     1       4.906  11.853  19.719  1.00  0.00     0.042 C 
HETATM   33  C25 UNL     1       5.953  11.028  17.566  1.00  0.00     0.042 C 
ENDBRANCH  29  30
ENDBRANCH   4  29
BRANCH   7  34
HETATM   34  O2  UNL     1       2.661   6.862  13.751  1.00  0.00    -0.387 OA
ATOM     35  H2  UNL     1       2.649   5.912  13.736  1.00  0.00     0.210 HD
ENDBRANCH   7  34
TORSDOF 12
ENDMDL
MODEL 2
REMARK VINA RESULT: -8.089281409      2.200      4.315
REMARK  12 active torsions:
REMARK  status: ('A' for Active; 'I' for Inactive)
REMARK    1  A    between atoms: C2_2  and  C3_3 
REMARK    2  A    between atoms: C3_3  and  C4_4 
REMARK    3  A    between atoms: C9_9  and  C10_10 
REMARK    4  A    between atoms: C11_11  and  C12_12 
REMARK    5  A    between atoms: C12_12  and  C13_13 
REMARK    6  A    between atoms: C13_13  and  C15_15 
REMARK    7  A    between atoms: C15_15  and  C16_16 
REMARK    8  A    between atoms: C16_16  and  C17_17 
REMARK    9  A    between atoms: C20_20  and  O1_21 
REMARK   10  A    between atoms: C20_20  and  C21_23 
REMARK   11  A    between atoms: C21_23  and  C22_24 
REMARK   12  A    between atoms: C28_30  and  O2_31 
ROOT
HETATM    1  C17 UNL     1       3.177  10.266  15.100  1.00  0.00     0.017 C 
HETATM    2  C18 UNL     1       2.868  10.383  16.502  1.00  0.00    -0.035 C 
HETATM    3  C19 UNL     1       2.375   9.266  17.229  1.00  0.00     0.048 C 
HETATM    4  C20 UNL     1       3.139  11.757  17.012  1.00  0.00     0.091 C 
HETATM    5  C26 UNL     1       2.531  12.709  16.019  1.00  0.00     0.057 C 
HETATM    6  C27 UNL     1       2.180  14.061  16.545  1.00  0.00     0.016 C 
HETATM    7  C28 UNL     1       3.173  12.759  14.660  1.00  0.00     0.199 C 
HETATM    8  C29 UNL     1       3.773  11.381  14.450  1.00  0.00     0.188 C 
HETATM    9  O3  UNL     1       4.757  11.214  13.736  1.00  0.00    -0.289 OA
ENDROOT
BRANCH   1  10
HETATM   10  C16 UNL     1       2.922   8.998  14.623  1.00  0.00     0.017 C 
BRANCH  10  11
HETATM   11  C15 UNL     1       3.908   8.153  14.014  1.00  0.00     0.016 C 
BRANCH  11  12
HETATM   12  C13 UNL     1       4.446   7.396  14.959  1.00  0.00    -0.017 C 
HETATM   13  C14 UNL     1       6.065   7.328  14.064  1.00  0.00     0.057 C 
BRANCH  12  14
HETATM   14  C12 UNL     1       4.940   6.699  15.828  1.00  0.00    -0.122 C 
BRANCH  14  15
HETATM   15  C11 UNL     1       5.225   5.943  16.999  1.00  0.00     0.054 C 
HETATM   16  C10 UNL     1       4.388   6.352  18.031  1.00  0.00     0.014 C 
BRANCH  16  17
HETATM   17  C9  UNL     1       4.318   5.889  19.374  1.00  0.00     0.155 C 
HETATM   18  C7  UNL     1       2.934   5.787  19.919  1.00  0.00     0.018 C 
HETATM   19  C6  UNL     1       2.830   6.013  21.402  1.00  0.00     0.036 C 
HETATM   20  C8  UNL     1       2.423   4.390  19.590  1.00  0.00     0.013 C 
HETATM   21  C5  UNL     1       4.098   6.221  22.110  1.00  0.00     0.006 C 
HETATM   22  C4  UNL     1       5.216   6.594  21.542  1.00  0.00     0.043 C 
HETATM   23  O4  UNL     1       5.140   6.774  20.159  1.00  0.00    -0.346 OA
BRANCH  22  24
HETATM   24  C3  UNL     1       6.525   6.847  22.158  1.00  0.00     0.064 C 
BRANCH  24  25
HETATM   25  C2  UNL     1       6.536   7.697  23.381  1.00  0.00     0.002 C 
HETATM   26  C1  UNL     1       7.668   7.341  24.299  1.00  0.00     0.005 C 
ENDBRANCH  24  25
ENDBRANCH  22  24
ENDBRANCH  16  17
ENDBRANCH  14  15
ENDBRANCH  12  14
ENDBRANCH  11  12
ENDBRANCH  10  11
ENDBRANCH   1  10
BRANCH   4  27
HETATM   27  O1  UNL     1       2.409  11.944  18.207  1.00  0.00    -0.384 OA
ATOM     28  H1  UNL     1       2.471  12.858  18.458  1.00  0.00     0.211 HD
ENDBRANCH   4  27
BRANCH   4  29
HETATM   29  C21 UNL     1       4.569  11.895  17.348  1.00  0.00     0.070 C 
BRANCH  29  30
HETATM   30  C22 UNL     1       4.896  11.518  18.742  1.00  0.00    -0.021 C 
HETATM   31  C23 UNL     1       5.589  10.467  19.126  1.00  0.00    -0.091 C 
HETATM   32  C24 UNL     1       5.816  10.239  20.593  1.00  0.00     0.042 C 
HETATM   33  C25 UNL     1       6.210   9.454  18.218  1.00  0.00     0.042 C 
ENDBRANCH  29  30
ENDBRANCH   4  29
BRANCH   7  34
HETATM   34  O2  UNL     1       2.143  12.899  13.706  1.00  0.00    -0.387 OA
ATOM     35  H2  UNL     1       2.218  13.768  13.328  1.00  0.00     0.210 HD
ENDBRANCH   7  34
TORSDOF 12
ENDMDL
MODEL 3
REMARK VINA RESULT: -8.071634185      1.892      6.042
REMARK  12 active torsions:
REMARK  status: ('A' for Active; 'I' for Inactive)
REMARK    1  A    between atoms: C2_2  and  C3_3 
REMARK    2  A    between atoms: C3_3  and  C4_4 
REMARK    3  A    between atoms: C9_9  and  C10_10 
REMARK    4  A    between atoms: C11_11  and  C12_12 
REMARK    5  A    between atoms: C12_12  and  C13_13 
REMARK    6  A    between atoms: C13_13  and  C15_15 
REMARK    7  A    between atoms: C15_15  and  C16_16 
REMARK    8  A    between atoms: C16_16  and  C17_17 
REMARK    9  A    between atoms: C20_20  and  O1_21 
REMARK   10  A    between atoms: C20_20  and  C21_23 
REMARK   11  A    between atoms: C21_23  and  C22_24 
REMARK   12  A    between atoms: C28_30  and  O2_31 
ROOT
HETATM    1  C17 UNL     1       6.565   8.390  20.979  1.00  0.00     0.017 C 
HETATM    2  C18 UNL     1       6.839   8.027  19.612  1.00  0.00    -0.035 C 
HETATM    3  C19 UNL     1       7.676   6.918  19.313  1.00  0.00     0.048 C 
HETATM    4  C20 UNL     1       6.147   8.933  18.652  1.00  0.00     0.091 C 
HETATM    5  C26 UNL     1       6.402  10.336  19.130  1.00  0.00     0.057 C 
HETATM    6  C27 UNL     1       6.305  11.404  18.092  1.00  0.00     0.016 C 
HETATM    7  C28 UNL     1       5.759  10.727  20.432  1.00  0.00     0.199 C 
HETATM    8  C29 UNL     1       5.632   9.435  21.219  1.00  0.00     0.188 C 
HETATM    9  O3  UNL     1       4.745   9.279  22.052  1.00  0.00    -0.289 OA
ENDROOT
BRANCH   1  10
HETATM   10  C16 UNL     1       7.208   7.557  21.869  1.00  0.00     0.017 C 
BRANCH  10  11
HETATM   11  C15 UNL     1       6.592   6.998  23.037  1.00  0.00     0.016 C 
BRANCH  11  12
HETATM   12  C13 UNL     1       5.475   6.388  22.666  1.00  0.00    -0.017 C 
HETATM   13  C14 UNL     1       4.717   6.635  24.336  1.00  0.00     0.057 C 
BRANCH  12  14
HETATM   14  C12 UNL     1       4.449   5.828  22.324  1.00  0.00    -0.122 C 
BRANCH  14  15
HETATM   15  C11 UNL     1       3.211   5.449  21.735  1.00  0.00     0.054 C 
HETATM   16  C10 UNL     1       2.976   6.225  20.606  1.00  0.00     0.014 C 
BRANCH  16  17
HETATM   17  C9  UNL     1       1.871   6.206  19.710  1.00  0.00     0.155 C 
HETATM   18  C7  UNL     1       1.845   5.034  18.789  1.00  0.00     0.018 C 
HETATM   19  C6  UNL     1       1.207   5.305  17.455  1.00  0.00     0.036 C 
HETATM   20  C8  UNL     1       1.074   3.925  19.494  1.00  0.00     0.013 C 
HETATM   21  C5  UNL     1       0.635   6.644  17.276  1.00  0.00     0.006 C 
HETATM   22  C4  UNL     1       0.956   7.693  17.991  1.00  0.00     0.043 C 
HETATM   23  O4  UNL     1       1.901   7.454  18.991  1.00  0.00    -0.346 OA
BRANCH  22  24
HETATM   24  C3  UNL     1       0.461   9.071  17.882  1.00  0.00     0.064 C 
BRANCH  24  25
HETATM   25  C2  UNL     1       1.447  10.104  17.460  1.00  0.00     0.002 C 
HETATM   26  C1  UNL     1       1.956  10.901  18.625  1.00  0.00     0.005 C 
ENDBRANCH  24  25
ENDBRANCH  22  24
ENDBRANCH  16  17
ENDBRANCH  14  15
ENDBRANCH  12  14
ENDBRANCH  11  12
ENDBRANCH  10  11
ENDBRANCH   1  10
BRANCH   4  27
HETATM   27  O1  UNL     1       6.794   8.838  17.400  1.00  0.00    -0.384 OA
ATOM     28  H1  UNL     1       6.642   7.969  17.047  1.00  0.00     0.211 HD
ENDBRANCH   4  27
BRANCH   4  29
HETATM   29  C21 UNL     1       4.753   8.488  18.457  1.00  0.00     0.070 C 
BRANCH  29  30
HETATM   30  C22 UNL     1       4.391   8.254  17.041  1.00  0.00    -0.021 C 
HETATM   31  C23 UNL     1       4.417   7.102  16.407  1.00  0.00    -0.091 C 
HETATM   32  C24 UNL     1       4.021   7.056  14.959  1.00  0.00     0.042 C 
HETATM   33  C25 UNL     1       4.794   5.785  17.008  1.00  0.00     0.042 C 
ENDBRANCH  29  30
ENDBRANCH   4  29
BRANCH   7  34
HETATM   34  O2  UNL     1       6.675  11.538  21.134  1.00  0.00    -0.387 OA
ATOM     35  H2  UNL     1       7.474  11.036  21.249  1.00  0.00     0.210 HD
ENDBRANCH   7  34
TORSDOF 12
ENDMDL
MODEL 4
REMARK VINA RESULT: -8.015399723      1.695      5.172
REMARK  12 active torsions:
REMARK  status: ('A' for Active; 'I' for Inactive)
REMARK    1  A    between atoms: C2_2  and  C3_3 
REMARK    2  A    between atoms: C3_3  and  C4_4 
REMARK    3  A    between atoms: C9_9  and  C10_10 
REMARK    4  A    between atoms: C11_11  and  C12_12 
REMARK    5  A    between atoms: C12_12  and  C13_13 
REMARK    6  A    between atoms: C13_13  and  C15_15 
REMARK    7  A    between atoms: C15_15  and  C16_16 
REMARK    8  A    between atoms: C16_16  and  C17_17 
REMARK    9  A    between atoms: C20_20  and  O1_21 
REMARK   10  A    between atoms: C20_20  and  C21_23 
REMARK   11  A    between atoms: C21_23  and  C22_24 
REMARK   12  A    between atoms: C28_30  and  O2_31 
ROOT
HETATM    1  C17 UNL     1       3.928  10.148  15.570  1.00  0.00     0.017 C 
HETATM    2  C18 UNL     1       4.302   8.800  15.916  1.00  0.00    -0.035 C 
HETATM    3  C19 UNL     1       5.485   8.548  16.662  1.00  0.00     0.048 C 
HETATM    4  C20 UNL     1       3.314   7.807  15.406  1.00  0.00     0.091 C 
HETATM    5  C26 UNL     1       3.041   8.173  13.974  1.00  0.00     0.057 C 
HETATM    6  C27 UNL     1       2.546   7.067  13.102  1.00  0.00     0.016 C 
HETATM    7  C28 UNL     1       2.313   9.469  13.742  1.00  0.00     0.199 C 
HETATM    8  C29 UNL     1       2.679  10.350  14.922  1.00  0.00     0.188 C 
HETATM    9  O3  UNL     1       1.920  11.227  15.325  1.00  0.00    -0.289 OA
ENDROOT
BRANCH   1  10
HETATM   10  C16 UNL     1       4.842  11.068  16.035  1.00  0.00     0.017 C 
BRANCH  10  11
HETATM   11  C15 UNL     1       4.550  12.063  17.025  1.00  0.00     0.016 C 
BRANCH  11  12
HETATM   12  C13 UNL     1       4.523  11.471  18.211  1.00  0.00    -0.017 C 
HETATM   13  C14 UNL     1       2.901  12.259  18.631  1.00  0.00     0.057 C 
BRANCH  12  14
HETATM   14  C12 UNL     1       4.498  10.928  19.301  1.00  0.00    -0.122 C 
BRANCH  14  15
HETATM   15  C11 UNL     1       4.507  10.014  20.391  1.00  0.00     0.054 C 
HETATM   16  C10 UNL     1       4.643   8.717  19.908  1.00  0.00     0.014 C 
BRANCH  16  17
HETATM   17  C9  UNL     1       4.692   7.487  20.622  1.00  0.00     0.155 C 
HETATM   18  C7  UNL     1       3.659   6.494  20.210  1.00  0.00     0.018 C 
HETATM   19  C6  UNL     1       3.206   5.574  21.310  1.00  0.00     0.036 C 
HETATM   20  C8  UNL     1       4.257   5.666  19.080  1.00  0.00     0.013 C 
HETATM   21  C5  UNL     1       3.893   5.726  22.597  1.00  0.00     0.006 C 
HETATM   22  C4  UNL     1       4.555   6.792  22.968  1.00  0.00     0.043 C 
HETATM   23  O4  UNL     1       4.592   7.818  22.020  1.00  0.00    -0.346 OA
BRANCH  22  24
HETATM   24  C3  UNL     1       5.256   7.051  24.232  1.00  0.00     0.064 C 
BRANCH  24  25
HETATM   25  C2  UNL     1       6.512   7.846  24.149  1.00  0.00     0.002 C 
HETATM   26  C1  UNL     1       7.732   6.975  24.225  1.00  0.00     0.005 C 
ENDBRANCH  24  25
ENDBRANCH  22  24
ENDBRANCH  16  17
ENDBRANCH  14  15
ENDBRANCH  12  14
ENDBRANCH  11  12
ENDBRANCH  10  11
ENDBRANCH   1  10
BRANCH   4  27
HETATM   27  O1  UNL     1       3.938   6.540  15.358  1.00  0.00    -0.384 OA
ATOM     28  H1  UNL     1       3.307   5.883  15.630  1.00  0.00     0.211 HD
ENDBRANCH   4  27
BRANCH   4  29
HETATM   29  C21 UNL     1       2.180   7.699  16.344  1.00  0.00     0.070 C 
BRANCH  29  30
HETATM   30  C22 UNL     1       1.870   6.311  16.753  1.00  0.00    -0.021 C 
HETATM   31  C23 UNL     1       1.015   5.942  17.683  1.00  0.00    -0.091 C 
HETATM   32  C24 UNL     1       0.835   4.479  17.969  1.00  0.00     0.042 C 
HETATM   33  C25 UNL     1       0.162   6.862  18.497  1.00  0.00     0.042 C 
ENDBRANCH  29  30
ENDBRANCH   4  29
BRANCH   7  34
HETATM   34  O2  UNL     1       2.874  10.075  12.598  1.00  0.00    -0.387 OA
ATOM     35  H2  UNL     1       2.270  10.746  12.303  1.00  0.00     0.210 HD
ENDBRANCH   7  34
TORSDOF 12
ENDMDL
MODEL 5
REMARK VINA RESULT: -7.958327526      1.619      5.132
REMARK  12 active torsions:
REMARK  status: ('A' for Active; 'I' for Inactive)
REMARK    1  A    between atoms: C2_2  and  C3_3 
REMARK    2  A    between atoms: C3_3  and  C4_4 
REMARK    3  A    between atoms: C9_9  and  C10_10 
REMARK    4  A    between atoms: C11_11  and  C12_12 
REMARK    5  A    between atoms: C12_12  and  C13_13 
REMARK    6  A    between atoms: C13_13  and  C15_15 
REMARK    7  A    between atoms: C15_15  and  C16_16 
REMARK    8  A    between atoms: C16_16  and  C17_17 
REMARK    9  A    between atoms: C20_20  and  O1_21 
REMARK   10  A    between atoms: C20_20  and  C21_23 
REMARK   11  A    between atoms: C21_23  and  C22_24 
REMARK   12  A    between atoms: C28_30  and  O2_31 
ROOT
HETATM    1  C17 UNL     1       2.313   9.887  16.555  1.00  0.00     0.017 C 
HETATM    2  C18 UNL     1       2.898   8.644  16.122  1.00  0.00    -0.035 C 
HETATM    3  C19 UNL     1       3.570   8.559  14.872  1.00  0.00     0.048 C 
HETATM    4  C20 UNL     1       2.699   7.562  17.127  1.00  0.00     0.091 C 
HETATM    5  C26 UNL     1       1.253   7.618  17.534  1.00  0.00     0.057 C 
HETATM    6  C27 UNL     1       0.681   6.351  18.078  1.00  0.00     0.016 C 
HETATM    7  C28 UNL     1       0.822   8.833  18.308  1.00  0.00     0.199 C 
HETATM    8  C29 UNL     1       1.753   9.944  17.860  1.00  0.00     0.188 C 
HETATM    9  O3  UNL     1       2.030  10.883  18.600  1.00  0.00    -0.289 OA
ENDROOT
BRANCH   1  10
HETATM   10  C16 UNL     1       2.490  10.888  15.624  1.00  0.00     0.017 C 
BRANCH  10  11
HETATM   11  C15 UNL     1       3.170  12.122  15.889  1.00  0.00     0.016 C 
BRANCH  11  12
HETATM   12  C13 UNL     1       4.195  11.866  16.690  1.00  0.00    -0.017 C 
HETATM   13  C14 UNL     1       5.337  12.887  15.649  1.00  0.00     0.057 C 
BRANCH  12  14
HETATM   14  C12 UNL     1       5.138  11.630  17.425  1.00  0.00    -0.122 C 
BRANCH  14  15
HETATM   15  C11 UNL     1       6.036  11.113  18.399  1.00  0.00     0.054 C 
HETATM   16  C10 UNL     1       5.314  10.481  19.406  1.00  0.00     0.014 C 
BRANCH  16  17
HETATM   17  C9  UNL     1       5.784   9.830  20.581  1.00  0.00     0.155 C 
HETATM   18  C7  UNL     1       7.149   9.243  20.457  1.00  0.00     0.018 C 
HETATM   19  C6  UNL     1       7.379   8.019  21.299  1.00  0.00     0.036 C 
HETATM   20  C8  UNL     1       8.142  10.324  20.863  1.00  0.00     0.013 C 
HETATM   21  C5  UNL     1       6.271   7.625  22.176  1.00  0.00     0.006 C 
HETATM   22  C4  UNL     1       5.026   7.993  22.014  1.00  0.00     0.043 C 
HETATM   23  O4  UNL     1       4.800   8.835  20.923  1.00  0.00    -0.346 OA
BRANCH  22  24
HETATM   24  C3  UNL     1       3.847   7.641  22.816  1.00  0.00     0.064 C 
BRANCH  24  25
HETATM   25  C2  UNL     1       3.390   6.226  22.749  1.00  0.00     0.002 C 
HETATM   26  C1  UNL     1       3.094   5.799  21.341  1.00  0.00     0.005 C 
ENDBRANCH  24  25
ENDBRANCH  22  24
ENDBRANCH  16  17
ENDBRANCH  14  15
ENDBRANCH  12  14
ENDBRANCH  11  12
ENDBRANCH  10  11
ENDBRANCH   1  10
BRANCH   4  27
HETATM   27  O1  UNL     1       2.861   6.315  16.482  1.00  0.00    -0.384 OA
ATOM     28  H1  UNL     1       2.606   5.628  17.087  1.00  0.00     0.211 HD
ENDBRANCH   4  27
BRANCH   4  29
HETATM   29  C21 UNL     1       3.738   7.650  18.172  1.00  0.00     0.070 C 
BRANCH  29  30
HETATM   30  C22 UNL     1       4.798   6.623  18.052  1.00  0.00    -0.021 C 
HETATM   31  C23 UNL     1       5.990   6.788  17.521  1.00  0.00    -0.091 C 
HETATM   32  C24 UNL     1       6.938   5.624  17.479  1.00  0.00     0.042 C 
HETATM   33  C25 UNL     1       6.523   8.066  16.955  1.00  0.00     0.042 C 
ENDBRANCH  29  30
ENDBRANCH   4  29
BRANCH   7  34
HETATM   34  O2  UNL     1      -0.470   9.186  17.864  1.00  0.00    -0.387 OA
ATOM     35  H2  UNL     1      -0.589  10.113  18.036  1.00  0.00     0.210 HD
ENDBRANCH   7  34
TORSDOF 12
ENDMDL
