MODEL 1
REMARK VINA RESULT: -9.151714927      0.000      0.000
REMARK  10 active torsions:
REMARK  status: ('A' for Active; 'I' for Inactive)
REMARK    1  A    between atoms: C9_9  and  O1_10 
REMARK    2  A    between atoms: C14_16  and  C15_17 
REMARK    3  A    between atoms: C15_17  and  C16_19 
REMARK    4  A    between atoms: C16_19  and  O3_20 
REMARK    5  A    between atoms: O3_20  and  C17_21 
REMARK    6  A    between atoms: C17_21  and  C18_23 
REMARK    7  A    between atoms: C19_24  and  C20_25 
REMARK    8  A    between atoms: C20_25  and  C21_26 
REMARK    9  A    between atoms: C21_26  and  C22_27 
REMARK   10  A    between atoms: C22_27  and  C23_28 
ROOT
HETATM    1  C1  UNL     1      -0.155   7.293  18.162  1.00  0.00     0.014 C 
HETATM    2  C2  UNL     1       0.999   7.385  17.504  1.00  0.00    -0.085 C 
HETATM    3  C3  UNL     1       1.442   6.489  16.410  1.00  0.00     0.034 C 
HETATM    4  C4  UNL     1       2.926   6.602  16.360  1.00  0.00     0.010 C 
HETATM    5  C5  UNL     1       3.331   7.526  17.529  1.00  0.00     0.002 C 
HETATM    6  C6  UNL     1       2.098   8.372  17.687  1.00  0.00     0.018 C 
HETATM    7  C7  UNL     1       1.945   9.472  16.718  1.00  0.00     0.012 C 
HETATM    8  C8  UNL     1       3.199   9.961  16.098  1.00  0.00     0.039 C 
HETATM    9  C9  UNL     1       4.452   9.707  16.900  1.00  0.00     0.062 C 
HETATM   10  C10 UNL     1       4.518  10.655  18.048  1.00  0.00     0.039 C 
HETATM   11  C11 UNL     1       5.766  10.468  18.891  1.00  0.00     0.013 C 
HETATM   12  C12 UNL     1       5.882   9.060  19.319  1.00  0.00    -0.026 C 
HETATM   13  C13 UNL     1       4.893   8.816  20.437  1.00  0.00     0.016 C 
HETATM   14  C14 UNL     1       7.228   8.631  19.834  1.00  0.00     0.066 C 
HETATM   15  C25 UNL     1       7.030   7.125  19.902  1.00  0.00     0.014 C 
HETATM   16  C26 UNL     1       5.891   6.792  18.922  1.00  0.00     0.011 C 
HETATM   17  C27 UNL     1       5.733   8.077  18.185  1.00  0.00    -0.029 C 
HETATM   18  C28 UNL     1       7.015   8.200  17.338  1.00  0.00     0.016 C 
HETATM   19  C29 UNL     1       4.602   8.243  17.273  1.00  0.00     0.034 C 
ENDROOT
BRANCH  14  20
HETATM   20  C15 UNL     1       7.618   9.210  21.131  1.00  0.00     0.155 C 
HETATM   21  O2  UNL     1       7.870  10.393  21.211  1.00  0.00    -0.295 OA
BRANCH  20  22
HETATM   22  C16 UNL     1       7.704   8.359  22.329  1.00  0.00     0.257 C 
BRANCH  22  23
HETATM   23  O3  UNL     1       6.501   8.400  23.039  1.00  0.00    -0.311 OA
BRANCH  23  24
HETATM   24  C17 UNL     1       5.974   7.239  23.673  1.00  0.00     0.282 C 
HETATM   25  O4  UNL     1       6.829   6.384  23.935  1.00  0.00    -0.260 OA
BRANCH  24  26
HETATM   26  C18 UNL     1       4.556   7.157  23.946  1.00  0.00     0.078 C 
HETATM   27  C19 UNL     1       3.709   6.505  23.214  1.00  0.00    -0.021 C 
BRANCH  27  28
HETATM   28  C20 UNL     1       3.937   5.730  22.007  1.00  0.00     0.027 C 
BRANCH  28  29
HETATM   29  C21 UNL     1       2.853   6.010  20.955  1.00  0.00     0.004 C 
BRANCH  29  30
HETATM   30  C22 UNL     1       2.865   4.912  19.932  1.00  0.00    -0.000 C 
BRANCH  30  31
HETATM   31  C23 UNL     1       1.515   4.271  19.732  1.00  0.00    -0.005 C 
HETATM   32  C24 UNL     1       1.467   3.609  18.364  1.00  0.00     0.005 C 
ENDBRANCH  30  31
ENDBRANCH  29  30
ENDBRANCH  28  29
ENDBRANCH  27  28
ENDBRANCH  24  26
ENDBRANCH  23  24
ENDBRANCH  22  23
ENDBRANCH  20  22
ENDBRANCH  14  20
BRANCH   9  33
HETATM   33  O1  UNL     1       5.499  10.093  16.021  1.00  0.00    -0.389 OA
ATOM     34  H1  UNL     1       6.284   9.773  16.450  1.00  0.00     0.210 HD
ENDBRANCH   9  33
TORSDOF 10
ENDMDL
MODEL 2
REMARK VINA RESULT: -8.398823601      2.492      6.297
REMARK  10 active torsions:
REMARK  status: ('A' for Active; 'I' for Inactive)
REMARK    1  A    between atoms: C9_9  and  O1_10 
REMARK    2  A    between atoms: C14_16  and  C15_17 
REMARK    3  A    between atoms: C15_17  and  C16_19 
REMARK    4  A    between atoms: C16_19  and  O3_20 
REMARK    5  A    between atoms: O3_20  and  C17_21 
REMARK    6  A    between atoms: C17_21  and  C18_23 
REMARK    7  A    between atoms: C19_24  and  C20_25 
REMARK    8  A    between atoms: C20_25  and  C21_26 
REMARK    9  A    between atoms: C21_26  and  C22_27 
REMARK   10  A    between atoms: C22_27  and  C23_28 
ROOT
HETATM    1  C1  UNL     1       7.024   6.541  20.973  1.00  0.00     0.014 C 
HETATM    2  C2  UNL     1       6.234   7.612  21.023  1.00  0.00    -0.085 C 
HETATM    3  C3  UNL     1       5.149   7.839  22.007  1.00  0.00     0.034 C 
HETATM    4  C4  UNL     1       4.227   8.827  21.384  1.00  0.00     0.010 C 
HETATM    5  C5  UNL     1       4.768   9.091  19.962  1.00  0.00     0.002 C 
HETATM    6  C6  UNL     1       6.234   8.811  20.140  1.00  0.00     0.018 C 
HETATM    7  C7  UNL     1       7.022   9.888  20.765  1.00  0.00     0.012 C 
HETATM    8  C8  UNL     1       6.459  11.252  20.638  1.00  0.00     0.039 C 
HETATM    9  C9  UNL     1       5.527  11.455  19.468  1.00  0.00     0.062 C 
HETATM   10  C10 UNL     1       6.312  11.539  18.204  1.00  0.00     0.039 C 
HETATM   11  C11 UNL     1       5.436  11.761  16.984  1.00  0.00     0.013 C 
HETATM   12  C12 UNL     1       4.383  10.728  16.923  1.00  0.00    -0.026 C 
HETATM   13  C13 UNL     1       5.007   9.436  16.442  1.00  0.00     0.016 C 
HETATM   14  C14 UNL     1       3.226  11.013  16.007  1.00  0.00     0.066 C 
HETATM   15  C25 UNL     1       2.270   9.904  16.416  1.00  0.00     0.014 C 
HETATM   16  C26 UNL     1       2.677   9.484  17.840  1.00  0.00     0.011 C 
HETATM   17  C27 UNL     1       3.630  10.564  18.219  1.00  0.00    -0.029 C 
HETATM   18  C28 UNL     1       2.754  11.823  18.369  1.00  0.00     0.016 C 
HETATM   19  C29 UNL     1       4.403  10.433  19.454  1.00  0.00     0.034 C 
ENDROOT
BRANCH  14  20
HETATM   20  C15 UNL     1       3.542  10.986  14.568  1.00  0.00     0.155 C 
HETATM   21  O2  UNL     1       4.380  11.739  14.121  1.00  0.00    -0.295 OA
BRANCH  20  22
HETATM   22  C16 UNL     1       2.844  10.050  13.672  1.00  0.00     0.257 C 
BRANCH  22  23
HETATM   23  O3  UNL     1       3.756   9.160  13.097  1.00  0.00    -0.311 OA
BRANCH  23  24
HETATM   24  C17 UNL     1       3.779   7.783  13.463  1.00  0.00     0.282 C 
HETATM   25  O4  UNL     1       4.889   7.253  13.332  1.00  0.00    -0.260 OA
BRANCH  24  26
HETATM   26  C18 UNL     1       2.568   7.151  13.934  1.00  0.00     0.078 C 
HETATM   27  C19 UNL     1       2.462   6.525  15.063  1.00  0.00    -0.021 C 
BRANCH  27  28
HETATM   28  C20 UNL     1       3.463   6.307  16.094  1.00  0.00     0.027 C 
BRANCH  28  29
HETATM   29  C21 UNL     1       2.897   5.464  17.247  1.00  0.00     0.004 C 
BRANCH  29  30
HETATM   30  C22 UNL     1       3.501   5.929  18.540  1.00  0.00    -0.000 C 
BRANCH  30  31
HETATM   31  C23 UNL     1       2.478   6.161  19.623  1.00  0.00    -0.005 C 
HETATM   32  C24 UNL     1       2.848   5.343  20.850  1.00  0.00     0.005 C 
ENDBRANCH  30  31
ENDBRANCH  29  30
ENDBRANCH  28  29
ENDBRANCH  27  28
ENDBRANCH  24  26
ENDBRANCH  23  24
ENDBRANCH  22  23
ENDBRANCH  20  22
ENDBRANCH  14  20
BRANCH   9  33
HETATM   33  O1  UNL     1       4.996  12.755  19.681  1.00  0.00    -0.389 OA
ATOM     34  H1  UNL     1       4.660  13.004  18.828  1.00  0.00     0.210 HD
ENDBRANCH   9  33
TORSDOF 10
ENDMDL
MODEL 3
REMARK VINA RESULT: -8.192553740      1.865      3.003
REMARK  10 active torsions:
REMARK  status: ('A' for Active; 'I' for Inactive)
REMARK    1  A    between atoms: C9_9  and  O1_10 
REMARK    2  A    between atoms: C14_16  and  C15_17 
REMARK    3  A    between atoms: C15_17  and  C16_19 
REMARK    4  A    between atoms: C16_19  and  O3_20 
REMARK    5  A    between atoms: O3_20  and  C17_21 
REMARK    6  A    between atoms: C17_21  and  C18_23 
REMARK    7  A    between atoms: C19_24  and  C20_25 
REMARK    8  A    between atoms: C20_25  and  C21_26 
REMARK    9  A    between atoms: C21_26  and  C22_27 
REMARK   10  A    between atoms: C22_27  and  C23_28 
ROOT
HETATM    1  C1  UNL     1       2.916   9.460  12.714  1.00  0.00     0.014 C 
HETATM    2  C2  UNL     1       3.273   8.500  13.565  1.00  0.00    -0.085 C 
HETATM    3  C3  UNL     1       2.503   7.264  13.845  1.00  0.00     0.034 C 
HETATM    4  C4  UNL     1       2.957   6.788  15.180  1.00  0.00     0.010 C 
HETATM    5  C5  UNL     1       3.950   7.848  15.705  1.00  0.00     0.002 C 
HETATM    6  C6  UNL     1       4.487   8.420  14.422  1.00  0.00     0.018 C 
HETATM    7  C7  UNL     1       5.521   7.618  13.744  1.00  0.00     0.012 C 
HETATM    8  C8  UNL     1       6.287   6.693  14.612  1.00  0.00     0.039 C 
HETATM    9  C9  UNL     1       6.332   7.072  16.073  1.00  0.00     0.062 C 
HETATM   10  C10 UNL     1       7.269   8.214  16.270  1.00  0.00     0.039 C 
HETATM   11  C11 UNL     1       7.377   8.638  17.724  1.00  0.00     0.013 C 
HETATM   12  C12 UNL     1       6.034   8.913  18.272  1.00  0.00    -0.026 C 
HETATM   13  C13 UNL     1       5.568  10.253  17.745  1.00  0.00     0.016 C 
HETATM   14  C14 UNL     1       5.928   8.979  19.770  1.00  0.00     0.066 C 
HETATM   15  C25 UNL     1       4.417   8.997  19.940  1.00  0.00     0.014 C 
HETATM   16  C26 UNL     1       3.830   8.375  18.661  1.00  0.00     0.011 C 
HETATM   17  C27 UNL     1       5.043   7.807  18.009  1.00  0.00    -0.029 C 
HETATM   18  C28 UNL     1       5.460   6.632  18.914  1.00  0.00     0.016 C 
HETATM   19  C29 UNL     1       4.942   7.281  16.648  1.00  0.00     0.034 C 
ENDROOT
BRANCH  14  20
HETATM   20  C15 UNL     1       6.583  10.142  20.395  1.00  0.00     0.155 C 
HETATM   21  O2  UNL     1       6.127  11.252  20.227  1.00  0.00    -0.295 OA
BRANCH  20  22
HETATM   22  C16 UNL     1       7.788   9.961  21.221  1.00  0.00     0.257 C 
BRANCH  22  23
HETATM   23  O3  UNL     1       8.051   8.600  21.402  1.00  0.00    -0.311 OA
BRANCH  23  24
HETATM   24  C17 UNL     1       7.605   7.907  22.564  1.00  0.00     0.282 C 
HETATM   25  O4  UNL     1       7.829   8.511  23.619  1.00  0.00    -0.260 OA
BRANCH  24  26
HETATM   26  C18 UNL     1       6.960   6.621  22.422  1.00  0.00     0.078 C 
HETATM   27  C19 UNL     1       5.709   6.401  22.676  1.00  0.00    -0.021 C 
BRANCH  27  28
HETATM   28  C20 UNL     1       4.684   7.322  23.137  1.00  0.00     0.027 C 
BRANCH  28  29
HETATM   29  C21 UNL     1       3.278   6.791  22.822  1.00  0.00     0.004 C 
BRANCH  29  30
HETATM   30  C22 UNL     1       3.389   5.643  21.861  1.00  0.00    -0.000 C 
BRANCH  30  31
HETATM   31  C23 UNL     1       2.564   5.830  20.613  1.00  0.00    -0.005 C 
HETATM   32  C24 UNL     1       2.352   4.484  19.941  1.00  0.00     0.005 C 
ENDBRANCH  30  31
ENDBRANCH  29  30
ENDBRANCH  28  29
ENDBRANCH  27  28
ENDBRANCH  24  26
ENDBRANCH  23  24
ENDBRANCH  22  23
ENDBRANCH  20  22
ENDBRANCH  14  20
BRANCH   9  33
HETATM   33  O1  UNL     1       6.949   5.953  16.693  1.00  0.00    -0.389 OA
ATOM     34  H1  UNL     1       6.263   5.594  17.243  1.00  0.00     0.210 HD
ENDBRANCH   9  33
TORSDOF 10
ENDMDL
MODEL 4
REMARK VINA RESULT: -8.085580142      1.878      3.343
REMARK  10 active torsions:
REMARK  status: ('A' for Active; 'I' for Inactive)
REMARK    1  A    between atoms: C9_9  and  O1_10 
REMARK    2  A    between atoms: C14_16  and  C15_17 
REMARK    3  A    between atoms: C15_17  and  C16_19 
REMARK    4  A    between atoms: C16_19  and  O3_20 
REMARK    5  A    between atoms: O3_20  and  C17_21 
REMARK    6  A    between atoms: C17_21  and  C18_23 
REMARK    7  A    between atoms: C19_24  and  C20_25 
REMARK    8  A    between atoms: C20_25  and  C21_26 
REMARK    9  A    between atoms: C21_26  and  C22_27 
REMARK   10  A    between atoms: C22_27  and  C23_28 
ROOT
HETATM    1  C1  UNL     1       6.181   7.281  13.177  1.00  0.00     0.014 C 
HETATM    2  C2  UNL     1       5.158   7.943  13.715  1.00  0.00    -0.085 C 
HETATM    3  C3  UNL     1       4.316   8.944  13.018  1.00  0.00     0.034 C 
HETATM    4  C4  UNL     1       3.702   9.781  14.085  1.00  0.00     0.010 C 
HETATM    5  C5  UNL     1       4.296   9.285  15.422  1.00  0.00     0.002 C 
HETATM    6  C6  UNL     1       4.616   7.852  15.098  1.00  0.00     0.018 C 
HETATM    7  C7  UNL     1       3.476   6.918  15.125  1.00  0.00     0.012 C 
HETATM    8  C8  UNL     1       2.327   7.331  15.965  1.00  0.00     0.039 C 
HETATM    9  C9  UNL     1       2.661   8.293  17.079  1.00  0.00     0.062 C 
HETATM   10  C10 UNL     1       3.351   7.567  18.183  1.00  0.00     0.039 C 
HETATM   11  C11 UNL     1       3.701   8.473  19.350  1.00  0.00     0.013 C 
HETATM   12  C12 UNL     1       4.474   9.637  18.873  1.00  0.00    -0.026 C 
HETATM   13  C13 UNL     1       5.890   9.186  18.586  1.00  0.00     0.016 C 
HETATM   14  C14 UNL     1       4.576  10.800  19.820  1.00  0.00     0.066 C 
HETATM   15  C25 UNL     1       5.177  11.852  18.902  1.00  0.00     0.014 C 
HETATM   16  C26 UNL     1       4.829  11.424  17.465  1.00  0.00     0.011 C 
HETATM   17  C27 UNL     1       3.837  10.337  17.699  1.00  0.00    -0.029 C 
HETATM   18  C28 UNL     1       2.592  11.058  18.253  1.00  0.00     0.016 C 
HETATM   19  C29 UNL     1       3.391   9.523  16.570  1.00  0.00     0.034 C 
ENDROOT
BRANCH  14  20
HETATM   20  C15 UNL     1       5.396  10.561  21.021  1.00  0.00     0.155 C 
HETATM   21  O2  UNL     1       6.457  11.133  21.150  1.00  0.00    -0.295 OA
BRANCH  20  22
HETATM   22  C16 UNL     1       4.934   9.630  22.064  1.00  0.00     0.257 C 
BRANCH  22  23
HETATM   23  O3  UNL     1       5.897   8.643  22.292  1.00  0.00    -0.311 OA
BRANCH  23  24
HETATM   24  C17 UNL     1       5.532   7.338  22.730  1.00  0.00     0.282 C 
HETATM   25  O4  UNL     1       6.475   6.539  22.750  1.00  0.00    -0.260 OA
BRANCH  24  26
HETATM   26  C18 UNL     1       4.160   7.067  23.096  1.00  0.00     0.078 C 
HETATM   27  C19 UNL     1       3.368   6.285  22.433  1.00  0.00    -0.021 C 
BRANCH  27  28
HETATM   28  C20 UNL     1       3.627   5.517  21.227  1.00  0.00     0.027 C 
BRANCH  28  29
HETATM   29  C21 UNL     1       2.316   5.122  20.530  1.00  0.00     0.004 C 
BRANCH  29  30
HETATM   30  C22 UNL     1       2.617   4.131  19.443  1.00  0.00    -0.000 C 
BRANCH  30  31
HETATM   31  C23 UNL     1       1.472   3.938  18.481  1.00  0.00    -0.005 C 
HETATM   32  C24 UNL     1       0.615   5.193  18.458  1.00  0.00     0.005 C 
ENDBRANCH  30  31
ENDBRANCH  29  30
ENDBRANCH  28  29
ENDBRANCH  27  28
ENDBRANCH  24  26
ENDBRANCH  23  24
ENDBRANCH  22  23
ENDBRANCH  20  22
ENDBRANCH  14  20
BRANCH   9  33
HETATM   33  O1  UNL     1       1.391   8.663  17.596  1.00  0.00    -0.389 OA
ATOM     34  H1  UNL     1       1.586   8.984  18.469  1.00  0.00     0.210 HD
ENDBRANCH   9  33
TORSDOF 10
ENDMDL
MODEL 5
REMARK VINA RESULT: -8.056274609      2.638      6.453
REMARK  10 active torsions:
REMARK  status: ('A' for Active; 'I' for Inactive)
REMARK    1  A    between atoms: C9_9  and  O1_10 
REMARK    2  A    between atoms: C14_16  and  C15_17 
REMARK    3  A    between atoms: C15_17  and  C16_19 
REMARK    4  A    between atoms: C16_19  and  O3_20 
REMARK    5  A    between atoms: O3_20  and  C17_21 
REMARK    6  A    between atoms: C17_21  and  C18_23 
REMARK    7  A    between atoms: C19_24  and  C20_25 
REMARK    8  A    between atoms: C20_25  and  C21_26 
REMARK    9  A    between atoms: C21_26  and  C22_27 
REMARK   10  A    between atoms: C22_27  and  C23_28 
ROOT
HETATM    1  C1  UNL     1       7.115   6.573  20.991  1.00  0.00     0.014 C 
HETATM    2  C2  UNL     1       6.313   7.635  21.046  1.00  0.00    -0.085 C 
HETATM    3  C3  UNL     1       5.248   7.861  22.052  1.00  0.00     0.034 C 
HETATM    4  C4  UNL     1       4.298   8.828  21.438  1.00  0.00     0.010 C 
HETATM    5  C5  UNL     1       4.803   9.079  20.000  1.00  0.00     0.002 C 
HETATM    6  C6  UNL     1       6.277   8.821  20.148  1.00  0.00     0.018 C 
HETATM    7  C7  UNL     1       7.065   9.917  20.740  1.00  0.00     0.012 C 
HETATM    8  C8  UNL     1       6.480  11.272  20.608  1.00  0.00     0.039 C 
HETATM    9  C9  UNL     1       5.519  11.446  19.458  1.00  0.00     0.062 C 
HETATM   10  C10 UNL     1       6.273  11.524  18.175  1.00  0.00     0.039 C 
HETATM   11  C11 UNL     1       5.366  11.718  16.973  1.00  0.00     0.013 C 
HETATM   12  C12 UNL     1       4.326  10.671  16.949  1.00  0.00    -0.026 C 
HETATM   13  C13 UNL     1       4.956   9.381  16.472  1.00  0.00     0.016 C 
HETATM   14  C14 UNL     1       3.144  10.929  16.057  1.00  0.00     0.066 C 
HETATM   15  C25 UNL     1       2.212   9.813  16.504  1.00  0.00     0.014 C 
HETATM   16  C26 UNL     1       2.658   9.418  17.923  1.00  0.00     0.011 C 
HETATM   17  C27 UNL     1       3.606  10.515  18.265  1.00  0.00    -0.029 C 
HETATM   18  C28 UNL     1       2.717  11.764  18.419  1.00  0.00     0.016 C 
HETATM   19  C29 UNL     1       4.408  10.410  19.483  1.00  0.00     0.034 C 
ENDROOT
BRANCH  14  20
HETATM   20  C15 UNL     1       3.427  10.887  14.612  1.00  0.00     0.155 C 
HETATM   21  O2  UNL     1       4.331  11.551  14.155  1.00  0.00    -0.295 OA
BRANCH  20  22
HETATM   22  C16 UNL     1       2.616  10.041  13.721  1.00  0.00     0.257 C 
BRANCH  22  23
HETATM   23  O3  UNL     1       3.434   9.147  13.025  1.00  0.00    -0.311 OA
BRANCH  23  24
HETATM   24  C17 UNL     1       3.549   7.784  13.422  1.00  0.00     0.282 C 
HETATM   25  O4  UNL     1       4.623   7.262  13.101  1.00  0.00    -0.260 OA
BRANCH  24  26
HETATM   26  C18 UNL     1       2.458   7.154  14.131  1.00  0.00     0.078 C 
HETATM   27  C19 UNL     1       2.599   6.453  15.211  1.00  0.00    -0.021 C 
BRANCH  27  28
HETATM   28  C20 UNL     1       3.806   6.132  15.953  1.00  0.00     0.027 C 
BRANCH  28  29
HETATM   29  C21 UNL     1       3.503   5.938  17.447  1.00  0.00     0.004 C 
BRANCH  29  30
HETATM   30  C22 UNL     1       4.792   5.955  18.216  1.00  0.00    -0.000 C 
BRANCH  30  31
HETATM   31  C23 UNL     1       5.980   5.523  17.394  1.00  0.00    -0.005 C 
HETATM   32  C24 UNL     1       7.042   6.611  17.431  1.00  0.00     0.005 C 
ENDBRANCH  30  31
ENDBRANCH  29  30
ENDBRANCH  28  29
ENDBRANCH  27  28
ENDBRANCH  24  26
ENDBRANCH  23  24
ENDBRANCH  22  23
ENDBRANCH  20  22
ENDBRANCH  14  20
BRANCH   9  33
HETATM   33  O1  UNL     1       4.976  12.742  19.666  1.00  0.00    -0.389 OA
ATOM     34  H1  UNL     1       4.661  12.714  20.561  1.00  0.00     0.210 HD
ENDBRANCH   9  33
TORSDOF 10
ENDMDL
