MODEL 1
REMARK VINA RESULT: -7.979352444      0.000      0.000
REMARK  6 active torsions:
REMARK  status: ('A' for Active; 'I' for Inactive)
REMARK    1  A    between atoms: N2_6  and  C4_8 
REMARK    2  A    between atoms: C4_8  and  C5_9 
REMARK    3  A    between atoms: C5_9  and  O1_10 
REMARK    4  A    between atoms: N4_15  and  C8_17 
REMARK    5  A    between atoms: C8_17  and  C9_21 
REMARK    6  A    between atoms: C9_21  and  C10_22 
ROOT
HETATM    1  C1  UNL     1     -19.515  16.732 -10.376  1.00  0.00     0.064 C 
HETATM    2  C2  UNL     1     -19.692  18.021 -10.611  1.00  0.00     0.127 A 
HETATM    3  N1  UNL     1     -20.335  18.843  -9.621  1.00  0.00    -0.177 N 
ATOM      4  H1  UNL     1     -20.644  18.410  -8.751  1.00  0.00     0.185 HD
HETATM    5  C3  UNL     1     -20.556  20.231  -9.806  1.00  0.00     0.694 A 
HETATM    6  N2  UNL     1     -21.125  21.007  -8.954  1.00  0.00    -0.223 N 
ATOM      7  H2  UNL     1     -21.238  21.995  -9.181  1.00  0.00     0.177 HD
HETATM    8  N3  UNL     1     -20.103  20.802 -11.054  1.00  0.00    -0.022 N 
ATOM      9  H3  UNL     1     -20.238  21.796 -11.235  1.00  0.00     0.203 HD
HETATM   10  C7  UNL     1     -19.470  19.987 -12.029  1.00  0.00     0.699 A 
HETATM   11  N4  UNL     1     -19.096  20.591 -13.121  1.00  0.00    -0.180 N 
ATOM     12  H4  UNL     1     -19.254  21.589 -13.261  1.00  0.00     0.185 HD
HETATM   13  N7  UNL     1     -19.252  18.593 -11.832  1.00  0.00    -0.176 N 
ATOM     14  H7  UNL     1     -18.794  18.025 -12.545  1.00  0.00     0.185 HD
ENDROOT
BRANCH  11  15
HETATM   15  C8  UNL     1     -18.460  19.792 -14.111  1.00  0.00     0.093 C 
HETATM   16  N5  UNL     1     -19.105  19.554 -15.192  1.00  0.00    -0.388 N 
ATOM     17  H52 UNL     1     -20.046  19.905 -15.372  1.00  0.00     0.157 HD
ATOM     18  H51 UNL     1     -18.648  18.981 -15.902  1.00  0.00     0.157 HD
BRANCH  15  19
HETATM   19  C9  UNL     1     -17.123  19.294 -13.856  1.00  0.00     0.109 C 
BRANCH  19  20
HETATM   20  C10 UNL     1     -15.979  20.165 -14.218  1.00  0.00     0.193 C 
HETATM   21  C11 UNL     1     -15.300  20.879 -13.099  1.00  0.00     0.035 C 
HETATM   22  C12 UNL     1     -13.909  21.109 -13.706  1.00  0.00     0.029 C 
HETATM   23  C13 UNL     1     -13.671  19.829 -14.445  1.00  0.00     0.233 C 
HETATM   24  N6  UNL     1     -14.964  19.444 -14.936  1.00  0.00    -0.070 N 
ATOM     25  H62 UNL     1     -15.107  18.434 -14.899  1.00  0.00     0.277 HD
ATOM     26  H61 UNL     1     -15.046  19.563 -15.946  1.00  0.00     0.277 HD
ENDBRANCH  19  20
ENDBRANCH  15  19
ENDBRANCH  11  15
BRANCH   6  27
HETATM   27  C4  UNL     1     -21.604  20.523  -7.693  1.00  0.00     0.164 C 
BRANCH  27  28
HETATM   28  C5  UNL     1     -22.321  21.624  -6.964  1.00  0.00     0.187 C 
BRANCH  28  29
HETATM   29  O1  UNL     1     -23.652  21.537  -6.823  1.00  0.00    -0.394 OA
HETATM   30  C6  UNL     1     -24.224  20.789  -5.856  1.00  0.00     0.201 C 
ENDBRANCH  28  29
ENDBRANCH  27  28
ENDBRANCH   6  27
TORSDOF 6
ENDMDL
MODEL 2
REMARK VINA RESULT: -7.941203734      0.877      1.054
REMARK  6 active torsions:
REMARK  status: ('A' for Active; 'I' for Inactive)
REMARK    1  A    between atoms: N2_6  and  C4_8 
REMARK    2  A    between atoms: C4_8  and  C5_9 
REMARK    3  A    between atoms: C5_9  and  O1_10 
REMARK    4  A    between atoms: N4_15  and  C8_17 
REMARK    5  A    between atoms: C8_17  and  C9_21 
REMARK    6  A    between atoms: C9_21  and  C10_22 
ROOT
HETATM    1  C1  UNL     1     -19.136  16.899 -10.597  1.00  0.00     0.064 C 
HETATM    2  C2  UNL     1     -19.398  18.170 -10.850  1.00  0.00     0.127 A 
HETATM    3  N1  UNL     1     -20.064  18.970  -9.858  1.00  0.00    -0.177 N 
ATOM      4  H1  UNL     1     -20.322  18.536  -8.972  1.00  0.00     0.185 HD
HETATM    5  C3  UNL     1     -20.376  20.338 -10.061  1.00  0.00     0.694 A 
HETATM    6  N2  UNL     1     -20.968  21.094  -9.207  1.00  0.00    -0.223 N 
ATOM      7  H2  UNL     1     -21.149  22.069  -9.448  1.00  0.00     0.177 HD
HETATM    8  N3  UNL     1     -19.992  20.911 -11.330  1.00  0.00    -0.022 N 
ATOM      9  H3  UNL     1     -20.193  21.892 -11.525  1.00  0.00     0.203 HD
HETATM   10  C7  UNL     1     -19.336  20.118 -12.308  1.00  0.00     0.699 A 
HETATM   11  N4  UNL     1     -19.029  20.723 -13.421  1.00  0.00    -0.180 N 
ATOM     12  H4  UNL     1     -19.251  21.706 -13.573  1.00  0.00     0.185 HD
HETATM   13  N7  UNL     1     -19.027  18.745 -12.092  1.00  0.00    -0.176 N 
ATOM     14  H7  UNL     1     -18.553  18.192 -12.807  1.00  0.00     0.185 HD
ENDROOT
BRANCH  11  15
HETATM   15  C8  UNL     1     -18.370  19.946 -14.413  1.00  0.00     0.093 C 
HETATM   16  N5  UNL     1     -19.055  19.049 -15.021  1.00  0.00    -0.388 N 
ATOM     17  H52 UNL     1     -20.039  18.866 -14.824  1.00  0.00     0.157 HD
ATOM     18  H51 UNL     1     -18.583  18.491 -15.732  1.00  0.00     0.157 HD
BRANCH  15  19
HETATM   19  C9  UNL     1     -16.972  20.205 -14.693  1.00  0.00     0.109 C 
BRANCH  19  20
HETATM   20  C10 UNL     1     -15.981  19.852 -13.650  1.00  0.00     0.193 C 
HETATM   21  C11 UNL     1     -14.727  19.193 -14.112  1.00  0.00     0.035 C 
HETATM   22  C12 UNL     1     -13.768  19.562 -12.971  1.00  0.00     0.029 C 
HETATM   23  C13 UNL     1     -14.173  20.969 -12.661  1.00  0.00     0.233 C 
HETATM   24  N6  UNL     1     -15.593  20.997 -12.871  1.00  0.00    -0.070 N 
ATOM     25  H62 UNL     1     -15.906  21.873 -13.290  1.00  0.00     0.277 HD
ATOM     26  H61 UNL     1     -16.112  21.063 -11.995  1.00  0.00     0.277 HD
ENDBRANCH  19  20
ENDBRANCH  15  19
ENDBRANCH  11  15
BRANCH   6  27
HETATM   27  C4  UNL     1     -21.383  20.606  -7.924  1.00  0.00     0.164 C 
BRANCH  27  28
HETATM   28  C5  UNL     1     -22.166  21.666  -7.205  1.00  0.00     0.187 C 
BRANCH  28  29
HETATM   29  O1  UNL     1     -23.436  21.403  -6.861  1.00  0.00    -0.394 OA
HETATM   30  C6  UNL     1     -23.774  20.309  -6.146  1.00  0.00     0.201 C 
ENDBRANCH  28  29
ENDBRANCH  27  28
ENDBRANCH   6  27
TORSDOF 6
ENDMDL
MODEL 3
REMARK VINA RESULT: -7.805580531      1.202      1.364
REMARK  6 active torsions:
REMARK  status: ('A' for Active; 'I' for Inactive)
REMARK    1  A    between atoms: N2_6  and  C4_8 
REMARK    2  A    between atoms: C4_8  and  C5_9 
REMARK    3  A    between atoms: C5_9  and  O1_10 
REMARK    4  A    between atoms: N4_15  and  C8_17 
REMARK    5  A    between atoms: C8_17  and  C9_21 
REMARK    6  A    between atoms: C9_21  and  C10_22 
ROOT
HETATM    1  C1  UNL     1     -19.162  16.248 -10.332  1.00  0.00     0.064 C 
HETATM    2  C2  UNL     1     -19.698  17.446 -10.500  1.00  0.00     0.127 A 
HETATM    3  N1  UNL     1     -20.693  17.917  -9.576  1.00  0.00    -0.177 N 
ATOM      4  H1  UNL     1     -20.968  17.312  -8.802  1.00  0.00     0.185 HD
HETATM    5  C3  UNL     1     -21.307  19.189  -9.695  1.00  0.00     0.694 A 
HETATM    6  N2  UNL     1     -22.200  19.655  -8.896  1.00  0.00    -0.223 N 
ATOM      7  H2  UNL     1     -22.582  20.585  -9.068  1.00  0.00     0.177 HD
HETATM    8  N3  UNL     1     -20.888  20.012 -10.806  1.00  0.00    -0.022 N 
ATOM      9  H3  UNL     1     -21.299  20.936 -10.936  1.00  0.00     0.203 HD
HETATM   10  C7  UNL     1     -19.905  19.543 -11.718  1.00  0.00     0.699 A 
HETATM   11  N4  UNL     1     -19.592  20.356 -12.687  1.00  0.00    -0.180 N 
ATOM     12  H4  UNL     1     -20.031  21.272 -12.779  1.00  0.00     0.185 HD
HETATM   13  N7  UNL     1     -19.294  18.263 -11.587  1.00  0.00    -0.176 N 
ATOM     14  H7  UNL     1     -18.589  17.945 -12.252  1.00  0.00     0.185 HD
ENDROOT
BRANCH  11  15
HETATM   15  C8  UNL     1     -18.610  19.905 -13.611  1.00  0.00     0.093 C 
HETATM   16  N5  UNL     1     -18.981  19.089 -14.527  1.00  0.00    -0.388 N 
ATOM     17  H52 UNL     1     -19.939  18.750 -14.620  1.00  0.00     0.157 HD
ATOM     18  H51 UNL     1     -18.276  18.766 -15.190  1.00  0.00     0.157 HD
BRANCH  15  19
HETATM   19  C9  UNL     1     -17.249  20.387 -13.479  1.00  0.00     0.109 C 
BRANCH  19  20
HETATM   20  C10 UNL     1     -16.162  19.555 -14.044  1.00  0.00     0.193 C 
HETATM   21  C11 UNL     1     -15.320  20.181 -15.103  1.00  0.00     0.035 C 
HETATM   22  C12 UNL     1     -14.029  19.361 -14.968  1.00  0.00     0.029 C 
HETATM   23  C13 UNL     1     -13.915  19.193 -13.485  1.00  0.00     0.233 C 
HETATM   24  N6  UNL     1     -15.270  19.075 -13.024  1.00  0.00    -0.070 N 
ATOM     25  H62 UNL     1     -15.416  19.544 -12.130  1.00  0.00     0.277 HD
ATOM     26  H61 UNL     1     -15.496  18.126 -12.728  1.00  0.00     0.277 HD
ENDBRANCH  19  20
ENDBRANCH  15  19
ENDBRANCH  11  15
BRANCH   6  27
HETATM   27  C4  UNL     1     -22.673  18.905  -7.771  1.00  0.00     0.164 C 
BRANCH  27  28
HETATM   28  C5  UNL     1     -23.135  19.841  -6.692  1.00  0.00     0.187 C 
BRANCH  28  29
HETATM   29  O1  UNL     1     -23.216  21.151  -6.972  1.00  0.00    -0.394 OA
HETATM   30  C6  UNL     1     -22.444  22.067  -6.352  1.00  0.00     0.201 C 
ENDBRANCH  28  29
ENDBRANCH  27  28
ENDBRANCH   6  27
TORSDOF 6
ENDMDL
MODEL 4
REMARK VINA RESULT: -7.759256525      3.231      3.960
REMARK  6 active torsions:
REMARK  status: ('A' for Active; 'I' for Inactive)
REMARK    1  A    between atoms: N2_6  and  C4_8 
REMARK    2  A    between atoms: C4_8  and  C5_9 
REMARK    3  A    between atoms: C5_9  and  O1_10 
REMARK    4  A    between atoms: N4_15  and  C8_17 
REMARK    5  A    between atoms: C8_17  and  C9_21 
REMARK    6  A    between atoms: C9_21  and  C10_22 
ROOT
HETATM    1  C1  UNL     1     -21.205  20.934  -8.629  1.00  0.00     0.064 C 
HETATM    2  C2  UNL     1     -20.523  19.824  -8.857  1.00  0.00     0.127 A 
HETATM    3  N1  UNL     1     -20.289  18.897  -7.782  1.00  0.00    -0.177 N 
ATOM      4  H1  UNL     1     -20.659  19.119  -6.858  1.00  0.00     0.185 HD
HETATM    5  C3  UNL     1     -19.568  17.689  -7.956  1.00  0.00     0.694 A 
HETATM    6  N2  UNL     1     -19.334  16.831  -7.028  1.00  0.00    -0.223 N 
ATOM      7  H2  UNL     1     -18.803  15.990  -7.254  1.00  0.00     0.177 HD
HETATM    8  N3  UNL     1     -19.064  17.418  -9.282  1.00  0.00    -0.022 N 
ATOM      9  H3  UNL     1     -18.539  16.562  -9.459  1.00  0.00     0.203 HD
HETATM   10  C7  UNL     1     -19.295  18.335 -10.341  1.00  0.00     0.699 A 
HETATM   11  N4  UNL     1     -18.802  18.004 -11.500  1.00  0.00    -0.180 N 
ATOM     12  H4  UNL     1     -18.281  17.137 -11.631  1.00  0.00     0.185 HD
HETATM   13  N7  UNL     1     -20.022  19.545 -10.155  1.00  0.00    -0.176 N 
ATOM     14  H7  UNL     1     -20.179  20.191 -10.929  1.00  0.00     0.185 HD
ENDROOT
BRANCH  11  15
HETATM   15  C8  UNL     1     -19.023  18.909 -12.575  1.00  0.00     0.093 C 
HETATM   16  N5  UNL     1     -20.078  18.747 -13.284  1.00  0.00    -0.388 N 
ATOM     17  H52 UNL     1     -20.757  18.005 -13.117  1.00  0.00     0.157 HD
ATOM     18  H51 UNL     1     -20.236  19.396 -14.055  1.00  0.00     0.157 HD
BRANCH  15  19
HETATM   19  C9  UNL     1     -18.058  19.964 -12.812  1.00  0.00     0.109 C 
BRANCH  19  20
HETATM   20  C10 UNL     1     -16.838  19.626 -13.581  1.00  0.00     0.193 C 
HETATM   21  C11 UNL     1     -16.875  19.886 -15.048  1.00  0.00     0.035 C 
HETATM   22  C12 UNL     1     -15.379  20.039 -15.353  1.00  0.00     0.029 C 
HETATM   23  C13 UNL     1     -14.887  20.791 -14.156  1.00  0.00     0.233 C 
HETATM   24  N6  UNL     1     -15.676  20.297 -13.063  1.00  0.00    -0.070 N 
ATOM     25  H62 UNL     1     -15.918  21.031 -12.397  1.00  0.00     0.277 HD
ATOM     26  H61 UNL     1     -15.135  19.703 -12.433  1.00  0.00     0.277 HD
ENDBRANCH  19  20
ENDBRANCH  15  19
ENDBRANCH  11  15
BRANCH   6  27
HETATM   27  C4  UNL     1     -19.797  17.023  -5.685  1.00  0.00     0.164 C 
BRANCH  27  28
HETATM   28  C5  UNL     1     -18.976  16.193  -4.740  1.00  0.00     0.187 C 
BRANCH  28  29
HETATM   29  O1  UNL     1     -19.583  15.210  -4.059  1.00  0.00    -0.394 OA
HETATM   30  C6  UNL     1     -19.606  15.180  -2.710  1.00  0.00     0.201 C 
ENDBRANCH  28  29
ENDBRANCH  27  28
ENDBRANCH   6  27
TORSDOF 6
ENDMDL
MODEL 5
REMARK VINA RESULT: -7.693223442      1.476      1.681
REMARK  6 active torsions:
REMARK  status: ('A' for Active; 'I' for Inactive)
REMARK    1  A    between atoms: N2_6  and  C4_8 
REMARK    2  A    between atoms: C4_8  and  C5_9 
REMARK    3  A    between atoms: C5_9  and  O1_10 
REMARK    4  A    between atoms: N4_15  and  C8_17 
REMARK    5  A    between atoms: C8_17  and  C9_21 
REMARK    6  A    between atoms: C9_21  and  C10_22 
ROOT
HETATM    1  C1  UNL     1     -18.942  17.092 -10.689  1.00  0.00     0.064 C 
HETATM    2  C2  UNL     1     -19.169  18.342 -11.058  1.00  0.00     0.127 A 
HETATM    3  N1  UNL     1     -19.792  19.254 -10.137  1.00  0.00    -0.177 N 
ATOM      4  H1  UNL     1     -20.049  18.914  -9.211  1.00  0.00     0.185 HD
HETATM    5  C3  UNL     1     -20.064  20.607 -10.465  1.00  0.00     0.694 A 
HETATM    6  N2  UNL     1     -20.618  21.459  -9.679  1.00  0.00    -0.223 N 
ATOM      7  H2  UNL     1     -20.771  22.412 -10.009  1.00  0.00     0.177 HD
HETATM    8  N3  UNL     1     -19.683  21.043 -11.788  1.00  0.00    -0.022 N 
ATOM      9  H3  UNL     1     -19.856  22.008 -12.073  1.00  0.00     0.203 HD
HETATM   10  C7  UNL     1     -19.069  20.140 -12.695  1.00  0.00     0.699 A 
HETATM   11  N4  UNL     1     -18.762  20.626 -13.865  1.00  0.00    -0.180 N 
ATOM     12  H4  UNL     1     -18.956  21.598 -14.107  1.00  0.00     0.185 HD
HETATM   13  N7  UNL     1     -18.800  18.784 -12.354  1.00  0.00    -0.176 N 
ATOM     14  H7  UNL     1     -18.357  18.151 -13.020  1.00  0.00     0.185 HD
ENDROOT
BRANCH  11  15
HETATM   15  C8  UNL     1     -18.145  19.737 -14.788  1.00  0.00     0.093 C 
HETATM   16  N5  UNL     1     -18.854  18.779 -15.259  1.00  0.00    -0.388 N 
ATOM     17  H52 UNL     1     -19.830  18.625 -15.002  1.00  0.00     0.157 HD
ATOM     18  H51 UNL     1     -18.412  18.142 -15.921  1.00  0.00     0.157 HD
BRANCH  15  19
HETATM   19  C9  UNL     1     -16.760  19.956 -15.153  1.00  0.00     0.109 C 
BRANCH  19  20
HETATM   20  C10 UNL     1     -15.720  19.637 -14.147  1.00  0.00     0.193 C 
HETATM   21  C11 UNL     1     -14.421  19.120 -14.665  1.00  0.00     0.035 C 
HETATM   22  C12 UNL     1     -13.477  19.511 -13.519  1.00  0.00     0.029 C 
HETATM   23  C13 UNL     1     -14.000  20.856 -13.123  1.00  0.00     0.233 C 
HETATM   24  N6  UNL     1     -15.421  20.767 -13.309  1.00  0.00    -0.070 N 
ATOM     25  H62 UNL     1     -15.819  21.633 -13.672  1.00  0.00     0.277 HD
ATOM     26  H61 UNL     1     -15.926  20.736 -12.423  1.00  0.00     0.277 HD
ENDBRANCH  19  20
ENDBRANCH  15  19
ENDBRANCH  11  15
BRANCH   6  27
HETATM   27  C4  UNL     1     -21.026  21.109  -8.350  1.00  0.00     0.164 C 
BRANCH  27  28
HETATM   28  C5  UNL     1     -22.099  20.059  -8.407  1.00  0.00     0.187 C 
BRANCH  28  29
HETATM   29  O1  UNL     1     -21.834  18.845  -7.903  1.00  0.00    -0.394 OA
HETATM   30  C6  UNL     1     -21.083  18.676  -6.794  1.00  0.00     0.201 C 
ENDBRANCH  28  29
ENDBRANCH  27  28
ENDBRANCH   6  27
TORSDOF 6
ENDMDL
