MODEL 1
REMARK VINA RESULT: -8.371247173      0.000      0.000
REMARK  9 active torsions:
REMARK  status: ('A' for Active; 'I' for Inactive)
REMARK    1  A    between atoms: N1_9  and  C9_10 
REMARK    2  A    between atoms: C9_10  and  C10_11 
REMARK    3  A    between atoms: C10_11  and  O1_12 
REMARK    4  A    between atoms: C10_11  and  O3_16 
REMARK    5  A    between atoms: O1_12  and  C11_13 
REMARK    6  A    between atoms: O3_16  and  C13_17 
REMARK    7  A    between atoms: C19_26  and  C20_27 
REMARK    8  A    between atoms: C20_27  and  O6_28 
REMARK    9  A    between atoms: C21_30  and  O7_31 
ROOT
HETATM    1  C9  UNL     1      16.611 -14.569  14.423  1.00  0.00     0.187 C 
ENDROOT
BRANCH   1   2
HETATM    2  N1  UNL     1      15.886 -13.448  13.857  1.00  0.00    -0.348 N 
HETATM    3  C6  UNL     1      16.767 -12.244  13.727  1.00  0.00     0.027 C 
HETATM    4  C5  UNL     1      16.187 -11.613  12.549  1.00  0.00     0.031 C 
HETATM    5  C7  UNL     1      18.183 -12.648  13.420  1.00  0.00     0.038 C 
HETATM    6  C8  UNL     1      16.750 -11.381  14.951  1.00  0.00     0.038 C 
HETATM    7  C4  UNL     1      16.464 -10.418  11.824  1.00  0.00     0.007 C 
HETATM    8  C3  UNL     1      15.093 -10.286  11.082  1.00  0.00     0.039 C 
HETATM    9  C2  UNL     1      14.680 -11.664  10.581  1.00  0.00    -0.056 C 
HETATM   10  C1  UNL     1      15.296 -11.917   9.431  1.00  0.00     0.020 C 
HETATM   11  C23 UNL     1      13.749 -12.642  11.164  1.00  0.00    -0.015 C 
HETATM   12  C22 UNL     1      13.700 -13.346  12.282  1.00  0.00     0.004 C 
HETATM   13  C24 UNL     1      12.535 -12.969  10.349  1.00  0.00    -0.056 C 
HETATM   14  C21 UNL     1      14.522 -13.496  13.463  1.00  0.00     0.146 C 
HETATM   15  C27 UNL     1      12.411 -14.210  12.113  1.00  0.00     0.048 C 
HETATM   16  C26 UNL     1      11.514 -13.216  11.434  1.00  0.00     0.043 C 
HETATM   17  C25 UNL     1      12.267 -13.057   9.088  1.00  0.00     0.020 C 
BRANCH  14  18
HETATM   18  O7  UNL     1      13.827 -13.774  14.572  1.00  0.00    -0.346 OA
ATOM     19  H7  UNL     1      13.717 -14.718  14.582  1.00  0.00     0.219 HD
ENDBRANCH  14  18
ENDBRANCH   1   2
BRANCH   1  20
HETATM   20  C10 UNL     1      16.273 -15.949  14.089  1.00  0.00     0.288 C 
BRANCH  20  21
HETATM   21  O1  UNL     1      15.586 -16.742  15.017  1.00  0.00    -0.288 OA
BRANCH  21  22
HETATM   22  C11 UNL     1      15.391 -16.365  16.344  1.00  0.00     0.257 C 
HETATM   23  C12 UNL     1      16.406 -16.729  17.362  1.00  0.00     0.126 C 
HETATM   24  O2  UNL     1      14.362 -15.733  16.614  1.00  0.00    -0.266 OA
ENDBRANCH  21  22
ENDBRANCH  20  21
BRANCH  20  25
HETATM   25  O3  UNL     1      17.542 -16.616  14.015  1.00  0.00    -0.346 OA
BRANCH  25  26
HETATM   26  C13 UNL     1      18.443 -15.969  13.217  1.00  0.00     0.204 C 
HETATM   27  C14 UNL     1      19.811 -16.231  13.777  1.00  0.00     0.163 C 
HETATM   28  O4  UNL     1      19.982 -16.857  14.809  1.00  0.00    -0.295 OA
HETATM   29  C15 UNL     1      20.969 -15.707  13.043  1.00  0.00     0.163 C 
HETATM   30  C16 UNL     1      20.789 -15.940  11.589  1.00  0.00     0.173 C 
HETATM   31  O5  UNL     1      21.786 -16.004  10.894  1.00  0.00    -0.294 OA
HETATM   32  C17 UNL     1      19.470 -16.096  10.941  1.00  0.00     0.168 C 
HETATM   33  C18 UNL     1      19.073 -14.718  10.392  1.00  0.00     0.061 C 
HETATM   34  F1  UNL     1      19.621 -16.907   9.844  1.00  0.00    -0.234 F 
HETATM   35  C19 UNL     1      18.421 -16.643  11.852  1.00  0.00     0.093 C 
BRANCH  35  36
HETATM   36  C20 UNL     1      18.642 -18.112  12.071  1.00  0.00     0.175 C 
BRANCH  36  37
HETATM   37  O6  UNL     1      17.746 -18.836  11.300  1.00  0.00    -0.400 OA
ATOM     38  H6  UNL     1      17.553 -19.662  11.728  1.00  0.00     0.209 HD
ENDBRANCH  36  37
ENDBRANCH  35  36
ENDBRANCH  25  26
ENDBRANCH  20  25
ENDBRANCH   1  20
TORSDOF 9
ENDMDL
MODEL 2
REMARK VINA RESULT: -8.294452456      2.361      4.540
REMARK  9 active torsions:
REMARK  status: ('A' for Active; 'I' for Inactive)
REMARK    1  A    between atoms: N1_9  and  C9_10 
REMARK    2  A    between atoms: C9_10  and  C10_11 
REMARK    3  A    between atoms: C10_11  and  O1_12 
REMARK    4  A    between atoms: C10_11  and  O3_16 
REMARK    5  A    between atoms: O1_12  and  C11_13 
REMARK    6  A    between atoms: O3_16  and  C13_17 
REMARK    7  A    between atoms: C19_26  and  C20_27 
REMARK    8  A    between atoms: C20_27  and  O6_28 
REMARK    9  A    between atoms: C21_30  and  O7_31 
ROOT
HETATM    1  C9  UNL     1      18.315 -12.057  11.668  1.00  0.00     0.187 C 
ENDROOT
BRANCH   1   2
HETATM    2  N1  UNL     1      17.600 -12.310  12.904  1.00  0.00    -0.348 N 
HETATM    3  C6  UNL     1      16.711 -11.159  13.259  1.00  0.00     0.027 C 
HETATM    4  C5  UNL     1      15.629 -11.855  13.942  1.00  0.00     0.031 C 
HETATM    5  C7  UNL     1      16.165 -10.502  12.020  1.00  0.00     0.038 C 
HETATM    6  C8  UNL     1      17.403 -10.132  14.101  1.00  0.00     0.038 C 
HETATM    7  C4  UNL     1      14.428 -11.437  14.585  1.00  0.00     0.007 C 
HETATM    8  C3  UNL     1      14.177 -12.722  15.441  1.00  0.00     0.039 C 
HETATM    9  C2  UNL     1      14.451 -13.943  14.572  1.00  0.00    -0.056 C 
HETATM   10  C1  UNL     1      13.379 -14.207  13.834  1.00  0.00     0.020 C 
HETATM   11  C23 UNL     1      15.649 -14.792  14.485  1.00  0.00    -0.015 C 
HETATM   12  C22 UNL     1      16.909 -14.609  14.131  1.00  0.00     0.004 C 
HETATM   13  C24 UNL     1      15.475 -16.226  14.881  1.00  0.00    -0.056 C 
HETATM   14  C21 UNL     1      17.717 -13.503  13.665  1.00  0.00     0.146 C 
HETATM   15  C27 UNL     1      17.533 -16.035  14.252  1.00  0.00     0.048 C 
HETATM   16  C26 UNL     1      16.828 -16.529  15.481  1.00  0.00     0.043 C 
HETATM   17  C25 UNL     1      14.521 -17.095  14.806  1.00  0.00     0.020 C 
BRANCH  14  18
HETATM   18  O7  UNL     1      19.000 -13.576  14.041  1.00  0.00    -0.346 OA
ATOM     19  H7  UNL     1      18.991 -13.852  14.950  1.00  0.00     0.219 HD
ENDBRANCH  14  18
ENDBRANCH   1   2
BRANCH   1  20
HETATM   20  C10 UNL     1      18.451 -13.082  10.638  1.00  0.00     0.288 C 
BRANCH  20  21
HETATM   21  O1  UNL     1      17.319 -13.771  10.185  1.00  0.00    -0.288 OA
BRANCH  21  22
HETATM   22  C11 UNL     1      16.160 -13.129   9.753  1.00  0.00     0.257 C 
HETATM   23  C12 UNL     1      14.911 -13.269  10.541  1.00  0.00     0.126 C 
HETATM   24  O2  UNL     1      16.230 -12.461   8.714  1.00  0.00    -0.266 OA
ENDBRANCH  21  22
ENDBRANCH  20  21
BRANCH  20  25
HETATM   25  O3  UNL     1      19.197 -14.129  11.277  1.00  0.00    -0.346 OA
BRANCH  25  26
HETATM   26  C13 UNL     1      20.377 -14.410  10.647  1.00  0.00     0.204 C 
HETATM   27  C14 UNL     1      21.348 -14.871  11.694  1.00  0.00     0.163 C 
HETATM   28  O4  UNL     1      21.068 -14.883  12.881  1.00  0.00    -0.295 OA
HETATM   29  C15 UNL     1      22.677 -15.315  11.256  1.00  0.00     0.163 C 
HETATM   30  C16 UNL     1      22.547 -16.166  10.048  1.00  0.00     0.173 C 
HETATM   31  O5  UNL     1      23.431 -16.972   9.821  1.00  0.00    -0.294 OA
HETATM   32  C17 UNL     1      21.410 -16.088   9.108  1.00  0.00     0.168 C 
HETATM   33  C18 UNL     1      21.839 -15.166   7.958  1.00  0.00     0.061 C 
HETATM   34  F1  UNL     1      21.228 -17.327   8.547  1.00  0.00    -0.234 F 
HETATM   35  C19 UNL     1      20.145 -15.614   9.744  1.00  0.00     0.093 C 
BRANCH  35  36
HETATM   36  C20 UNL     1      19.551 -16.704  10.590  1.00  0.00     0.175 C 
BRANCH  36  37
HETATM   37  O6  UNL     1      18.168 -16.642  10.522  1.00  0.00    -0.400 OA
ATOM     38  H6  UNL     1      17.835 -17.424  10.097  1.00  0.00     0.209 HD
ENDBRANCH  36  37
ENDBRANCH  35  36
ENDBRANCH  25  26
ENDBRANCH  20  25
ENDBRANCH   1  20
TORSDOF 9
ENDMDL
MODEL 3
REMARK VINA RESULT: -8.099159404      2.980      6.073
REMARK  9 active torsions:
REMARK  status: ('A' for Active; 'I' for Inactive)
REMARK    1  A    between atoms: N1_9  and  C9_10 
REMARK    2  A    between atoms: C9_10  and  C10_11 
REMARK    3  A    between atoms: C10_11  and  O1_12 
REMARK    4  A    between atoms: C10_11  and  O3_16 
REMARK    5  A    between atoms: O1_12  and  C11_13 
REMARK    6  A    between atoms: O3_16  and  C13_17 
REMARK    7  A    between atoms: C19_26  and  C20_27 
REMARK    8  A    between atoms: C20_27  and  O6_28 
REMARK    9  A    between atoms: C21_30  and  O7_31 
ROOT
HETATM    1  C9  UNL     1      18.737 -13.926  12.211  1.00  0.00     0.187 C 
ENDROOT
BRANCH   1   2
HETATM    2  N1  UNL     1      17.672 -14.815  12.630  1.00  0.00    -0.348 N 
HETATM    3  C6  UNL     1      18.165 -15.818  13.626  1.00  0.00     0.027 C 
HETATM    4  C5  UNL     1      16.963 -16.019  14.423  1.00  0.00     0.031 C 
HETATM    5  C7  UNL     1      19.237 -15.224  14.498  1.00  0.00     0.038 C 
HETATM    6  C8  UNL     1      18.684 -17.066  12.980  1.00  0.00     0.038 C 
HETATM    7  C4  UNL     1      16.636 -16.843  15.538  1.00  0.00     0.007 C 
HETATM    8  C3  UNL     1      15.079 -16.800  15.398  1.00  0.00     0.039 C 
HETATM    9  C2  UNL     1      14.662 -15.369  15.079  1.00  0.00    -0.056 C 
HETATM   10  C1  UNL     1      14.595 -14.670  16.207  1.00  0.00     0.020 C 
HETATM   11  C23 UNL     1      14.337 -14.745  13.788  1.00  0.00    -0.015 C 
HETATM   12  C22 UNL     1      14.994 -14.502  12.667  1.00  0.00     0.004 C 
HETATM   13  C24 UNL     1      12.937 -14.237  13.632  1.00  0.00    -0.056 C 
HETATM   14  C21 UNL     1      16.332 -14.730  12.166  1.00  0.00     0.146 C 
HETATM   15  C27 UNL     1      13.953 -13.737  11.792  1.00  0.00     0.048 C 
HETATM   16  C26 UNL     1      12.701 -14.480  12.160  1.00  0.00     0.043 C 
HETATM   17  C25 UNL     1      12.051 -13.716  14.415  1.00  0.00     0.020 C 
BRANCH  14  18
HETATM   18  O7  UNL     1      16.386 -14.929  10.844  1.00  0.00    -0.346 OA
ATOM     19  H7  UNL     1      15.535 -15.269  10.595  1.00  0.00     0.219 HD
ENDBRANCH  14  18
ENDBRANCH   1   2
BRANCH   1  20
HETATM   20  C10 UNL     1      19.348 -14.029  10.889  1.00  0.00     0.288 C 
BRANCH  20  21
HETATM   21  O1  UNL     1      20.703 -13.716  10.721  1.00  0.00    -0.288 OA
BRANCH  21  22
HETATM   22  C11 UNL     1      21.730 -14.415  11.352  1.00  0.00     0.257 C 
HETATM   23  C12 UNL     1      21.885 -15.868  11.100  1.00  0.00     0.126 C 
HETATM   24  O2  UNL     1      22.476 -13.777  12.105  1.00  0.00    -0.266 OA
ENDBRANCH  21  22
ENDBRANCH  20  21
BRANCH  20  25
HETATM   25  O3  UNL     1      18.710 -12.996  10.123  1.00  0.00    -0.346 OA
BRANCH  25  26
HETATM   26  C13 UNL     1      18.409 -11.887  10.863  1.00  0.00     0.204 C 
HETATM   27  C14 UNL     1      19.033 -10.706  10.178  1.00  0.00     0.163 C 
HETATM   28  O4  UNL     1      19.733 -10.823   9.186  1.00  0.00    -0.295 OA
HETATM   29  C15 UNL     1      18.783  -9.372  10.737  1.00  0.00     0.163 C 
HETATM   30  C16 UNL     1      17.353  -9.246  11.112  1.00  0.00     0.173 C 
HETATM   31  O5  UNL     1      16.871  -8.129  11.149  1.00  0.00    -0.294 OA
HETATM   32  C17 UNL     1      16.487 -10.397  11.441  1.00  0.00     0.168 C 
HETATM   33  C18 UNL     1      16.491 -10.538  12.970  1.00  0.00     0.061 C 
HETATM   34  F1  UNL     1      15.198 -10.079  11.098  1.00  0.00    -0.234 F 
HETATM   35  C19 UNL     1      16.906 -11.665  10.775  1.00  0.00     0.093 C 
BRANCH  35  36
HETATM   36  C20 UNL     1      16.539 -11.630   9.319  1.00  0.00     0.175 C 
BRANCH  36  37
HETATM   37  O6  UNL     1      16.173 -12.900   8.901  1.00  0.00    -0.400 OA
ATOM     38  H6  UNL     1      15.473 -12.836   8.263  1.00  0.00     0.209 HD
ENDBRANCH  36  37
ENDBRANCH  35  36
ENDBRANCH  25  26
ENDBRANCH  20  25
ENDBRANCH   1  20
TORSDOF 9
ENDMDL
MODEL 4
REMARK VINA RESULT: -7.916087032      2.493      4.777
REMARK  9 active torsions:
REMARK  status: ('A' for Active; 'I' for Inactive)
REMARK    1  A    between atoms: N1_9  and  C9_10 
REMARK    2  A    between atoms: C9_10  and  C10_11 
REMARK    3  A    between atoms: C10_11  and  O1_12 
REMARK    4  A    between atoms: C10_11  and  O3_16 
REMARK    5  A    between atoms: O1_12  and  C11_13 
REMARK    6  A    between atoms: O3_16  and  C13_17 
REMARK    7  A    between atoms: C19_26  and  C20_27 
REMARK    8  A    between atoms: C20_27  and  O6_28 
REMARK    9  A    between atoms: C21_30  and  O7_31 
ROOT
HETATM    1  C9  UNL     1      16.733 -13.134  11.759  1.00  0.00     0.187 C 
ENDROOT
BRANCH   1   2
HETATM    2  N1  UNL     1      16.348 -12.827  13.123  1.00  0.00    -0.348 N 
HETATM    3  C6  UNL     1      15.942 -11.392  13.260  1.00  0.00     0.027 C 
HETATM    4  C5  UNL     1      14.946 -11.495  14.318  1.00  0.00     0.031 C 
HETATM    5  C7  UNL     1      15.274 -10.903  12.004  1.00  0.00     0.038 C 
HETATM    6  C8  UNL     1      17.094 -10.495  13.593  1.00  0.00     0.038 C 
HETATM    7  C4  UNL     1      14.133 -10.553  15.012  1.00  0.00     0.007 C 
HETATM    8  C3  UNL     1      13.789 -11.434  16.259  1.00  0.00     0.039 C 
HETATM    9  C2  UNL     1      13.467 -12.844  15.781  1.00  0.00    -0.056 C 
HETATM   10  C1  UNL     1      12.202 -12.894  15.378  1.00  0.00     0.020 C 
HETATM   11  C23 UNL     1      14.315 -14.045  15.740  1.00  0.00    -0.015 C 
HETATM   12  C22 UNL     1      15.427 -14.392  15.116  1.00  0.00     0.004 C 
HETATM   13  C24 UNL     1      13.874 -15.197  16.590  1.00  0.00    -0.056 C 
HETATM   14  C21 UNL     1      16.343 -13.772  14.184  1.00  0.00     0.146 C 
HETATM   15  C27 UNL     1      15.647 -15.873  15.557  1.00  0.00     0.048 C 
HETATM   16  C26 UNL     1      15.204 -15.791  16.990  1.00  0.00     0.043 C 
HETATM   17  C25 UNL     1      12.738 -15.680  16.973  1.00  0.00     0.020 C 
BRANCH  14  18
HETATM   18  O7  UNL     1      17.609 -14.186  14.315  1.00  0.00    -0.346 OA
ATOM     19  H7  UNL     1      17.706 -14.448  15.223  1.00  0.00     0.219 HD
ENDBRANCH  14  18
ENDBRANCH   1   2
BRANCH   1  20
HETATM   20  C10 UNL     1      18.120 -13.048  11.315  1.00  0.00     0.288 C 
BRANCH  20  21
HETATM   21  O1  UNL     1      18.409 -12.636  10.008  1.00  0.00    -0.288 OA
BRANCH  21  22
HETATM   22  C11 UNL     1      18.123 -11.358   9.532  1.00  0.00     0.257 C 
HETATM   23  C12 UNL     1      18.792 -10.185  10.145  1.00  0.00     0.126 C 
HETATM   24  O2  UNL     1      17.312 -11.262   8.603  1.00  0.00    -0.266 OA
ENDBRANCH  21  22
ENDBRANCH  20  21
BRANCH  20  25
HETATM   25  O3  UNL     1      18.572 -14.410  11.301  1.00  0.00    -0.346 OA
BRANCH  25  26
HETATM   26  C13 UNL     1      19.836 -14.552  10.800  1.00  0.00     0.204 C 
HETATM   27  C14 UNL     1      20.743 -14.878  11.951  1.00  0.00     0.163 C 
HETATM   28  O4  UNL     1      20.346 -14.912  13.103  1.00  0.00    -0.295 OA
HETATM   29  C15 UNL     1      22.153 -15.161  11.659  1.00  0.00     0.163 C 
HETATM   30  C16 UNL     1      22.253 -16.035  10.464  1.00  0.00     0.173 C 
HETATM   31  O5  UNL     1      23.245 -16.729  10.347  1.00  0.00    -0.294 OA
HETATM   32  C17 UNL     1      21.217 -16.107   9.413  1.00  0.00     0.168 C 
HETATM   33  C18 UNL     1      21.648 -15.152   8.291  1.00  0.00     0.061 C 
HETATM   34  F1  UNL     1      21.244 -17.365   8.866  1.00  0.00    -0.234 F 
HETATM   35  C19 UNL     1      19.846 -15.784   9.907  1.00  0.00     0.093 C 
BRANCH  35  36
HETATM   36  C20 UNL     1      19.303 -16.930  10.714  1.00  0.00     0.175 C 
BRANCH  36  37
HETATM   37  O6  UNL     1      17.921 -16.958  10.609  1.00  0.00    -0.400 OA
ATOM     38  H6  UNL     1      17.583 -17.722  11.061  1.00  0.00     0.209 HD
ENDBRANCH  36  37
ENDBRANCH  35  36
ENDBRANCH  25  26
ENDBRANCH  20  25
ENDBRANCH   1  20
TORSDOF 9
ENDMDL
MODEL 5
REMARK VINA RESULT: -7.898490493      2.187      3.482
REMARK  9 active torsions:
REMARK  status: ('A' for Active; 'I' for Inactive)
REMARK    1  A    between atoms: N1_9  and  C9_10 
REMARK    2  A    between atoms: C9_10  and  C10_11 
REMARK    3  A    between atoms: C10_11  and  O1_12 
REMARK    4  A    between atoms: C10_11  and  O3_16 
REMARK    5  A    between atoms: O1_12  and  C11_13 
REMARK    6  A    between atoms: O3_16  and  C13_17 
REMARK    7  A    between atoms: C19_26  and  C20_27 
REMARK    8  A    between atoms: C20_27  and  O6_28 
REMARK    9  A    between atoms: C21_30  and  O7_31 
ROOT
HETATM    1  C9  UNL     1      18.486 -12.339  12.616  1.00  0.00     0.187 C 
ENDROOT
BRANCH   1   2
HETATM    2  N1  UNL     1      17.102 -11.910  12.657  1.00  0.00    -0.348 N 
HETATM    3  C6  UNL     1      16.916 -10.614  11.930  1.00  0.00     0.027 C 
HETATM    4  C5  UNL     1      15.555 -10.776  11.437  1.00  0.00     0.031 C 
HETATM    5  C7  UNL     1      17.854 -10.518  10.758  1.00  0.00     0.038 C 
HETATM    6  C8  UNL     1      17.105  -9.422  12.817  1.00  0.00     0.038 C 
HETATM    7  C4  UNL     1      14.668  -9.956  10.681  1.00  0.00     0.007 C 
HETATM    8  C3  UNL     1      13.329 -10.671  11.059  1.00  0.00     0.039 C 
HETATM    9  C2  UNL     1      13.555 -12.177  11.010  1.00  0.00    -0.056 C 
HETATM   10  C1  UNL     1      13.444 -12.598   9.754  1.00  0.00     0.020 C 
HETATM   11  C23 UNL     1      13.835 -13.127  12.097  1.00  0.00    -0.015 C 
HETATM   12  C22 UNL     1      14.810 -13.294  12.973  1.00  0.00     0.004 C 
HETATM   13  C24 UNL     1      12.807 -14.192  12.328  1.00  0.00    -0.056 C 
HETATM   14  C21 UNL     1      16.059 -12.636  13.291  1.00  0.00     0.146 C 
HETATM   15  C27 UNL     1      14.389 -14.583  13.747  1.00  0.00     0.048 C 
HETATM   16  C26 UNL     1      12.904 -14.371  13.825  1.00  0.00     0.043 C 
HETATM   17  C25 UNL     1      11.992 -14.864  11.584  1.00  0.00     0.020 C 
BRANCH  14  18
HETATM   18  O7  UNL     1      16.391 -12.704  14.586  1.00  0.00    -0.346 OA
ATOM     19  H7  UNL     1      16.591 -11.815  14.851  1.00  0.00     0.219 HD
ENDBRANCH  14  18
ENDBRANCH   1   2
BRANCH   1  20
HETATM   20  C10 UNL     1      18.860 -13.741  12.773  1.00  0.00     0.288 C 
BRANCH  20  21
HETATM   21  O1  UNL     1      19.032 -14.277  14.055  1.00  0.00    -0.288 OA
BRANCH  21  22
HETATM   22  C11 UNL     1      19.039 -15.647  14.314  1.00  0.00     0.257 C 
HETATM   23  C12 UNL     1      17.756 -16.391  14.335  1.00  0.00     0.126 C 
HETATM   24  O2  UNL     1      20.134 -16.185  14.516  1.00  0.00    -0.266 OA
ENDBRANCH  21  22
ENDBRANCH  20  21
BRANCH  20  25
HETATM   25  O3  UNL     1      20.192 -13.814  12.243  1.00  0.00    -0.346 OA
BRANCH  25  26
HETATM   26  C13 UNL     1      20.278 -14.569  11.107  1.00  0.00     0.204 C 
HETATM   27  C14 UNL     1      20.803 -13.682  10.015  1.00  0.00     0.163 C 
HETATM   28  O4  UNL     1      21.012 -12.493  10.186  1.00  0.00    -0.295 OA
HETATM   29  C15 UNL     1      21.065 -14.285   8.703  1.00  0.00     0.163 C 
HETATM   30  C16 UNL     1      21.740 -15.595   8.879  1.00  0.00     0.173 C 
HETATM   31  O5  UNL     1      22.426 -16.010   7.964  1.00  0.00    -0.294 OA
HETATM   32  C17 UNL     1      21.621 -16.421  10.098  1.00  0.00     0.168 C 
HETATM   33  C18 UNL     1      20.509 -17.447   9.840  1.00  0.00     0.061 C 
HETATM   34  F1  UNL     1      22.776 -17.148  10.241  1.00  0.00    -0.234 F 
HETATM   35  C19 UNL     1      21.352 -15.623  11.332  1.00  0.00     0.093 C 
BRANCH  35  36
HETATM   36  C20 UNL     1      22.600 -14.910  11.769  1.00  0.00     0.175 C 
BRANCH  36  37
HETATM   37  O6  UNL     1      22.689 -14.935  13.152  1.00  0.00    -0.400 OA
ATOM     38  H6  UNL     1      21.849 -15.180  13.521  1.00  0.00     0.209 HD
ENDBRANCH  36  37
ENDBRANCH  35  36
ENDBRANCH  25  26
ENDBRANCH  20  25
ENDBRANCH   1  20
TORSDOF 9
ENDMDL
