MODEL 1
REMARK VINA RESULT: -9.990742991      0.000      0.000
REMARK  11 active torsions:
REMARK  status: ('A' for Active; 'I' for Inactive)
REMARK    1  A    between atoms: C1_2  and  C2_3 
REMARK       I    between atoms: C1_2  and  N1_17 
REMARK    2  A    between atoms: C2_3  and  O2_4 
REMARK    3  A    between atoms: O2_4  and  C3_5 
REMARK    4  A    between atoms: C3_5  and  C4_7 
REMARK    5  A    between atoms: N1_17  and  C12_19 
REMARK    6  A    between atoms: C15_22  and  N2_23 
REMARK    7  A    between atoms: N2_23  and  C16_25 
REMARK    8  A    between atoms: C16_25  and  O5_26 
REMARK    9  A    between atoms: C16_25  and  N3_28 
REMARK   10  A    between atoms: N3_28  and  S1_29 
REMARK   11  A    between atoms: S1_29  and  C17_32 
ROOT
HETATM    1  C12 UNL     1       6.845  35.003 -11.553  1.00  0.00     0.035 A 
HETATM    2  C13 UNL     1       5.881  34.515 -10.748  1.00  0.00     0.032 A 
HETATM    3  C14 UNL     1       4.587  35.014 -10.910  1.00  0.00     0.032 A 
HETATM    4  C15 UNL     1       4.245  36.006 -11.867  1.00  0.00     0.036 A 
HETATM    5  C23 UNL     1       5.262  36.517 -12.655  1.00  0.00     0.032 A 
HETATM    6  C24 UNL     1       6.528  36.053 -12.529  1.00  0.00     0.032 A 
ENDROOT
BRANCH   1   7
HETATM    7  N1  UNL     1       7.893  34.205 -12.007  1.00  0.00    -0.315 N 
HETATM    8  C1  UNL     1       7.909  33.526 -13.314  1.00  0.00     0.317 C 
HETATM    9  O1  UNL     1       6.982  33.411 -14.084  1.00  0.00    -0.256 OA
ATOM     10  H1  UNL     1       8.700  34.084 -11.396  1.00  0.00     0.170 HD
BRANCH   8  11
HETATM   11  C2  UNL     1       9.232  33.081 -13.530  1.00  0.00     0.086 C 
BRANCH  11  12
HETATM   12  O2  UNL     1      10.486  33.049 -13.905  1.00  0.00    -0.225 OA
BRANCH  12  13
HETATM   13  C3  UNL     1      11.312  34.098 -14.339  1.00  0.00     0.309 C 
HETATM   14  O3  UNL     1      11.163  34.615 -15.426  1.00  0.00    -0.258 OA
BRANCH  13  15
HETATM   15  C4  UNL     1      12.328  34.565 -13.377  1.00  0.00     0.075 A 
HETATM   16  C5  UNL     1      12.228  34.555 -11.972  1.00  0.00     0.161 A 
HETATM   17  O4  UNL     1      13.426  34.699 -11.481  1.00  0.00    -0.321 OA
HETATM   18  C6  UNL     1      14.367  34.815 -12.405  1.00  0.00     0.086 A 
HETATM   19  C7  UNL     1      15.722  34.967 -12.351  1.00  0.00     0.040 A 
HETATM   20  C11 UNL     1      13.689  34.754 -13.606  1.00  0.00     0.018 A 
HETATM   21  C8  UNL     1      16.443  35.055 -13.515  1.00  0.00     0.026 A 
HETATM   22  C9  UNL     1      15.800  34.991 -14.743  1.00  0.00     0.035 A 
HETATM   23 CL1  UNL     1      16.738  35.120 -16.177  1.00  0.00    -0.084 Cl
HETATM   24  C10 UNL     1      14.394  34.840 -14.786  1.00  0.00     0.039 A 
ENDBRANCH  13  15
ENDBRANCH  12  13
ENDBRANCH  11  12
ENDBRANCH   8  11
ENDBRANCH   1   7
BRANCH   4  25
HETATM   25  N2  UNL     1       2.874  36.037 -12.186  1.00  0.00    -0.310 N 
ATOM     26  H2  UNL     1       2.296  36.783 -11.800  1.00  0.00     0.170 HD
BRANCH  25  27
HETATM   27  C16 UNL     1       2.273  35.076 -13.017  1.00  0.00     0.310 C 
BRANCH  27  28
HETATM   28  O5  UNL     1       1.461  34.254 -12.381  1.00  0.00    -0.321 OA
ATOM     29  H5  UNL     1       1.259  33.462 -12.866  1.00  0.00     0.222 HD
ENDBRANCH  27  28
BRANCH  27  30
HETATM   30  N3  UNL     1       2.449  34.929 -14.311  1.00  0.00    -0.275 NA
BRANCH  30  31
HETATM   31  S1  UNL     1       2.678  34.735 -15.965  1.00  0.00     0.328 S 
HETATM   32  O6  UNL     1       3.889  33.765 -16.141  1.00  0.00    -0.186 OA
HETATM   33  O7  UNL     1       2.949  35.940 -16.777  1.00  0.00    -0.186 OA
BRANCH  31  34
HETATM   34  C17 UNL     1       1.236  33.913 -16.630  1.00  0.00     0.092 A 
HETATM   35  C18 UNL     1       0.801  32.707 -16.173  1.00  0.00     0.026 A 
HETATM   36  C19 UNL     1      -0.421  32.224 -16.625  1.00  0.00     0.002 A 
HETATM   37  C20 UNL     1      -1.151  32.974 -17.529  1.00  0.00     0.000 A 
HETATM   38  C21 UNL     1      -0.722  34.191 -18.002  1.00  0.00     0.002 A 
HETATM   39  C22 UNL     1       0.501  34.648 -17.526  1.00  0.00     0.026 A 
ENDBRANCH  31  34
ENDBRANCH  30  31
ENDBRANCH  27  30
ENDBRANCH  25  27
ENDBRANCH   4  25
TORSDOF 11
ENDMDL
MODEL 2
REMARK VINA RESULT: -9.931858516      4.924     11.424
REMARK  11 active torsions:
REMARK  status: ('A' for Active; 'I' for Inactive)
REMARK    1  A    between atoms: C1_2  and  C2_3 
REMARK       I    between atoms: C1_2  and  N1_17 
REMARK    2  A    between atoms: C2_3  and  O2_4 
REMARK    3  A    between atoms: O2_4  and  C3_5 
REMARK    4  A    between atoms: C3_5  and  C4_7 
REMARK    5  A    between atoms: N1_17  and  C12_19 
REMARK    6  A    between atoms: C15_22  and  N2_23 
REMARK    7  A    between atoms: N2_23  and  C16_25 
REMARK    8  A    between atoms: C16_25  and  O5_26 
REMARK    9  A    between atoms: C16_25  and  N3_28 
REMARK   10  A    between atoms: N3_28  and  S1_29 
REMARK   11  A    between atoms: S1_29  and  C17_32 
ROOT
HETATM    1  C12 UNL     1      11.517  34.869 -14.485  1.00  0.00     0.035 A 
HETATM    2  C13 UNL     1      11.550  35.204 -15.789  1.00  0.00     0.032 A 
HETATM    3  C14 UNL     1      12.116  34.290 -16.680  1.00  0.00     0.032 A 
HETATM    4  C15 UNL     1      12.661  33.041 -16.278  1.00  0.00     0.036 A 
HETATM    5  C23 UNL     1      12.648  32.739 -14.928  1.00  0.00     0.032 A 
HETATM    6  C24 UNL     1      12.102  33.600 -14.036  1.00  0.00     0.032 A 
ENDROOT
BRANCH   1   7
HETATM    7  N1  UNL     1      10.462  35.248 -13.658  1.00  0.00    -0.315 N 
HETATM    8  C1  UNL     1      10.131  36.645 -13.329  1.00  0.00     0.317 C 
HETATM    9  O1  UNL     1      10.800  37.626 -13.565  1.00  0.00    -0.256 OA
ATOM     10  H1  UNL     1       9.883  34.512 -13.255  1.00  0.00     0.170 HD
BRANCH   8  11
HETATM   11  C2  UNL     1       8.849  36.635 -12.734  1.00  0.00     0.086 C 
BRANCH  11  12
HETATM   12  O2  UNL     1       7.761  36.219 -12.137  1.00  0.00    -0.225 OA
BRANCH  12  13
HETATM   13  C3  UNL     1       7.430  34.932 -11.686  1.00  0.00     0.309 C 
HETATM   14  O3  UNL     1       8.267  34.060 -11.585  1.00  0.00    -0.258 OA
BRANCH  13  15
HETATM   15  C4  UNL     1       6.023  34.721 -11.295  1.00  0.00     0.075 A 
HETATM   16  C5  UNL     1       5.521  34.596  -9.985  1.00  0.00     0.161 A 
HETATM   17  O4  UNL     1       4.233  34.781 -10.027  1.00  0.00    -0.321 OA
HETATM   18  C6  UNL     1       3.771  35.022 -11.244  1.00  0.00     0.086 A 
HETATM   19  C7  UNL     1       2.528  35.280 -11.743  1.00  0.00     0.040 A 
HETATM   20  C11 UNL     1       4.884  34.966 -12.059  1.00  0.00     0.018 A 
HETATM   21  C8  UNL     1       2.366  35.500 -13.087  1.00  0.00     0.026 A 
HETATM   22  C9  UNL     1       3.462  35.459 -13.940  1.00  0.00     0.035 A 
HETATM   23 CL1  UNL     1       3.214  35.725 -15.619  1.00  0.00    -0.084 Cl
HETATM   24  C10 UNL     1       4.745  35.184 -13.412  1.00  0.00     0.039 A 
ENDBRANCH  13  15
ENDBRANCH  12  13
ENDBRANCH  11  12
ENDBRANCH   8  11
ENDBRANCH   1   7
BRANCH   4  25
HETATM   25  N2  UNL     1      12.752  32.101 -17.322  1.00  0.00    -0.310 N 
ATOM     26  H2  UNL     1      11.893  31.716 -17.714  1.00  0.00     0.170 HD
BRANCH  25  27
HETATM   27  C16 UNL     1      13.985  31.673 -17.844  1.00  0.00     0.310 C 
BRANCH  27  28
HETATM   28  O5  UNL     1      13.903  30.579 -18.576  1.00  0.00    -0.321 OA
ATOM     29  H5  UNL     1      14.395  30.622 -19.388  1.00  0.00     0.222 HD
ENDBRANCH  27  28
BRANCH  27  30
HETATM   30  N3  UNL     1      15.157  32.239 -17.666  1.00  0.00    -0.275 NA
BRANCH  30  31
HETATM   31  S1  UNL     1      16.654  32.967 -17.434  1.00  0.00     0.328 S 
HETATM   32  O6  UNL     1      16.917  33.866 -18.682  1.00  0.00    -0.186 OA
HETATM   33  O7  UNL     1      17.833  32.094 -17.257  1.00  0.00    -0.186 OA
BRANCH  31  34
HETATM   34  C17 UNL     1      16.530  34.049 -16.015  1.00  0.00     0.092 A 
HETATM   35  C18 UNL     1      15.682  35.113 -15.974  1.00  0.00     0.026 A 
HETATM   36  C19 UNL     1      15.524  35.794 -14.775  1.00  0.00     0.002 A 
HETATM   37  C20 UNL     1      16.237  35.380 -13.664  1.00  0.00     0.000 A 
HETATM   38  C21 UNL     1      17.099  34.310 -13.692  1.00  0.00     0.002 A 
HETATM   39  C22 UNL     1      17.230  33.647 -14.906  1.00  0.00     0.026 A 
ENDBRANCH  31  34
ENDBRANCH  30  31
ENDBRANCH  27  30
ENDBRANCH  25  27
ENDBRANCH   4  25
TORSDOF 11
ENDMDL
MODEL 3
REMARK VINA RESULT: -9.906552135      4.092      7.232
REMARK  11 active torsions:
REMARK  status: ('A' for Active; 'I' for Inactive)
REMARK    1  A    between atoms: C1_2  and  C2_3 
REMARK       I    between atoms: C1_2  and  N1_17 
REMARK    2  A    between atoms: C2_3  and  O2_4 
REMARK    3  A    between atoms: O2_4  and  C3_5 
REMARK    4  A    between atoms: C3_5  and  C4_7 
REMARK    5  A    between atoms: N1_17  and  C12_19 
REMARK    6  A    between atoms: C15_22  and  N2_23 
REMARK    7  A    between atoms: N2_23  and  C16_25 
REMARK    8  A    between atoms: C16_25  and  O5_26 
REMARK    9  A    between atoms: C16_25  and  N3_28 
REMARK   10  A    between atoms: N3_28  and  S1_29 
REMARK   11  A    between atoms: S1_29  and  C17_32 
ROOT
HETATM    1  C12 UNL     1      13.735  34.928 -13.690  1.00  0.00     0.035 A 
HETATM    2  C13 UNL     1      13.709  35.044 -12.349  1.00  0.00     0.032 A 
HETATM    3  C14 UNL     1      12.584  34.562 -11.677  1.00  0.00     0.032 A 
HETATM    4  C15 UNL     1      11.474  33.968 -12.336  1.00  0.00     0.036 A 
HETATM    5  C23 UNL     1      11.512  33.896 -13.718  1.00  0.00     0.032 A 
HETATM    6  C24 UNL     1      12.589  34.349 -14.402  1.00  0.00     0.032 A 
ENDROOT
BRANCH   1   7
HETATM    7  N1  UNL     1      14.920  34.685 -14.381  1.00  0.00    -0.315 N 
HETATM    8  C1  UNL     1      16.254  34.674 -13.756  1.00  0.00     0.317 C 
HETATM    9  O1  UNL     1      16.535  35.036 -12.636  1.00  0.00    -0.256 OA
ATOM     10  H1  UNL     1      14.861  34.504 -15.383  1.00  0.00     0.170 HD
BRANCH   8  11
HETATM   11  C2  UNL     1      17.143  34.103 -14.694  1.00  0.00     0.086 C 
BRANCH  11  12
HETATM   12  O2  UNL     1      17.708  33.248 -15.509  1.00  0.00    -0.225 OA
BRANCH  12  13
HETATM   13  C3  UNL     1      17.398  32.955 -16.846  1.00  0.00     0.309 C 
HETATM   14  O3  UNL     1      17.951  32.056 -17.443  1.00  0.00    -0.258 OA
BRANCH  13  15
HETATM   15  C4  UNL     1      16.328  33.766 -17.458  1.00  0.00     0.075 A 
HETATM   16  C5  UNL     1      16.494  34.881 -18.301  1.00  0.00     0.161 A 
HETATM   17  O4  UNL     1      15.364  35.098 -18.911  1.00  0.00    -0.321 OA
HETATM   18  C6  UNL     1      14.410  34.243 -18.578  1.00  0.00     0.086 A 
HETATM   19  C7  UNL     1      13.111  34.087 -18.965  1.00  0.00     0.040 A 
HETATM   20  C11 UNL     1      14.995  33.409 -17.646  1.00  0.00     0.018 A 
HETATM   21  C8  UNL     1      12.357  33.074 -18.428  1.00  0.00     0.026 A 
HETATM   22  C9  UNL     1      12.911  32.210 -17.493  1.00  0.00     0.035 A 
HETATM   23 CL1  UNL     1      11.929  30.965 -16.833  1.00  0.00    -0.084 Cl
HETATM   24  C10 UNL     1      14.257  32.386 -17.094  1.00  0.00     0.039 A 
ENDBRANCH  13  15
ENDBRANCH  12  13
ENDBRANCH  11  12
ENDBRANCH   8  11
ENDBRANCH   1   7
BRANCH   4  25
HETATM   25  N2  UNL     1      10.686  33.157 -11.498  1.00  0.00    -0.310 N 
ATOM     26  H2  UNL     1      11.117  32.734 -10.676  1.00  0.00     0.170 HD
BRANCH  25  27
HETATM   27  C16 UNL     1       9.328  32.907 -11.755  1.00  0.00     0.310 C 
BRANCH  27  28
HETATM   28  O5  UNL     1       8.948  31.677 -11.467  1.00  0.00    -0.321 OA
ATOM     29  H5  UNL     1       9.231  31.029 -12.102  1.00  0.00     0.222 HD
ENDBRANCH  27  28
BRANCH  27  30
HETATM   30  N3  UNL     1       8.447  33.752 -12.241  1.00  0.00    -0.275 NA
BRANCH  30  31
HETATM   31  S1  UNL     1       7.321  34.831 -12.870  1.00  0.00     0.328 S 
HETATM   32  O6  UNL     1       6.759  34.185 -14.175  1.00  0.00    -0.186 OA
HETATM   33  O7  UNL     1       7.778  36.195 -13.208  1.00  0.00    -0.186 OA
BRANCH  31  34
HETATM   34  C17 UNL     1       5.965  34.955 -11.710  1.00  0.00     0.092 A 
HETATM   35  C18 UNL     1       4.731  35.402 -12.067  1.00  0.00     0.026 A 
HETATM   36  C19 UNL     1       3.694  35.303 -11.148  1.00  0.00     0.002 A 
HETATM   37  C20 UNL     1       3.948  34.765  -9.899  1.00  0.00     0.000 A 
HETATM   38  C21 UNL     1       5.191  34.313  -9.524  1.00  0.00     0.002 A 
HETATM   39  C22 UNL     1       6.204  34.421 -10.468  1.00  0.00     0.026 A 
ENDBRANCH  31  34
ENDBRANCH  30  31
ENDBRANCH  27  30
ENDBRANCH  25  27
ENDBRANCH   4  25
TORSDOF 11
ENDMDL
MODEL 4
REMARK VINA RESULT: -9.899731021      3.888      6.948
REMARK  11 active torsions:
REMARK  status: ('A' for Active; 'I' for Inactive)
REMARK    1  A    between atoms: C1_2  and  C2_3 
REMARK       I    between atoms: C1_2  and  N1_17 
REMARK    2  A    between atoms: C2_3  and  O2_4 
REMARK    3  A    between atoms: O2_4  and  C3_5 
REMARK    4  A    between atoms: C3_5  and  C4_7 
REMARK    5  A    between atoms: N1_17  and  C12_19 
REMARK    6  A    between atoms: C15_22  and  N2_23 
REMARK    7  A    between atoms: N2_23  and  C16_25 
REMARK    8  A    between atoms: C16_25  and  O5_26 
REMARK    9  A    between atoms: C16_25  and  N3_28 
REMARK   10  A    between atoms: N3_28  and  S1_29 
REMARK   11  A    between atoms: S1_29  and  C17_32 
ROOT
HETATM    1  C12 UNL     1      13.178  34.928 -13.227  1.00  0.00     0.035 A 
HETATM    2  C13 UNL     1      13.139  34.740 -11.894  1.00  0.00     0.032 A 
HETATM    3  C14 UNL     1      11.992  34.156 -11.353  1.00  0.00     0.032 A 
HETATM    4  C15 UNL     1      10.872  33.762 -12.135  1.00  0.00     0.036 A 
HETATM    5  C23 UNL     1      10.924  34.002 -13.497  1.00  0.00     0.032 A 
HETATM    6  C24 UNL     1      12.023  34.562 -14.056  1.00  0.00     0.032 A 
ENDROOT
BRANCH   1   7
HETATM    7  N1  UNL     1      14.363  34.809 -13.949  1.00  0.00    -0.315 N 
HETATM    8  C1  UNL     1      14.875  35.836 -14.872  1.00  0.00     0.317 C 
HETATM    9  O1  UNL     1      14.285  36.815 -15.270  1.00  0.00    -0.256 OA
ATOM     10  H1  UNL     1      14.911  33.957 -13.830  1.00  0.00     0.170 HD
BRANCH   8  11
HETATM   11  C2  UNL     1      16.215  35.494 -15.166  1.00  0.00     0.086 C 
BRANCH  11  12
HETATM   12  O2  UNL     1      17.261  34.934 -15.719  1.00  0.00    -0.225 OA
BRANCH  12  13
HETATM   13  C3  UNL     1      17.539  33.573 -15.920  1.00  0.00     0.309 C 
HETATM   14  O3  UNL     1      18.085  32.904 -15.068  1.00  0.00    -0.258 OA
BRANCH  13  15
HETATM   15  C4  UNL     1      17.083  32.998 -17.199  1.00  0.00     0.075 A 
HETATM   16  C5  UNL     1      17.895  32.540 -18.255  1.00  0.00     0.161 A 
HETATM   17  O4  UNL     1      17.164  31.793 -19.032  1.00  0.00    -0.321 OA
HETATM   18  C6  UNL     1      15.907  31.681 -18.631  1.00  0.00     0.086 A 
HETATM   19  C7  UNL     1      14.823  31.009 -19.114  1.00  0.00     0.040 A 
HETATM   20  C11 UNL     1      15.834  32.453 -17.488  1.00  0.00     0.018 A 
HETATM   21  C8  UNL     1      13.623  31.087 -18.453  1.00  0.00     0.026 A 
HETATM   22  C9  UNL     1      13.510  31.847 -17.296  1.00  0.00     0.035 A 
HETATM   23 CL1  UNL     1      11.987  31.930 -16.506  1.00  0.00    -0.084 Cl
HETATM   24  C10 UNL     1      14.640  32.544 -16.808  1.00  0.00     0.039 A 
ENDBRANCH  13  15
ENDBRANCH  12  13
ENDBRANCH  11  12
ENDBRANCH   8  11
ENDBRANCH   1   7
BRANCH   4  25
HETATM   25  N2  UNL     1      10.049  32.809 -11.506  1.00  0.00    -0.310 N 
ATOM     26  H2  UNL     1      10.464  32.177 -10.821  1.00  0.00     0.170 HD
BRANCH  25  27
HETATM   27  C16 UNL     1       8.678  32.696 -11.788  1.00  0.00     0.310 C 
BRANCH  27  28
HETATM   28  O5  UNL     1       8.169  31.515 -11.496  1.00  0.00    -0.321 OA
ATOM     29  H5  UNL     1       8.001  31.387 -10.569  1.00  0.00     0.222 HD
ENDBRANCH  27  28
BRANCH  27  30
HETATM   30  N3  UNL     1       7.898  33.620 -12.302  1.00  0.00    -0.275 NA
BRANCH  30  31
HETATM   31  S1  UNL     1       6.905  34.806 -12.962  1.00  0.00     0.328 S 
HETATM   32  O6  UNL     1       6.377  34.245 -14.320  1.00  0.00    -0.186 OA
HETATM   33  O7  UNL     1       7.491  36.137 -13.226  1.00  0.00    -0.186 OA
BRANCH  31  34
HETATM   34  C17 UNL     1       5.493  35.009 -11.883  1.00  0.00     0.092 A 
HETATM   35  C18 UNL     1       4.273  35.405 -12.337  1.00  0.00     0.026 A 
HETATM   36  C19 UNL     1       3.194  35.370 -11.464  1.00  0.00     0.002 A 
HETATM   37  C20 UNL     1       3.391  34.945 -10.162  1.00  0.00     0.000 A 
HETATM   38  C21 UNL     1       4.618  34.546  -9.690  1.00  0.00     0.002 A 
HETATM   39  C22 UNL     1       5.676  34.588 -10.590  1.00  0.00     0.026 A 
ENDBRANCH  31  34
ENDBRANCH  30  31
ENDBRANCH  27  30
ENDBRANCH  25  27
ENDBRANCH   4  25
TORSDOF 11
ENDMDL
MODEL 5
REMARK VINA RESULT: -9.860499006      5.555     11.407
REMARK  11 active torsions:
REMARK  status: ('A' for Active; 'I' for Inactive)
REMARK    1  A    between atoms: C1_2  and  C2_3 
REMARK       I    between atoms: C1_2  and  N1_17 
REMARK    2  A    between atoms: C2_3  and  O2_4 
REMARK    3  A    between atoms: O2_4  and  C3_5 
REMARK    4  A    between atoms: C3_5  and  C4_7 
REMARK    5  A    between atoms: N1_17  and  C12_19 
REMARK    6  A    between atoms: C15_22  and  N2_23 
REMARK    7  A    between atoms: N2_23  and  C16_25 
REMARK    8  A    between atoms: C16_25  and  O5_26 
REMARK    9  A    between atoms: C16_25  and  N3_28 
REMARK   10  A    between atoms: N3_28  and  S1_29 
REMARK   11  A    between atoms: S1_29  and  C17_32 
ROOT
HETATM    1  C12 UNL     1      14.175  35.116 -13.174  1.00  0.00     0.035 A 
HETATM    2  C13 UNL     1      14.324  35.216 -14.509  1.00  0.00     0.032 A 
HETATM    3  C14 UNL     1      15.625  35.206 -15.019  1.00  0.00     0.032 A 
HETATM    4  C15 UNL     1      16.783  35.103 -14.203  1.00  0.00     0.036 A 
HETATM    5  C23 UNL     1      16.601  35.039 -12.833  1.00  0.00     0.032 A 
HETATM    6  C24 UNL     1      15.354  35.043 -12.304  1.00  0.00     0.032 A 
ENDROOT
BRANCH   1   7
HETATM    7  N1  UNL     1      13.098  34.437 -12.608  1.00  0.00    -0.315 N 
HETATM    8  C1  UNL     1      11.730  34.977 -12.529  1.00  0.00     0.317 C 
HETATM    9  O1  UNL     1      11.381  36.111 -12.766  1.00  0.00    -0.256 OA
ATOM     10  H1  UNL     1      13.268  33.508 -12.224  1.00  0.00     0.170 HD
BRANCH   8  11
HETATM   11  C2  UNL     1      10.883  33.901 -12.178  1.00  0.00     0.086 C 
BRANCH  11  12
HETATM   12  O2  UNL     1      10.159  33.070 -11.472  1.00  0.00    -0.225 OA
BRANCH  12  13
HETATM   13  C3  UNL     1       8.841  32.636 -11.686  1.00  0.00     0.309 C 
HETATM   14  O3  UNL     1       8.489  31.511 -11.399  1.00  0.00    -0.258 OA
BRANCH  13  15
HETATM   15  C4  UNL     1       7.906  33.640 -12.228  1.00  0.00     0.075 A 
HETATM   16  C5  UNL     1       7.739  33.993 -13.581  1.00  0.00     0.161 A 
HETATM   17  O4  UNL     1       6.607  34.627 -13.697  1.00  0.00    -0.321 OA
HETATM   18  C6  UNL     1       5.956  34.761 -12.552  1.00  0.00     0.086 A 
HETATM   19  C7  UNL     1       4.762  35.326 -12.211  1.00  0.00     0.040 A 
HETATM   20  C11 UNL     1       6.772  34.163 -11.612  1.00  0.00     0.018 A 
HETATM   21  C8  UNL     1       4.345  35.301 -10.904  1.00  0.00     0.026 A 
HETATM   22  C9  UNL     1       5.133  34.703  -9.930  1.00  0.00     0.035 A 
HETATM   23 CL1  UNL     1       4.582  34.705  -8.303  1.00  0.00    -0.084 Cl
HETATM   24  C10 UNL     1       6.372  34.125 -10.294  1.00  0.00     0.039 A 
ENDBRANCH  13  15
ENDBRANCH  12  13
ENDBRANCH  11  12
ENDBRANCH   8  11
ENDBRANCH   1   7
BRANCH   4  25
HETATM   25  N2  UNL     1      17.925  34.655 -14.895  1.00  0.00    -0.310 N 
ATOM     26  H2  UNL     1      18.739  35.267 -14.949  1.00  0.00     0.170 HD
BRANCH  25  27
HETATM   27  C16 UNL     1      17.983  33.395 -15.514  1.00  0.00     0.310 C 
BRANCH  27  28
HETATM   28  O5  UNL     1      18.385  32.426 -14.714  1.00  0.00    -0.321 OA
ATOM     29  H5  UNL     1      19.328  32.378 -14.611  1.00  0.00     0.222 HD
ENDBRANCH  27  28
BRANCH  27  30
HETATM   30  N3  UNL     1      17.693  33.115 -16.764  1.00  0.00    -0.275 NA
BRANCH  30  31
HETATM   31  S1  UNL     1      17.316  32.757 -18.363  1.00  0.00     0.328 S 
HETATM   32  O6  UNL     1      18.257  31.590 -18.798  1.00  0.00    -0.186 OA
HETATM   33  O7  UNL     1      17.448  33.834 -19.367  1.00  0.00    -0.186 OA
BRANCH  31  34
HETATM   34  C17 UNL     1      15.640  32.136 -18.411  1.00  0.00     0.092 A 
HETATM   35  C18 UNL     1      15.189  31.313 -19.396  1.00  0.00     0.026 A 
HETATM   36  C19 UNL     1      13.930  30.741 -19.263  1.00  0.00     0.002 A 
HETATM   37  C20 UNL     1      13.171  31.032 -18.144  1.00  0.00     0.000 A 
HETATM   38  C21 UNL     1      13.612  31.865 -17.144  1.00  0.00     0.002 A 
HETATM   39  C22 UNL     1      14.878  32.416 -17.304  1.00  0.00     0.026 A 
ENDBRANCH  31  34
ENDBRANCH  30  31
ENDBRANCH  27  30
ENDBRANCH  25  27
ENDBRANCH   4  25
TORSDOF 11
ENDMDL
