MODEL 1
REMARK VINA RESULT: -8.383992361      0.000      0.000
REMARK  15 active torsions:
REMARK  status: ('A' for Active; 'I' for Inactive)
REMARK    1  A    between atoms: C2_2  and  C10_16 
REMARK    2  A    between atoms: C3_3  and  S1_4 
REMARK    3  A    between atoms: S1_4  and  C4_5 
REMARK    4  A    between atoms: C4_5  and  C5_7 
REMARK    5  A    between atoms: C5_7  and  C6_8 
REMARK    6  A    between atoms: C6_8  and  C7_9 
REMARK    7  A    between atoms: C7_9  and  N1_10 
REMARK    8  A    between atoms: N1_10  and  S2_12 
REMARK       I    between atoms: C10_16  and  N2_18 
REMARK    9  A    between atoms: N2_18  and  C11_20 
REMARK   10  A    between atoms: C11_20  and  C12_21 
REMARK   11  A    between atoms: C12_21  and  N3_22 
REMARK       I    between atoms: N3_22  and  C13_24 
REMARK   12  A    between atoms: C13_24  and  C14_26 
REMARK   13  A    between atoms: C14_26  and  C15_27 
REMARK   14  A    between atoms: C15_27  and  O6_28 
REMARK   15  A    between atoms: O6_28  and  C16_29 
ROOT
HETATM    1  N3  UNL     1      16.991  22.899  15.608  1.00  0.00    -0.339 N 
ATOM      2  H3  UNL     1      16.741  23.877  15.755  1.00  0.00     0.167 HD
HETATM    3  C13 UNL     1      18.156  22.360  16.300  1.00  0.00     0.224 C 
HETATM    4  O5  UNL     1      18.381  21.169  16.058  1.00  0.00    -0.273 OA
ENDROOT
BRANCH   1   5
HETATM    5  C12 UNL     1      16.199  22.123  14.744  1.00  0.00     0.083 C 
BRANCH   5   6
HETATM    6  C11 UNL     1      14.735  22.414  14.849  1.00  0.00     0.167 C 
BRANCH   6   7
HETATM    7  N2  UNL     1      13.835  21.332  14.963  1.00  0.00    -0.352 N 
HETATM    8  C10 UNL     1      12.475  21.140  14.817  1.00  0.00     0.247 C 
HETATM    9  O4  UNL     1      11.678  22.063  14.523  1.00  0.00    -0.268 OA
ATOM     10  H2  UNL     1      14.313  20.468  15.221  1.00  0.00     0.163 HD
BRANCH   8  11
HETATM   11  C2  UNL     1      11.809  19.830  14.988  1.00  0.00     0.012 C 
HETATM   12  C1  UNL     1      11.709  18.956  13.776  1.00  0.00     0.054 C 
HETATM   13  C3  UNL     1      11.323  19.361  16.102  1.00  0.00     0.065 C 
BRANCH  13  14
HETATM   14  S1  UNL     1      10.567  17.721  16.161  1.00  0.00    -0.064 SA
BRANCH  14  15
HETATM   15  C4  UNL     1      11.293  16.831  17.557  1.00  0.00     0.190 C 
HETATM   16  O1  UNL     1      11.702  15.690  17.387  1.00  0.00    -0.285 OA
BRANCH  15  17
HETATM   17  C5  UNL     1      11.359  17.531  18.854  1.00  0.00     0.092 C 
BRANCH  17  18
HETATM   18  C6  UNL     1      12.528  17.200  19.715  1.00  0.00     0.024 C 
BRANCH  18  19
HETATM   19  C7  UNL     1      13.733  18.017  19.374  1.00  0.00     0.107 C 
BRANCH  19  20
HETATM   20  N1  UNL     1      13.655  19.360  19.915  1.00  0.00    -0.215 NA
HETATM   21  C8  UNL     1      13.909  19.436  21.315  1.00  0.00     0.129 C 
BRANCH  20  22
HETATM   22  S2  UNL     1      14.487  20.502  18.975  1.00  0.00     0.207 S 
HETATM   23  C9  UNL     1      15.804  19.829  17.998  1.00  0.00     0.180 C 
HETATM   24  O2  UNL     1      13.583  21.294  18.076  1.00  0.00    -0.212 OA
HETATM   25  O3  UNL     1      15.117  21.495  19.932  1.00  0.00    -0.212 OA
ENDBRANCH  20  22
ENDBRANCH  19  20
ENDBRANCH  18  19
ENDBRANCH  17  18
ENDBRANCH  15  17
ENDBRANCH  14  15
ENDBRANCH  13  14
ENDBRANCH   8  11
ENDBRANCH   6   7
ENDBRANCH   5   6
ENDBRANCH   1   5
BRANCH   3  26
HETATM   26  C14 UNL     1      18.945  23.179  17.170  1.00  0.00     0.144 C 
BRANCH  26  27
HETATM   27  C15 UNL     1      18.348  23.633  18.497  1.00  0.00     0.105 C 
HETATM   28  C17 UNL     1      18.475  22.394  19.375  1.00  0.00     0.045 C 
HETATM   29  C18 UNL     1      19.878  22.126  19.804  1.00  0.00     0.042 C 
HETATM   30  C19 UNL     1      20.649  23.387  19.965  1.00  0.00     0.071 C 
HETATM   31  C20 UNL     1      21.957  23.149  20.594  1.00  0.00     0.040 C 
HETATM   32  C26 UNL     1      19.816  24.520  20.429  1.00  0.00     0.017 C 
HETATM   33  O8  UNL     1      20.689  23.990  18.686  1.00  0.00    -0.370 OA
HETATM   34  C21 UNL     1      22.521  24.219  21.442  1.00  0.00     0.012 C 
HETATM   35  C22 UNL     1      22.076  25.570  20.967  1.00  0.00    -0.047 C 
HETATM   36  C23 UNL     1      22.588  26.555  22.039  1.00  0.00     0.015 C 
HETATM   37  C24 UNL     1      22.841  25.964  19.698  1.00  0.00     0.015 C 
HETATM   38  C25 UNL     1      20.623  25.750  20.790  1.00  0.00     0.023 C 
HETATM   39  C27 UNL     1      18.785  24.274  21.468  1.00  0.00     0.021 C 
HETATM   40  C28 UNL     1      19.472  24.578  19.009  1.00  0.00     0.169 C 
BRANCH  27  41
HETATM   41  O6  UNL     1      17.280  24.292  18.476  1.00  0.00    -0.314 OA
BRANCH  41  42
HETATM   42  C16 UNL     1      16.149  24.903  18.424  1.00  0.00     0.399 C 
HETATM   43  O7  UNL     1      15.246  24.180  17.957  1.00  0.00    -0.276 OA
ENDBRANCH  41  42
ENDBRANCH  27  41
ENDBRANCH  26  27
ENDBRANCH   3  26
TORSDOF 15
ENDMDL
MODEL 2
REMARK VINA RESULT: -8.247908352      3.909     10.367
REMARK  15 active torsions:
REMARK  status: ('A' for Active; 'I' for Inactive)
REMARK    1  A    between atoms: C2_2  and  C10_16 
REMARK    2  A    between atoms: C3_3  and  S1_4 
REMARK    3  A    between atoms: S1_4  and  C4_5 
REMARK    4  A    between atoms: C4_5  and  C5_7 
REMARK    5  A    between atoms: C5_7  and  C6_8 
REMARK    6  A    between atoms: C6_8  and  C7_9 
REMARK    7  A    between atoms: C7_9  and  N1_10 
REMARK    8  A    between atoms: N1_10  and  S2_12 
REMARK       I    between atoms: C10_16  and  N2_18 
REMARK    9  A    between atoms: N2_18  and  C11_20 
REMARK   10  A    between atoms: C11_20  and  C12_21 
REMARK   11  A    between atoms: C12_21  and  N3_22 
REMARK       I    between atoms: N3_22  and  C13_24 
REMARK   12  A    between atoms: C13_24  and  C14_26 
REMARK   13  A    between atoms: C14_26  and  C15_27 
REMARK   14  A    between atoms: C15_27  and  O6_28 
REMARK   15  A    between atoms: O6_28  and  C16_29 
ROOT
HETATM    1  N3  UNL     1      17.451  21.799  18.584  1.00  0.00    -0.339 N 
ATOM      2  H3  UNL     1      16.676  22.170  19.133  1.00  0.00     0.167 HD
HETATM    3  C13 UNL     1      17.156  21.066  17.358  1.00  0.00     0.224 C 
HETATM    4  O5  UNL     1      18.157  20.653  16.762  1.00  0.00    -0.273 OA
ENDROOT
BRANCH   1   5
HETATM    5  C12 UNL     1      18.764  22.013  19.038  1.00  0.00     0.083 C 
BRANCH   5   6
HETATM    6  C11 UNL     1      19.116  23.459  19.194  1.00  0.00     0.167 C 
BRANCH   6   7
HETATM    7  N2  UNL     1      19.518  24.186  18.051  1.00  0.00    -0.352 N 
HETATM    8  C10 UNL     1      18.950  24.557  16.848  1.00  0.00     0.247 C 
HETATM    9  O4  UNL     1      17.784  24.237  16.510  1.00  0.00    -0.268 OA
ATOM     10  H2  UNL     1      20.476  24.525  18.138  1.00  0.00     0.163 HD
BRANCH   8  11
HETATM   11  C2  UNL     1      19.647  25.371  15.829  1.00  0.00     0.012 C 
HETATM   12  C1  UNL     1      18.795  26.045  14.798  1.00  0.00     0.054 C 
HETATM   13  C3  UNL     1      20.933  25.572  15.764  1.00  0.00     0.065 C 
BRANCH  13  14
HETATM   14  S1  UNL     1      21.637  26.625  14.475  1.00  0.00    -0.064 SA
BRANCH  14  15
HETATM   15  C4  UNL     1      21.697  28.314  15.118  1.00  0.00     0.190 C 
HETATM   16  O1  UNL     1      20.651  28.932  15.265  1.00  0.00    -0.285 OA
BRANCH  15  17
HETATM   17  C5  UNL     1      23.023  28.875  15.441  1.00  0.00     0.092 C 
BRANCH  17  18
HETATM   18  C6  UNL     1      24.072  27.891  15.827  1.00  0.00     0.024 C 
BRANCH  18  19
HETATM   19  C7  UNL     1      24.247  27.800  17.309  1.00  0.00     0.107 C 
BRANCH  19  20
HETATM   20  N1  UNL     1      23.966  26.470  17.813  1.00  0.00    -0.215 NA
HETATM   21  C8  UNL     1      25.131  25.701  18.098  1.00  0.00     0.129 C 
BRANCH  20  22
HETATM   22  S2  UNL     1      22.786  26.458  19.032  1.00  0.00     0.207 S 
HETATM   23  C9  UNL     1      21.377  27.480  18.700  1.00  0.00     0.180 C 
HETATM   24  O2  UNL     1      22.304  25.078  19.370  1.00  0.00    -0.212 OA
HETATM   25  O3  UNL     1      23.435  27.005  20.288  1.00  0.00    -0.212 OA
ENDBRANCH  20  22
ENDBRANCH  19  20
ENDBRANCH  18  19
ENDBRANCH  17  18
ENDBRANCH  15  17
ENDBRANCH  14  15
ENDBRANCH  13  14
ENDBRANCH   8  11
ENDBRANCH   6   7
ENDBRANCH   5   6
ENDBRANCH   1   5
BRANCH   3  26
HETATM   26  C14 UNL     1      15.807  20.860  16.925  1.00  0.00     0.144 C 
BRANCH  26  27
HETATM   27  C15 UNL     1      14.996  22.059  16.445  1.00  0.00     0.105 C 
HETATM   28  C17 UNL     1      15.615  22.373  15.088  1.00  0.00     0.045 C 
HETATM   29  C18 UNL     1      15.249  21.378  14.038  1.00  0.00     0.042 C 
HETATM   30  C19 UNL     1      13.888  20.822  14.265  1.00  0.00     0.071 C 
HETATM   31  C20 UNL     1      13.435  20.013  13.123  1.00  0.00     0.040 C 
HETATM   32  C26 UNL     1      12.958  21.797  14.878  1.00  0.00     0.017 C 
HETATM   33  O8  UNL     1      13.942  20.147  15.507  1.00  0.00    -0.370 OA
HETATM   34  C21 UNL     1      11.986  19.981  12.832  1.00  0.00     0.012 C 
HETATM   35  C22 UNL     1      11.183  20.147  14.087  1.00  0.00    -0.047 C 
HETATM   36  C23 UNL     1       9.722  20.273  13.608  1.00  0.00     0.015 C 
HETATM   37  C24 UNL     1      11.202  18.851  14.905  1.00  0.00     0.015 C 
HETATM   38  C25 UNL     1      11.525  21.311  14.927  1.00  0.00     0.023 C 
HETATM   39  C27 UNL     1      12.994  23.209  14.421  1.00  0.00     0.021 C 
HETATM   40  C28 UNL     1      13.645  21.370  16.097  1.00  0.00     0.169 C 
BRANCH  27  41
HETATM   41  O6  UNL     1      14.753  22.980  17.261  1.00  0.00    -0.314 OA
BRANCH  41  42
HETATM   42  C16 UNL     1      14.578  23.950  18.088  1.00  0.00     0.399 C 
HETATM   43  O7  UNL     1      15.650  24.328  18.601  1.00  0.00    -0.276 OA
ENDBRANCH  41  42
ENDBRANCH  27  41
ENDBRANCH  26  27
ENDBRANCH   3  26
TORSDOF 15
ENDMDL
MODEL 3
REMARK VINA RESULT: -8.151712138      4.124     10.809
REMARK  15 active torsions:
REMARK  status: ('A' for Active; 'I' for Inactive)
REMARK    1  A    between atoms: C2_2  and  C10_16 
REMARK    2  A    between atoms: C3_3  and  S1_4 
REMARK    3  A    between atoms: S1_4  and  C4_5 
REMARK    4  A    between atoms: C4_5  and  C5_7 
REMARK    5  A    between atoms: C5_7  and  C6_8 
REMARK    6  A    between atoms: C6_8  and  C7_9 
REMARK    7  A    between atoms: C7_9  and  N1_10 
REMARK    8  A    between atoms: N1_10  and  S2_12 
REMARK       I    between atoms: C10_16  and  N2_18 
REMARK    9  A    between atoms: N2_18  and  C11_20 
REMARK   10  A    between atoms: C11_20  and  C12_21 
REMARK   11  A    between atoms: C12_21  and  N3_22 
REMARK       I    between atoms: N3_22  and  C13_24 
REMARK   12  A    between atoms: C13_24  and  C14_26 
REMARK   13  A    between atoms: C14_26  and  C15_27 
REMARK   14  A    between atoms: C15_27  and  O6_28 
REMARK   15  A    between atoms: O6_28  and  C16_29 
ROOT
HETATM    1  N3  UNL     1      17.291  21.321  18.800  1.00  0.00    -0.339 N 
ATOM      2  H3  UNL     1      16.421  21.428  19.321  1.00  0.00     0.167 HD
HETATM    3  C13 UNL     1      17.222  21.012  17.376  1.00  0.00     0.224 C 
HETATM    4  O5  UNL     1      18.326  20.899  16.830  1.00  0.00    -0.273 OA
ENDROOT
BRANCH   1   5
HETATM    5  C12 UNL     1      18.510  21.478  19.481  1.00  0.00     0.083 C 
BRANCH   5   6
HETATM    6  C11 UNL     1      18.935  22.904  19.630  1.00  0.00     0.167 C 
BRANCH   6   7
HETATM    7  N2  UNL     1      19.157  23.671  18.465  1.00  0.00    -0.352 N 
HETATM    8  C10 UNL     1      20.152  24.501  17.985  1.00  0.00     0.247 C 
HETATM    9  O4  UNL     1      21.196  24.766  18.629  1.00  0.00    -0.268 OA
ATOM     10  H2  UNL     1      18.381  23.591  17.807  1.00  0.00     0.163 HD
BRANCH   8  11
HETATM   11  C2  UNL     1      20.099  25.164  16.664  1.00  0.00     0.012 C 
HETATM   12  C1  UNL     1      20.077  24.276  15.458  1.00  0.00     0.054 C 
HETATM   13  C3  UNL     1      20.048  26.449  16.458  1.00  0.00     0.065 C 
BRANCH  13  14
HETATM   14  S1  UNL     1      19.952  27.111  14.779  1.00  0.00    -0.064 SA
BRANCH  14  15
HETATM   15  C4  UNL     1      21.430  28.113  14.498  1.00  0.00     0.190 C 
HETATM   16  O1  UNL     1      21.759  28.378  13.349  1.00  0.00    -0.285 OA
BRANCH  15  17
HETATM   17  C5  UNL     1      22.179  28.573  15.682  1.00  0.00     0.092 C 
BRANCH  17  18
HETATM   18  C6  UNL     1      23.639  28.277  15.687  1.00  0.00     0.024 C 
BRANCH  18  19
HETATM   19  C7  UNL     1      23.919  26.809  15.685  1.00  0.00     0.107 C 
BRANCH  19  20
HETATM   20  N1  UNL     1      25.340  26.523  15.751  1.00  0.00    -0.215 NA
HETATM   21  C8  UNL     1      26.162  27.538  15.182  1.00  0.00     0.129 C 
BRANCH  20  22
HETATM   22  S2  UNL     1      25.836  25.973  17.277  1.00  0.00     0.207 S 
HETATM   23  C9  UNL     1      27.143  26.919  18.009  1.00  0.00     0.180 C 
HETATM   24  O2  UNL     1      24.708  25.878  18.263  1.00  0.00    -0.212 OA
HETATM   25  O3  UNL     1      26.365  24.564  17.095  1.00  0.00    -0.212 OA
ENDBRANCH  20  22
ENDBRANCH  19  20
ENDBRANCH  18  19
ENDBRANCH  17  18
ENDBRANCH  15  17
ENDBRANCH  14  15
ENDBRANCH  13  14
ENDBRANCH   8  11
ENDBRANCH   6   7
ENDBRANCH   5   6
ENDBRANCH   1   5
BRANCH   3  26
HETATM   26  C14 UNL     1      15.963  20.854  16.712  1.00  0.00     0.144 C 
BRANCH  26  27
HETATM   27  C15 UNL     1      15.188  22.099  16.298  1.00  0.00     0.105 C 
HETATM   28  C17 UNL     1      15.735  22.399  14.907  1.00  0.00     0.045 C 
HETATM   29  C18 UNL     1      15.251  21.440  13.872  1.00  0.00     0.042 C 
HETATM   30  C19 UNL     1      13.881  20.951  14.180  1.00  0.00     0.071 C 
HETATM   31  C20 UNL     1      13.314  20.182  13.062  1.00  0.00     0.040 C 
HETATM   32  C26 UNL     1      13.044  21.964  14.862  1.00  0.00     0.017 C 
HETATM   33  O8  UNL     1      13.978  20.257  15.409  1.00  0.00    -0.370 OA
HETATM   34  C21 UNL     1      11.851  20.228  12.863  1.00  0.00     0.012 C 
HETATM   35  C22 UNL     1      11.138  20.418  14.169  1.00  0.00    -0.047 C 
HETATM   36  C23 UNL     1       9.658  20.625  13.786  1.00  0.00     0.015 C 
HETATM   37  C24 UNL     1      11.141  19.111  14.971  1.00  0.00     0.015 C 
HETATM   38  C25 UNL     1      11.593  21.551  14.998  1.00  0.00     0.023 C 
HETATM   39  C27 UNL     1      13.124  23.378  14.418  1.00  0.00     0.021 C 
HETATM   40  C28 UNL     1      13.783  21.486  16.030  1.00  0.00     0.169 C 
BRANCH  27  41
HETATM   41  O6  UNL     1      15.045  23.020  17.138  1.00  0.00    -0.314 OA
BRANCH  41  42
HETATM   42  C16 UNL     1      14.972  23.990  17.980  1.00  0.00     0.399 C 
HETATM   43  O7  UNL     1      16.091  24.307  18.429  1.00  0.00    -0.276 OA
ENDBRANCH  41  42
ENDBRANCH  27  41
ENDBRANCH  26  27
ENDBRANCH   3  26
TORSDOF 15
ENDMDL
MODEL 4
REMARK VINA RESULT: -8.149156260      3.326      9.656
REMARK  15 active torsions:
REMARK  status: ('A' for Active; 'I' for Inactive)
REMARK    1  A    between atoms: C2_2  and  C10_16 
REMARK    2  A    between atoms: C3_3  and  S1_4 
REMARK    3  A    between atoms: S1_4  and  C4_5 
REMARK    4  A    between atoms: C4_5  and  C5_7 
REMARK    5  A    between atoms: C5_7  and  C6_8 
REMARK    6  A    between atoms: C6_8  and  C7_9 
REMARK    7  A    between atoms: C7_9  and  N1_10 
REMARK    8  A    between atoms: N1_10  and  S2_12 
REMARK       I    between atoms: C10_16  and  N2_18 
REMARK    9  A    between atoms: N2_18  and  C11_20 
REMARK   10  A    between atoms: C11_20  and  C12_21 
REMARK   11  A    between atoms: C12_21  and  N3_22 
REMARK       I    between atoms: N3_22  and  C13_24 
REMARK   12  A    between atoms: C13_24  and  C14_26 
REMARK   13  A    between atoms: C14_26  and  C15_27 
REMARK   14  A    between atoms: C15_27  and  O6_28 
REMARK   15  A    between atoms: O6_28  and  C16_29 
ROOT
HETATM    1  N3  UNL     1      12.764  19.263  18.894  1.00  0.00    -0.339 N 
ATOM      2  H3  UNL     1      13.176  20.091  18.464  1.00  0.00     0.167 HD
HETATM    3  C13 UNL     1      11.449  18.820  18.445  1.00  0.00     0.224 C 
HETATM    4  O5  UNL     1      11.031  17.811  19.025  1.00  0.00    -0.273 OA
ENDROOT
BRANCH   1   5
HETATM    5  C12 UNL     1      13.486  18.594  19.898  1.00  0.00     0.083 C 
BRANCH   5   6
HETATM    6  C11 UNL     1      14.248  19.511  20.801  1.00  0.00     0.167 C 
BRANCH   6   7
HETATM    7  N2  UNL     1      15.235  20.351  20.239  1.00  0.00    -0.352 N 
HETATM    8  C10 UNL     1      15.256  21.490  19.458  1.00  0.00     0.247 C 
HETATM    9  O4  UNL     1      14.217  22.052  19.034  1.00  0.00    -0.268 OA
ATOM     10  H2  UNL     1      16.176  20.034  20.471  1.00  0.00     0.163 HD
BRANCH   8  11
HETATM   11  C2  UNL     1      16.499  22.174  19.039  1.00  0.00     0.012 C 
HETATM   12  C1  UNL     1      17.752  21.353  19.022  1.00  0.00     0.054 C 
HETATM   13  C3  UNL     1      16.595  23.417  18.664  1.00  0.00     0.065 C 
BRANCH  13  14
HETATM   14  S1  UNL     1      18.184  24.103  18.145  1.00  0.00    -0.064 SA
BRANCH  14  15
HETATM   15  C4  UNL     1      18.162  24.238  16.342  1.00  0.00     0.190 C 
HETATM   16  O1  UNL     1      18.533  23.285  15.669  1.00  0.00    -0.285 OA
BRANCH  15  17
HETATM   17  C5  UNL     1      17.689  25.507  15.758  1.00  0.00     0.092 C 
BRANCH  17  18
HETATM   18  C6  UNL     1      18.345  25.926  14.488  1.00  0.00     0.024 C 
BRANCH  18  19
HETATM   19  C7  UNL     1      19.407  26.955  14.712  1.00  0.00     0.107 C 
BRANCH  19  20
HETATM   20  N1  UNL     1      20.566  26.407  15.388  1.00  0.00    -0.215 NA
HETATM   21  C8  UNL     1      21.400  25.609  14.553  1.00  0.00     0.129 C 
BRANCH  20  22
HETATM   22  S2  UNL     1      21.387  27.554  16.331  1.00  0.00     0.207 S 
HETATM   23  C9  UNL     1      23.066  27.128  16.708  1.00  0.00     0.180 C 
HETATM   24  O2  UNL     1      21.368  28.930  15.732  1.00  0.00    -0.212 OA
HETATM   25  O3  UNL     1      20.654  27.652  17.655  1.00  0.00    -0.212 OA
ENDBRANCH  20  22
ENDBRANCH  19  20
ENDBRANCH  18  19
ENDBRANCH  17  18
ENDBRANCH  15  17
ENDBRANCH  14  15
ENDBRANCH  13  14
ENDBRANCH   8  11
ENDBRANCH   6   7
ENDBRANCH   5   6
ENDBRANCH   1   5
BRANCH   3  26
HETATM   26  C14 UNL     1      10.738  19.527  17.423  1.00  0.00     0.144 C 
BRANCH  26  27
HETATM   27  C15 UNL     1      10.854  19.049  15.980  1.00  0.00     0.105 C 
HETATM   28  C17 UNL     1       9.905  19.979  15.232  1.00  0.00     0.045 C 
HETATM   29  C18 UNL     1      10.440  21.363  15.087  1.00  0.00     0.042 C 
HETATM   30  C19 UNL     1      11.924  21.365  14.979  1.00  0.00     0.071 C 
HETATM   31  C20 UNL     1      12.440  22.694  14.618  1.00  0.00     0.040 C 
HETATM   32  C26 UNL     1      12.456  20.168  14.289  1.00  0.00     0.017 C 
HETATM   33  O8  UNL     1      12.408  20.834  16.197  1.00  0.00    -0.370 OA
HETATM   34  C21 UNL     1      13.677  22.759  13.812  1.00  0.00     0.012 C 
HETATM   35  C22 UNL     1      14.566  21.586  14.099  1.00  0.00    -0.047 C 
HETATM   36  C23 UNL     1      15.711  21.695  13.070  1.00  0.00     0.015 C 
HETATM   37  C24 UNL     1      15.259  21.765  15.454  1.00  0.00     0.015 C 
HETATM   38  C25 UNL     1      13.939  20.254  13.994  1.00  0.00     0.023 C 
HETATM   39  C27 UNL     1      11.737  19.645  13.100  1.00  0.00     0.021 C 
HETATM   40  C28 UNL     1      12.270  19.579  15.615  1.00  0.00     0.169 C 
BRANCH  27  41
HETATM   41  O6  UNL     1      10.842  17.815  15.758  1.00  0.00    -0.314 OA
BRANCH  41  42
HETATM   42  C16 UNL     1      10.750  16.550  15.539  1.00  0.00     0.399 C 
HETATM   43  O7  UNL     1      11.378  15.881  16.384  1.00  0.00    -0.276 OA
ENDBRANCH  41  42
ENDBRANCH  27  41
ENDBRANCH  26  27
ENDBRANCH   3  26
TORSDOF 15
ENDMDL
MODEL 5
REMARK VINA RESULT: -8.143282454      3.407     10.511
REMARK  15 active torsions:
REMARK  status: ('A' for Active; 'I' for Inactive)
REMARK    1  A    between atoms: C2_2  and  C10_16 
REMARK    2  A    between atoms: C3_3  and  S1_4 
REMARK    3  A    between atoms: S1_4  and  C4_5 
REMARK    4  A    between atoms: C4_5  and  C5_7 
REMARK    5  A    between atoms: C5_7  and  C6_8 
REMARK    6  A    between atoms: C6_8  and  C7_9 
REMARK    7  A    between atoms: C7_9  and  N1_10 
REMARK    8  A    between atoms: N1_10  and  S2_12 
REMARK       I    between atoms: C10_16  and  N2_18 
REMARK    9  A    between atoms: N2_18  and  C11_20 
REMARK   10  A    between atoms: C11_20  and  C12_21 
REMARK   11  A    between atoms: C12_21  and  N3_22 
REMARK       I    between atoms: N3_22  and  C13_24 
REMARK   12  A    between atoms: C13_24  and  C14_26 
REMARK   13  A    between atoms: C14_26  and  C15_27 
REMARK   14  A    between atoms: C15_27  and  O6_28 
REMARK   15  A    between atoms: O6_28  and  C16_29 
ROOT
HETATM    1  N3  UNL     1      17.529  21.949  18.494  1.00  0.00    -0.339 N 
ATOM      2  H3  UNL     1      16.740  22.377  18.979  1.00  0.00     0.167 HD
HETATM    3  C13 UNL     1      17.268  21.139  17.309  1.00  0.00     0.224 C 
HETATM    4  O5  UNL     1      18.284  20.661  16.791  1.00  0.00    -0.273 OA
ENDROOT
BRANCH   1   5
HETATM    5  C12 UNL     1      18.825  22.163  18.994  1.00  0.00     0.083 C 
BRANCH   5   6
HETATM    6  C11 UNL     1      18.944  23.384  19.849  1.00  0.00     0.167 C 
BRANCH   6   7
HETATM    7  N2  UNL     1      19.960  24.321  19.557  1.00  0.00    -0.352 N 
HETATM    8  C10 UNL     1      21.341  24.347  19.598  1.00  0.00     0.247 C 
HETATM    9  O4  UNL     1      22.036  23.376  19.984  1.00  0.00    -0.268 OA
ATOM     10  H2  UNL     1      19.574  25.207  19.232  1.00  0.00     0.163 HD
BRANCH   8  11
HETATM   11  C2  UNL     1      22.150  25.516  19.189  1.00  0.00     0.012 C 
HETATM   12  C1  UNL     1      21.516  26.865  19.334  1.00  0.00     0.054 C 
HETATM   13  C3  UNL     1      23.371  25.476  18.737  1.00  0.00     0.065 C 
BRANCH  13  14
HETATM   14  S1  UNL     1      24.246  26.999  18.311  1.00  0.00    -0.064 SA
BRANCH  14  15
HETATM   15  C4  UNL     1      24.065  27.256  16.530  1.00  0.00     0.190 C 
HETATM   16  O1  UNL     1      24.603  26.473  15.759  1.00  0.00    -0.285 OA
BRANCH  15  17
HETATM   17  C5  UNL     1      23.267  28.413  16.085  1.00  0.00     0.092 C 
BRANCH  17  18
HETATM   18  C6  UNL     1      22.188  28.122  15.099  1.00  0.00     0.024 C 
BRANCH  18  19
HETATM   19  C7  UNL     1      20.994  27.490  15.737  1.00  0.00     0.107 C 
BRANCH  19  20
HETATM   20  N1  UNL     1      20.502  26.358  14.976  1.00  0.00    -0.215 NA
HETATM   21  C8  UNL     1      21.527  25.498  14.488  1.00  0.00     0.129 C 
BRANCH  20  22
HETATM   22  S2  UNL     1      19.204  25.566  15.730  1.00  0.00     0.207 S 
HETATM   23  C9  UNL     1      19.288  23.797  15.668  1.00  0.00     0.180 C 
HETATM   24  O2  UNL     1      19.011  25.983  17.159  1.00  0.00    -0.212 OA
HETATM   25  O3  UNL     1      17.943  25.970  14.991  1.00  0.00    -0.212 OA
ENDBRANCH  20  22
ENDBRANCH  19  20
ENDBRANCH  18  19
ENDBRANCH  17  18
ENDBRANCH  15  17
ENDBRANCH  14  15
ENDBRANCH  13  14
ENDBRANCH   8  11
ENDBRANCH   6   7
ENDBRANCH   5   6
ENDBRANCH   1   5
BRANCH   3  26
HETATM   26  C14 UNL     1      15.935  20.937  16.829  1.00  0.00     0.144 C 
BRANCH  26  27
HETATM   27  C15 UNL     1      15.129  22.144  16.363  1.00  0.00     0.105 C 
HETATM   28  C17 UNL     1      15.707  22.434  14.982  1.00  0.00     0.045 C 
HETATM   29  C18 UNL     1      15.290  21.435  13.956  1.00  0.00     0.042 C 
HETATM   30  C19 UNL     1      13.929  20.904  14.233  1.00  0.00     0.071 C 
HETATM   31  C20 UNL     1      13.425  20.091  13.116  1.00  0.00     0.040 C 
HETATM   32  C26 UNL     1      13.036  21.900  14.867  1.00  0.00     0.017 C 
HETATM   33  O8  UNL     1      14.013  20.241  15.480  1.00  0.00    -0.370 OA
HETATM   34  C21 UNL     1      11.967  20.080  12.873  1.00  0.00     0.012 C 
HETATM   35  C22 UNL     1      11.209  20.272  14.153  1.00  0.00    -0.047 C 
HETATM   36  C23 UNL     1       9.735  20.417  13.720  1.00  0.00     0.015 C 
HETATM   37  C24 UNL     1      11.234  18.984  14.983  1.00  0.00     0.015 C 
HETATM   38  C25 UNL     1      11.597  21.439  14.968  1.00  0.00     0.023 C 
HETATM   39  C27 UNL     1      13.080  23.307  14.393  1.00  0.00     0.021 C 
HETATM   40  C28 UNL     1      13.756  21.475  16.067  1.00  0.00     0.169 C 
BRANCH  27  41
HETATM   41  O6  UNL     1      14.928  23.077  17.177  1.00  0.00    -0.314 OA
BRANCH  41  42
HETATM   42  C16 UNL     1      14.758  23.990  18.068  1.00  0.00     0.399 C 
HETATM   43  O7  UNL     1      15.820  24.585  18.338  1.00  0.00    -0.276 OA
ENDBRANCH  41  42
ENDBRANCH  27  41
ENDBRANCH  26  27
ENDBRANCH   3  26
TORSDOF 15
ENDMDL
