MODEL 1
REMARK VINA RESULT: -9.047670845      0.000      0.000
REMARK  17 active torsions:
REMARK  status: ('A' for Active; 'I' for Inactive)
REMARK    1  A    between atoms: C2_2  and  C3_3 
REMARK    2  A    between atoms: C5_5  and  C6_6 
REMARK    3  A    between atoms: C6_6  and  O1_7 
REMARK    4  A    between atoms: C6_6  and  N1_9 
REMARK    5  A    between atoms: N1_9  and  C7_10 
REMARK    6  A    between atoms: C7_10  and  C8_11 
REMARK    7  A    between atoms: C8_11  and  N2_12 
REMARK    8  A    between atoms: N2_12  and  C9_13 
REMARK    9  A    between atoms: N2_12  and  C11_15 
REMARK   10  A    between atoms: C13_17  and  C14_18 
REMARK   11  A    between atoms: N6_26  and  C16_27 
REMARK   12  A    between atoms: C16_27  and  C17_28 
REMARK       I    between atoms: C17_28  and  N7_30 
REMARK       I    between atoms: N8_33  and  C20_34 
REMARK   13  A    between atoms: C20_34  and  C21_36 
REMARK   14  A    between atoms: C21_36  and  C22_37 
REMARK   15  A    between atoms: C22_37  and  C23_38 
REMARK   16  A    between atoms: C23_38  and  C24_39 
REMARK   17  A    between atoms: C24_39  and  N9_40 
ROOT
HETATM    1  C3  UNL     1      17.173  23.803  16.183  1.00  0.00     0.048 A 
HETATM    2  C4  UNL     1      17.949  24.847  15.626  1.00  0.00     0.052 A 
HETATM    3  C5  UNL     1      19.132  25.443  15.629  1.00  0.00     0.077 A 
HETATM    4  C13 UNL     1      18.984  26.539  14.763  1.00  0.00     0.116 A 
HETATM    5  N4  UNL     1      17.774  26.580  14.257  1.00  0.00    -0.336 N 
ATOM      6  H4  UNL     1      17.418  27.272  13.597  1.00  0.00     0.168 HD
HETATM    7  C15 UNL     1      17.084  25.534  14.772  1.00  0.00     0.134 A 
HETATM    8  N5  UNL     1      15.923  24.919  14.839  1.00  0.00    -0.278 N 
ATOM      9  H5  UNL     1      15.102  25.207  14.307  1.00  0.00     0.189 HD
HETATM   10  N6  UNL     1      15.929  23.912  15.652  1.00  0.00    -0.264 N 
ENDROOT
BRANCH  10  11
HETATM   11  C16 UNL     1      14.797  23.163  16.071  1.00  0.00     0.190 C 
BRANCH  11  12
HETATM   12  C17 UNL     1      14.481  21.904  15.476  1.00  0.00     0.261 C 
HETATM   13  O3  UNL     1      15.351  20.965  15.630  1.00  0.00    -0.267 OA
HETATM   14  N7  UNL     1      13.331  21.488  14.735  1.00  0.00    -0.344 N 
HETATM   15  C18 UNL     1      13.385  20.081  14.242  1.00  0.00     0.146 C 
HETATM   16  C32 UNL     1      12.185  22.281  14.470  1.00  0.00     0.146 C 
HETATM   17  C19 UNL     1      12.186  19.690  13.491  1.00  0.00     0.145 C 
HETATM   18  N8  UNL     1      11.070  20.132  14.312  1.00  0.00    -0.349 N 
HETATM   19  C20 UNL     1      10.380  19.373  15.256  1.00  0.00     0.219 C 
HETATM   20  C31 UNL     1      10.856  21.607  14.207  1.00  0.00     0.145 C 
HETATM   21  O4  UNL     1       9.228  19.840  15.620  1.00  0.00    -0.273 OA
BRANCH  19  22
HETATM   22  C21 UNL     1      10.864  18.138  15.846  1.00  0.00     0.103 C 
BRANCH  22  23
HETATM   23  C22 UNL     1      11.071  18.161  17.364  1.00  0.00     0.011 C 
BRANCH  23  24
HETATM   24  C23 UNL     1      12.026  19.265  17.782  1.00  0.00     0.020 C 
BRANCH  24  25
HETATM   25  C24 UNL     1      12.314  19.124  19.255  1.00  0.00     0.117 C 
BRANCH  25  26
HETATM   26  N9  UNL     1      13.654  19.439  19.606  1.00  0.00    -0.408 N 
HETATM   27  C25 UNL     1      14.213  18.831  20.763  1.00  0.00     0.117 C 
HETATM   28  C26 UNL     1      14.763  19.979  21.624  1.00  0.00     0.019 C 
HETATM   29  C27 UNL     1      15.750  20.792  20.798  1.00  0.00     0.004 C 
HETATM   30  C28 UNL     1      15.013  21.362  19.622  1.00  0.00     0.024 C 
HETATM   31  C29 UNL     1      14.566  20.126  18.781  1.00  0.00     0.075 C 
HETATM   32  C30 UNL     1      15.819  19.392  18.392  1.00  0.00     0.032 C 
ENDBRANCH  25  26
ENDBRANCH  24  25
ENDBRANCH  23  24
ENDBRANCH  22  23
ENDBRANCH  19  22
ENDBRANCH  11  12
ENDBRANCH  10  11
BRANCH   1  33
HETATM   33  C2  UNL     1      17.737  22.858  17.178  1.00  0.00     0.056 C 
HETATM   34  C1  UNL     1      18.528  21.738  16.628  1.00  0.00     0.011 C 
ENDBRANCH   1  33
BRANCH   3  35
HETATM   35  C6  UNL     1      20.403  25.185  16.292  1.00  0.00     0.222 C 
BRANCH  35  36
HETATM   36  O1  UNL     1      21.348  24.893  15.399  1.00  0.00    -0.335 OA
ATOM     37  H1  UNL     1      21.994  25.588  15.356  1.00  0.00     0.220 HD
ENDBRANCH  35  36
BRANCH  35  38
HETATM   38  N1  UNL     1      20.665  25.232  17.602  1.00  0.00    -0.422 NA
BRANCH  38  39
HETATM   39  C7  UNL     1      20.939  25.279  18.980  1.00  0.00     0.251 C 
BRANCH  39  40
HETATM   40  C8  UNL     1      20.869  23.788  19.456  1.00  0.00     0.305 C 
BRANCH  40  41
HETATM   41  N2  UNL     1      20.197  23.581  20.660  1.00  0.00     0.090 N 
BRANCH  41  42
HETATM   42  C9  UNL     1      19.299  22.435  20.333  1.00  0.00     0.268 C 
HETATM   43  C10 UNL     1      19.452  21.325  21.331  1.00  0.00     0.037 C 
ENDBRANCH  41  42
BRANCH  41  44
HETATM   44  C11 UNL     1      19.236  24.690  20.901  1.00  0.00     0.268 C 
HETATM   45  C12 UNL     1      17.890  24.230  20.451  1.00  0.00     0.037 C 
ENDBRANCH  41  44
ENDBRANCH  40  41
ENDBRANCH  39  40
ENDBRANCH  38  39
ENDBRANCH  35  38
ENDBRANCH   3  35
BRANCH   4  46
HETATM   46  C14 UNL     1      19.997  27.606  14.646  1.00  0.00     0.282 C 
HETATM   47  N3  UNL     1      20.989  27.289  13.612  1.00  0.00    -0.056 NA
HETATM   48  O2  UNL     1      20.105  28.640  15.263  1.00  0.00    -0.269 OA
ENDBRANCH   4  46
TORSDOF 17
ENDMDL
MODEL 2
REMARK VINA RESULT: -9.017294824      1.067      1.367
REMARK  17 active torsions:
REMARK  status: ('A' for Active; 'I' for Inactive)
REMARK    1  A    between atoms: C2_2  and  C3_3 
REMARK    2  A    between atoms: C5_5  and  C6_6 
REMARK    3  A    between atoms: C6_6  and  O1_7 
REMARK    4  A    between atoms: C6_6  and  N1_9 
REMARK    5  A    between atoms: N1_9  and  C7_10 
REMARK    6  A    between atoms: C7_10  and  C8_11 
REMARK    7  A    between atoms: C8_11  and  N2_12 
REMARK    8  A    between atoms: N2_12  and  C9_13 
REMARK    9  A    between atoms: N2_12  and  C11_15 
REMARK   10  A    between atoms: C13_17  and  C14_18 
REMARK   11  A    between atoms: N6_26  and  C16_27 
REMARK   12  A    between atoms: C16_27  and  C17_28 
REMARK       I    between atoms: C17_28  and  N7_30 
REMARK       I    between atoms: N8_33  and  C20_34 
REMARK   13  A    between atoms: C20_34  and  C21_36 
REMARK   14  A    between atoms: C21_36  and  C22_37 
REMARK   15  A    between atoms: C22_37  and  C23_38 
REMARK   16  A    between atoms: C23_38  and  C24_39 
REMARK   17  A    between atoms: C24_39  and  N9_40 
ROOT
HETATM    1  C3  UNL     1      17.086  23.948  16.635  1.00  0.00     0.048 A 
HETATM    2  C4  UNL     1      17.981  24.880  16.061  1.00  0.00     0.052 A 
HETATM    3  C5  UNL     1      19.145  25.497  16.199  1.00  0.00     0.077 A 
HETATM    4  C13 UNL     1      19.206  26.395  15.121  1.00  0.00     0.116 A 
HETATM    5  N4  UNL     1      18.136  26.301  14.368  1.00  0.00    -0.336 N 
ATOM      6  H4  UNL     1      17.943  26.839  13.523  1.00  0.00     0.168 HD
HETATM    7  C15 UNL     1      17.334  25.360  14.921  1.00  0.00     0.134 A 
HETATM    8  N5  UNL     1      16.176  24.739  14.858  1.00  0.00    -0.278 N 
ATOM      9  H5  UNL     1      15.494  24.893  14.115  1.00  0.00     0.189 HD
HETATM   10  N6  UNL     1      15.989  23.913  15.838  1.00  0.00    -0.264 N 
ENDROOT
BRANCH  10  11
HETATM   11  C16 UNL     1      14.781  23.232  16.144  1.00  0.00     0.190 C 
BRANCH  11  12
HETATM   12  C17 UNL     1      14.486  21.957  15.573  1.00  0.00     0.261 C 
HETATM   13  O3  UNL     1      15.351  21.024  15.778  1.00  0.00    -0.267 OA
HETATM   14  N7  UNL     1      13.360  21.520  14.807  1.00  0.00    -0.344 N 
HETATM   15  C18 UNL     1      13.430  20.100  14.353  1.00  0.00     0.146 C 
HETATM   16  C32 UNL     1      12.221  22.303  14.486  1.00  0.00     0.146 C 
HETATM   17  C19 UNL     1      12.256  19.687  13.576  1.00  0.00     0.145 C 
HETATM   18  N8  UNL     1      11.114  20.148  14.350  1.00  0.00    -0.349 N 
HETATM   19  C20 UNL     1      10.396  19.413  15.291  1.00  0.00     0.219 C 
HETATM   20  C31 UNL     1      10.902  21.620  14.199  1.00  0.00     0.145 C 
HETATM   21  O4  UNL     1       9.233  19.887  15.607  1.00  0.00    -0.273 OA
BRANCH  19  22
HETATM   22  C21 UNL     1      10.863  18.195  15.929  1.00  0.00     0.103 C 
BRANCH  22  23
HETATM   23  C22 UNL     1      10.818  18.184  17.460  1.00  0.00     0.011 C 
BRANCH  23  24
HETATM   24  C23 UNL     1      11.659  19.301  18.053  1.00  0.00     0.020 C 
BRANCH  24  25
HETATM   25  C24 UNL     1      12.139  18.874  19.417  1.00  0.00     0.117 C 
BRANCH  25  26
HETATM   26  N9  UNL     1      13.485  19.235  19.687  1.00  0.00    -0.408 N 
HETATM   27  C25 UNL     1      14.106  18.714  20.855  1.00  0.00     0.117 C 
HETATM   28  C26 UNL     1      14.669  19.926  21.614  1.00  0.00     0.019 C 
HETATM   29  C27 UNL     1      15.602  20.700  20.694  1.00  0.00     0.004 C 
HETATM   30  C28 UNL     1      14.804  21.178  19.517  1.00  0.00     0.024 C 
HETATM   31  C29 UNL     1      14.346  19.882  18.780  1.00  0.00     0.075 C 
HETATM   32  C30 UNL     1      15.596  19.146  18.383  1.00  0.00     0.032 C 
ENDBRANCH  25  26
ENDBRANCH  24  25
ENDBRANCH  23  24
ENDBRANCH  22  23
ENDBRANCH  19  22
ENDBRANCH  11  12
ENDBRANCH  10  11
BRANCH   1  33
HETATM   33  C2  UNL     1      17.406  23.234  17.897  1.00  0.00     0.056 C 
HETATM   34  C1  UNL     1      18.083  21.930  17.748  1.00  0.00     0.011 C 
ENDBRANCH   1  33
BRANCH   3  35
HETATM   35  C6  UNL     1      20.238  25.412  17.158  1.00  0.00     0.222 C 
BRANCH  35  36
HETATM   36  O1  UNL     1      20.747  24.182  17.183  1.00  0.00    -0.335 OA
ATOM     37  H1  UNL     1      20.054  23.533  17.226  1.00  0.00     0.220 HD
ENDBRANCH  35  36
BRANCH  35  38
HETATM   38  N1  UNL     1      20.727  26.390  17.927  1.00  0.00    -0.422 NA
BRANCH  38  39
HETATM   39  C7  UNL     1      21.240  27.419  18.736  1.00  0.00     0.251 C 
BRANCH  39  40
HETATM   40  C8  UNL     1      21.146  26.865  20.199  1.00  0.00     0.305 C 
BRANCH  40  41
HETATM   41  N2  UNL     1      21.436  25.508  20.339  1.00  0.00     0.090 N 
BRANCH  41  42
HETATM   42  C9  UNL     1      20.193  24.977  20.969  1.00  0.00     0.268 C 
HETATM   43  C10 UNL     1      19.982  23.534  20.619  1.00  0.00     0.037 C 
ENDBRANCH  41  42
BRANCH  41  44
HETATM   44  C11 UNL     1      22.453  25.314  21.407  1.00  0.00     0.268 C 
HETATM   45  C12 UNL     1      22.233  26.370  22.437  1.00  0.00     0.037 C 
ENDBRANCH  41  44
ENDBRANCH  40  41
ENDBRANCH  39  40
ENDBRANCH  38  39
ENDBRANCH  35  38
ENDBRANCH   3  35
BRANCH   4  46
HETATM   46  C14 UNL     1      20.238  27.445  15.014  1.00  0.00     0.282 C 
HETATM   47  N3  UNL     1      21.453  26.936  14.367  1.00  0.00    -0.056 NA
HETATM   48  O2  UNL     1      20.208  28.598  15.375  1.00  0.00    -0.269 OA
ENDBRANCH   4  46
TORSDOF 17
ENDMDL
MODEL 3
REMARK VINA RESULT: -8.976194489      0.647      1.076
REMARK  17 active torsions:
REMARK  status: ('A' for Active; 'I' for Inactive)
REMARK    1  A    between atoms: C2_2  and  C3_3 
REMARK    2  A    between atoms: C5_5  and  C6_6 
REMARK    3  A    between atoms: C6_6  and  O1_7 
REMARK    4  A    between atoms: C6_6  and  N1_9 
REMARK    5  A    between atoms: N1_9  and  C7_10 
REMARK    6  A    between atoms: C7_10  and  C8_11 
REMARK    7  A    between atoms: C8_11  and  N2_12 
REMARK    8  A    between atoms: N2_12  and  C9_13 
REMARK    9  A    between atoms: N2_12  and  C11_15 
REMARK   10  A    between atoms: C13_17  and  C14_18 
REMARK   11  A    between atoms: N6_26  and  C16_27 
REMARK   12  A    between atoms: C16_27  and  C17_28 
REMARK       I    between atoms: C17_28  and  N7_30 
REMARK       I    between atoms: N8_33  and  C20_34 
REMARK   13  A    between atoms: C20_34  and  C21_36 
REMARK   14  A    between atoms: C21_36  and  C22_37 
REMARK   15  A    between atoms: C22_37  and  C23_38 
REMARK   16  A    between atoms: C23_38  and  C24_39 
REMARK   17  A    between atoms: C24_39  and  N9_40 
ROOT
HETATM    1  C3  UNL     1      17.233  23.931  16.368  1.00  0.00     0.048 A 
HETATM    2  C4  UNL     1      18.042  24.934  15.786  1.00  0.00     0.052 A 
HETATM    3  C5  UNL     1      19.195  25.582  15.863  1.00  0.00     0.077 A 
HETATM    4  C13 UNL     1      19.127  26.557  14.854  1.00  0.00     0.116 A 
HETATM    5  N4  UNL     1      17.994  26.480  14.199  1.00  0.00    -0.336 N 
ATOM      6  H4  UNL     1      17.706  27.070  13.417  1.00  0.00     0.168 HD
HETATM    7  C15 UNL     1      17.275  25.472  14.749  1.00  0.00     0.134 A 
HETATM    8  N5  UNL     1      16.135  24.816  14.747  1.00  0.00    -0.278 N 
ATOM      9  H5  UNL     1      15.383  24.998  14.083  1.00  0.00     0.189 HD
HETATM   10  N6  UNL     1      16.066  23.915  15.674  1.00  0.00    -0.264 N 
ENDROOT
BRANCH  10  11
HETATM   11  C16 UNL     1      14.913  23.170  16.038  1.00  0.00     0.190 C 
BRANCH  11  12
HETATM   12  C17 UNL     1      14.604  21.928  15.403  1.00  0.00     0.261 C 
HETATM   13  O3  UNL     1      15.484  20.993  15.517  1.00  0.00    -0.267 OA
HETATM   14  N7  UNL     1      13.451  21.527  14.658  1.00  0.00    -0.344 N 
HETATM   15  C18 UNL     1      13.514  20.138  14.117  1.00  0.00     0.146 C 
HETATM   16  C32 UNL     1      12.295  22.318  14.430  1.00  0.00     0.146 C 
HETATM   17  C19 UNL     1      12.312  19.761  13.363  1.00  0.00     0.145 C 
HETATM   18  N8  UNL     1      11.199  20.164  14.208  1.00  0.00    -0.349 N 
HETATM   19  C20 UNL     1      10.525  19.367  15.132  1.00  0.00     0.219 C 
HETATM   20  C31 UNL     1      10.970  21.640  14.155  1.00  0.00     0.145 C 
HETATM   21  O4  UNL     1       9.372  19.810  15.522  1.00  0.00    -0.273 OA
BRANCH  19  22
HETATM   22  C21 UNL     1      11.026  18.118  15.675  1.00  0.00     0.103 C 
BRANCH  22  23
HETATM   23  C22 UNL     1      11.325  18.117  17.178  1.00  0.00     0.011 C 
BRANCH  23  24
HETATM   24  C23 UNL     1      12.176  19.308  17.579  1.00  0.00     0.020 C 
BRANCH  24  25
HETATM   25  C24 UNL     1      12.336  19.306  19.079  1.00  0.00     0.117 C 
BRANCH  25  26
HETATM   26  N9  UNL     1      13.669  19.535  19.511  1.00  0.00    -0.408 N 
HETATM   27  C25 UNL     1      14.152  18.811  20.635  1.00  0.00     0.117 C 
HETATM   28  C26 UNL     1      14.706  19.861  21.611  1.00  0.00     0.019 C 
HETATM   29  C27 UNL     1      15.760  20.697  20.897  1.00  0.00     0.004 C 
HETATM   30  C28 UNL     1      15.100  21.391  19.743  1.00  0.00     0.024 C 
HETATM   31  C29 UNL     1      14.643  20.247  18.784  1.00  0.00     0.075 C 
HETATM   32  C30 UNL     1      15.884  19.496  18.388  1.00  0.00     0.032 C 
ENDBRANCH  25  26
ENDBRANCH  24  25
ENDBRANCH  23  24
ENDBRANCH  22  23
ENDBRANCH  19  22
ENDBRANCH  11  12
ENDBRANCH  10  11
BRANCH   1  33
HETATM   33  C2  UNL     1      17.691  23.140  17.537  1.00  0.00     0.056 C 
HETATM   34  C1  UNL     1      18.437  21.903  17.228  1.00  0.00     0.011 C 
ENDBRANCH   1  33
BRANCH   3  35
HETATM   35  C6  UNL     1      20.375  25.467  16.708  1.00  0.00     0.222 C 
BRANCH  35  36
HETATM   36  O1  UNL     1      21.456  25.212  15.973  1.00  0.00    -0.335 OA
ATOM     37  H1  UNL     1      22.200  25.012  16.529  1.00  0.00     0.220 HD
ENDBRANCH  35  36
BRANCH  35  38
HETATM   38  N1  UNL     1      20.445  25.602  18.036  1.00  0.00    -0.422 NA
BRANCH  38  39
HETATM   39  C7  UNL     1      20.517  25.745  19.433  1.00  0.00     0.251 C 
BRANCH  39  40
HETATM   40  C8  UNL     1      20.154  24.331  20.002  1.00  0.00     0.305 C 
BRANCH  40  41
HETATM   41  N2  UNL     1      21.123  23.347  19.807  1.00  0.00     0.090 N 
BRANCH  41  42
HETATM   42  C9  UNL     1      20.479  22.141  20.403  1.00  0.00     0.268 C 
HETATM   43  C10 UNL     1      19.088  22.446  20.876  1.00  0.00     0.037 C 
ENDBRANCH  41  42
BRANCH  41  44
HETATM   44  C11 UNL     1      22.276  23.585  20.714  1.00  0.00     0.268 C 
HETATM   45  C12 UNL     1      23.511  23.620  19.878  1.00  0.00     0.037 C 
ENDBRANCH  41  44
ENDBRANCH  40  41
ENDBRANCH  39  40
ENDBRANCH  38  39
ENDBRANCH  35  38
ENDBRANCH   3  35
BRANCH   4  46
HETATM   46  C14 UNL     1      20.113  27.649  14.733  1.00  0.00     0.282 C 
HETATM   47  N3  UNL     1      21.160  27.317  13.758  1.00  0.00    -0.056 NA
HETATM   48  O2  UNL     1      20.163  28.712  15.305  1.00  0.00    -0.269 OA
ENDBRANCH   4  46
TORSDOF 17
ENDMDL
MODEL 4
REMARK VINA RESULT: -8.884740618      2.200     10.436
REMARK  17 active torsions:
REMARK  status: ('A' for Active; 'I' for Inactive)
REMARK    1  A    between atoms: C2_2  and  C3_3 
REMARK    2  A    between atoms: C5_5  and  C6_6 
REMARK    3  A    between atoms: C6_6  and  O1_7 
REMARK    4  A    between atoms: C6_6  and  N1_9 
REMARK    5  A    between atoms: N1_9  and  C7_10 
REMARK    6  A    between atoms: C7_10  and  C8_11 
REMARK    7  A    between atoms: C8_11  and  N2_12 
REMARK    8  A    between atoms: N2_12  and  C9_13 
REMARK    9  A    between atoms: N2_12  and  C11_15 
REMARK   10  A    between atoms: C13_17  and  C14_18 
REMARK   11  A    between atoms: N6_26  and  C16_27 
REMARK   12  A    between atoms: C16_27  and  C17_28 
REMARK       I    between atoms: C17_28  and  N7_30 
REMARK       I    between atoms: N8_33  and  C20_34 
REMARK   13  A    between atoms: C20_34  and  C21_36 
REMARK   14  A    between atoms: C21_36  and  C22_37 
REMARK   15  A    between atoms: C22_37  and  C23_38 
REMARK   16  A    between atoms: C23_38  and  C24_39 
REMARK   17  A    between atoms: C24_39  and  N9_40 
ROOT
HETATM    1  C3  UNL     1      15.792  21.886  18.691  1.00  0.00     0.048 A 
HETATM    2  C4  UNL     1      14.941  20.849  19.141  1.00  0.00     0.052 A 
HETATM    3  C5  UNL     1      13.945  20.040  18.812  1.00  0.00     0.077 A 
HETATM    4  C13 UNL     1      13.646  19.341  19.993  1.00  0.00     0.116 A 
HETATM    5  N4  UNL     1      14.438  19.707  20.972  1.00  0.00    -0.336 N 
ATOM      6  H4  UNL     1      14.429  19.343  21.925  1.00  0.00     0.168 HD
HETATM    7  C15 UNL     1      15.272  20.657  20.484  1.00  0.00     0.134 A 
HETATM    8  N5  UNL     1      16.235  21.509  20.758  1.00  0.00    -0.278 N 
ATOM      9  H5  UNL     1      16.678  21.582  21.675  1.00  0.00     0.189 HD
HETATM   10  N6  UNL     1      16.564  22.246  19.746  1.00  0.00    -0.264 N 
ENDROOT
BRANCH  10  11
HETATM   11  C16 UNL     1      17.438  23.366  19.771  1.00  0.00     0.190 C 
BRANCH  11  12
HETATM   12  C17 UNL     1      18.844  23.212  19.577  1.00  0.00     0.261 C 
HETATM   13  O3  UNL     1      19.207  22.410  18.635  1.00  0.00    -0.267 OA
HETATM   14  N7  UNL     1      19.948  23.820  20.253  1.00  0.00    -0.344 N 
HETATM   15  C18 UNL     1      21.290  23.373  19.779  1.00  0.00     0.146 C 
HETATM   16  C32 UNL     1      19.855  24.794  21.281  1.00  0.00     0.146 C 
HETATM   17  C19 UNL     1      22.396  24.023  20.492  1.00  0.00     0.145 C 
HETATM   18  N8  UNL     1      22.059  25.437  20.495  1.00  0.00    -0.349 N 
HETATM   19  C20 UNL     1      22.471  26.393  19.567  1.00  0.00     0.219 C 
HETATM   20  C31 UNL     1      21.005  25.753  21.506  1.00  0.00     0.145 C 
HETATM   21  O4  UNL     1      22.344  27.627  19.936  1.00  0.00    -0.273 OA
BRANCH  19  22
HETATM   22  C21 UNL     1      23.005  26.097  18.250  1.00  0.00     0.103 C 
BRANCH  22  23
HETATM   23  C22 UNL     1      22.990  27.257  17.249  1.00  0.00     0.011 C 
BRANCH  23  24
HETATM   24  C23 UNL     1      22.236  26.893  15.982  1.00  0.00     0.020 C 
BRANCH  24  25
HETATM   25  C24 UNL     1      20.804  27.342  16.125  1.00  0.00     0.117 C 
BRANCH  25  26
HETATM   26  N9  UNL     1      19.860  26.403  15.631  1.00  0.00    -0.408 N 
HETATM   27  C25 UNL     1      19.524  26.440  14.250  1.00  0.00     0.117 C 
HETATM   28  C26 UNL     1      17.991  26.523  14.188  1.00  0.00     0.019 C 
HETATM   29  C27 UNL     1      17.398  25.346  14.951  1.00  0.00     0.004 C 
HETATM   30  C28 UNL     1      17.842  25.447  16.380  1.00  0.00     0.024 C 
HETATM   31  C29 UNL     1      19.393  25.278  16.339  1.00  0.00     0.075 C 
HETATM   32  C30 UNL     1      19.664  23.929  15.732  1.00  0.00     0.032 C 
ENDBRANCH  25  26
ENDBRANCH  24  25
ENDBRANCH  23  24
ENDBRANCH  22  23
ENDBRANCH  19  22
ENDBRANCH  11  12
ENDBRANCH  10  11
BRANCH   1  33
HETATM   33  C2  UNL     1      15.721  22.405  17.303  1.00  0.00     0.056 C 
HETATM   34  C1  UNL     1      16.622  21.760  16.325  1.00  0.00     0.011 C 
ENDBRANCH   1  33
BRANCH   3  35
HETATM   35  C6  UNL     1      13.203  19.780  17.586  1.00  0.00     0.222 C 
BRANCH  35  36
HETATM   36  O1  UNL     1      14.029  19.431  16.601  1.00  0.00    -0.335 OA
ATOM     37  H1  UNL     1      13.566  19.392  15.773  1.00  0.00     0.220 HD
ENDBRANCH  35  36
BRANCH  35  38
HETATM   38  N1  UNL     1      11.881  19.846  17.403  1.00  0.00    -0.422 NA
BRANCH  38  39
HETATM   39  C7  UNL     1      10.490  19.916  17.208  1.00  0.00     0.251 C 
BRANCH  39  40
HETATM   40  C8  UNL     1      10.292  19.756  15.662  1.00  0.00     0.305 C 
BRANCH  40  41
HETATM   41  N2  UNL     1      10.461  20.924  14.919  1.00  0.00     0.090 N 
BRANCH  41  42
HETATM   42  C9  UNL     1       9.458  20.758  13.828  1.00  0.00     0.268 C 
HETATM   43  C10 UNL     1       8.753  22.051  13.538  1.00  0.00     0.037 C 
ENDBRANCH  41  42
BRANCH  41  44
HETATM   44  C11 UNL     1      11.753  20.875  14.185  1.00  0.00     0.268 C 
HETATM   45  C12 UNL     1      12.518  22.107  14.532  1.00  0.00     0.037 C 
ENDBRANCH  41  44
ENDBRANCH  40  41
ENDBRANCH  39  40
ENDBRANCH  38  39
ENDBRANCH  35  38
ENDBRANCH   3  35
BRANCH   4  46
HETATM   46  C14 UNL     1      12.447  18.491  20.135  1.00  0.00     0.282 C 
HETATM   47  N3  UNL     1      12.686  17.139  19.617  1.00  0.00    -0.056 NA
HETATM   48  O2  UNL     1      11.360  18.758  20.592  1.00  0.00    -0.269 OA
ENDBRANCH   4  46
TORSDOF 17
ENDMDL
MODEL 5
REMARK VINA RESULT: -8.865000592      1.774      3.788
REMARK  17 active torsions:
REMARK  status: ('A' for Active; 'I' for Inactive)
REMARK    1  A    between atoms: C2_2  and  C3_3 
REMARK    2  A    between atoms: C5_5  and  C6_6 
REMARK    3  A    between atoms: C6_6  and  O1_7 
REMARK    4  A    between atoms: C6_6  and  N1_9 
REMARK    5  A    between atoms: N1_9  and  C7_10 
REMARK    6  A    between atoms: C7_10  and  C8_11 
REMARK    7  A    between atoms: C8_11  and  N2_12 
REMARK    8  A    between atoms: N2_12  and  C9_13 
REMARK    9  A    between atoms: N2_12  and  C11_15 
REMARK   10  A    between atoms: C13_17  and  C14_18 
REMARK   11  A    between atoms: N6_26  and  C16_27 
REMARK   12  A    between atoms: C16_27  and  C17_28 
REMARK       I    between atoms: C17_28  and  N7_30 
REMARK       I    between atoms: N8_33  and  C20_34 
REMARK   13  A    between atoms: C20_34  and  C21_36 
REMARK   14  A    between atoms: C21_36  and  C22_37 
REMARK   15  A    between atoms: C22_37  and  C23_38 
REMARK   16  A    between atoms: C23_38  and  C24_39 
REMARK   17  A    between atoms: C24_39  and  N9_40 
ROOT
HETATM    1  C3  UNL     1      16.739  24.231  16.123  1.00  0.00     0.048 A 
HETATM    2  C4  UNL     1      17.395  24.314  17.373  1.00  0.00     0.052 A 
HETATM    3  C5  UNL     1      18.552  24.531  17.981  1.00  0.00     0.077 A 
HETATM    4  C13 UNL     1      18.288  24.313  19.344  1.00  0.00     0.116 A 
HETATM    5  N4  UNL     1      17.029  23.998  19.535  1.00  0.00    -0.336 N 
ATOM      6  H4  UNL     1      16.586  23.799  20.433  1.00  0.00     0.168 HD
HETATM    7  C15 UNL     1      16.426  23.986  18.323  1.00  0.00     0.134 A 
HETATM    8  N5  UNL     1      15.316  23.747  17.658  1.00  0.00    -0.278 N 
ATOM      9  H5  UNL     1      14.437  23.489  18.105  1.00  0.00     0.189 HD
HETATM   10  N6  UNL     1      15.455  23.873  16.377  1.00  0.00    -0.264 N 
ENDROOT
BRANCH  10  11
HETATM   11  C16 UNL     1      14.498  23.516  15.389  1.00  0.00     0.190 C 
BRANCH  11  12
HETATM   12  C17 UNL     1      14.270  22.151  15.040  1.00  0.00     0.261 C 
HETATM   13  O3  UNL     1      15.206  21.318  15.346  1.00  0.00    -0.267 OA
HETATM   14  N7  UNL     1      13.148  21.528  14.408  1.00  0.00    -0.344 N 
HETATM   15  C18 UNL     1      13.300  20.061  14.179  1.00  0.00     0.146 C 
HETATM   16  C32 UNL     1      11.947  22.178  14.025  1.00  0.00     0.146 C 
HETATM   17  C19 UNL     1      12.127  19.458  13.534  1.00  0.00     0.145 C 
HETATM   18  N8  UNL     1      10.987  19.964  14.282  1.00  0.00    -0.349 N 
HETATM   19  C20 UNL     1      10.359  19.345  15.361  1.00  0.00     0.219 C 
HETATM   20  C31 UNL     1      10.668  21.377  13.914  1.00  0.00     0.145 C 
HETATM   21  O4  UNL     1       9.179  19.790  15.656  1.00  0.00    -0.273 OA
BRANCH  19  22
HETATM   22  C21 UNL     1      10.934  18.275  16.157  1.00  0.00     0.103 C 
BRANCH  22  23
HETATM   23  C22 UNL     1      10.800  18.428  17.675  1.00  0.00     0.011 C 
BRANCH  23  24
HETATM   24  C23 UNL     1      11.669  19.556  18.203  1.00  0.00     0.020 C 
BRANCH  24  25
HETATM   25  C24 UNL     1      13.076  19.360  17.698  1.00  0.00     0.117 C 
BRANCH  25  26
HETATM   26  N9  UNL     1      14.069  19.519  18.700  1.00  0.00    -0.408 N 
HETATM   27  C25 UNL     1      14.323  18.434  19.583  1.00  0.00     0.117 C 
HETATM   28  C26 UNL     1      14.206  19.007  21.004  1.00  0.00     0.019 C 
HETATM   29  C27 UNL     1      15.169  20.178  21.149  1.00  0.00     0.004 C 
HETATM   30  C28 UNL     1      14.773  21.230  20.157  1.00  0.00     0.024 C 
HETATM   31  C29 UNL     1      14.997  20.577  18.757  1.00  0.00     0.075 C 
HETATM   32  C30 UNL     1      16.454  20.211  18.680  1.00  0.00     0.032 C 
ENDBRANCH  25  26
ENDBRANCH  24  25
ENDBRANCH  23  24
ENDBRANCH  22  23
ENDBRANCH  19  22
ENDBRANCH  11  12
ENDBRANCH  10  11
BRANCH   1  33
HETATM   33  C2  UNL     1      17.454  24.484  14.848  1.00  0.00     0.056 C 
HETATM   34  C1  UNL     1      17.761  25.897  14.549  1.00  0.00     0.011 C 
ENDBRANCH   1  33
BRANCH   3  35
HETATM   35  C6  UNL     1      19.884  24.914  17.534  1.00  0.00     0.222 C 
BRANCH  35  36
HETATM   36  O1  UNL     1      20.422  23.955  16.782  1.00  0.00    -0.335 OA
ATOM     37  H1  UNL     1      19.795  23.640  16.142  1.00  0.00     0.220 HD
ENDBRANCH  35  36
BRANCH  35  38
HETATM   38  N1  UNL     1      20.535  26.054  17.789  1.00  0.00    -0.422 NA
BRANCH  38  39
HETATM   39  C7  UNL     1      21.218  27.253  18.056  1.00  0.00     0.251 C 
BRANCH  39  40
HETATM   40  C8  UNL     1      21.689  27.769  16.653  1.00  0.00     0.305 C 
BRANCH  40  41
HETATM   41  N2  UNL     1      22.391  26.840  15.886  1.00  0.00     0.090 N 
BRANCH  41  42
HETATM   42  C9  UNL     1      23.606  27.607  15.486  1.00  0.00     0.268 C 
HETATM   43  C10 UNL     1      24.859  26.879  15.875  1.00  0.00     0.037 C 
ENDBRANCH  41  42
BRANCH  41  44
HETATM   44  C11 UNL     1      21.697  26.626  14.588  1.00  0.00     0.268 C 
HETATM   45  C12 UNL     1      21.119  27.934  14.164  1.00  0.00     0.037 C 
ENDBRANCH  41  44
ENDBRANCH  40  41
ENDBRANCH  39  40
ENDBRANCH  38  39
ENDBRANCH  35  38
ENDBRANCH   3  35
BRANCH   4  46
HETATM   46  C14 UNL     1      19.356  24.230  20.360  1.00  0.00     0.282 C 
HETATM   47  N3  UNL     1      19.841  22.853  20.513  1.00  0.00    -0.056 NA
HETATM   48  O2  UNL     1      19.845  25.101  21.040  1.00  0.00    -0.269 OA
ENDBRANCH   4  46
TORSDOF 17
ENDMDL
