MODEL 1
REMARK VINA RESULT: -9.349775263      0.000      0.000
REMARK  15 active torsions:
REMARK  status: ('A' for Active; 'I' for Inactive)
REMARK    1  A    between atoms: C2_2  and  C3_4 
REMARK    2  A    between atoms: C3_4  and  C4_5 
REMARK    3  A    between atoms: C4_5  and  C5_6 
REMARK    4  A    between atoms: C5_6  and  C6_7 
REMARK       I    between atoms: N1_10  and  C7_12 
REMARK    5  A    between atoms: C7_12  and  C8_14 
REMARK    6  A    between atoms: C15_22  and  C16_23 
REMARK       I    between atoms: C16_23  and  N2_25 
REMARK    7  A    between atoms: N2_25  and  C17_27 
REMARK    8  A    between atoms: C17_27  and  C18_28 
REMARK    9  A    between atoms: C18_28  and  C19_29 
REMARK   10  A    between atoms: C19_29  and  C20_30 
REMARK   11  A    between atoms: C20_30  and  C21_31 
REMARK   12  A    between atoms: C21_31  and  C22_32 
REMARK   13  A    between atoms: C22_32  and  N3_33 
REMARK   14  A    between atoms: C28_39  and  C29_40 
REMARK       I    between atoms: C29_40  and  N4_42 
REMARK   15  A    between atoms: N4_42  and  C30_44 
ROOT
HETATM    1  C8  UNL     1      18.175  25.163  16.826  1.00  0.00     0.108 C 
HETATM    2  C9  UNL     1      18.200  23.985  15.824  1.00  0.00     0.023 C 
HETATM    3  C10 UNL     1      18.327  22.722  16.659  1.00  0.00     0.018 A 
HETATM    4  C11 UNL     1      18.206  23.191  17.841  1.00  0.00     0.012 A 
HETATM    5  C12 UNL     1      18.575  22.825  19.255  1.00  0.00     0.046 C 
HETATM    6  C13 UNL     1      17.206  23.365  19.653  1.00  0.00     0.137 C 
HETATM    7  O5  UNL     1      17.421  24.692  19.188  1.00  0.00    -0.378 OA
HETATM    8  C14 UNL     1      17.446  24.511  17.884  1.00  0.00     0.145 C 
HETATM    9  C15 UNL     1      16.428  22.506  18.674  1.00  0.00     0.126 C 
HETATM   10  C28 UNL     1      17.225  22.152  17.485  1.00  0.00     0.071 A 
ENDROOT
BRANCH   9  11
HETATM   11  C16 UNL     1      16.111  21.261  19.430  1.00  0.00     0.225 C 
HETATM   12  O6  UNL     1      16.341  20.113  18.957  1.00  0.00    -0.273 OA
HETATM   13  N2  UNL     1      15.520  21.268  20.750  1.00  0.00    -0.361 N 
ATOM     14  H2  UNL     1      15.306  22.156  21.204  1.00  0.00     0.162 HD
BRANCH  13  15
HETATM   15  C17 UNL     1      15.234  20.045  21.422  1.00  0.00     0.122 C 
BRANCH  15  16
HETATM   16  C18 UNL     1      13.897  19.469  21.322  1.00  0.00     0.020 C 
BRANCH  16  17
HETATM   17  C19 UNL     1      13.644  18.259  20.507  1.00  0.00     0.002 C 
BRANCH  17  18
HETATM   18  C20 UNL     1      12.437  17.481  20.822  1.00  0.00     0.002 C 
BRANCH  18  19
HETATM   19  C21 UNL     1      11.263  17.602  19.918  1.00  0.00     0.030 C 
BRANCH  19  20
HETATM   20  C22 UNL     1      11.397  18.346  18.656  1.00  0.00     0.272 C 
BRANCH  20  21
HETATM   21  N3  UNL     1      11.228  17.505  17.505  1.00  0.00     0.088 N 
HETATM   22  C23 UNL     1      10.775  16.179  17.840  1.00  0.00     0.272 C 
HETATM   23  C24 UNL     1      10.964  15.304  16.612  1.00  0.00     0.030 C 
HETATM   24  C25 UNL     1      10.227  15.876  15.442  1.00  0.00     0.003 C 
HETATM   25  C26 UNL     1      10.550  17.340  15.220  1.00  0.00     0.030 C 
HETATM   26  C27 UNL     1      10.300  18.066  16.541  1.00  0.00     0.272 C 
ENDBRANCH  20  21
ENDBRANCH  19  20
ENDBRANCH  18  19
ENDBRANCH  17  18
ENDBRANCH  16  17
ENDBRANCH  15  16
ENDBRANCH  13  15
ENDBRANCH   9  11
BRANCH  10  27
HETATM   27  C29 UNL     1      16.269  21.999  16.357  1.00  0.00     0.246 C 
HETATM   28  O7  UNL     1      16.504  21.321  15.308  1.00  0.00    -0.272 OA
HETATM   29  N4  UNL     1      14.999  22.628  16.407  1.00  0.00    -0.159 N 
ATOM     30  H4  UNL     1      14.878  23.375  17.089  1.00  0.00     0.187 HD
BRANCH  29  31
HETATM   31  C30 UNL     1      13.989  22.343  15.673  1.00  0.00     0.684 A 
HETATM   32  N5  UNL     1      13.188  21.326  16.038  1.00  0.00    -0.202 N 
HETATM   33  C31 UNL     1      12.102  20.974  15.313  1.00  0.00     0.107 A 
ATOM     34  H5  UNL     1      13.407  20.804  16.887  1.00  0.00     0.183 HD
HETATM   35  C32 UNL     1      11.790  21.669  14.164  1.00  0.00     0.035 A 
HETATM   36  C33 UNL     1      12.616  22.717  13.791  1.00  0.00     0.107 A 
HETATM   37  N6  UNL     1      13.687  23.021  14.554  1.00  0.00    -0.202 N 
ATOM     38  H6  UNL     1      14.288  23.794  14.270  1.00  0.00     0.183 HD
ENDBRANCH  29  31
ENDBRANCH  10  27
BRANCH   1  39
HETATM   39  C7  UNL     1      19.551  25.531  17.173  1.00  0.00     0.228 C 
HETATM   40  N1  UNL     1      20.661  25.365  16.348  1.00  0.00    -0.327 N 
HETATM   41  C3  UNL     1      21.194  26.240  15.613  1.00  0.00     0.058 C 
ATOM     42  H1  UNL     1      21.088  24.438  16.339  1.00  0.00     0.168 HD
HETATM   43  O4  UNL     1      19.715  26.047  18.339  1.00  0.00    -0.273 OA
BRANCH  41  44
HETATM   44  C2  UNL     1      20.691  27.593  15.530  1.00  0.00     0.168 C 
HETATM   45  C1  UNL     1      19.700  28.042  14.511  1.00  0.00     0.098 C 
HETATM   46  O1  UNL     1      21.113  28.447  16.372  1.00  0.00    -0.292 OA
ENDBRANCH  41  44
BRANCH  41  47
HETATM   47  C4  UNL     1      22.421  25.910  14.802  1.00  0.00     0.071 C 
BRANCH  47  48
HETATM   48  C5  UNL     1      23.523  26.904  14.962  1.00  0.00     0.119 C 
BRANCH  48  49
HETATM   49  C6  UNL     1      24.372  26.576  16.154  1.00  0.00     0.172 C 
HETATM   50  O2  UNL     1      25.370  25.826  16.085  1.00  0.00    -0.648 OA
HETATM   51  O3  UNL     1      24.027  27.133  17.368  1.00  0.00    -0.648 OA
ENDBRANCH  48  49
ENDBRANCH  47  48
ENDBRANCH  41  47
ENDBRANCH   1  39
TORSDOF 15
ENDMDL
MODEL 2
REMARK VINA RESULT: -9.179435543      1.304      1.594
REMARK  15 active torsions:
REMARK  status: ('A' for Active; 'I' for Inactive)
REMARK    1  A    between atoms: C2_2  and  C3_4 
REMARK    2  A    between atoms: C3_4  and  C4_5 
REMARK    3  A    between atoms: C4_5  and  C5_6 
REMARK    4  A    between atoms: C5_6  and  C6_7 
REMARK       I    between atoms: N1_10  and  C7_12 
REMARK    5  A    between atoms: C7_12  and  C8_14 
REMARK    6  A    between atoms: C15_22  and  C16_23 
REMARK       I    between atoms: C16_23  and  N2_25 
REMARK    7  A    between atoms: N2_25  and  C17_27 
REMARK    8  A    between atoms: C17_27  and  C18_28 
REMARK    9  A    between atoms: C18_28  and  C19_29 
REMARK   10  A    between atoms: C19_29  and  C20_30 
REMARK   11  A    between atoms: C20_30  and  C21_31 
REMARK   12  A    between atoms: C21_31  and  C22_32 
REMARK   13  A    between atoms: C22_32  and  N3_33 
REMARK   14  A    between atoms: C28_39  and  C29_40 
REMARK       I    between atoms: C29_40  and  N4_42 
REMARK   15  A    between atoms: N4_42  and  C30_44 
ROOT
HETATM    1  C8  UNL     1      19.014  25.253  16.719  1.00  0.00     0.108 C 
HETATM    2  C9  UNL     1      19.437  23.885  16.135  1.00  0.00     0.023 C 
HETATM    3  C10 UNL     1      19.573  22.943  17.319  1.00  0.00     0.018 A 
HETATM    4  C11 UNL     1      19.126  23.671  18.270  1.00  0.00     0.012 A 
HETATM    5  C12 UNL     1      19.230  23.776  19.769  1.00  0.00     0.046 C 
HETATM    6  C13 UNL     1      17.741  24.103  19.755  1.00  0.00     0.137 C 
HETATM    7  O5  UNL     1      17.845  25.275  18.955  1.00  0.00    -0.378 OA
HETATM    8  C14 UNL     1      18.182  24.765  17.789  1.00  0.00     0.145 C 
HETATM    9  C15 UNL     1      17.336  22.872  18.965  1.00  0.00     0.126 C 
HETATM   10  C28 UNL     1      18.418  22.393  18.085  1.00  0.00     0.071 A 
ENDROOT
BRANCH   9  11
HETATM   11  C16 UNL     1      17.057  21.834  19.996  1.00  0.00     0.225 C 
HETATM   12  O6  UNL     1      17.980  21.278  20.656  1.00  0.00    -0.273 OA
HETATM   13  N2  UNL     1      15.722  21.381  20.321  1.00  0.00    -0.361 N 
ATOM     14  H2  UNL     1      14.920  21.783  19.835  1.00  0.00     0.162 HD
BRANCH  13  15
HETATM   15  C17 UNL     1      15.517  20.380  21.313  1.00  0.00     0.122 C 
BRANCH  15  16
HETATM   16  C18 UNL     1      14.258  19.641  21.335  1.00  0.00     0.020 C 
BRANCH  16  17
HETATM   17  C19 UNL     1      14.018  18.512  20.408  1.00  0.00     0.002 C 
BRANCH  17  18
HETATM   18  C20 UNL     1      12.833  17.679  20.663  1.00  0.00     0.002 C 
BRANCH  18  19
HETATM   19  C21 UNL     1      12.093  17.128  19.497  1.00  0.00     0.030 C 
BRANCH  19  20
HETATM   20  C22 UNL     1      10.688  17.513  19.287  1.00  0.00     0.272 C 
BRANCH  20  21
HETATM   21  N3  UNL     1      10.422  17.882  17.926  1.00  0.00     0.088 N 
HETATM   22  C23 UNL     1      10.904  19.200  17.597  1.00  0.00     0.272 C 
HETATM   23  C24 UNL     1      10.273  19.604  16.275  1.00  0.00     0.030 C 
HETATM   24  C25 UNL     1      10.595  18.601  15.212  1.00  0.00     0.003 C 
HETATM   25  C26 UNL     1      10.279  17.184  15.646  1.00  0.00     0.030 C 
HETATM   26  C27 UNL     1      10.992  16.946  16.976  1.00  0.00     0.272 C 
ENDBRANCH  20  21
ENDBRANCH  19  20
ENDBRANCH  18  19
ENDBRANCH  17  18
ENDBRANCH  16  17
ENDBRANCH  15  16
ENDBRANCH  13  15
ENDBRANCH   9  11
BRANCH  10  27
HETATM   27  C29 UNL     1      17.766  21.751  16.914  1.00  0.00     0.246 C 
HETATM   28  O7  UNL     1      18.151  20.658  16.391  1.00  0.00    -0.272 OA
HETATM   29  N4  UNL     1      16.636  22.354  16.304  1.00  0.00    -0.159 N 
ATOM     30  H4  UNL     1      16.463  23.336  16.519  1.00  0.00     0.187 HD
BRANCH  29  31
HETATM   31  C30 UNL     1      15.813  21.780  15.509  1.00  0.00     0.684 A 
HETATM   32  N5  UNL     1      14.846  21.002  16.028  1.00  0.00    -0.202 N 
HETATM   33  C31 UNL     1      13.941  20.371  15.247  1.00  0.00     0.107 A 
ATOM     34  H5  UNL     1      14.795  20.885  17.040  1.00  0.00     0.183 HD
HETATM   35  C32 UNL     1      13.993  20.518  13.878  1.00  0.00     0.035 A 
HETATM   36  C33 UNL     1      14.990  21.321  13.347  1.00  0.00     0.107 A 
HETATM   37  N6  UNL     1      15.867  21.926  14.175  1.00  0.00    -0.202 N 
ATOM     38  H6  UNL     1      16.596  22.514  13.774  1.00  0.00     0.183 HD
ENDBRANCH  29  31
ENDBRANCH  10  27
BRANCH   1  39
HETATM   39  C7  UNL     1      20.208  25.980  17.162  1.00  0.00     0.228 C 
HETATM   40  N1  UNL     1      21.468  25.891  16.575  1.00  0.00    -0.327 N 
HETATM   41  C3  UNL     1      21.968  26.686  15.732  1.00  0.00     0.058 C 
ATOM     42  H1  UNL     1      22.048  25.100  16.857  1.00  0.00     0.168 HD
HETATM   43  O4  UNL     1      20.048  26.754  18.175  1.00  0.00    -0.273 OA
BRANCH  41  44
HETATM   44  C2  UNL     1      21.256  27.846  15.245  1.00  0.00     0.168 C 
HETATM   45  C1  UNL     1      20.261  27.795  14.135  1.00  0.00     0.098 C 
HETATM   46  O1  UNL     1      21.485  28.969  15.793  1.00  0.00    -0.292 OA
ENDBRANCH  41  44
BRANCH  41  47
HETATM   47  C4  UNL     1      23.367  26.469  15.216  1.00  0.00     0.071 C 
BRANCH  47  48
HETATM   48  C5  UNL     1      24.416  27.122  16.053  1.00  0.00     0.119 C 
BRANCH  48  49
HETATM   49  C6  UNL     1      25.222  26.100  16.798  1.00  0.00     0.172 C 
HETATM   50  O2  UNL     1      26.175  25.482  16.274  1.00  0.00    -0.648 OA
HETATM   51  O3  UNL     1      24.889  25.842  18.111  1.00  0.00    -0.648 OA
ENDBRANCH  48  49
ENDBRANCH  47  48
ENDBRANCH  41  47
ENDBRANCH   1  39
TORSDOF 15
ENDMDL
MODEL 3
REMARK VINA RESULT: -9.153663571      0.873      1.235
REMARK  15 active torsions:
REMARK  status: ('A' for Active; 'I' for Inactive)
REMARK    1  A    between atoms: C2_2  and  C3_4 
REMARK    2  A    between atoms: C3_4  and  C4_5 
REMARK    3  A    between atoms: C4_5  and  C5_6 
REMARK    4  A    between atoms: C5_6  and  C6_7 
REMARK       I    between atoms: N1_10  and  C7_12 
REMARK    5  A    between atoms: C7_12  and  C8_14 
REMARK    6  A    between atoms: C15_22  and  C16_23 
REMARK       I    between atoms: C16_23  and  N2_25 
REMARK    7  A    between atoms: N2_25  and  C17_27 
REMARK    8  A    between atoms: C17_27  and  C18_28 
REMARK    9  A    between atoms: C18_28  and  C19_29 
REMARK   10  A    between atoms: C19_29  and  C20_30 
REMARK   11  A    between atoms: C20_30  and  C21_31 
REMARK   12  A    between atoms: C21_31  and  C22_32 
REMARK   13  A    between atoms: C22_32  and  N3_33 
REMARK   14  A    between atoms: C28_39  and  C29_40 
REMARK       I    between atoms: C29_40  and  N4_42 
REMARK   15  A    between atoms: N4_42  and  C30_44 
ROOT
HETATM    1  C8  UNL     1      18.283  24.917  17.006  1.00  0.00     0.108 C 
HETATM    2  C9  UNL     1      18.248  23.783  15.955  1.00  0.00     0.023 C 
HETATM    3  C10 UNL     1      18.297  22.481  16.736  1.00  0.00     0.018 A 
HETATM    4  C11 UNL     1      18.194  22.905  17.937  1.00  0.00     0.012 A 
HETATM    5  C12 UNL     1      18.531  22.459  19.335  1.00  0.00     0.046 C 
HETATM    6  C13 UNL     1      17.192  23.061  19.749  1.00  0.00     0.137 C 
HETATM    7  O5  UNL     1      17.486  24.391  19.341  1.00  0.00    -0.378 OA
HETATM    8  C14 UNL     1      17.511  24.264  18.031  1.00  0.00     0.145 C 
HETATM    9  C15 UNL     1      16.373  22.289  18.731  1.00  0.00     0.126 C 
HETATM   10  C28 UNL     1      17.157  21.941  17.532  1.00  0.00     0.071 A 
ENDROOT
BRANCH   9  11
HETATM   11  C16 UNL     1      15.980  21.034  19.432  1.00  0.00     0.225 C 
HETATM   12  O6  UNL     1      16.149  19.895  18.913  1.00  0.00    -0.273 OA
HETATM   13  N2  UNL     1      15.378  21.020  20.747  1.00  0.00    -0.361 N 
ATOM     14  H2  UNL     1      15.211  21.899  21.236  1.00  0.00     0.162 HD
BRANCH  13  15
HETATM   15  C17 UNL     1      15.018  19.788  21.365  1.00  0.00     0.122 C 
BRANCH  15  16
HETATM   16  C18 UNL     1      13.661  19.275  21.200  1.00  0.00     0.020 C 
BRANCH  16  17
HETATM   17  C19 UNL     1      13.402  18.030  20.442  1.00  0.00     0.002 C 
BRANCH  17  18
HETATM   18  C20 UNL     1      12.073  17.886  19.829  1.00  0.00     0.002 C 
BRANCH  18  19
HETATM   19  C21 UNL     1      11.713  16.578  19.220  1.00  0.00     0.030 C 
BRANCH  19  20
HETATM   20  C22 UNL     1      11.372  16.516  17.790  1.00  0.00     0.272 C 
BRANCH  20  21
HETATM   21  N3  UNL     1      10.983  15.197  17.378  1.00  0.00     0.088 N 
HETATM   22  C23 UNL     1       9.877  14.674  18.139  1.00  0.00     0.272 C 
HETATM   23  C24 UNL     1       9.787  13.184  17.856  1.00  0.00     0.030 C 
HETATM   24  C25 UNL     1       9.632  12.937  16.388  1.00  0.00     0.003 C 
HETATM   25  C26 UNL     1      10.680  13.665  15.571  1.00  0.00     0.030 C 
HETATM   26  C27 UNL     1      10.629  15.138  15.973  1.00  0.00     0.272 C 
ENDBRANCH  20  21
ENDBRANCH  19  20
ENDBRANCH  18  19
ENDBRANCH  17  18
ENDBRANCH  16  17
ENDBRANCH  15  16
ENDBRANCH  13  15
ENDBRANCH   9  11
BRANCH  10  27
HETATM   27  C29 UNL     1      16.203  21.891  16.394  1.00  0.00     0.246 C 
HETATM   28  O7  UNL     1      16.459  21.359  15.268  1.00  0.00    -0.272 OA
HETATM   29  N4  UNL     1      14.908  22.456  16.521  1.00  0.00    -0.159 N 
ATOM     30  H4  UNL     1      14.760  23.107  17.292  1.00  0.00     0.187 HD
BRANCH  29  31
HETATM   31  C30 UNL     1      13.906  22.224  15.758  1.00  0.00     0.684 A 
HETATM   32  N5  UNL     1      12.980  21.333  16.156  1.00  0.00    -0.202 N 
HETATM   33  C31 UNL     1      11.895  21.044  15.402  1.00  0.00     0.107 A 
ATOM     34  H5  UNL     1      13.100  20.862  17.053  1.00  0.00     0.183 HD
HETATM   35  C32 UNL     1      11.715  21.672  14.189  1.00  0.00     0.035 A 
HETATM   36  C33 UNL     1      12.671  22.589  13.782  1.00  0.00     0.107 A 
HETATM   37  N6  UNL     1      13.734  22.837  14.576  1.00  0.00    -0.202 N 
ATOM     38  H6  UNL     1      14.432  23.513  14.266  1.00  0.00     0.183 HD
ENDBRANCH  29  31
ENDBRANCH  10  27
BRANCH   1  39
HETATM   39  C7  UNL     1      19.676  25.190  17.375  1.00  0.00     0.228 C 
HETATM   40  N1  UNL     1      20.764  25.133  16.508  1.00  0.00    -0.327 N 
HETATM   41  C3  UNL     1      21.307  26.103  15.911  1.00  0.00     0.058 C 
ATOM     42  H1  UNL     1      21.165  24.210  16.338  1.00  0.00     0.168 HD
HETATM   43  O4  UNL     1      19.876  25.505  18.605  1.00  0.00    -0.273 OA
BRANCH  41  44
HETATM   44  C2  UNL     1      20.841  27.463  16.061  1.00  0.00     0.168 C 
HETATM   45  C1  UNL     1      20.045  28.180  15.023  1.00  0.00     0.098 C 
HETATM   46  O1  UNL     1      21.119  28.082  17.135  1.00  0.00    -0.292 OA
ENDBRANCH  41  44
BRANCH  41  47
HETATM   47  C4  UNL     1      22.508  25.879  15.029  1.00  0.00     0.071 C 
BRANCH  47  48
HETATM   48  C5  UNL     1      23.570  26.914  15.198  1.00  0.00     0.119 C 
BRANCH  48  49
HETATM   49  C6  UNL     1      24.490  26.559  16.327  1.00  0.00     0.172 C 
HETATM   50  O2  UNL     1      24.271  26.906  17.509  1.00  0.00    -0.648 OA
HETATM   51  O3  UNL     1      25.617  25.819  16.037  1.00  0.00    -0.648 OA
ENDBRANCH  48  49
ENDBRANCH  47  48
ENDBRANCH  41  47
ENDBRANCH   1  39
TORSDOF 15
ENDMDL
MODEL 4
REMARK VINA RESULT: -8.988250450      3.551     10.244
REMARK  15 active torsions:
REMARK  status: ('A' for Active; 'I' for Inactive)
REMARK    1  A    between atoms: C2_2  and  C3_4 
REMARK    2  A    between atoms: C3_4  and  C4_5 
REMARK    3  A    between atoms: C4_5  and  C5_6 
REMARK    4  A    between atoms: C5_6  and  C6_7 
REMARK       I    between atoms: N1_10  and  C7_12 
REMARK    5  A    between atoms: C7_12  and  C8_14 
REMARK    6  A    between atoms: C15_22  and  C16_23 
REMARK       I    between atoms: C16_23  and  N2_25 
REMARK    7  A    between atoms: N2_25  and  C17_27 
REMARK    8  A    between atoms: C17_27  and  C18_28 
REMARK    9  A    between atoms: C18_28  and  C19_29 
REMARK   10  A    between atoms: C19_29  and  C20_30 
REMARK   11  A    between atoms: C20_30  and  C21_31 
REMARK   12  A    between atoms: C21_31  and  C22_32 
REMARK   13  A    between atoms: C22_32  and  N3_33 
REMARK   14  A    between atoms: C28_39  and  C29_40 
REMARK       I    between atoms: C29_40  and  N4_42 
REMARK   15  A    between atoms: N4_42  and  C30_44 
ROOT
HETATM    1  C8  UNL     1      10.275  19.975  14.716  1.00  0.00     0.108 C 
HETATM    2  C9  UNL     1      11.094  18.946  15.530  1.00  0.00     0.023 C 
HETATM    3  C10 UNL     1      12.540  19.115  15.095  1.00  0.00     0.018 A 
HETATM    4  C11 UNL     1      12.456  20.149  14.348  1.00  0.00     0.012 A 
HETATM    5  C12 UNL     1      13.208  20.800  13.218  1.00  0.00     0.046 C 
HETATM    6  C13 UNL     1      12.894  22.128  13.898  1.00  0.00     0.137 C 
HETATM    7  O5  UNL     1      11.479  22.008  13.829  1.00  0.00    -0.378 OA
HETATM    8  C14 UNL     1      11.258  21.028  14.680  1.00  0.00     0.145 C 
HETATM    9  C15 UNL     1      13.464  21.731  15.247  1.00  0.00     0.126 C 
HETATM   10  C28 UNL     1      13.396  20.275  15.475  1.00  0.00     0.071 A 
ENDROOT
BRANCH   9  11
HETATM   11  C16 UNL     1      14.895  22.144  15.192  1.00  0.00     0.225 C 
HETATM   12  O6  UNL     1      15.838  21.304  15.232  1.00  0.00    -0.273 OA
HETATM   13  N2  UNL     1      15.315  23.524  15.091  1.00  0.00    -0.361 N 
ATOM     14  H2  UNL     1      14.614  24.264  15.050  1.00  0.00     0.162 HD
BRANCH  13  15
HETATM   15  C17 UNL     1      16.698  23.859  15.047  1.00  0.00     0.122 C 
BRANCH  15  16
HETATM   16  C18 UNL     1      17.101  25.257  15.173  1.00  0.00     0.020 C 
BRANCH  16  17
HETATM   17  C19 UNL     1      18.439  25.624  15.689  1.00  0.00     0.002 C 
BRANCH  17  18
HETATM   18  C20 UNL     1      19.407  24.532  15.870  1.00  0.00     0.002 C 
BRANCH  18  19
HETATM   19  C21 UNL     1      19.667  24.040  17.249  1.00  0.00     0.030 C 
BRANCH  19  20
HETATM   20  C22 UNL     1      18.711  24.359  18.321  1.00  0.00     0.272 C 
BRANCH  20  21
HETATM   21  N3  UNL     1      18.054  23.189  18.831  1.00  0.00     0.088 N 
HETATM   22  C23 UNL     1      18.329  22.953  20.226  1.00  0.00     0.272 C 
HETATM   23  C24 UNL     1      17.876  21.540  20.552  1.00  0.00     0.030 C 
HETATM   24  C25 UNL     1      16.427  21.364  20.222  1.00  0.00     0.003 C 
HETATM   25  C26 UNL     1      16.100  21.814  18.813  1.00  0.00     0.030 C 
HETATM   26  C27 UNL     1      16.614  23.245  18.661  1.00  0.00     0.272 C 
ENDBRANCH  20  21
ENDBRANCH  19  20
ENDBRANCH  18  19
ENDBRANCH  17  18
ENDBRANCH  16  17
ENDBRANCH  15  16
ENDBRANCH  13  15
ENDBRANCH   9  11
BRANCH  10  27
HETATM   27  C29 UNL     1      13.259  20.076  16.941  1.00  0.00     0.246 C 
HETATM   28  O7  UNL     1      12.826  20.961  17.746  1.00  0.00    -0.272 OA
HETATM   29  N4  UNL     1      13.619  18.838  17.532  1.00  0.00    -0.159 N 
ATOM     30  H4  UNL     1      14.203  18.212  16.977  1.00  0.00     0.187 HD
BRANCH  29  31
HETATM   31  C30 UNL     1      13.278  18.432  18.697  1.00  0.00     0.684 A 
HETATM   32  N5  UNL     1      12.573  17.291  18.806  1.00  0.00    -0.202 N 
HETATM   33  C31 UNL     1      12.185  16.802  20.005  1.00  0.00     0.107 A 
ATOM     34  H5  UNL     1      12.324  16.780  17.959  1.00  0.00     0.183 HD
HETATM   35  C32 UNL     1      12.513  17.476  21.161  1.00  0.00     0.035 A 
HETATM   36  C33 UNL     1      13.239  18.651  21.046  1.00  0.00     0.107 A 
HETATM   37  N6  UNL     1      13.599  19.092  19.822  1.00  0.00    -0.202 N 
ATOM     38  H6  UNL     1      14.133  19.957  19.748  1.00  0.00     0.183 HD
ENDBRANCH  29  31
ENDBRANCH  10  27
BRANCH   1  39
HETATM   39  C7  UNL     1       9.949  19.405  13.406  1.00  0.00     0.228 C 
HETATM   40  N1  UNL     1      10.698  18.438  12.739  1.00  0.00    -0.327 N 
HETATM   41  C3  UNL     1      10.487  17.194  12.724  1.00  0.00     0.058 C 
ATOM     42  H1  UNL     1      11.503  18.771  12.208  1.00  0.00     0.168 HD
HETATM   43  O4  UNL     1       8.878  19.851  12.853  1.00  0.00    -0.273 OA
BRANCH  41  44
HETATM   44  C2  UNL     1       9.383  16.588  13.433  1.00  0.00     0.168 C 
HETATM   45  C1  UNL     1       9.524  15.921  14.759  1.00  0.00     0.098 C 
HETATM   46  O1  UNL     1       8.229  16.628  12.903  1.00  0.00    -0.292 OA
ENDBRANCH  41  44
BRANCH  41  47
HETATM   47  C4  UNL     1      11.375  16.281  11.920  1.00  0.00     0.071 C 
BRANCH  47  48
HETATM   48  C5  UNL     1      12.824  16.424  12.246  1.00  0.00     0.119 C 
BRANCH  48  49
HETATM   49  C6  UNL     1      13.670  15.643  11.284  1.00  0.00     0.172 C 
HETATM   50  O2  UNL     1      13.216  15.167  10.221  1.00  0.00    -0.648 OA
HETATM   51  O3  UNL     1      15.000  15.453  11.597  1.00  0.00    -0.648 OA
ENDBRANCH  48  49
ENDBRANCH  47  48
ENDBRANCH  41  47
ENDBRANCH   1  39
TORSDOF 15
ENDMDL
MODEL 5
REMARK VINA RESULT: -8.952225127      1.546      2.097
REMARK  15 active torsions:
REMARK  status: ('A' for Active; 'I' for Inactive)
REMARK    1  A    between atoms: C2_2  and  C3_4 
REMARK    2  A    between atoms: C3_4  and  C4_5 
REMARK    3  A    between atoms: C4_5  and  C5_6 
REMARK    4  A    between atoms: C5_6  and  C6_7 
REMARK       I    between atoms: N1_10  and  C7_12 
REMARK    5  A    between atoms: C7_12  and  C8_14 
REMARK    6  A    between atoms: C15_22  and  C16_23 
REMARK       I    between atoms: C16_23  and  N2_25 
REMARK    7  A    between atoms: N2_25  and  C17_27 
REMARK    8  A    between atoms: C17_27  and  C18_28 
REMARK    9  A    between atoms: C18_28  and  C19_29 
REMARK   10  A    between atoms: C19_29  and  C20_30 
REMARK   11  A    between atoms: C20_30  and  C21_31 
REMARK   12  A    between atoms: C21_31  and  C22_32 
REMARK   13  A    between atoms: C22_32  and  N3_33 
REMARK   14  A    between atoms: C28_39  and  C29_40 
REMARK       I    between atoms: C29_40  and  N4_42 
REMARK   15  A    between atoms: N4_42  and  C30_44 
ROOT
HETATM    1  C8  UNL     1      18.994  24.546  18.046  1.00  0.00     0.108 C 
HETATM    2  C9  UNL     1      18.960  23.630  16.801  1.00  0.00     0.023 C 
HETATM    3  C10 UNL     1      18.726  22.220  17.318  1.00  0.00     0.018 A 
HETATM    4  C11 UNL     1      18.510  22.442  18.558  1.00  0.00     0.012 A 
HETATM    5  C12 UNL     1      18.584  21.714  19.874  1.00  0.00     0.046 C 
HETATM    6  C13 UNL     1      17.291  22.435  20.239  1.00  0.00     0.137 C 
HETATM    7  O5  UNL     1      17.812  23.755  20.130  1.00  0.00    -0.378 OA
HETATM    8  C14 UNL     1      18.005  23.853  18.832  1.00  0.00     0.145 C 
HETATM    9  C15 UNL     1      16.531  21.988  19.005  1.00  0.00     0.126 C 
HETATM   10  C28 UNL     1      17.425  21.735  17.859  1.00  0.00     0.071 A 
ENDROOT
BRANCH   9  11
HETATM   11  C16 UNL     1      15.881  20.707  19.402  1.00  0.00     0.225 C 
HETATM   12  O6  UNL     1      16.078  19.631  18.771  1.00  0.00    -0.273 OA
HETATM   13  N2  UNL     1      14.981  20.595  20.529  1.00  0.00    -0.361 N 
ATOM     14  H2  UNL     1      14.771  21.419  21.093  1.00  0.00     0.162 HD
BRANCH  13  15
HETATM   15  C17 UNL     1      14.385  19.344  20.858  1.00  0.00     0.122 C 
BRANCH  15  16
HETATM   16  C18 UNL     1      13.140  18.950  20.204  1.00  0.00     0.020 C 
BRANCH  16  17
HETATM   17  C19 UNL     1      12.144  18.105  20.902  1.00  0.00     0.002 C 
BRANCH  17  18
HETATM   18  C20 UNL     1      12.033  16.705  20.466  1.00  0.00     0.002 C 
BRANCH  18  19
HETATM   19  C21 UNL     1      11.834  16.430  19.018  1.00  0.00     0.030 C 
BRANCH  19  20
HETATM   20  C22 UNL     1      10.585  16.856  18.368  1.00  0.00     0.272 C 
BRANCH  20  21
HETATM   21  N3  UNL     1      10.824  17.657  17.200  1.00  0.00     0.088 N 
HETATM   22  C23 UNL     1      10.003  17.275  16.079  1.00  0.00     0.272 C 
HETATM   23  C24 UNL     1      10.577  17.941  14.840  1.00  0.00     0.030 C 
HETATM   24  C25 UNL     1      10.633  19.426  15.021  1.00  0.00     0.003 C 
HETATM   25  C26 UNL     1      11.317  19.821  16.315  1.00  0.00     0.030 C 
HETATM   26  C27 UNL     1      10.615  19.071  17.447  1.00  0.00     0.272 C 
ENDBRANCH  20  21
ENDBRANCH  19  20
ENDBRANCH  18  19
ENDBRANCH  17  18
ENDBRANCH  16  17
ENDBRANCH  15  16
ENDBRANCH  13  15
ENDBRANCH   9  11
BRANCH  10  27
HETATM   27  C29 UNL     1      16.643  22.030  16.631  1.00  0.00     0.246 C 
HETATM   28  O7  UNL     1      17.073  21.849  15.448  1.00  0.00    -0.272 OA
HETATM   29  N4  UNL     1      15.325  22.547  16.729  1.00  0.00    -0.159 N 
ATOM     30  H4  UNL     1      15.049  22.945  17.626  1.00  0.00     0.187 HD
BRANCH  29  31
HETATM   31  C30 UNL     1      14.450  22.560  15.794  1.00  0.00     0.684 A 
HETATM   32  N5  UNL     1      14.411  21.531  14.928  1.00  0.00    -0.202 N 
HETATM   33  C31 UNL     1      13.510  21.478  13.922  1.00  0.00     0.107 A 
ATOM     34  H5  UNL     1      15.081  20.769  15.034  1.00  0.00     0.183 HD
HETATM   35  C32 UNL     1      12.596  22.496  13.763  1.00  0.00     0.035 A 
HETATM   36  C33 UNL     1      12.638  23.555  14.657  1.00  0.00     0.107 A 
HETATM   37  N6  UNL     1      13.561  23.555  15.642  1.00  0.00    -0.202 N 
ATOM     38  H6  UNL     1      13.583  24.338  16.294  1.00  0.00     0.183 HD
ENDBRANCH  29  31
ENDBRANCH  10  27
BRANCH   1  39
HETATM   39  C7  UNL     1      20.344  24.532  18.619  1.00  0.00     0.228 C 
HETATM   40  N1  UNL     1      21.486  25.035  18.001  1.00  0.00    -0.327 N 
HETATM   41  C3  UNL     1      22.011  26.167  18.188  1.00  0.00     0.058 C 
ATOM     42  H1  UNL     1      21.946  24.424  17.326  1.00  0.00     0.168 HD
HETATM   43  O4  UNL     1      20.450  24.007  19.787  1.00  0.00    -0.273 OA
BRANCH  41  44
HETATM   44  C2  UNL     1      21.463  27.131  19.115  1.00  0.00     0.168 C 
HETATM   45  C1  UNL     1      21.846  27.199  20.555  1.00  0.00     0.098 C 
HETATM   46  O1  UNL     1      20.610  27.968  18.683  1.00  0.00    -0.292 OA
ENDBRANCH  41  44
BRANCH  41  47
HETATM   47  C4  UNL     1      23.275  26.550  17.463  1.00  0.00     0.071 C 
BRANCH  47  48
HETATM   48  C5  UNL     1      23.052  26.915  16.033  1.00  0.00     0.119 C 
BRANCH  48  49
HETATM   49  C6  UNL     1      22.847  28.393  15.883  1.00  0.00     0.172 C 
HETATM   50  O2  UNL     1      23.782  29.217  15.988  1.00  0.00    -0.648 OA
HETATM   51  O3  UNL     1      21.572  28.848  15.617  1.00  0.00    -0.648 OA
ENDBRANCH  48  49
ENDBRANCH  47  48
ENDBRANCH  41  47
ENDBRANCH   1  39
TORSDOF 15
ENDMDL
