MODEL 1
REMARK VINA RESULT: -7.602082669      0.000      0.000
REMARK  5 active torsions:
REMARK  status: ('A' for Active; 'I' for Inactive)
REMARK    1  A    between atoms: N1_2  and  C1_4 
REMARK    2  A    between atoms: C4_7  and  C5_8 
REMARK    3  A    between atoms: C5_8  and  O4_13 
REMARK    4  A    between atoms: N2_9  and  O3_11 
REMARK    5  A    between atoms: O4_13  and  C6_14 
ROOT
HETATM    1  C5  UNL     1       7.708   7.673  44.707  1.00  0.00     0.178 C 
HETATM    2  N2  UNL     1       7.982   7.802  45.934  1.00  0.00    -0.246 N 
ATOM      3  H2  UNL     1       7.235   8.164  46.527  1.00  0.00     0.196 HD
ENDROOT
BRANCH   1   4
HETATM    4  C4  UNL     1       8.546   7.192  43.633  1.00  0.00     0.017 A 
HETATM    5  C3  UNL     1       8.399   5.909  43.152  1.00  0.00     0.018 A 
HETATM    6  C2  UNL     1       9.159   5.379  42.137  1.00  0.00     0.037 A 
HETATM    7  C1  UNL     1      10.129   6.150  41.548  1.00  0.00     0.102 A 
HETATM    8  C13 UNL     1      10.304   7.432  42.002  1.00  0.00     0.037 A 
HETATM    9  C12 UNL     1       9.511   7.949  43.044  1.00  0.00     0.018 A 
BRANCH   7  10
HETATM   10  N1  UNL     1      10.926   5.638  40.506  1.00  0.00    -0.116 N 
HETATM   11  O1  UNL     1      10.448   5.513  39.364  1.00  0.00    -0.532 OA
HETATM   12  O2  UNL     1      12.225   5.277  40.737  1.00  0.00    -0.532 OA
ENDBRANCH   7  10
ENDBRANCH   1   4
BRANCH   1  13
HETATM   13  O4  UNL     1       6.374   8.081  44.432  1.00  0.00    -0.291 OA
BRANCH  13  14
HETATM   14  C6  UNL     1       6.073   9.218  43.726  1.00  0.00     0.078 A 
HETATM   15  C7  UNL     1       6.097   9.401  42.373  1.00  0.00     0.039 A 
HETATM   16  C8  UNL     1       5.759  10.628  41.777  1.00  0.00     0.026 A 
HETATM   17  C9  UNL     1       5.386  11.705  42.544  1.00  0.00     0.034 A 
HETATM   18 CL1  UNL     1       4.969  13.221  41.784  1.00  0.00    -0.084 Cl
HETATM   19  C10 UNL     1       5.354  11.542  43.904  1.00  0.00     0.026 A 
HETATM   20  C11 UNL     1       5.688  10.336  44.483  1.00  0.00     0.039 A 
ENDBRANCH  13  14
ENDBRANCH   1  13
BRANCH   2  21
HETATM   21  O3  UNL     1       9.131   7.520  46.541  1.00  0.00    -0.288 OA
ATOM     22  H3  UNL     1       9.383   6.700  46.950  1.00  0.00     0.244 HD
ENDBRANCH   2  21
TORSDOF 5
ENDMDL
MODEL 2
REMARK VINA RESULT: -7.596756887      1.380      1.770
REMARK  5 active torsions:
REMARK  status: ('A' for Active; 'I' for Inactive)
REMARK    1  A    between atoms: N1_2  and  C1_4 
REMARK    2  A    between atoms: C4_7  and  C5_8 
REMARK    3  A    between atoms: C5_8  and  O4_13 
REMARK    4  A    between atoms: N2_9  and  O3_11 
REMARK    5  A    between atoms: O4_13  and  C6_14 
ROOT
HETATM    1  C5  UNL     1       7.416   7.663  44.462  1.00  0.00     0.178 C 
HETATM    2  N2  UNL     1       6.413   7.148  45.033  1.00  0.00    -0.246 N 
ATOM      3  H2  UNL     1       5.946   7.725  45.733  1.00  0.00     0.196 HD
ENDROOT
BRANCH   1   4
HETATM    4  C4  UNL     1       8.271   7.102  43.443  1.00  0.00     0.017 A 
HETATM    5  C3  UNL     1       9.540   6.664  43.757  1.00  0.00     0.018 A 
HETATM    6  C2  UNL     1      10.412   6.123  42.842  1.00  0.00     0.037 A 
HETATM    7  C1  UNL     1      10.025   6.000  41.532  1.00  0.00     0.102 A 
HETATM    8  C13 UNL     1       8.769   6.427  41.183  1.00  0.00     0.037 A 
HETATM    9  C12 UNL     1       7.896   6.978  42.141  1.00  0.00     0.018 A 
BRANCH   7  10
HETATM   10  N1  UNL     1      10.894   5.451  40.569  1.00  0.00    -0.116 N 
HETATM   11  O1  UNL     1      10.441   5.059  39.479  1.00  0.00    -0.532 OA
HETATM   12  O2  UNL     1      12.233   5.343  40.823  1.00  0.00    -0.532 OA
ENDBRANCH   7  10
ENDBRANCH   1   4
BRANCH   1  13
HETATM   13  O4  UNL     1       7.668   8.975  44.950  1.00  0.00    -0.291 OA
BRANCH  13  14
HETATM   14  C6  UNL     1       6.830  10.034  44.709  1.00  0.00     0.078 A 
HETATM   15  C7  UNL     1       6.172  10.342  43.552  1.00  0.00     0.039 A 
HETATM   16  C8  UNL     1       5.335  11.465  43.442  1.00  0.00     0.026 A 
HETATM   17  C9  UNL     1       5.144  12.309  44.510  1.00  0.00     0.034 A 
HETATM   18 CL1  UNL     1       4.100  13.699  44.353  1.00  0.00    -0.084 Cl
HETATM   19  C10 UNL     1       5.794  12.018  45.680  1.00  0.00     0.026 A 
HETATM   20  C11 UNL     1       6.615  10.914  45.781  1.00  0.00     0.039 A 
ENDBRANCH  13  14
ENDBRANCH   1  13
BRANCH   2  21
HETATM   21  O3  UNL     1       5.896   5.940  44.827  1.00  0.00    -0.288 OA
ATOM     22  H3  UNL     1       6.247   5.104  45.111  1.00  0.00     0.244 HD
ENDBRANCH   2  21
TORSDOF 5
ENDMDL
MODEL 3
REMARK VINA RESULT: -7.583608689      1.352      1.670
REMARK  5 active torsions:
REMARK  status: ('A' for Active; 'I' for Inactive)
REMARK    1  A    between atoms: N1_2  and  C1_4 
REMARK    2  A    between atoms: C4_7  and  C5_8 
REMARK    3  A    between atoms: C5_8  and  O4_13 
REMARK    4  A    between atoms: N2_9  and  O3_11 
REMARK    5  A    between atoms: O4_13  and  C6_14 
ROOT
HETATM    1  C5  UNL     1       7.516   7.717  44.475  1.00  0.00     0.178 C 
HETATM    2  N2  UNL     1       6.506   7.181  45.011  1.00  0.00    -0.246 N 
ATOM      3  H2  UNL     1       6.000   7.749  45.690  1.00  0.00     0.196 HD
ENDROOT
BRANCH   1   4
HETATM    4  C4  UNL     1       8.422   7.172  43.491  1.00  0.00     0.017 A 
HETATM    5  C3  UNL     1       8.066   7.131  42.159  1.00  0.00     0.018 A 
HETATM    6  C2  UNL     1       8.871   6.625  41.166  1.00  0.00     0.037 A 
HETATM    7  C1  UNL     1      10.106   6.125  41.490  1.00  0.00     0.102 A 
HETATM    8  C13 UNL     1      10.494   6.149  42.805  1.00  0.00     0.037 A 
HETATM    9  C12 UNL     1       9.648   6.673  43.802  1.00  0.00     0.018 A 
BRANCH   7  10
HETATM   10  N1  UNL     1      10.957   5.599  40.497  1.00  0.00    -0.116 N 
HETATM   11  O1  UNL     1      10.529   5.430  39.341  1.00  0.00    -0.532 OA
HETATM   12  O2  UNL     1      12.250   5.270  40.794  1.00  0.00    -0.532 OA
ENDBRANCH   7  10
ENDBRANCH   1   4
BRANCH   1  13
HETATM   13  O4  UNL     1       7.718   9.037  44.965  1.00  0.00    -0.291 OA
BRANCH  13  14
HETATM   14  C6  UNL     1       6.871  10.076  44.678  1.00  0.00     0.078 A 
HETATM   15  C7  UNL     1       6.205  10.325  43.511  1.00  0.00     0.039 A 
HETATM   16  C8  UNL     1       5.358  11.435  43.353  1.00  0.00     0.026 A 
HETATM   17  C9  UNL     1       5.165  12.326  44.381  1.00  0.00     0.034 A 
HETATM   18 CL1  UNL     1       4.109  13.699  44.164  1.00  0.00    -0.084 Cl
HETATM   19  C10 UNL     1       5.824  12.096  45.560  1.00  0.00     0.026 A 
HETATM   20  C11 UNL     1       6.654  11.004  45.709  1.00  0.00     0.039 A 
ENDBRANCH  13  14
ENDBRANCH   1  13
BRANCH   2  21
HETATM   21  O3  UNL     1       6.025   5.960  44.792  1.00  0.00    -0.288 OA
ATOM     22  H3  UNL     1       5.271   5.553  45.202  1.00  0.00     0.244 HD
ENDBRANCH   2  21
TORSDOF 5
ENDMDL
MODEL 4
REMARK VINA RESULT: -7.573467599      1.259      1.724
REMARK  5 active torsions:
REMARK  status: ('A' for Active; 'I' for Inactive)
REMARK    1  A    between atoms: N1_2  and  C1_4 
REMARK    2  A    between atoms: C4_7  and  C5_8 
REMARK    3  A    between atoms: C5_8  and  O4_13 
REMARK    4  A    between atoms: N2_9  and  O3_11 
REMARK    5  A    between atoms: O4_13  and  C6_14 
ROOT
HETATM    1  C5  UNL     1       6.976   7.594  44.492  1.00  0.00     0.178 C 
HETATM    2  N2  UNL     1       5.965   7.003  44.967  1.00  0.00    -0.246 N 
ATOM      3  H2  UNL     1       5.325   7.575  45.518  1.00  0.00     0.196 HD
ENDROOT
BRANCH   1   4
HETATM    4  C4  UNL     1       8.045   7.060  43.682  1.00  0.00     0.017 A 
HETATM    5  C3  UNL     1       9.320   6.944  44.194  1.00  0.00     0.018 A 
HETATM    6  C2  UNL     1      10.389   6.450  43.484  1.00  0.00     0.037 A 
HETATM    7  C1  UNL     1      10.206   6.041  42.188  1.00  0.00     0.102 A 
HETATM    8  C13 UNL     1       8.951   6.143  41.645  1.00  0.00     0.037 A 
HETATM    9  C12 UNL     1       7.874   6.653  42.395  1.00  0.00     0.018 A 
BRANCH   7  10
HETATM   10  N1  UNL     1      11.279   5.530  41.432  1.00  0.00    -0.116 N 
HETATM   11  O1  UNL     1      12.420   5.485  41.928  1.00  0.00    -0.532 OA
HETATM   12  O2  UNL     1      11.079   5.083  40.155  1.00  0.00    -0.532 OA
ENDBRANCH   7  10
ENDBRANCH   1   4
BRANCH   1  13
HETATM   13  O4  UNL     1       6.984   8.969  44.854  1.00  0.00    -0.291 OA
BRANCH  13  14
HETATM   14  C6  UNL     1       6.408   9.946  44.084  1.00  0.00     0.078 A 
HETATM   15  C7  UNL     1       5.979   9.857  42.790  1.00  0.00     0.039 A 
HETATM   16  C8  UNL     1       5.399  10.945  42.117  1.00  0.00     0.026 A 
HETATM   17  C9  UNL     1       5.238  12.158  42.742  1.00  0.00     0.034 A 
HETATM   18 CL1  UNL     1       4.514  13.497  41.888  1.00  0.00    -0.084 Cl
HETATM   19  C10 UNL     1       5.661  12.269  44.041  1.00  0.00     0.026 A 
HETATM   20  C11 UNL     1       6.230  11.197  44.696  1.00  0.00     0.039 A 
ENDBRANCH  13  14
ENDBRANCH   1  13
BRANCH   2  21
HETATM   21  O3  UNL     1       5.638   5.721  44.830  1.00  0.00    -0.288 OA
ATOM     22  H3  UNL     1       6.226   4.976  44.782  1.00  0.00     0.244 HD
ENDBRANCH   2  21
TORSDOF 5
ENDMDL
MODEL 5
REMARK VINA RESULT: -7.569467064      0.084      1.269
REMARK  5 active torsions:
REMARK  status: ('A' for Active; 'I' for Inactive)
REMARK    1  A    between atoms: N1_2  and  C1_4 
REMARK    2  A    between atoms: C4_7  and  C5_8 
REMARK    3  A    between atoms: C5_8  and  O4_13 
REMARK    4  A    between atoms: N2_9  and  O3_11 
REMARK    5  A    between atoms: O4_13  and  C6_14 
ROOT
HETATM    1  C5  UNL     1       7.670   7.641  44.725  1.00  0.00     0.178 C 
HETATM    2  N2  UNL     1       7.977   7.803  45.939  1.00  0.00    -0.246 N 
ATOM      3  H2  UNL     1       7.255   8.203  46.538  1.00  0.00     0.196 HD
ENDROOT
BRANCH   1   4
HETATM    4  C4  UNL     1       8.468   7.104  43.647  1.00  0.00     0.017 A 
HETATM    5  C3  UNL     1       9.471   7.857  43.076  1.00  0.00     0.018 A 
HETATM    6  C2  UNL     1      10.269   7.417  42.046  1.00  0.00     0.037 A 
HETATM    7  C1  UNL     1      10.078   6.158  41.537  1.00  0.00     0.102 A 
HETATM    8  C13 UNL     1       9.089   5.380  42.081  1.00  0.00     0.037 A 
HETATM    9  C12 UNL     1       8.286   5.857  43.136  1.00  0.00     0.018 A 
BRANCH   7  10
HETATM   10  N1  UNL     1      10.878   5.675  40.483  1.00  0.00    -0.116 N 
HETATM   11  O1  UNL     1      12.046   5.313  40.707  1.00  0.00    -0.532 OA
HETATM   12  O2  UNL     1      10.380   5.602  39.211  1.00  0.00    -0.532 OA
ENDBRANCH   7  10
ENDBRANCH   1   4
BRANCH   1  13
HETATM   13  O4  UNL     1       6.340   8.074  44.468  1.00  0.00    -0.291 OA
BRANCH  13  14
HETATM   14  C6  UNL     1       6.050   9.210  43.757  1.00  0.00     0.078 A 
HETATM   15  C7  UNL     1       6.082   9.389  42.403  1.00  0.00     0.039 A 
HETATM   16  C8  UNL     1       5.755  10.615  41.801  1.00  0.00     0.026 A 
HETATM   17  C9  UNL     1       5.387  11.699  42.562  1.00  0.00     0.034 A 
HETATM   18 CL1  UNL     1       4.985  13.214  41.794  1.00  0.00    -0.084 Cl
HETATM   19  C10 UNL     1       5.348  11.541  43.923  1.00  0.00     0.026 A 
HETATM   20  C11 UNL     1       5.670  10.334  44.507  1.00  0.00     0.039 A 
ENDBRANCH  13  14
ENDBRANCH   1  13
BRANCH   2  21
HETATM   21  O3  UNL     1       9.133   7.511  46.528  1.00  0.00    -0.288 OA
ATOM     22  H3  UNL     1       9.276   7.269  47.436  1.00  0.00     0.244 HD
ENDBRANCH   2  21
TORSDOF 5
ENDMDL
