MODEL 1
REMARK VINA RESULT: -7.157969980      0.000      0.000
REMARK  18 active torsions:
REMARK  status: ('A' for Active; 'I' for Inactive)
REMARK    1  A    between atoms: C7_7  and  C8_8 
REMARK    2  A    between atoms: C8_8  and  O1_9 
REMARK    3  A    between atoms: C8_8  and  N1_11 
REMARK    4  A    between atoms: N1_11  and  C9_12 
REMARK    5  A    between atoms: N1_11  and  C13_16 
REMARK    6  A    between atoms: C9_12  and  C10_13 
REMARK    7  A    between atoms: C13_16  and  C14_17 
REMARK    8  A    between atoms: C13_16  and  C22_30 
REMARK    9  A    between atoms: C14_17  and  C15_18 
REMARK   10  A    between atoms: C15_18  and  C16_19 
REMARK       I    between atoms: C16_19  and  N2_21 
REMARK   11  A    between atoms: N2_21  and  C18_23 
REMARK   12  A    between atoms: C18_23  and  C19_24 
REMARK       I    between atoms: C22_30  and  N4_32 
REMARK   13  A    between atoms: N4_32  and  C23_34 
REMARK   14  A    between atoms: C23_34  and  C24_35 
REMARK   15  A    between atoms: C23_34  and  C30_45 
REMARK   16  A    between atoms: C24_35  and  C25_36 
REMARK   17  A    between atoms: C25_36  and  C26_37 
REMARK       I    between atoms: C30_45  and  N7_47 
REMARK   18  A    between atoms: N7_47  and  C31_49 
ROOT
HETATM    1  C13 UNL     1      -8.618   1.923 -26.727  1.00  0.00     0.183 C 
ENDROOT
BRANCH   1   2
HETATM    2  N1  UNL     1      -8.604   1.188 -25.484  1.00  0.00    -0.327 N 
BRANCH   2   3
HETATM    3  C8  UNL     1      -9.600   0.265 -25.131  1.00  0.00     0.153 C 
BRANCH   3   4
HETATM    4  C7  UNL     1      -9.871  -1.115 -25.336  1.00  0.00     0.016 A 
HETATM    5  C6  UNL     1      -9.541  -1.942 -26.371  1.00  0.00     0.022 A 
HETATM    6  C4  UNL     1      -9.942  -3.276 -26.456  1.00  0.00    -0.061 A 
HETATM    7  C3  UNL     1     -10.710  -3.845 -25.475  1.00  0.00     0.013 A 
HETATM    8  C5  UNL     1      -9.535  -4.124 -27.612  1.00  0.00     0.048 C 
HETATM    9  C2  UNL     1     -11.067  -3.059 -24.414  1.00  0.00    -0.061 A 
HETATM   10  C1  UNL     1     -11.910  -3.653 -23.316  1.00  0.00     0.048 C 
HETATM   11  C35 UNL     1     -10.661  -1.748 -24.350  1.00  0.00     0.022 A 
ENDBRANCH   3   4
BRANCH   3  12
HETATM   12  O1  UNL     1     -10.542   0.860 -24.413  1.00  0.00    -0.345 OA
ATOM     13  H1  UNL     1     -10.276   1.721 -24.114  1.00  0.00     0.219 HD
ENDBRANCH   3  12
ENDBRANCH   2   3
BRANCH   2  14
HETATM   14  C9  UNL     1      -7.663   1.534 -24.475  1.00  0.00     0.071 C 
BRANCH  14  15
HETATM   15  C10 UNL     1      -6.320   1.059 -24.288  1.00  0.00     0.016 C 
HETATM   16  C11 UNL     1      -5.141   1.806 -24.789  1.00  0.00     0.015 C 
HETATM   17  C12 UNL     1      -6.124  -0.417 -24.696  1.00  0.00     0.015 C 
ENDBRANCH  14  15
ENDBRANCH   2  14
ENDBRANCH   1   2
BRANCH   1  18
HETATM   18  C14 UNL     1      -8.325   3.329 -26.513  1.00  0.00     0.044 C 
BRANCH  18  19
HETATM   19  C15 UNL     1      -8.890   4.380 -27.405  1.00  0.00     0.105 C 
BRANCH  19  20
HETATM   20  C16 UNL     1      -8.234   4.228 -28.759  1.00  0.00     0.219 C 
HETATM   21  O2  UNL     1      -6.995   4.262 -28.800  1.00  0.00    -0.273 OA
HETATM   22  N2  UNL     1      -8.985   4.059 -29.953  1.00  0.00    -0.350 N 
HETATM   23  C17 UNL     1      -8.223   4.003 -31.204  1.00  0.00     0.153 C 
BRANCH  22  24
HETATM   24  C18 UNL     1     -10.401   3.900 -30.013  1.00  0.00     0.190 C 
BRANCH  24  25
HETATM   25  C19 UNL     1     -10.873   2.709 -30.778  1.00  0.00     0.068 A 
HETATM   26  N3  UNL     1     -10.808   1.421 -30.461  1.00  0.00    -0.362 N 
HETATM   27  C20 UNL     1     -11.287   0.535 -31.275  1.00  0.00     0.096 A 
ATOM     28  H3  UNL     1     -10.383   1.131 -29.580  1.00  0.00     0.165 HD
HETATM   29  C21 UNL     1     -11.852   0.969 -32.448  1.00  0.00     0.068 A 
HETATM   30  S1  UNL     1     -11.654   2.656 -32.306  1.00  0.00    -0.086 SA
ENDBRANCH  24  25
ENDBRANCH  22  24
ENDBRANCH  19  20
ENDBRANCH  18  19
ENDBRANCH   1  18
BRANCH   1  31
HETATM   31  C22 UNL     1      -7.923   1.187 -27.830  1.00  0.00     0.241 C 
HETATM   32  O3  UNL     1      -8.691   0.553 -28.621  1.00  0.00    -0.271 OA
HETATM   33  N4  UNL     1      -6.576   1.110 -28.111  1.00  0.00    -0.346 N 
ATOM     34  H4  UNL     1      -5.917   1.601 -27.506  1.00  0.00     0.163 HD
BRANCH  33  35
HETATM   35  C23 UNL     1      -6.052   0.336 -29.268  1.00  0.00     0.177 C 
BRANCH  35  36
HETATM   36  C24 UNL     1      -5.331  -0.869 -28.771  1.00  0.00     0.041 C 
BRANCH  36  37
HETATM   37  C25 UNL     1      -6.275  -1.906 -28.254  1.00  0.00     0.064 C 
BRANCH  37  38
HETATM   38  C26 UNL     1      -6.202  -3.168 -29.085  1.00  0.00     0.059 A 
HETATM   39  N5  UNL     1      -5.416  -4.238 -28.929  1.00  0.00    -0.244 N 
HETATM   40  O4  UNL     1      -5.654  -5.121 -29.864  1.00  0.00    -0.155 OA
ATOM     41  H5  UNL     1      -4.727  -4.349 -28.185  1.00  0.00     0.196 HD
HETATM   42  N6  UNL     1      -6.577  -4.661 -30.635  1.00  0.00    -0.240 N 
HETATM   43  C27 UNL     1      -7.190  -5.272 -31.825  1.00  0.00     0.188 C 
HETATM   44  C28 UNL     1      -6.958  -3.453 -30.203  1.00  0.00     0.057 A 
HETATM   45  C29 UNL     1      -7.989  -2.544 -30.774  1.00  0.00     0.072 C 
ENDBRANCH  37  38
ENDBRANCH  36  37
ENDBRANCH  35  36
BRANCH  35  46
HETATM   46  C30 UNL     1      -5.163   1.216 -30.032  1.00  0.00     0.241 C 
HETATM   47  O5  UNL     1      -4.736   0.751 -31.152  1.00  0.00    -0.271 OA
HETATM   48  N7  UNL     1      -4.712   2.502 -29.692  1.00  0.00    -0.351 N 
ATOM     49  H7  UNL     1      -5.011   2.921 -28.812  1.00  0.00     0.163 HD
BRANCH  48  50
HETATM   50  C31 UNL     1      -3.841   3.233 -30.558  1.00  0.00     0.022 C 
HETATM   51  C32 UNL     1      -3.257   4.409 -29.786  1.00  0.00     0.037 C 
HETATM   52  C33 UNL     1      -4.589   3.839 -31.728  1.00  0.00     0.037 C 
HETATM   53  C34 UNL     1      -2.685   2.411 -31.067  1.00  0.00     0.037 C 
ENDBRANCH  48  50
ENDBRANCH  35  46
ENDBRANCH  33  35
ENDBRANCH   1  31
TORSDOF 18
ENDMDL
MODEL 2
REMARK VINA RESULT: -6.963351853      1.505      2.064
REMARK  18 active torsions:
REMARK  status: ('A' for Active; 'I' for Inactive)
REMARK    1  A    between atoms: C7_7  and  C8_8 
REMARK    2  A    between atoms: C8_8  and  O1_9 
REMARK    3  A    between atoms: C8_8  and  N1_11 
REMARK    4  A    between atoms: N1_11  and  C9_12 
REMARK    5  A    between atoms: N1_11  and  C13_16 
REMARK    6  A    between atoms: C9_12  and  C10_13 
REMARK    7  A    between atoms: C13_16  and  C14_17 
REMARK    8  A    between atoms: C13_16  and  C22_30 
REMARK    9  A    between atoms: C14_17  and  C15_18 
REMARK   10  A    between atoms: C15_18  and  C16_19 
REMARK       I    between atoms: C16_19  and  N2_21 
REMARK   11  A    between atoms: N2_21  and  C18_23 
REMARK   12  A    between atoms: C18_23  and  C19_24 
REMARK       I    between atoms: C22_30  and  N4_32 
REMARK   13  A    between atoms: N4_32  and  C23_34 
REMARK   14  A    between atoms: C23_34  and  C24_35 
REMARK   15  A    between atoms: C23_34  and  C30_45 
REMARK   16  A    between atoms: C24_35  and  C25_36 
REMARK   17  A    between atoms: C25_36  and  C26_37 
REMARK       I    between atoms: C30_45  and  N7_47 
REMARK   18  A    between atoms: N7_47  and  C31_49 
ROOT
HETATM    1  C13 UNL     1      -8.102   0.410 -27.232  1.00  0.00     0.183 C 
ENDROOT
BRANCH   1   2
HETATM    2  N1  UNL     1      -7.923  -0.262 -25.966  1.00  0.00    -0.327 N 
BRANCH   2   3
HETATM    3  C8  UNL     1      -8.153  -1.634 -25.789  1.00  0.00     0.153 C 
BRANCH   3   4
HETATM    4  C7  UNL     1      -9.229  -2.474 -25.395  1.00  0.00     0.016 A 
HETATM    5  C6  UNL     1      -9.996  -2.467 -24.266  1.00  0.00     0.022 A 
HETATM    6  C4  UNL     1     -10.986  -3.412 -23.994  1.00  0.00    -0.061 A 
HETATM    7  C3  UNL     1     -11.251  -4.428 -24.874  1.00  0.00     0.013 A 
HETATM    8  C5  UNL     1     -11.793  -3.337 -22.743  1.00  0.00     0.048 C 
HETATM    9  C2  UNL     1     -10.512  -4.479 -26.024  1.00  0.00    -0.061 A 
HETATM   10  C1  UNL     1     -10.779  -5.581 -27.015  1.00  0.00     0.048 C 
HETATM   11  C35 UNL     1      -9.542  -3.538 -26.271  1.00  0.00     0.022 A 
ENDBRANCH   3   4
BRANCH   3  12
HETATM   12  O1  UNL     1      -7.054  -2.323 -26.065  1.00  0.00    -0.345 OA
ATOM     13  H1  UNL     1      -6.784  -2.221 -26.970  1.00  0.00     0.219 HD
ENDBRANCH   3  12
ENDBRANCH   2   3
BRANCH   2  14
HETATM   14  C9  UNL     1      -7.691   0.507 -24.791  1.00  0.00     0.071 C 
BRANCH  14  15
HETATM   15  C10 UNL     1      -6.454   1.031 -24.281  1.00  0.00     0.016 C 
HETATM   16  C11 UNL     1      -6.137   2.479 -24.313  1.00  0.00     0.015 C 
HETATM   17  C12 UNL     1      -5.206   0.286 -24.802  1.00  0.00     0.015 C 
ENDBRANCH  14  15
ENDBRANCH   2  14
ENDBRANCH   1   2
BRANCH   1  18
HETATM   18  C14 UNL     1      -8.167   1.850 -27.062  1.00  0.00     0.044 C 
BRANCH  18  19
HETATM   19  C15 UNL     1      -7.717   2.776 -28.139  1.00  0.00     0.105 C 
BRANCH  19  20
HETATM   20  C16 UNL     1      -8.892   3.654 -28.505  1.00  0.00     0.219 C 
HETATM   21  O2  UNL     1      -9.235   4.520 -27.687  1.00  0.00    -0.273 OA
HETATM   22  N2  UNL     1      -9.598   3.508 -29.729  1.00  0.00    -0.350 N 
HETATM   23  C17 UNL     1     -10.766   4.373 -29.921  1.00  0.00     0.153 C 
BRANCH  22  24
HETATM   24  C18 UNL     1      -9.230   2.622 -30.785  1.00  0.00     0.190 C 
BRANCH  24  25
HETATM   25  C19 UNL     1     -10.144   1.459 -30.985  1.00  0.00     0.068 A 
HETATM   26  N3  UNL     1     -10.453   0.475 -30.149  1.00  0.00    -0.362 N 
HETATM   27  C20 UNL     1     -11.283  -0.447 -30.522  1.00  0.00     0.096 A 
ATOM     28  H3  UNL     1     -10.039   0.445 -29.217  1.00  0.00     0.165 HD
HETATM   29  C21 UNL     1     -11.817  -0.367 -31.783  1.00  0.00     0.068 A 
HETATM   30  S1  UNL     1     -11.081   1.055 -32.366  1.00  0.00    -0.086 SA
ENDBRANCH  24  25
ENDBRANCH  22  24
ENDBRANCH  19  20
ENDBRANCH  18  19
ENDBRANCH   1  18
BRANCH   1  31
HETATM   31  C22 UNL     1      -7.235  -0.165 -28.308  1.00  0.00     0.241 C 
HETATM   32  O3  UNL     1      -7.863  -0.655 -29.300  1.00  0.00    -0.271 OA
HETATM   33  N4  UNL     1      -5.860  -0.227 -28.377  1.00  0.00    -0.346 N 
ATOM     34  H4  UNL     1      -5.310   0.152 -27.606  1.00  0.00     0.163 HD
BRANCH  33  35
HETATM   35  C23 UNL     1      -5.153  -0.829 -29.540  1.00  0.00     0.177 C 
BRANCH  35  36
HETATM   36  C24 UNL     1      -4.096  -1.757 -29.050  1.00  0.00     0.041 C 
BRANCH  36  37
HETATM   37  C25 UNL     1      -4.245  -3.124 -29.635  1.00  0.00     0.064 C 
BRANCH  37  38
HETATM   38  C26 UNL     1      -5.705  -3.483 -29.809  1.00  0.00     0.059 A 
HETATM   39  N5  UNL     1      -6.645  -3.674 -28.878  1.00  0.00    -0.244 N 
HETATM   40  O4  UNL     1      -7.788  -3.977 -29.437  1.00  0.00    -0.155 OA
ATOM     41  H5  UNL     1      -6.492  -3.596 -27.872  1.00  0.00     0.196 HD
HETATM   42  N6  UNL     1      -7.627  -3.991 -30.713  1.00  0.00    -0.240 N 
HETATM   43  C27 UNL     1      -8.605  -4.277 -31.775  1.00  0.00     0.188 C 
HETATM   44  C28 UNL     1      -6.356  -3.692 -31.007  1.00  0.00     0.057 A 
HETATM   45  C29 UNL     1      -5.709  -3.589 -32.343  1.00  0.00     0.072 C 
ENDBRANCH  37  38
ENDBRANCH  36  37
ENDBRANCH  35  36
BRANCH  35  46
HETATM   46  C30 UNL     1      -4.582   0.264 -30.332  1.00  0.00     0.241 C 
HETATM   47  O5  UNL     1      -3.935  -0.083 -31.388  1.00  0.00    -0.271 OA
HETATM   48  N7  UNL     1      -4.645   1.645 -30.081  1.00  0.00    -0.351 N 
ATOM     49  H7  UNL     1      -5.138   1.981 -29.254  1.00  0.00     0.163 HD
BRANCH  48  50
HETATM   50  C31 UNL     1      -4.030   2.587 -30.963  1.00  0.00     0.022 C 
HETATM   51  C32 UNL     1      -4.203   3.985 -30.383  1.00  0.00     0.037 C 
HETATM   52  C33 UNL     1      -4.709   2.616 -32.316  1.00  0.00     0.037 C 
HETATM   53  C34 UNL     1      -2.552   2.352 -31.142  1.00  0.00     0.037 C 
ENDBRANCH  48  50
ENDBRANCH  35  46
ENDBRANCH  33  35
ENDBRANCH   1  31
TORSDOF 18
ENDMDL
MODEL 3
REMARK VINA RESULT: -6.900313833      2.553      5.160
REMARK  18 active torsions:
REMARK  status: ('A' for Active; 'I' for Inactive)
REMARK    1  A    between atoms: C7_7  and  C8_8 
REMARK    2  A    between atoms: C8_8  and  O1_9 
REMARK    3  A    between atoms: C8_8  and  N1_11 
REMARK    4  A    between atoms: N1_11  and  C9_12 
REMARK    5  A    between atoms: N1_11  and  C13_16 
REMARK    6  A    between atoms: C9_12  and  C10_13 
REMARK    7  A    between atoms: C13_16  and  C14_17 
REMARK    8  A    between atoms: C13_16  and  C22_30 
REMARK    9  A    between atoms: C14_17  and  C15_18 
REMARK   10  A    between atoms: C15_18  and  C16_19 
REMARK       I    between atoms: C16_19  and  N2_21 
REMARK   11  A    between atoms: N2_21  and  C18_23 
REMARK   12  A    between atoms: C18_23  and  C19_24 
REMARK       I    between atoms: C22_30  and  N4_32 
REMARK   13  A    between atoms: N4_32  and  C23_34 
REMARK   14  A    between atoms: C23_34  and  C24_35 
REMARK   15  A    between atoms: C23_34  and  C30_45 
REMARK   16  A    between atoms: C24_35  and  C25_36 
REMARK   17  A    between atoms: C25_36  and  C26_37 
REMARK       I    between atoms: C30_45  and  N7_47 
REMARK   18  A    between atoms: N7_47  and  C31_49 
ROOT
HETATM    1  C13 UNL     1      -7.939  -0.357 -27.178  1.00  0.00     0.183 C 
ENDROOT
BRANCH   1   2
HETATM    2  N1  UNL     1      -7.985  -0.603 -25.755  1.00  0.00    -0.327 N 
BRANCH   2   3
HETATM    3  C8  UNL     1      -8.305  -1.853 -25.205  1.00  0.00     0.153 C 
BRANCH   3   4
HETATM    4  C7  UNL     1      -9.467  -2.649 -25.017  1.00  0.00     0.016 A 
HETATM    5  C6  UNL     1     -10.389  -2.654 -24.010  1.00  0.00     0.022 A 
HETATM    6  C4  UNL     1     -11.452  -3.554 -23.936  1.00  0.00    -0.061 A 
HETATM    7  C3  UNL     1     -11.636  -4.509 -24.901  1.00  0.00     0.013 A 
HETATM    8  C5  UNL     1     -12.428  -3.494 -22.811  1.00  0.00     0.048 C 
HETATM    9  C2  UNL     1     -10.741  -4.546 -25.934  1.00  0.00    -0.061 A 
HETATM   10  C1  UNL     1     -10.914  -5.582 -27.014  1.00  0.00     0.048 C 
HETATM   11  C35 UNL     1      -9.700  -3.650 -25.987  1.00  0.00     0.022 A 
ENDBRANCH   3   4
BRANCH   3  12
HETATM   12  O1  UNL     1      -7.214  -2.438 -24.731  1.00  0.00    -0.345 OA
ATOM     13  H1  UNL     1      -7.326  -2.737 -23.837  1.00  0.00     0.219 HD
ENDBRANCH   3  12
ENDBRANCH   2   3
BRANCH   2  14
HETATM   14  C9  UNL     1      -7.899   0.492 -24.851  1.00  0.00     0.071 C 
BRANCH  14  15
HETATM   15  C10 UNL     1      -6.735   1.074 -24.243  1.00  0.00     0.016 C 
HETATM   16  C11 UNL     1      -6.467   2.532 -24.282  1.00  0.00     0.015 C 
HETATM   17  C12 UNL     1      -5.418   0.364 -24.625  1.00  0.00     0.015 C 
ENDBRANCH  14  15
ENDBRANCH   2  14
ENDBRANCH   1   2
BRANCH   1  18
HETATM   18  C14 UNL     1      -7.796   1.058 -27.466  1.00  0.00     0.044 C 
BRANCH  18  19
HETATM   19  C15 UNL     1      -6.816   1.546 -28.477  1.00  0.00     0.105 C 
BRANCH  19  20
HETATM   20  C16 UNL     1      -7.582   1.846 -29.745  1.00  0.00     0.219 C 
HETATM   21  O2  UNL     1      -8.102   0.889 -30.338  1.00  0.00    -0.273 OA
HETATM   22  N2  UNL     1      -7.710   3.163 -30.262  1.00  0.00    -0.350 N 
HETATM   23  C17 UNL     1      -8.414   3.300 -31.541  1.00  0.00     0.153 C 
BRANCH  22  24
HETATM   24  C18 UNL     1      -7.248   4.345 -29.613  1.00  0.00     0.190 C 
BRANCH  24  25
HETATM   25  C19 UNL     1      -8.311   5.175 -28.973  1.00  0.00     0.068 A 
HETATM   26  N3  UNL     1      -8.438   6.496 -28.929  1.00  0.00    -0.362 N 
HETATM   27  C20 UNL     1      -9.452   7.022 -28.317  1.00  0.00     0.096 A 
ATOM     28  H3  UNL     1      -7.742   7.093 -29.374  1.00  0.00     0.165 HD
HETATM   29  C21 UNL     1     -10.366   6.180 -27.734  1.00  0.00     0.068 A 
HETATM   30  S1  UNL     1      -9.699   4.657 -28.106  1.00  0.00    -0.086 SA
ENDBRANCH  24  25
ENDBRANCH  22  24
ENDBRANCH  19  20
ENDBRANCH  18  19
ENDBRANCH   1  18
BRANCH   1  31
HETATM   31  C22 UNL     1      -7.072  -1.345 -27.896  1.00  0.00     0.241 C 
HETATM   32  O3  UNL     1      -5.944  -1.566 -27.351  1.00  0.00    -0.271 OA
HETATM   33  N4  UNL     1      -7.330  -2.050 -29.051  1.00  0.00    -0.346 N 
ATOM     34  H4  UNL     1      -8.221  -1.908 -29.528  1.00  0.00     0.163 HD
BRANCH  33  35
HETATM   35  C23 UNL     1      -6.351  -3.011 -29.626  1.00  0.00     0.177 C 
BRANCH  35  36
HETATM   36  C24 UNL     1      -5.572  -2.339 -30.703  1.00  0.00     0.041 C 
BRANCH  36  37
HETATM   37  C25 UNL     1      -4.360  -3.126 -31.083  1.00  0.00     0.064 C 
BRANCH  37  38
HETATM   38  C26 UNL     1      -3.304  -3.053 -30.001  1.00  0.00     0.059 A 
HETATM   39  N5  UNL     1      -3.456  -2.888 -28.683  1.00  0.00    -0.244 N 
HETATM   40  O4  UNL     1      -2.292  -2.872 -28.086  1.00  0.00    -0.155 OA
ATOM     41  H5  UNL     1      -4.354  -2.787 -28.209  1.00  0.00     0.196 HD
HETATM   42  N6  UNL     1      -1.375  -3.022 -28.977  1.00  0.00    -0.240 N 
HETATM   43  C27 UNL     1       0.086  -3.069 -28.814  1.00  0.00     0.188 C 
HETATM   44  C28 UNL     1      -1.940  -3.140 -30.185  1.00  0.00     0.057 A 
HETATM   45  C29 UNL     1      -1.281  -3.328 -31.506  1.00  0.00     0.072 C 
ENDBRANCH  37  38
ENDBRANCH  36  37
ENDBRANCH  35  36
BRANCH  35  46
HETATM   46  C30 UNL     1      -7.101  -4.159 -30.144  1.00  0.00     0.241 C 
HETATM   47  O5  UNL     1      -8.096  -3.883 -30.911  1.00  0.00    -0.271 OA
HETATM   48  N7  UNL     1      -6.876  -5.525 -29.904  1.00  0.00    -0.351 N 
ATOM     49  H7  UNL     1      -6.105  -5.806 -29.297  1.00  0.00     0.163 HD
BRANCH  48  50
HETATM   50  C31 UNL     1      -7.706  -6.527 -30.494  1.00  0.00     0.022 C 
HETATM   51  C32 UNL     1      -7.149  -7.899 -30.134  1.00  0.00     0.037 C 
HETATM   52  C33 UNL     1      -7.684  -6.458 -32.007  1.00  0.00     0.037 C 
HETATM   53  C34 UNL     1      -9.131  -6.478 -30.004  1.00  0.00     0.037 C 
ENDBRANCH  48  50
ENDBRANCH  35  46
ENDBRANCH  33  35
ENDBRANCH   1  31
TORSDOF 18
ENDMDL
MODEL 4
REMARK VINA RESULT: -6.885004748      2.443      4.019
REMARK  18 active torsions:
REMARK  status: ('A' for Active; 'I' for Inactive)
REMARK    1  A    between atoms: C7_7  and  C8_8 
REMARK    2  A    between atoms: C8_8  and  O1_9 
REMARK    3  A    between atoms: C8_8  and  N1_11 
REMARK    4  A    between atoms: N1_11  and  C9_12 
REMARK    5  A    between atoms: N1_11  and  C13_16 
REMARK    6  A    between atoms: C9_12  and  C10_13 
REMARK    7  A    between atoms: C13_16  and  C14_17 
REMARK    8  A    between atoms: C13_16  and  C22_30 
REMARK    9  A    between atoms: C14_17  and  C15_18 
REMARK   10  A    between atoms: C15_18  and  C16_19 
REMARK       I    between atoms: C16_19  and  N2_21 
REMARK   11  A    between atoms: N2_21  and  C18_23 
REMARK   12  A    between atoms: C18_23  and  C19_24 
REMARK       I    between atoms: C22_30  and  N4_32 
REMARK   13  A    between atoms: N4_32  and  C23_34 
REMARK   14  A    between atoms: C23_34  and  C24_35 
REMARK   15  A    between atoms: C23_34  and  C30_45 
REMARK   16  A    between atoms: C24_35  and  C25_36 
REMARK   17  A    between atoms: C25_36  and  C26_37 
REMARK       I    between atoms: C30_45  and  N7_47 
REMARK   18  A    between atoms: N7_47  and  C31_49 
ROOT
HETATM    1  C13 UNL     1      -8.055   0.255 -27.325  1.00  0.00     0.183 C 
ENDROOT
BRANCH   1   2
HETATM    2  N1  UNL     1      -8.043  -0.262 -25.976  1.00  0.00    -0.327 N 
BRANCH   2   3
HETATM    3  C8  UNL     1      -8.234  -1.619 -25.677  1.00  0.00     0.153 C 
BRANCH   3   4
HETATM    4  C7  UNL     1      -9.311  -2.472 -25.314  1.00  0.00     0.016 A 
HETATM    5  C6  UNL     1     -10.106  -2.478 -24.204  1.00  0.00     0.022 A 
HETATM    6  C4  UNL     1     -11.093  -3.434 -23.962  1.00  0.00    -0.061 A 
HETATM    7  C3  UNL     1     -11.326  -4.448 -24.853  1.00  0.00     0.013 A 
HETATM    8  C5  UNL     1     -11.931  -3.373 -22.731  1.00  0.00     0.048 C 
HETATM    9  C2  UNL     1     -10.558  -4.486 -25.984  1.00  0.00    -0.061 A 
HETATM   10  C1  UNL     1     -10.789  -5.586 -26.987  1.00  0.00     0.048 C 
HETATM   11  C35 UNL     1      -9.591  -3.534 -26.203  1.00  0.00     0.022 A 
ENDBRANCH   3   4
BRANCH   3  12
HETATM   12  O1  UNL     1      -7.082  -2.272 -25.753  1.00  0.00    -0.345 OA
ATOM     13  H1  UNL     1      -6.536  -2.128 -24.989  1.00  0.00     0.219 HD
ENDBRANCH   3  12
ENDBRANCH   2   3
BRANCH   2  14
HETATM   14  C9  UNL     1      -8.034   0.642 -24.878  1.00  0.00     0.071 C 
BRANCH  14  15
HETATM   15  C10 UNL     1      -6.913   1.209 -24.182  1.00  0.00     0.016 C 
HETATM   16  C11 UNL     1      -6.573   2.650 -24.270  1.00  0.00     0.015 C 
HETATM   17  C12 UNL     1      -5.599   0.424 -24.384  1.00  0.00     0.015 C 
ENDBRANCH  14  15
ENDBRANCH   2  14
ENDBRANCH   1   2
BRANCH   1  18
HETATM   18  C14 UNL     1      -6.796   0.895 -27.657  1.00  0.00     0.044 C 
BRANCH  18  19
HETATM   19  C15 UNL     1      -6.742   2.324 -28.077  1.00  0.00     0.105 C 
BRANCH  19  20
HETATM   20  C16 UNL     1      -7.741   2.507 -29.196  1.00  0.00     0.219 C 
HETATM   21  O2  UNL     1      -7.561   1.855 -30.236  1.00  0.00    -0.273 OA
HETATM   22  N2  UNL     1      -8.849   3.390 -29.090  1.00  0.00    -0.350 N 
HETATM   23  C17 UNL     1      -9.694   3.528 -30.280  1.00  0.00     0.153 C 
BRANCH  22  24
HETATM   24  C18 UNL     1      -9.214   4.105 -27.911  1.00  0.00     0.190 C 
BRANCH  24  25
HETATM   25  C19 UNL     1      -9.360   5.580 -28.085  1.00  0.00     0.068 A 
HETATM   26  N3  UNL     1      -8.513   6.456 -28.615  1.00  0.00    -0.362 N 
HETATM   27  C20 UNL     1      -8.840   7.708 -28.675  1.00  0.00     0.096 A 
ATOM     28  H3  UNL     1      -7.611   6.144 -28.974  1.00  0.00     0.165 HD
HETATM   29  C21 UNL     1     -10.065   8.083 -28.183  1.00  0.00     0.068 A 
HETATM   30  S1  UNL     1     -10.683   6.586 -27.654  1.00  0.00    -0.086 SA
ENDBRANCH  24  25
ENDBRANCH  22  24
ENDBRANCH  19  20
ENDBRANCH  18  19
ENDBRANCH   1  18
BRANCH   1  31
HETATM   31  C22 UNL     1      -8.671  -0.704 -28.295  1.00  0.00     0.241 C 
HETATM   32  O3  UNL     1      -9.943  -0.680 -28.341  1.00  0.00    -0.271 OA
HETATM   33  N4  UNL     1      -8.056  -1.595 -29.148  1.00  0.00    -0.346 N 
ATOM     34  H4  UNL     1      -7.038  -1.653 -29.149  1.00  0.00     0.163 HD
BRANCH  33  35
HETATM   35  C23 UNL     1      -8.830  -2.474 -30.066  1.00  0.00     0.177 C 
BRANCH  35  36
HETATM   36  C24 UNL     1      -8.262  -3.850 -30.027  1.00  0.00     0.041 C 
BRANCH  36  37
HETATM   37  C25 UNL     1      -7.083  -3.989 -30.935  1.00  0.00     0.064 C 
BRANCH  37  38
HETATM   38  C26 UNL     1      -5.794  -3.705 -30.196  1.00  0.00     0.059 A 
HETATM   39  N5  UNL     1      -5.460  -4.000 -28.935  1.00  0.00    -0.244 N 
HETATM   40  O4  UNL     1      -4.250  -3.579 -28.671  1.00  0.00    -0.155 OA
ATOM     41  H5  UNL     1      -6.065  -4.484 -28.271  1.00  0.00     0.196 HD
HETATM   42  N6  UNL     1      -3.776  -3.013 -29.725  1.00  0.00    -0.240 N 
HETATM   43  C27 UNL     1      -2.464  -2.382 -29.936  1.00  0.00     0.188 C 
HETATM   44  C28 UNL     1      -4.686  -3.060 -30.705  1.00  0.00     0.057 A 
HETATM   45  C29 UNL     1      -4.586  -2.536 -32.095  1.00  0.00     0.072 C 
ENDBRANCH  37  38
ENDBRANCH  36  37
ENDBRANCH  35  36
BRANCH  35  46
HETATM   46  C30 UNL     1      -8.750  -1.898 -31.411  1.00  0.00     0.241 C 
HETATM   47  O5  UNL     1      -9.581  -2.366 -32.274  1.00  0.00    -0.271 OA
HETATM   48  N7  UNL     1      -7.875  -0.905 -31.881  1.00  0.00    -0.351 N 
ATOM     49  H7  UNL     1      -7.188  -0.501 -31.245  1.00  0.00     0.163 HD
BRANCH  48  50
HETATM   50  C31 UNL     1      -7.930  -0.450 -33.235  1.00  0.00     0.022 C 
HETATM   51  C32 UNL     1      -6.777   0.517 -33.474  1.00  0.00     0.037 C 
HETATM   52  C33 UNL     1      -9.193   0.339 -33.512  1.00  0.00     0.037 C 
HETATM   53  C34 UNL     1      -7.797  -1.566 -34.240  1.00  0.00     0.037 C 
ENDBRANCH  48  50
ENDBRANCH  35  46
ENDBRANCH  33  35
ENDBRANCH   1  31
TORSDOF 18
ENDMDL
MODEL 5
REMARK VINA RESULT: -6.831890169      2.766      5.828
REMARK  18 active torsions:
REMARK  status: ('A' for Active; 'I' for Inactive)
REMARK    1  A    between atoms: C7_7  and  C8_8 
REMARK    2  A    between atoms: C8_8  and  O1_9 
REMARK    3  A    between atoms: C8_8  and  N1_11 
REMARK    4  A    between atoms: N1_11  and  C9_12 
REMARK    5  A    between atoms: N1_11  and  C13_16 
REMARK    6  A    between atoms: C9_12  and  C10_13 
REMARK    7  A    between atoms: C13_16  and  C14_17 
REMARK    8  A    between atoms: C13_16  and  C22_30 
REMARK    9  A    between atoms: C14_17  and  C15_18 
REMARK   10  A    between atoms: C15_18  and  C16_19 
REMARK       I    between atoms: C16_19  and  N2_21 
REMARK   11  A    between atoms: N2_21  and  C18_23 
REMARK   12  A    between atoms: C18_23  and  C19_24 
REMARK       I    between atoms: C22_30  and  N4_32 
REMARK   13  A    between atoms: N4_32  and  C23_34 
REMARK   14  A    between atoms: C23_34  and  C24_35 
REMARK   15  A    between atoms: C23_34  and  C30_45 
REMARK   16  A    between atoms: C24_35  and  C25_36 
REMARK   17  A    between atoms: C25_36  and  C26_37 
REMARK       I    between atoms: C30_45  and  N7_47 
REMARK   18  A    between atoms: N7_47  and  C31_49 
ROOT
HETATM    1  C13 UNL     1      -7.912  -0.556 -27.426  1.00  0.00     0.183 C 
ENDROOT
BRANCH   1   2
HETATM    2  N1  UNL     1      -7.962  -0.676 -25.988  1.00  0.00    -0.327 N 
BRANCH   2   3
HETATM    3  C8  UNL     1      -8.296  -1.870 -25.331  1.00  0.00     0.153 C 
BRANCH   3   4
HETATM    4  C7  UNL     1      -9.466  -2.635 -25.077  1.00  0.00     0.016 A 
HETATM    5  C6  UNL     1     -10.323  -2.624 -24.015  1.00  0.00     0.022 A 
HETATM    6  C4  UNL     1     -11.406  -3.494 -23.882  1.00  0.00    -0.061 A 
HETATM    7  C3  UNL     1     -11.676  -4.434 -24.841  1.00  0.00     0.013 A 
HETATM    8  C5  UNL     1     -12.308  -3.418 -22.698  1.00  0.00     0.048 C 
HETATM    9  C2  UNL     1     -10.849  -4.485 -25.929  1.00  0.00    -0.061 A 
HETATM   10  C1  UNL     1     -11.118  -5.505 -27.004  1.00  0.00     0.048 C 
HETATM   11  C35 UNL     1      -9.788  -3.619 -26.039  1.00  0.00     0.022 A 
ENDBRANCH   3   4
BRANCH   3  12
HETATM   12  O1  UNL     1      -7.212  -2.421 -24.804  1.00  0.00    -0.345 OA
ATOM     13  H1  UNL     1      -7.383  -3.287 -24.454  1.00  0.00     0.219 HD
ENDBRANCH   3  12
ENDBRANCH   2   3
BRANCH   2  14
HETATM   14  C9  UNL     1      -7.864   0.493 -25.183  1.00  0.00     0.071 C 
BRANCH  14  15
HETATM   15  C10 UNL     1      -6.741   0.985 -24.434  1.00  0.00     0.016 C 
HETATM   16  C11 UNL     1      -6.509   2.433 -24.215  1.00  0.00     0.015 C 
HETATM   17  C12 UNL     1      -5.391   0.375 -24.872  1.00  0.00     0.015 C 
ENDBRANCH  14  15
ENDBRANCH   2  14
ENDBRANCH   1   2
BRANCH   1  18
HETATM   18  C14 UNL     1      -7.615   0.805 -27.834  1.00  0.00     0.044 C 
BRANCH  18  19
HETATM   19  C15 UNL     1      -6.343   1.141 -28.534  1.00  0.00     0.105 C 
BRANCH  19  20
HETATM   20  C16 UNL     1      -6.674   1.368 -29.992  1.00  0.00     0.219 C 
HETATM   21  O2  UNL     1      -7.222   0.440 -30.605  1.00  0.00    -0.273 OA
HETATM   22  N2  UNL     1      -6.372   2.586 -30.659  1.00  0.00    -0.350 N 
HETATM   23  C17 UNL     1      -6.677   2.641 -32.092  1.00  0.00     0.153 C 
BRANCH  22  24
HETATM   24  C18 UNL     1      -5.843   3.752 -30.033  1.00  0.00     0.190 C 
BRANCH  24  25
HETATM   25  C19 UNL     1      -4.355   3.859 -30.046  1.00  0.00     0.068 A 
HETATM   26  N3  UNL     1      -3.566   4.740 -29.442  1.00  0.00    -0.362 N 
HETATM   27  C20 UNL     1      -2.281   4.652 -29.581  1.00  0.00     0.096 A 
ATOM     28  H3  UNL     1      -3.970   5.482 -28.870  1.00  0.00     0.165 HD
HETATM   29  C21 UNL     1      -1.781   3.637 -30.357  1.00  0.00     0.068 A 
HETATM   30  S1  UNL     1      -3.214   2.858 -30.849  1.00  0.00    -0.086 SA
ENDBRANCH  24  25
ENDBRANCH  22  24
ENDBRANCH  19  20
ENDBRANCH  18  19
ENDBRANCH   1  18
BRANCH   1  31
HETATM   31  C22 UNL     1      -7.176  -1.692 -28.065  1.00  0.00     0.241 C 
HETATM   32  O3  UNL     1      -6.017  -1.917 -27.590  1.00  0.00    -0.271 OA
HETATM   33  N4  UNL     1      -7.580  -2.529 -29.082  1.00  0.00    -0.346 N 
ATOM     34  H4  UNL     1      -8.502  -2.391 -29.498  1.00  0.00     0.163 HD
BRANCH  33  35
HETATM   35  C23 UNL     1      -6.717  -3.628 -29.593  1.00  0.00     0.177 C 
BRANCH  35  36
HETATM   36  C24 UNL     1      -6.098  -3.213 -30.882  1.00  0.00     0.041 C 
BRANCH  36  37
HETATM   37  C25 UNL     1      -4.833  -3.959 -31.156  1.00  0.00     0.064 C 
BRANCH  37  38
HETATM   38  C26 UNL     1      -3.729  -3.516 -30.221  1.00  0.00     0.059 A 
HETATM   39  N5  UNL     1      -3.809  -3.126 -28.944  1.00  0.00    -0.244 N 
HETATM   40  O4  UNL     1      -2.624  -2.815 -28.486  1.00  0.00    -0.155 OA
ATOM     41  H5  UNL     1      -4.673  -3.077 -28.404  1.00  0.00     0.196 HD
HETATM   42  N6  UNL     1      -1.764  -2.988 -29.427  1.00  0.00    -0.240 N 
HETATM   43  C27 UNL     1      -0.308  -2.775 -29.413  1.00  0.00     0.188 C 
HETATM   44  C28 UNL     1      -2.388  -3.423 -30.529  1.00  0.00     0.057 A 
HETATM   45  C29 UNL     1      -1.806  -3.757 -31.857  1.00  0.00     0.072 C 
ENDBRANCH  37  38
ENDBRANCH  36  37
ENDBRANCH  35  36
BRANCH  35  46
HETATM   46  C30 UNL     1      -7.557  -4.818 -29.760  1.00  0.00     0.241 C 
HETATM   47  O5  UNL     1      -8.827  -4.618 -29.735  1.00  0.00    -0.271 OA
HETATM   48  N7  UNL     1      -7.151  -6.150 -29.937  1.00  0.00    -0.351 N 
ATOM     49  H7  UNL     1      -6.156  -6.372 -29.958  1.00  0.00     0.163 HD
BRANCH  48  50
HETATM   50  C31 UNL     1      -8.107  -7.202 -30.089  1.00  0.00     0.022 C 
HETATM   51  C32 UNL     1      -7.371  -8.485 -30.451  1.00  0.00     0.037 C 
HETATM   52  C33 UNL     1      -9.059  -6.936 -31.237  1.00  0.00     0.037 C 
HETATM   53  C34 UNL     1      -8.893  -7.473 -28.831  1.00  0.00     0.037 C 
ENDBRANCH  48  50
ENDBRANCH  35  46
ENDBRANCH  33  35
ENDBRANCH   1  31
TORSDOF 18
ENDMDL
