MODEL 1
REMARK VINA RESULT: -4.898028244      0.000      0.000
REMARK  14 active torsions:
REMARK  status: ('A' for Active; 'I' for Inactive)
REMARK    1  A    between atoms: C2_2  and  C3_3 
REMARK    2  A    between atoms: C3_3  and  O1_4 
REMARK    3  A    between atoms: O1_4  and  N1_5 
REMARK    4  A    between atoms: C4_7  and  C5_8 
REMARK    5  A    between atoms: C4_7  and  C15_18 
REMARK    6  A    between atoms: C5_8  and  C6_9 
REMARK    7  A    between atoms: C15_18  and  C16_19 
REMARK    8  A    between atoms: C16_19  and  O2_21 
REMARK    9  A    between atoms: C16_19  and  C18_23 
REMARK   10  A    between atoms: C18_23  and  C19_24 
REMARK   11  A    between atoms: C19_24  and  C20_25 
REMARK   12  A    between atoms: C20_25  and  C23_28 
REMARK   13  A    between atoms: C23_28  and  O3_30 
REMARK   14  A    between atoms: C23_28  and  C25_32 
ROOT
HETATM    1  N1  UNL     1      63.286  -3.539  47.087  1.00  0.00    -0.274 N 
ATOM      2  H1  UNL     1      62.981  -3.231  48.010  1.00  0.00     0.193 HD
HETATM    3  C4  UNL     1      62.654  -4.592  46.616  1.00  0.00     0.016 C 
ENDROOT
BRANCH   3   4
HETATM    4  C5  UNL     1      63.031  -5.100  45.300  1.00  0.00     0.082 C 
BRANCH   4   5
HETATM    5  C6  UNL     1      62.049  -4.876  44.213  1.00  0.00    -0.014 C 
HETATM    6  C7  UNL     1      61.328  -5.840  43.742  1.00  0.00    -0.061 C 
HETATM    7  C8  UNL     1      61.398  -7.197  44.213  1.00  0.00     0.003 C 
HETATM    8  C14 UNL     1      60.359  -5.543  42.618  1.00  0.00     0.047 C 
HETATM    9  C9  UNL     1      60.827  -8.171  43.538  1.00  0.00    -0.025 C 
HETATM   10  C10 UNL     1      60.096  -7.971  42.299  1.00  0.00     0.036 C 
HETATM   11  C11 UNL     1      60.473  -6.687  41.618  1.00  0.00    -0.041 C 
HETATM   12  C12 UNL     1      61.882  -6.762  41.105  1.00  0.00     0.015 C 
HETATM   13  C13 UNL     1      59.491  -6.429  40.491  1.00  0.00     0.015 C 
ENDBRANCH   4   5
ENDBRANCH   3   4
BRANCH   3  14
HETATM   14  C15 UNL     1      61.582  -5.195  47.426  1.00  0.00     0.092 C 
BRANCH  14  15
HETATM   15  C16 UNL     1      60.271  -4.475  47.516  1.00  0.00     0.059 C 
HETATM   16  C17 UNL     1      59.781  -4.186  48.887  1.00  0.00     0.046 C 
BRANCH  15  17
HETATM   17  O2  UNL     1      60.396  -3.264  46.767  1.00  0.00    -0.390 OA
ATOM     18  H2  UNL     1      59.737  -3.284  46.082  1.00  0.00     0.210 HD
ENDBRANCH  15  17
BRANCH  15  19
HETATM   19  C18 UNL     1      59.282  -5.299  46.729  1.00  0.00     0.038 C 
BRANCH  19  20
HETATM   20  C19 UNL     1      59.147  -6.689  47.213  1.00  0.00     0.014 C 
BRANCH  20  21
HETATM   21  C20 UNL     1      57.989  -7.373  46.506  1.00  0.00    -0.017 C 
HETATM   22  C21 UNL     1      57.695  -6.719  45.173  1.00  0.00     0.018 C 
HETATM   23  C22 UNL     1      58.381  -8.806  46.258  1.00  0.00     0.018 C 
BRANCH  21  24
HETATM   24  C23 UNL     1      56.714  -7.301  47.309  1.00  0.00     0.061 C 
HETATM   25  C24 UNL     1      55.680  -6.488  46.566  1.00  0.00     0.046 C 
BRANCH  24  26
HETATM   26  O3  UNL     1      56.188  -8.607  47.397  1.00  0.00    -0.389 OA
ATOM     27  H3  UNL     1      55.284  -8.536  47.681  1.00  0.00     0.210 HD
ENDBRANCH  24  26
BRANCH  24  28
HETATM   28  C25 UNL     1      57.003  -6.829  48.689  1.00  0.00     0.033 C 
HETATM   29  C26 UNL     1      56.198  -5.594  49.062  1.00  0.00     0.008 C 
ENDBRANCH  24  28
ENDBRANCH  21  24
ENDBRANCH  20  21
ENDBRANCH  19  20
ENDBRANCH  15  19
ENDBRANCH  14  15
ENDBRANCH   3  14
BRANCH   1  30
HETATM   30  O1  UNL     1      64.254  -2.822  46.552  1.00  0.00    -0.277 OA
BRANCH  30  31
HETATM   31  C3  UNL     1      65.601  -2.766  46.980  1.00  0.00     0.228 C 
BRANCH  31  32
HETATM   32  C2  UNL     1      66.375  -3.838  46.288  1.00  0.00    -0.009 C 
HETATM   33  C1  UNL     1      67.457  -3.508  45.565  1.00  0.00     0.009 C 
ENDBRANCH  31  32
ENDBRANCH  30  31
ENDBRANCH   1  30
TORSDOF 14
ENDMDL
MODEL 2
REMARK VINA RESULT: -4.889610791     10.882     13.967
REMARK  14 active torsions:
REMARK  status: ('A' for Active; 'I' for Inactive)
REMARK    1  A    between atoms: C2_2  and  C3_3 
REMARK    2  A    between atoms: C3_3  and  O1_4 
REMARK    3  A    between atoms: O1_4  and  N1_5 
REMARK    4  A    between atoms: C4_7  and  C5_8 
REMARK    5  A    between atoms: C4_7  and  C15_18 
REMARK    6  A    between atoms: C5_8  and  C6_9 
REMARK    7  A    between atoms: C15_18  and  C16_19 
REMARK    8  A    between atoms: C16_19  and  O2_21 
REMARK    9  A    between atoms: C16_19  and  C18_23 
REMARK   10  A    between atoms: C18_23  and  C19_24 
REMARK   11  A    between atoms: C19_24  and  C20_25 
REMARK   12  A    between atoms: C20_25  and  C23_28 
REMARK   13  A    between atoms: C23_28  and  O3_30 
REMARK   14  A    between atoms: C23_28  and  C25_32 
ROOT
HETATM    1  N1  UNL     1      60.101 -15.179  47.834  1.00  0.00    -0.274 N 
ATOM      2  H1  UNL     1      60.680 -14.359  47.651  1.00  0.00     0.193 HD
HETATM    3  C4  UNL     1      60.723 -16.179  48.420  1.00  0.00     0.016 C 
ENDROOT
BRANCH   3   4
HETATM    4  C5  UNL     1      59.966 -17.391  48.716  1.00  0.00     0.082 C 
BRANCH   4   5
HETATM    5  C6  UNL     1      59.715 -17.664  50.152  1.00  0.00    -0.014 C 
HETATM    6  C7  UNL     1      60.352 -18.591  50.787  1.00  0.00    -0.061 C 
HETATM    7  C8  UNL     1      61.349 -19.435  50.186  1.00  0.00     0.003 C 
HETATM    8  C14 UNL     1      60.030 -18.827  52.247  1.00  0.00     0.047 C 
HETATM    9  C9  UNL     1      61.782 -20.510  50.808  1.00  0.00    -0.025 C 
HETATM   10  C10 UNL     1      61.308 -20.928  52.117  1.00  0.00     0.036 C 
HETATM   11  C11 UNL     1      59.970 -20.336  52.452  1.00  0.00    -0.041 C 
HETATM   12  C12 UNL     1      58.905 -20.917  51.568  1.00  0.00     0.015 C 
HETATM   13  C13 UNL     1      59.675 -20.602  53.916  1.00  0.00     0.015 C 
ENDBRANCH   4   5
ENDBRANCH   3   4
BRANCH   3  14
HETATM   14  C15 UNL     1      62.145 -16.022  48.767  1.00  0.00     0.092 C 
BRANCH  14  15
HETATM   15  C16 UNL     1      63.168 -16.277  47.702  1.00  0.00     0.059 C 
HETATM   16  C17 UNL     1      63.236 -17.667  47.186  1.00  0.00     0.046 C 
BRANCH  15  17
HETATM   17  O2  UNL     1      62.910 -15.362  46.634  1.00  0.00    -0.390 OA
ATOM     18  H2  UNL     1      63.613 -14.723  46.632  1.00  0.00     0.210 HD
ENDBRANCH  15  17
BRANCH  15  19
HETATM   19  C18 UNL     1      64.490 -15.824  48.269  1.00  0.00     0.038 C 
BRANCH  19  20
HETATM   20  C19 UNL     1      64.538 -15.831  49.746  1.00  0.00     0.014 C 
BRANCH  20  21
HETATM   21  C20 UNL     1      65.570 -16.838  50.226  1.00  0.00    -0.017 C 
HETATM   22  C21 UNL     1      64.936 -18.185  50.498  1.00  0.00     0.018 C 
HETATM   23  C22 UNL     1      66.596 -17.004  49.136  1.00  0.00     0.018 C 
BRANCH  21  24
HETATM   24  C23 UNL     1      66.226 -16.405  51.514  1.00  0.00     0.061 C 
HETATM   25  C24 UNL     1      66.613 -17.617  52.329  1.00  0.00     0.046 C 
BRANCH  24  26
HETATM   26  O3  UNL     1      67.436 -15.760  51.182  1.00  0.00    -0.389 OA
ATOM     27  H3  UNL     1      68.030 -15.864  51.917  1.00  0.00     0.210 HD
ENDBRANCH  24  26
BRANCH  24  28
HETATM   28  C25 UNL     1      65.363 -15.425  52.225  1.00  0.00     0.033 C 
HETATM   29  C26 UNL     1      65.043 -15.857  53.647  1.00  0.00     0.008 C 
ENDBRANCH  24  28
ENDBRANCH  21  24
ENDBRANCH  20  21
ENDBRANCH  19  20
ENDBRANCH  15  19
ENDBRANCH  14  15
ENDBRANCH   3  14
BRANCH   1  30
HETATM   30  O1  UNL     1      58.846 -15.072  47.448  1.00  0.00    -0.277 OA
BRANCH  30  31
HETATM   31  C3  UNL     1      58.171 -13.882  47.085  1.00  0.00     0.228 C 
BRANCH  31  32
HETATM   32  C2  UNL     1      59.168 -12.781  46.949  1.00  0.00    -0.009 C 
HETATM   33  C1  UNL     1      58.835 -11.538  47.332  1.00  0.00     0.009 C 
ENDBRANCH  31  32
ENDBRANCH  30  31
ENDBRANCH   1  30
TORSDOF 14
ENDMDL
MODEL 3
REMARK VINA RESULT: -4.858770998      2.273      8.447
REMARK  14 active torsions:
REMARK  status: ('A' for Active; 'I' for Inactive)
REMARK    1  A    between atoms: C2_2  and  C3_3 
REMARK    2  A    between atoms: C3_3  and  O1_4 
REMARK    3  A    between atoms: O1_4  and  N1_5 
REMARK    4  A    between atoms: C4_7  and  C5_8 
REMARK    5  A    between atoms: C4_7  and  C15_18 
REMARK    6  A    between atoms: C5_8  and  C6_9 
REMARK    7  A    between atoms: C15_18  and  C16_19 
REMARK    8  A    between atoms: C16_19  and  O2_21 
REMARK    9  A    between atoms: C16_19  and  C18_23 
REMARK   10  A    between atoms: C18_23  and  C19_24 
REMARK   11  A    between atoms: C19_24  and  C20_25 
REMARK   12  A    between atoms: C20_25  and  C23_28 
REMARK   13  A    between atoms: C23_28  and  O3_30 
REMARK   14  A    between atoms: C23_28  and  C25_32 
ROOT
HETATM    1  N1  UNL     1      62.857  -5.473  45.187  1.00  0.00    -0.274 N 
ATOM      2  H1  UNL     1      63.469  -4.896  44.611  1.00  0.00     0.193 HD
HETATM    3  C4  UNL     1      62.470  -4.919  46.316  1.00  0.00     0.016 C 
ENDROOT
BRANCH   3   4
HETATM    4  C5  UNL     1      61.593  -5.679  47.200  1.00  0.00     0.082 C 
BRANCH   4   5
HETATM    5  C6  UNL     1      60.438  -4.937  47.761  1.00  0.00    -0.014 C 
HETATM    6  C7  UNL     1      59.316  -5.524  48.019  1.00  0.00    -0.061 C 
HETATM    7  C8  UNL     1      59.075  -6.924  47.798  1.00  0.00     0.003 C 
HETATM    8  C14 UNL     1      58.174  -4.700  48.573  1.00  0.00     0.047 C 
HETATM    9  C9  UNL     1      57.853  -7.410  47.847  1.00  0.00    -0.025 C 
HETATM   10  C10 UNL     1      56.677  -6.603  48.122  1.00  0.00     0.036 C 
HETATM   11  C11 UNL     1      56.910  -5.146  47.847  1.00  0.00    -0.041 C 
HETATM   12  C12 UNL     1      57.074  -4.912  46.373  1.00  0.00     0.015 C 
HETATM   13  C13 UNL     1      55.742  -4.354  48.403  1.00  0.00     0.015 C 
ENDBRANCH   4   5
ENDBRANCH   3   4
BRANCH   3  14
HETATM   14  C15 UNL     1      62.923  -3.551  46.623  1.00  0.00     0.092 C 
BRANCH  14  15
HETATM   15  C16 UNL     1      64.383  -3.327  46.872  1.00  0.00     0.059 C 
HETATM   16  C17 UNL     1      64.731  -2.686  48.165  1.00  0.00     0.046 C 
BRANCH  15  17
HETATM   17  O2  UNL     1      65.037  -4.593  46.753  1.00  0.00    -0.390 OA
ATOM     18  H2  UNL     1      65.431  -4.789  47.596  1.00  0.00     0.210 HD
ENDBRANCH  15  17
BRANCH  15  19
HETATM   19  C18 UNL     1      64.895  -2.532  45.697  1.00  0.00     0.038 C 
BRANCH  19  20
HETATM   20  C19 UNL     1      66.360  -2.600  45.525  1.00  0.00     0.014 C 
BRANCH  20  21
HETATM   21  C20 UNL     1      66.879  -1.282  44.973  1.00  0.00    -0.017 C 
HETATM   22  C21 UNL     1      66.187  -0.920  43.677  1.00  0.00     0.018 C 
HETATM   23  C22 UNL     1      66.585  -0.208  45.987  1.00  0.00     0.018 C 
BRANCH  21  24
HETATM   24  C23 UNL     1      68.355  -1.338  44.669  1.00  0.00     0.061 C 
HETATM   25  C24 UNL     1      68.603  -0.939  43.233  1.00  0.00     0.046 C 
BRANCH  24  26
HETATM   26  O3  UNL     1      68.992  -0.356  45.458  1.00  0.00    -0.389 OA
ATOM     27  H3  UNL     1      69.892  -0.286  45.160  1.00  0.00     0.210 HD
ENDBRANCH  24  26
BRANCH  24  28
HETATM   28  C25 UNL     1      68.908  -2.664  45.051  1.00  0.00     0.033 C 
HETATM   29  C26 UNL     1      69.925  -3.182  44.047  1.00  0.00     0.008 C 
ENDBRANCH  24  28
ENDBRANCH  21  24
ENDBRANCH  20  21
ENDBRANCH  19  20
ENDBRANCH  15  19
ENDBRANCH  14  15
ENDBRANCH   3  14
BRANCH   1  30
HETATM   30  O1  UNL     1      62.576  -6.659  44.686  1.00  0.00    -0.277 OA
BRANCH  30  31
HETATM   31  C3  UNL     1      61.741  -6.933  43.577  1.00  0.00     0.228 C 
BRANCH  31  32
HETATM   32  C2  UNL     1      60.490  -7.585  44.061  1.00  0.00    -0.009 C 
HETATM   33  C1  UNL     1      59.374  -6.851  44.202  1.00  0.00     0.009 C 
ENDBRANCH  31  32
ENDBRANCH  30  31
ENDBRANCH   1  30
TORSDOF 14
ENDMDL
MODEL 4
REMARK VINA RESULT: -4.812660296      3.976      7.971
REMARK  14 active torsions:
REMARK  status: ('A' for Active; 'I' for Inactive)
REMARK    1  A    between atoms: C2_2  and  C3_3 
REMARK    2  A    between atoms: C3_3  and  O1_4 
REMARK    3  A    between atoms: O1_4  and  N1_5 
REMARK    4  A    between atoms: C4_7  and  C5_8 
REMARK    5  A    between atoms: C4_7  and  C15_18 
REMARK    6  A    between atoms: C5_8  and  C6_9 
REMARK    7  A    between atoms: C15_18  and  C16_19 
REMARK    8  A    between atoms: C16_19  and  O2_21 
REMARK    9  A    between atoms: C16_19  and  C18_23 
REMARK   10  A    between atoms: C18_23  and  C19_24 
REMARK   11  A    between atoms: C19_24  and  C20_25 
REMARK   12  A    between atoms: C20_25  and  C23_28 
REMARK   13  A    between atoms: C23_28  and  O3_30 
REMARK   14  A    between atoms: C23_28  and  C25_32 
ROOT
HETATM    1  N1  UNL     1      67.582   0.371  46.430  1.00  0.00    -0.274 N 
ATOM      2  H1  UNL     1      66.618   0.532  46.721  1.00  0.00     0.193 HD
HETATM    3  C4  UNL     1      67.742  -0.584  45.540  1.00  0.00     0.016 C 
ENDROOT
BRANCH   3   4
HETATM    4  C5  UNL     1      69.092  -0.880  45.070  1.00  0.00     0.082 C 
BRANCH   4   5
HETATM    5  C6  UNL     1      69.248  -1.039  43.605  1.00  0.00    -0.014 C 
HETATM    6  C7  UNL     1      69.751  -2.111  43.089  1.00  0.00    -0.061 C 
HETATM    7  C8  UNL     1      70.198  -3.238  43.862  1.00  0.00     0.003 C 
HETATM    8  C14 UNL     1      69.898  -2.197  41.585  1.00  0.00     0.047 C 
HETATM    9  C9  UNL     1      70.919  -4.189  43.306  1.00  0.00    -0.025 C 
HETATM   10  C10 UNL     1      71.313  -4.187  41.908  1.00  0.00     0.036 C 
HETATM   11  C11 UNL     1      71.264  -2.813  41.306  1.00  0.00    -0.041 C 
HETATM   12  C12 UNL     1      72.334  -1.943  41.901  1.00  0.00     0.015 C 
HETATM   13  C13 UNL     1      71.428  -2.936  39.803  1.00  0.00     0.015 C 
ENDBRANCH   4   5
ENDBRANCH   3   4
BRANCH   3  14
HETATM   14  C15 UNL     1      66.551  -1.295  45.044  1.00  0.00     0.092 C 
BRANCH  14  15
HETATM   15  C16 UNL     1      66.040  -2.460  45.836  1.00  0.00     0.059 C 
HETATM   16  C17 UNL     1      66.921  -3.654  45.879  1.00  0.00     0.046 C 
BRANCH  15  17
HETATM   17  O2  UNL     1      65.772  -1.992  47.160  1.00  0.00    -0.390 OA
ATOM     18  H2  UNL     1      66.512  -2.237  47.703  1.00  0.00     0.210 HD
ENDBRANCH  15  17
BRANCH  15  19
HETATM   19  C18 UNL     1      64.679  -2.787  45.275  1.00  0.00     0.038 C 
BRANCH  19  20
HETATM   20  C19 UNL     1      64.103  -4.041  45.803  1.00  0.00     0.014 C 
BRANCH  20  21
HETATM   21  C20 UNL     1      62.660  -3.812  46.221  1.00  0.00    -0.017 C 
HETATM   22  C21 UNL     1      62.564  -3.457  47.689  1.00  0.00     0.018 C 
HETATM   23  C22 UNL     1      62.122  -2.660  45.415  1.00  0.00     0.018 C 
BRANCH  21  24
HETATM   24  C23 UNL     1      61.811  -5.044  46.023  1.00  0.00     0.061 C 
HETATM   25  C24 UNL     1      61.099  -5.393  47.308  1.00  0.00     0.046 C 
BRANCH  24  26
HETATM   26  O3  UNL     1      60.798  -4.720  45.095  1.00  0.00    -0.389 OA
ATOM     27  H3  UNL     1      59.970  -5.011  45.459  1.00  0.00     0.210 HD
ENDBRANCH  24  26
BRANCH  24  28
HETATM   28  C25 UNL     1      62.629  -6.142  45.445  1.00  0.00     0.033 C 
HETATM   29  C26 UNL     1      61.938  -6.831  44.279  1.00  0.00     0.008 C 
ENDBRANCH  24  28
ENDBRANCH  21  24
ENDBRANCH  20  21
ENDBRANCH  19  20
ENDBRANCH  15  19
ENDBRANCH  14  15
ENDBRANCH   3  14
BRANCH   1  30
HETATM   30  O1  UNL     1      68.475   1.152  47.003  1.00  0.00    -0.277 OA
BRANCH  30  31
HETATM   31  C3  UNL     1      68.613   2.550  46.829  1.00  0.00     0.228 C 
BRANCH  31  32
HETATM   32  C2  UNL     1      68.404   2.882  45.390  1.00  0.00    -0.009 C 
HETATM   33  C1  UNL     1      69.444   2.830  44.543  1.00  0.00     0.009 C 
ENDBRANCH  31  32
ENDBRANCH  30  31
ENDBRANCH   1  30
TORSDOF 14
ENDMDL
MODEL 5
REMARK VINA RESULT: -4.763846968     11.618     14.907
REMARK  14 active torsions:
REMARK  status: ('A' for Active; 'I' for Inactive)
REMARK    1  A    between atoms: C2_2  and  C3_3 
REMARK    2  A    between atoms: C3_3  and  O1_4 
REMARK    3  A    between atoms: O1_4  and  N1_5 
REMARK    4  A    between atoms: C4_7  and  C5_8 
REMARK    5  A    between atoms: C4_7  and  C15_18 
REMARK    6  A    between atoms: C5_8  and  C6_9 
REMARK    7  A    between atoms: C15_18  and  C16_19 
REMARK    8  A    between atoms: C16_19  and  O2_21 
REMARK    9  A    between atoms: C16_19  and  C18_23 
REMARK   10  A    between atoms: C18_23  and  C19_24 
REMARK   11  A    between atoms: C19_24  and  C20_25 
REMARK   12  A    between atoms: C20_25  and  C23_28 
REMARK   13  A    between atoms: C23_28  and  O3_30 
REMARK   14  A    between atoms: C23_28  and  C25_32 
ROOT
HETATM    1  N1  UNL     1      60.328 -16.829  47.812  1.00  0.00    -0.274 N 
ATOM      2  H1  UNL     1      60.936 -16.477  47.073  1.00  0.00     0.193 HD
HETATM    3  C4  UNL     1      60.946 -17.192  48.915  1.00  0.00     0.016 C 
ENDROOT
BRANCH   3   4
HETATM    4  C5  UNL     1      60.148 -17.708  50.023  1.00  0.00     0.082 C 
BRANCH   4   5
HETATM    5  C6  UNL     1      60.372 -19.130  50.376  1.00  0.00    -0.014 C 
HETATM    6  C7  UNL     1      60.042 -19.601  51.533  1.00  0.00    -0.061 C 
HETATM    7  C8  UNL     1      59.434 -18.817  52.574  1.00  0.00     0.003 C 
HETATM    8  C14 UNL     1      60.318 -21.059  51.831  1.00  0.00     0.047 C 
HETATM    9  C9  UNL     1      59.347 -19.284  53.801  1.00  0.00    -0.025 C 
HETATM   10  C10 UNL     1      59.838 -20.591  54.201  1.00  0.00     0.036 C 
HETATM   11  C11 UNL     1      60.869 -21.127  53.251  1.00  0.00    -0.041 C 
HETATM   12  C12 UNL     1      62.129 -20.315  53.335  1.00  0.00     0.015 C 
HETATM   13  C13 UNL     1      61.130 -22.583  53.587  1.00  0.00     0.015 C 
ENDBRANCH   4   5
ENDBRANCH   3   4
BRANCH   3  14
HETATM   14  C15 UNL     1      62.409 -17.042  48.987  1.00  0.00     0.092 C 
BRANCH  14  15
HETATM   15  C16 UNL     1      62.977 -15.658  49.065  1.00  0.00     0.059 C 
HETATM   16  C17 UNL     1      63.775 -15.216  47.894  1.00  0.00     0.046 C 
BRANCH  15  17
HETATM   17  O2  UNL     1      61.887 -14.761  49.291  1.00  0.00    -0.390 OA
ATOM     18  H2  UNL     1      61.104 -15.287  49.400  1.00  0.00     0.210 HD
ENDBRANCH  15  17
BRANCH  15  19
HETATM   19  C18 UNL     1      63.777 -15.601  50.342  1.00  0.00     0.038 C 
BRANCH  19  20
HETATM   20  C19 UNL     1      64.170 -16.928  50.858  1.00  0.00     0.014 C 
BRANCH  20  21
HETATM   21  C20 UNL     1      65.299 -16.780  51.865  1.00  0.00    -0.017 C 
HETATM   22  C21 UNL     1      65.522 -15.327  52.230  1.00  0.00     0.018 C 
HETATM   23  C22 UNL     1      64.907 -17.530  53.112  1.00  0.00     0.018 C 
BRANCH  21  24
HETATM   24  C23 UNL     1      66.611 -17.292  51.325  1.00  0.00     0.061 C 
HETATM   25  C24 UNL     1      67.719 -16.318  51.650  1.00  0.00     0.046 C 
BRANCH  24  26
HETATM   26  O3  UNL     1      66.924 -18.481  52.018  1.00  0.00    -0.389 OA
ATOM     27  H3  UNL     1      66.715 -19.211  51.447  1.00  0.00     0.210 HD
ENDBRANCH  24  26
BRANCH  24  28
HETATM   28  C25 UNL     1      66.476 -17.623  49.881  1.00  0.00     0.033 C 
HETATM   29  C26 UNL     1      67.388 -16.782  49.004  1.00  0.00     0.008 C 
ENDBRANCH  24  28
ENDBRANCH  21  24
ENDBRANCH  20  21
ENDBRANCH  19  20
ENDBRANCH  15  19
ENDBRANCH  14  15
ENDBRANCH   3  14
BRANCH   1  30
HETATM   30  O1  UNL     1      59.044 -16.848  47.515  1.00  0.00    -0.277 OA
BRANCH  30  31
HETATM   31  C3  UNL     1      58.208 -15.727  47.300  1.00  0.00     0.228 C 
BRANCH  31  32
HETATM   32  C2  UNL     1      57.430 -15.456  48.543  1.00  0.00    -0.009 C 
HETATM   33  C1  UNL     1      56.574 -14.422  48.574  1.00  0.00     0.009 C 
ENDBRANCH  31  32
ENDBRANCH  30  31
ENDBRANCH   1  30
TORSDOF 14
ENDMDL
