MODEL 1
REMARK VINA RESULT: -5.867115462      0.000      0.000
REMARK  13 active torsions:
REMARK  status: ('A' for Active; 'I' for Inactive)
REMARK    1  A    between atoms: C4_4  and  C5_5 
REMARK    2  A    between atoms: C5_5  and  C6_6 
REMARK    3  A    between atoms: C6_6  and  C7_7 
REMARK    4  A    between atoms: C9_9  and  C10_10 
REMARK    5  A    between atoms: C10_10  and  C11_11 
REMARK    6  A    between atoms: C11_11  and  C12_12 
REMARK    7  A    between atoms: C11_11  and  C13_15 
REMARK    8  A    between atoms: C11_11  and  C14_18 
REMARK    9  A    between atoms: C12_12  and  O1_13 
REMARK   10  A    between atoms: C15_20  and  C17_22 
REMARK   11  A    between atoms: C17_22  and  C18_23 
REMARK   12  A    between atoms: C18_23  and  C19_24 
REMARK   13  A    between atoms: C20_25  and  C22_27 
ROOT
HETATM    1  C22 UNL     1      66.841  -1.576  44.783  1.00  0.00     0.024 C 
HETATM    2  C23 UNL     1      66.977  -0.359  45.206  1.00  0.00     0.019 C 
HETATM    3  C24 UNL     1      65.987   0.639  44.549  1.00  0.00     0.060 C 
HETATM    4  C25 UNL     1      67.876   0.186  46.156  1.00  0.00     0.094 C 
HETATM    5  N1  UNL     1      68.596   0.675  46.928  1.00  0.00    -0.192 NA
ENDROOT
BRANCH   1   6
HETATM    6  C20 UNL     1      67.611  -2.713  45.206  1.00  0.00    -0.065 C 
HETATM    7  C19 UNL     1      67.061  -3.759  45.753  1.00  0.00    -0.020 C 
HETATM    8  C21 UNL     1      69.134  -2.696  45.070  1.00  0.00     0.048 C 
BRANCH   7   9
HETATM    9  C18 UNL     1      65.659  -4.004  45.982  1.00  0.00     0.030 C 
BRANCH   9  10
HETATM   10  C17 UNL     1      65.181  -3.777  47.397  1.00  0.00     0.044 C 
BRANCH  10  11
HETATM   11  C15 UNL     1      64.433  -2.564  47.709  1.00  0.00     0.085 A 
HETATM   12  C14 UNL     1      63.045  -2.333  47.722  1.00  0.00     0.178 A 
HETATM   13  O4  UNL     1      63.844  -1.973  46.490  1.00  0.00    -0.368 OA
HETATM   14  C16 UNL     1      65.247  -1.562  48.539  1.00  0.00     0.049 C 
BRANCH  12  15
HETATM   15  C11 UNL     1      61.851  -3.066  47.279  1.00  0.00     0.101 C 
BRANCH  15  16
HETATM   16  C10 UNL     1      61.476  -4.210  48.213  1.00  0.00     0.053 C 
BRANCH  16  17
HETATM   17  C9  UNL     1      60.087  -4.313  48.582  1.00  0.00    -0.023 C 
HETATM   18  C7  UNL     1      59.283  -5.244  48.193  1.00  0.00    -0.087 C 
HETATM   19  C8  UNL     1      57.846  -5.180  48.693  1.00  0.00     0.043 C 
BRANCH  18  20
HETATM   20  C6  UNL     1      59.586  -6.374  47.314  1.00  0.00     0.037 C 
BRANCH  20  21
HETATM   21  C5  UNL     1      58.320  -7.152  46.992  1.00  0.00     0.031 C 
BRANCH  21  22
HETATM   22  C4  UNL     1      58.434  -8.563  47.411  1.00  0.00    -0.024 C 
HETATM   23  C2  UNL     1      58.491  -9.516  46.510  1.00  0.00    -0.091 C 
HETATM   24  C1  UNL     1      58.440  -9.188  45.069  1.00  0.00     0.042 C 
HETATM   25  C3  UNL     1      58.606 -10.930  46.930  1.00  0.00     0.042 C 
ENDBRANCH  21  22
ENDBRANCH  20  21
ENDBRANCH  18  20
ENDBRANCH  16  17
ENDBRANCH  15  16
BRANCH  15  26
HETATM   26  C12 UNL     1      60.665  -2.064  47.473  1.00  0.00     0.187 C 
BRANCH  26  27
HETATM   27  O1  UNL     1      61.209  -0.813  47.216  1.00  0.00    -0.399 OA
ATOM     28  H1  UNL     1      61.213  -0.739  46.269  1.00  0.00     0.209 HD
ENDBRANCH  26  27
ENDBRANCH  15  26
BRANCH  15  29
HETATM   29  C13 UNL     1      61.719  -3.533  45.925  1.00  0.00     0.187 C 
HETATM   30  O2  UNL     1      61.111  -2.865  45.004  1.00  0.00    -0.647 OA
HETATM   31  O3  UNL     1      62.234  -4.726  45.510  1.00  0.00    -0.647 OA
ENDBRANCH  15  29
ENDBRANCH  12  15
ENDBRANCH  10  11
ENDBRANCH   9  10
ENDBRANCH   7   9
ENDBRANCH   1   6
TORSDOF 13
ENDMDL
MODEL 2
REMARK VINA RESULT: -5.723516139      2.705      5.326
REMARK  13 active torsions:
REMARK  status: ('A' for Active; 'I' for Inactive)
REMARK    1  A    between atoms: C4_4  and  C5_5 
REMARK    2  A    between atoms: C5_5  and  C6_6 
REMARK    3  A    between atoms: C6_6  and  C7_7 
REMARK    4  A    between atoms: C9_9  and  C10_10 
REMARK    5  A    between atoms: C10_10  and  C11_11 
REMARK    6  A    between atoms: C11_11  and  C12_12 
REMARK    7  A    between atoms: C11_11  and  C13_15 
REMARK    8  A    between atoms: C11_11  and  C14_18 
REMARK    9  A    between atoms: C12_12  and  O1_13 
REMARK   10  A    between atoms: C15_20  and  C17_22 
REMARK   11  A    between atoms: C17_22  and  C18_23 
REMARK   12  A    between atoms: C18_23  and  C19_24 
REMARK   13  A    between atoms: C20_25  and  C22_27 
ROOT
HETATM    1  C22 UNL     1      66.310  -3.623  46.472  1.00  0.00     0.024 C 
HETATM    2  C23 UNL     1      66.876  -2.798  45.649  1.00  0.00     0.019 C 
HETATM    3  C24 UNL     1      68.274  -3.268  45.166  1.00  0.00     0.060 C 
HETATM    4  C25 UNL     1      66.422  -1.556  45.137  1.00  0.00     0.094 C 
HETATM    5  N1  UNL     1      66.089  -0.534  44.695  1.00  0.00    -0.192 NA
ENDROOT
BRANCH   1   6
HETATM    6  C20 UNL     1      65.020  -3.459  47.085  1.00  0.00    -0.065 C 
HETATM    7  C19 UNL     1      63.959  -4.071  46.643  1.00  0.00    -0.020 C 
HETATM    8  C21 UNL     1      64.852  -2.499  48.264  1.00  0.00     0.048 C 
BRANCH   7   9
HETATM    9  C18 UNL     1      63.870  -5.016  45.557  1.00  0.00     0.030 C 
BRANCH   9  10
HETATM   10  C17 UNL     1      62.671  -5.935  45.589  1.00  0.00     0.044 C 
BRANCH  10  11
HETATM   11  C15 UNL     1      61.424  -5.498  44.973  1.00  0.00     0.085 A 
HETATM   12  C14 UNL     1      60.338  -4.792  45.524  1.00  0.00     0.178 A 
HETATM   13  O4  UNL     1      60.282  -6.302  45.455  1.00  0.00    -0.368 OA
HETATM   14  C16 UNL     1      61.513  -5.423  43.443  1.00  0.00     0.049 C 
BRANCH  12  15
HETATM   15  C11 UNL     1      59.918  -4.393  46.874  1.00  0.00     0.101 C 
BRANCH  15  16
HETATM   16  C10 UNL     1      60.775  -3.277  47.458  1.00  0.00     0.053 C 
BRANCH  16  17
HETATM   17  C9  UNL     1      60.077  -2.207  48.125  1.00  0.00    -0.023 C 
HETATM   18  C7  UNL     1      60.538  -1.016  48.299  1.00  0.00    -0.087 C 
HETATM   19  C8  UNL     1      59.645  -0.022  49.031  1.00  0.00     0.043 C 
BRANCH  18  20
HETATM   20  C6  UNL     1      61.836  -0.490  47.873  1.00  0.00     0.037 C 
BRANCH  20  21
HETATM   21  C5  UNL     1      61.749   0.056  46.456  1.00  0.00     0.031 C 
BRANCH  21  22
HETATM   22  C4  UNL     1      62.635  -0.687  45.539  1.00  0.00    -0.024 C 
HETATM   23  C2  UNL     1      62.127  -1.357  44.531  1.00  0.00    -0.091 C 
HETATM   24  C1  UNL     1      60.665  -1.375  44.304  1.00  0.00     0.042 C 
HETATM   25  C3  UNL     1      63.014  -2.102  43.610  1.00  0.00     0.042 C 
ENDBRANCH  21  22
ENDBRANCH  20  21
ENDBRANCH  18  20
ENDBRANCH  16  17
ENDBRANCH  15  16
BRANCH  15  26
HETATM   26  C12 UNL     1      58.533  -3.693  46.678  1.00  0.00     0.187 C 
BRANCH  26  27
HETATM   27  O1  UNL     1      57.897  -4.431  45.689  1.00  0.00    -0.399 OA
ATOM     28  H1  UNL     1      57.017  -4.075  45.647  1.00  0.00     0.209 HD
ENDBRANCH  26  27
ENDBRANCH  15  26
BRANCH  15  29
HETATM   29  C13 UNL     1      59.693  -5.370  47.907  1.00  0.00     0.187 C 
HETATM   30  O2  UNL     1      60.642  -5.883  48.612  1.00  0.00    -0.647 OA
HETATM   31  O3  UNL     1      58.446  -5.827  48.220  1.00  0.00    -0.647 OA
ENDBRANCH  15  29
ENDBRANCH  12  15
ENDBRANCH  10  11
ENDBRANCH   9  10
ENDBRANCH   7   9
ENDBRANCH   1   6
TORSDOF 13
ENDMDL
MODEL 3
REMARK VINA RESULT: -5.707860050      2.334      5.045
REMARK  13 active torsions:
REMARK  status: ('A' for Active; 'I' for Inactive)
REMARK    1  A    between atoms: C4_4  and  C5_5 
REMARK    2  A    between atoms: C5_5  and  C6_6 
REMARK    3  A    between atoms: C6_6  and  C7_7 
REMARK    4  A    between atoms: C9_9  and  C10_10 
REMARK    5  A    between atoms: C10_10  and  C11_11 
REMARK    6  A    between atoms: C11_11  and  C12_12 
REMARK    7  A    between atoms: C11_11  and  C13_15 
REMARK    8  A    between atoms: C11_11  and  C14_18 
REMARK    9  A    between atoms: C12_12  and  O1_13 
REMARK   10  A    between atoms: C15_20  and  C17_22 
REMARK   11  A    between atoms: C17_22  and  C18_23 
REMARK   12  A    between atoms: C18_23  and  C19_24 
REMARK   13  A    between atoms: C20_25  and  C22_27 
ROOT
HETATM    1  C22 UNL     1      66.003  -3.596  46.657  1.00  0.00     0.024 C 
HETATM    2  C23 UNL     1      66.585  -2.810  45.807  1.00  0.00     0.019 C 
HETATM    3  C24 UNL     1      67.925  -3.371  45.263  1.00  0.00     0.060 C 
HETATM    4  C25 UNL     1      66.190  -1.542  45.312  1.00  0.00     0.094 C 
HETATM    5  N1  UNL     1      65.905  -0.500  44.882  1.00  0.00    -0.192 NA
ENDROOT
BRANCH   1   6
HETATM    6  C20 UNL     1      64.756  -3.348  47.327  1.00  0.00    -0.065 C 
HETATM    7  C19 UNL     1      63.618  -3.769  46.853  1.00  0.00    -0.020 C 
HETATM    8  C21 UNL     1      64.731  -2.518  48.611  1.00  0.00     0.048 C 
BRANCH   7   9
HETATM    9  C18 UNL     1      63.391  -4.563  45.672  1.00  0.00     0.030 C 
BRANCH   9  10
HETATM   10  C17 UNL     1      62.910  -3.803  44.458  1.00  0.00     0.044 C 
BRANCH  10  11
HETATM   11  C15 UNL     1      61.489  -3.503  44.324  1.00  0.00     0.085 A 
HETATM   12  C14 UNL     1      60.370  -4.349  44.430  1.00  0.00     0.178 A 
HETATM   13  O4  UNL     1      60.946  -4.050  43.064  1.00  0.00    -0.368 OA
HETATM   14  C16 UNL     1      61.176  -2.015  44.527  1.00  0.00     0.049 C 
BRANCH  12  15
HETATM   15  C11 UNL     1      60.150  -5.799  44.511  1.00  0.00     0.101 C 
BRANCH  15  16
HETATM   16  C10 UNL     1      60.344  -6.352  45.917  1.00  0.00     0.053 C 
BRANCH  16  17
HETATM   17  C9  UNL     1      59.219  -6.251  46.812  1.00  0.00    -0.023 C 
HETATM   18  C7  UNL     1      59.209  -5.589  47.920  1.00  0.00    -0.087 C 
HETATM   19  C8  UNL     1      57.919  -5.603  48.729  1.00  0.00     0.043 C 
BRANCH  18  20
HETATM   20  C6  UNL     1      60.302  -4.811  48.504  1.00  0.00     0.037 C 
BRANCH  20  21
HETATM   21  C5  UNL     1      59.880  -3.363  48.699  1.00  0.00     0.031 C 
BRANCH  21  22
HETATM   22  C4  UNL     1      60.810  -2.436  48.025  1.00  0.00    -0.024 C 
HETATM   23  C2  UNL     1      60.858  -1.174  48.383  1.00  0.00    -0.091 C 
HETATM   24  C1  UNL     1      59.983  -0.667  49.462  1.00  0.00     0.042 C 
HETATM   25  C3  UNL     1      61.791  -0.245  47.708  1.00  0.00     0.042 C 
ENDBRANCH  21  22
ENDBRANCH  20  21
ENDBRANCH  18  20
ENDBRANCH  16  17
ENDBRANCH  15  16
BRANCH  15  26
HETATM   26  C12 UNL     1      58.615  -5.991  44.278  1.00  0.00     0.187 C 
BRANCH  26  27
HETATM   27  O1  UNL     1      58.282  -5.056  43.308  1.00  0.00    -0.399 OA
ATOM     28  H1  UNL     1      58.361  -4.215  43.743  1.00  0.00     0.209 HD
ENDBRANCH  26  27
ENDBRANCH  15  26
BRANCH  15  29
HETATM   29  C13 UNL     1      60.777  -6.704  43.585  1.00  0.00     0.187 C 
HETATM   30  O2  UNL     1      61.978  -7.149  43.736  1.00  0.00    -0.647 OA
HETATM   31  O3  UNL     1      60.141  -7.165  42.469  1.00  0.00    -0.647 OA
ENDBRANCH  15  29
ENDBRANCH  12  15
ENDBRANCH  10  11
ENDBRANCH   9  10
ENDBRANCH   7   9
ENDBRANCH   1   6
TORSDOF 13
ENDMDL
MODEL 4
REMARK VINA RESULT: -5.457503157      1.290      1.844
REMARK  13 active torsions:
REMARK  status: ('A' for Active; 'I' for Inactive)
REMARK    1  A    between atoms: C4_4  and  C5_5 
REMARK    2  A    between atoms: C5_5  and  C6_6 
REMARK    3  A    between atoms: C6_6  and  C7_7 
REMARK    4  A    between atoms: C9_9  and  C10_10 
REMARK    5  A    between atoms: C10_10  and  C11_11 
REMARK    6  A    between atoms: C11_11  and  C12_12 
REMARK    7  A    between atoms: C11_11  and  C13_15 
REMARK    8  A    between atoms: C11_11  and  C14_18 
REMARK    9  A    between atoms: C12_12  and  O1_13 
REMARK   10  A    between atoms: C15_20  and  C17_22 
REMARK   11  A    between atoms: C17_22  and  C18_23 
REMARK   12  A    between atoms: C18_23  and  C19_24 
REMARK   13  A    between atoms: C20_25  and  C22_27 
ROOT
HETATM    1  C22 UNL     1      66.868  -0.418  45.541  1.00  0.00     0.024 C 
HETATM    2  C23 UNL     1      68.147  -0.222  45.593  1.00  0.00     0.019 C 
HETATM    3  C24 UNL     1      68.587   0.679  46.778  1.00  0.00     0.060 C 
HETATM    4  C25 UNL     1      69.183  -0.693  44.747  1.00  0.00     0.094 C 
HETATM    5  N1  UNL     1      70.063  -1.055  44.079  1.00  0.00    -0.192 NA
ENDROOT
BRANCH   1   6
HETATM    6  C20 UNL     1      66.169  -1.205  44.561  1.00  0.00    -0.065 C 
HETATM    7  C19 UNL     1      65.860  -2.453  44.765  1.00  0.00    -0.020 C 
HETATM    8  C21 UNL     1      65.814  -0.593  43.205  1.00  0.00     0.048 C 
BRANCH   7   9
HETATM    9  C18 UNL     1      66.088  -3.239  45.952  1.00  0.00     0.030 C 
BRANCH   9  10
HETATM   10  C17 UNL     1      64.848  -3.790  46.617  1.00  0.00     0.044 C 
BRANCH  10  11
HETATM   11  C15 UNL     1      64.092  -2.940  47.529  1.00  0.00     0.085 A 
HETATM   12  C14 UNL     1      62.720  -2.944  47.844  1.00  0.00     0.178 A 
HETATM   13  O4  UNL     1      63.235  -1.993  46.787  1.00  0.00    -0.368 OA
HETATM   14  C16 UNL     1      64.979  -2.262  48.581  1.00  0.00     0.049 C 
BRANCH  12  15
HETATM   15  C11 UNL     1      61.518  -3.597  47.308  1.00  0.00     0.101 C 
BRANCH  15  16
HETATM   16  C10 UNL     1      61.462  -5.087  47.619  1.00  0.00     0.053 C 
BRANCH  16  17
HETATM   17  C9  UNL     1      60.212  -5.595  48.123  1.00  0.00    -0.023 C 
HETATM   18  C7  UNL     1      59.402  -6.356  47.468  1.00  0.00    -0.087 C 
HETATM   19  C8  UNL     1      58.125  -6.791  48.175  1.00  0.00     0.043 C 
BRANCH  18  20
HETATM   20  C6  UNL     1      59.561  -6.862  46.103  1.00  0.00     0.037 C 
BRANCH  20  21
HETATM   21  C5  UNL     1      58.373  -7.730  45.717  1.00  0.00     0.031 C 
BRANCH  21  22
HETATM   22  C4  UNL     1      58.784  -8.840  44.835  1.00  0.00    -0.024 C 
HETATM   23  C2  UNL     1      58.823 -10.069  45.296  1.00  0.00    -0.091 C 
HETATM   24  C1  UNL     1      58.459 -10.354  46.701  1.00  0.00     0.042 C 
HETATM   25  C3  UNL     1      59.235 -11.182  44.412  1.00  0.00     0.042 C 
ENDBRANCH  21  22
ENDBRANCH  20  21
ENDBRANCH  18  20
ENDBRANCH  16  17
ENDBRANCH  15  16
BRANCH  15  26
HETATM   26  C12 UNL     1      60.334  -3.026  48.157  1.00  0.00     0.187 C 
BRANCH  26  27
HETATM   27  O1  UNL     1      60.697  -1.718  48.442  1.00  0.00    -0.399 OA
ATOM     28  H1  UNL     1      60.742  -1.678  49.391  1.00  0.00     0.209 HD
ENDBRANCH  26  27
ENDBRANCH  15  26
BRANCH  15  29
HETATM   29  C13 UNL     1      61.112  -3.410  45.940  1.00  0.00     0.187 C 
HETATM   30  O2  UNL     1      60.240  -2.532  45.577  1.00  0.00    -0.647 OA
HETATM   31  O3  UNL     1      61.626  -4.152  44.918  1.00  0.00    -0.647 OA
ENDBRANCH  15  29
ENDBRANCH  12  15
ENDBRANCH  10  11
ENDBRANCH   9  10
ENDBRANCH   7   9
ENDBRANCH   1   6
TORSDOF 13
ENDMDL
MODEL 5
REMARK VINA RESULT: -5.447318279      1.253      2.143
REMARK  13 active torsions:
REMARK  status: ('A' for Active; 'I' for Inactive)
REMARK    1  A    between atoms: C4_4  and  C5_5 
REMARK    2  A    between atoms: C5_5  and  C6_6 
REMARK    3  A    between atoms: C6_6  and  C7_7 
REMARK    4  A    between atoms: C9_9  and  C10_10 
REMARK    5  A    between atoms: C10_10  and  C11_11 
REMARK    6  A    between atoms: C11_11  and  C12_12 
REMARK    7  A    between atoms: C11_11  and  C13_15 
REMARK    8  A    between atoms: C11_11  and  C14_18 
REMARK    9  A    between atoms: C12_12  and  O1_13 
REMARK   10  A    between atoms: C15_20  and  C17_22 
REMARK   11  A    between atoms: C17_22  and  C18_23 
REMARK   12  A    between atoms: C18_23  and  C19_24 
REMARK   13  A    between atoms: C20_25  and  C22_27 
ROOT
HETATM    1  C22 UNL     1      65.626  -1.835  45.358  1.00  0.00     0.024 C 
HETATM    2  C23 UNL     1      66.224  -0.694  45.227  1.00  0.00     0.019 C 
HETATM    3  C24 UNL     1      65.528   0.257  44.217  1.00  0.00     0.060 C 
HETATM    4  C25 UNL     1      67.394  -0.194  45.852  1.00  0.00     0.094 C 
HETATM    5  N1  UNL     1      68.350   0.254  46.339  1.00  0.00    -0.192 NA
ENDROOT
BRANCH   1   6
HETATM    6  C20 UNL     1      66.034  -2.914  46.217  1.00  0.00    -0.065 C 
HETATM    7  C19 UNL     1      65.515  -3.095  47.397  1.00  0.00    -0.020 C 
HETATM    8  C21 UNL     1      67.151  -3.860  45.774  1.00  0.00     0.048 C 
BRANCH   7   9
HETATM    9  C18 UNL     1      64.459  -2.341  48.025  1.00  0.00     0.030 C 
BRANCH   9  10
HETATM   10  C17 UNL     1      63.125  -3.045  48.124  1.00  0.00     0.044 C 
BRANCH  10  11
HETATM   11  C15 UNL     1      62.010  -2.573  47.311  1.00  0.00     0.085 A 
HETATM   12  C14 UNL     1      61.093  -3.295  46.524  1.00  0.00     0.178 A 
HETATM   13  O4  UNL     1      62.315  -2.691  45.870  1.00  0.00    -0.368 OA
HETATM   14  C16 UNL     1      61.528  -1.175  47.719  1.00  0.00     0.049 C 
BRANCH  12  15
HETATM   15  C11 UNL     1      60.974  -4.680  46.051  1.00  0.00     0.101 C 
BRANCH  15  16
HETATM   16  C10 UNL     1      60.552  -5.649  47.148  1.00  0.00     0.053 C 
BRANCH  16  17
HETATM   17  C9  UNL     1      59.339  -5.333  47.859  1.00  0.00    -0.023 C 
HETATM   18  C7  UNL     1      58.419  -6.181  48.171  1.00  0.00    -0.087 C 
HETATM   19  C8  UNL     1      57.208  -5.651  48.927  1.00  0.00     0.043 C 
BRANCH  18  20
HETATM   20  C6  UNL     1      58.395  -7.616  47.885  1.00  0.00     0.037 C 
BRANCH  20  21
HETATM   21  C5  UNL     1      57.789  -7.875  46.514  1.00  0.00     0.031 C 
BRANCH  21  22
HETATM   22  C4  UNL     1      58.067  -9.250  46.055  1.00  0.00    -0.024 C 
HETATM   23  C2  UNL     1      58.890  -9.457  45.053  1.00  0.00    -0.091 C 
HETATM   24  C1  UNL     1      59.547  -8.318  44.376  1.00  0.00     0.042 C 
HETATM   25  C3  UNL     1      59.170 -10.835  44.593  1.00  0.00     0.042 C 
ENDBRANCH  21  22
ENDBRANCH  20  21
ENDBRANCH  18  20
ENDBRANCH  16  17
ENDBRANCH  15  16
BRANCH  15  26
HETATM   26  C12 UNL     1      59.731  -4.679  45.100  1.00  0.00     0.187 C 
BRANCH  26  27
HETATM   27  O1  UNL     1      59.816  -3.481  44.404  1.00  0.00    -0.399 OA
ATOM     28  H1  UNL     1      59.461  -2.829  44.996  1.00  0.00     0.209 HD
ENDBRANCH  26  27
ENDBRANCH  15  26
BRANCH  15  29
HETATM   29  C13 UNL     1      62.021  -5.301  45.283  1.00  0.00     0.187 C 
HETATM   30  O2  UNL     1      61.965  -5.449  44.004  1.00  0.00    -0.647 OA
HETATM   31  O3  UNL     1      63.160  -5.783  45.858  1.00  0.00    -0.647 OA
ENDBRANCH  15  29
ENDBRANCH  12  15
ENDBRANCH  10  11
ENDBRANCH   9  10
ENDBRANCH   7   9
ENDBRANCH   1   6
TORSDOF 13
ENDMDL
