MODEL 1
REMARK VINA RESULT: -6.647529366      0.000      0.000
REMARK  11 active torsions:
REMARK  status: ('A' for Active; 'I' for Inactive)
REMARK    1  A    between atoms: C2_2  and  C3_3 
REMARK    2  A    between atoms: C3_3  and  C4_4 
REMARK    3  A    between atoms: C6_7  and  O1_8 
REMARK    4  A    between atoms: C9_12  and  O2_13 
REMARK    5  A    between atoms: N1_24  and  C18_25 
REMARK    6  A    between atoms: C18_25  and  C19_26 
REMARK    7  A    between atoms: C19_26  and  N2_27 
REMARK    8  A    between atoms: N2_27  and  C21_29 
REMARK    9  A    between atoms: C21_29  and  O5_30 
REMARK   10  A    between atoms: C21_29  and  C22_32 
REMARK   11  A    between atoms: C22_32  and  O6_33 
ROOT
HETATM    1  C4  UNL     1     -15.246  10.147  -7.258  1.00  0.00    -0.004 A 
HETATM    2  C5  UNL     1     -15.528  11.488  -7.126  1.00  0.00     0.053 A 
HETATM    3 BR1  UNL     1     -15.328  12.641  -8.629  1.00  0.00    -0.047 Br
HETATM    4  C6  UNL     1     -15.954  11.991  -5.889  1.00  0.00     0.090 A 
HETATM    5  C7  UNL     1     -16.088  11.126  -4.808  1.00  0.00    -0.014 A 
HETATM    6  C8  UNL     1     -15.802   9.798  -4.969  1.00  0.00    -0.013 A 
HETATM    7  C9  UNL     1     -15.379   9.271  -6.174  1.00  0.00     0.083 A 
HETATM    8  C11 UNL     1     -15.958   8.880  -3.819  1.00  0.00     0.068 C 
HETATM    9  C12 UNL     1     -15.467   9.601  -2.595  1.00  0.00     0.098 C 
HETATM   10  C13 UNL     1     -16.275  10.855  -2.324  1.00  0.00     0.045 C 
HETATM   11  C14 UNL     1     -16.529  11.670  -3.530  1.00  0.00     0.051 C 
HETATM   12  C15 UNL     1     -15.489  11.665  -1.315  1.00  0.00     0.167 A 
HETATM   13  O3  UNL     1     -14.092  11.352  -1.197  1.00  0.00    -0.365 OA
HETATM   14  C16 UNL     1     -14.976  10.956  -0.203  1.00  0.00     0.243 A 
HETATM   15  C17 UNL     1     -15.465   9.549  -0.165  1.00  0.00     0.252 C 
HETATM   16  O4  UNL     1     -15.769   9.083   0.962  1.00  0.00    -0.270 OA
HETATM   17  N1  UNL     1     -15.564   8.816  -1.381  1.00  0.00    -0.343 N 
ENDROOT
BRANCH  17  18
HETATM   18  C18 UNL     1     -15.781   7.415  -1.346  1.00  0.00     0.146 C 
BRANCH  18  19
HETATM   19  C19 UNL     1     -14.608   6.505  -1.276  1.00  0.00     0.144 C 
BRANCH  19  20
HETATM   20  N2  UNL     1     -14.397   5.791  -0.072  1.00  0.00    -0.366 N 
HETATM   21  C20 UNL     1     -15.066   4.483   0.147  1.00  0.00     0.151 C 
BRANCH  20  22
HETATM   22  C21 UNL     1     -13.583   6.207   0.975  1.00  0.00     0.137 C 
BRANCH  22  23
HETATM   23  O5  UNL     1     -14.192   6.732   2.024  1.00  0.00    -0.348 OA
ATOM     24  H5  UNL     1     -13.794   7.508   2.402  1.00  0.00     0.219 HD
ENDBRANCH  22  23
BRANCH  22  25
HETATM   25  C22 UNL     1     -12.120   6.154   1.107  1.00  0.00     0.247 C 
BRANCH  25  26
HETATM   26  O6  UNL     1     -11.438   5.225   0.389  1.00  0.00    -0.393 OA
ATOM     27  H6  UNL     1     -11.028   4.504   0.854  1.00  0.00     0.210 HD
ENDBRANCH  25  26
ENDBRANCH  22  25
ENDBRANCH  20  22
ENDBRANCH  19  20
ENDBRANCH  18  19
ENDBRANCH  17  18
BRANCH   7  28
HETATM   28  O2  UNL     1     -15.102   7.918  -6.282  1.00  0.00    -0.355 OA
HETATM   29  C10 UNL     1     -16.183   7.041  -6.610  1.00  0.00     0.210 C 
ENDBRANCH   7  28
BRANCH   4  30
HETATM   30  O1  UNL     1     -16.218  13.348  -5.835  1.00  0.00    -0.359 OA
ATOM     31  H1  UNL     1     -16.115  13.765  -4.987  1.00  0.00     0.217 HD
ENDBRANCH   4  30
BRANCH   1  32
HETATM   32  C3  UNL     1     -14.803   9.625  -8.561  1.00  0.00     0.042 C 
BRANCH  32  33
HETATM   33  C2  UNL     1     -13.317   9.643  -8.747  1.00  0.00     0.000 C 
HETATM   34  C1  UNL     1     -12.999  10.049 -10.183  1.00  0.00     0.005 C 
ENDBRANCH  32  33
ENDBRANCH   1  32
TORSDOF 11
ENDMDL
MODEL 2
REMARK VINA RESULT: -6.633414514      4.834      8.465
REMARK  11 active torsions:
REMARK  status: ('A' for Active; 'I' for Inactive)
REMARK    1  A    between atoms: C2_2  and  C3_3 
REMARK    2  A    between atoms: C3_3  and  C4_4 
REMARK    3  A    between atoms: C6_7  and  O1_8 
REMARK    4  A    between atoms: C9_12  and  O2_13 
REMARK    5  A    between atoms: N1_24  and  C18_25 
REMARK    6  A    between atoms: C18_25  and  C19_26 
REMARK    7  A    between atoms: C19_26  and  N2_27 
REMARK    8  A    between atoms: N2_27  and  C21_29 
REMARK    9  A    between atoms: C21_29  and  O5_30 
REMARK   10  A    between atoms: C21_29  and  C22_32 
REMARK   11  A    between atoms: C22_32  and  O6_33 
ROOT
HETATM    1  C4  UNL     1     -17.102   4.913  -7.858  1.00  0.00    -0.004 A 
HETATM    2  C5  UNL     1     -17.416   4.875  -6.518  1.00  0.00     0.053 A 
HETATM    3 BR1  UNL     1     -18.445   3.425  -5.836  1.00  0.00    -0.047 Br
HETATM    4  C6  UNL     1     -16.979   5.903  -5.672  1.00  0.00     0.090 A 
HETATM    5  C7  UNL     1     -16.231   6.951  -6.197  1.00  0.00    -0.014 A 
HETATM    6  C8  UNL     1     -15.933   6.962  -7.533  1.00  0.00    -0.013 A 
HETATM    7  C9  UNL     1     -16.350   5.964  -8.394  1.00  0.00     0.083 A 
HETATM    8  C11 UNL     1     -15.128   8.073  -8.085  1.00  0.00     0.068 C 
HETATM    9  C12 UNL     1     -15.584   9.339  -7.417  1.00  0.00     0.098 C 
HETATM   10  C13 UNL     1     -15.371   9.288  -5.917  1.00  0.00     0.045 C 
HETATM   11  C14 UNL     1     -15.790   8.012  -5.301  1.00  0.00     0.051 C 
HETATM   12  C15 UNL     1     -16.174  10.427  -5.328  1.00  0.00     0.167 A 
HETATM   13  O3  UNL     1     -17.221  10.962  -6.154  1.00  0.00    -0.365 OA
HETATM   14  C16 UNL     1     -16.049  11.682  -5.971  1.00  0.00     0.243 A 
HETATM   15  C17 UNL     1     -14.998  11.665  -7.027  1.00  0.00     0.252 C 
HETATM   16  O4  UNL     1     -14.267  12.683  -7.118  1.00  0.00    -0.270 OA
HETATM   17  N1  UNL     1     -14.873  10.520  -7.863  1.00  0.00    -0.343 N 
ENDROOT
BRANCH  17  18
HETATM   18  C18 UNL     1     -14.062  10.577  -9.024  1.00  0.00     0.146 C 
BRANCH  18  19
HETATM   19  C19 UNL     1     -12.789  11.343  -8.978  1.00  0.00     0.144 C 
BRANCH  19  20
HETATM   20  N2  UNL     1     -12.565  12.315  -9.982  1.00  0.00    -0.366 N 
HETATM   21  C20 UNL     1     -12.962  13.728  -9.754  1.00  0.00     0.151 C 
BRANCH  20  22
HETATM   22  C21 UNL     1     -11.976  12.071 -11.218  1.00  0.00     0.137 C 
BRANCH  22  23
HETATM   23  O5  UNL     1     -11.253  13.051 -11.730  1.00  0.00    -0.348 OA
ATOM     24  H5  UNL     1     -11.186  13.078 -12.678  1.00  0.00     0.219 HD
ENDBRANCH  22  23
BRANCH  22  25
HETATM   25  C22 UNL     1     -12.028  10.870 -12.063  1.00  0.00     0.247 C 
BRANCH  25  26
HETATM   26  O6  UNL     1     -11.302  10.855 -13.211  1.00  0.00    -0.393 OA
ATOM     27  H6  UNL     1     -11.394  10.111 -13.795  1.00  0.00     0.210 HD
ENDBRANCH  25  26
ENDBRANCH  22  25
ENDBRANCH  20  22
ENDBRANCH  19  20
ENDBRANCH  18  19
ENDBRANCH  17  18
BRANCH   7  28
HETATM   28  O2  UNL     1     -16.021   6.024  -9.738  1.00  0.00    -0.355 OA
HETATM   29  C10 UNL     1     -16.958   6.638 -10.627  1.00  0.00     0.210 C 
ENDBRANCH   7  28
BRANCH   4  30
HETATM   30  O1  UNL     1     -17.332   5.795  -4.338  1.00  0.00    -0.359 OA
ATOM     31  H1  UNL     1     -18.214   6.068  -4.111  1.00  0.00     0.217 HD
ENDBRANCH   4  30
BRANCH   1  32
HETATM   32  C3  UNL     1     -17.561   3.827  -8.740  1.00  0.00     0.042 C 
BRANCH  32  33
HETATM   33  C2  UNL     1     -18.906   4.072  -9.352  1.00  0.00     0.000 C 
HETATM   34  C1  UNL     1     -19.125   3.077 -10.487  1.00  0.00     0.005 C 
ENDBRANCH  32  33
ENDBRANCH   1  32
TORSDOF 11
ENDMDL
MODEL 3
REMARK VINA RESULT: -6.556970643      0.979      1.297
REMARK  11 active torsions:
REMARK  status: ('A' for Active; 'I' for Inactive)
REMARK    1  A    between atoms: C2_2  and  C3_3 
REMARK    2  A    between atoms: C3_3  and  C4_4 
REMARK    3  A    between atoms: C6_7  and  O1_8 
REMARK    4  A    between atoms: C9_12  and  O2_13 
REMARK    5  A    between atoms: N1_24  and  C18_25 
REMARK    6  A    between atoms: C18_25  and  C19_26 
REMARK    7  A    between atoms: C19_26  and  N2_27 
REMARK    8  A    between atoms: N2_27  and  C21_29 
REMARK    9  A    between atoms: C21_29  and  O5_30 
REMARK   10  A    between atoms: C21_29  and  C22_32 
REMARK   11  A    between atoms: C22_32  and  O6_33 
ROOT
HETATM    1  C4  UNL     1     -15.211  10.182  -7.122  1.00  0.00    -0.004 A 
HETATM    2  C5  UNL     1     -15.484  11.531  -7.080  1.00  0.00     0.053 A 
HETATM    3 BR1  UNL     1     -15.294  12.576  -8.661  1.00  0.00    -0.047 Br
HETATM    4  C6  UNL     1     -15.893  12.121  -5.877  1.00  0.00     0.090 A 
HETATM    5  C7  UNL     1     -16.021  11.335  -4.737  1.00  0.00    -0.014 A 
HETATM    6  C8  UNL     1     -15.744   9.996  -4.808  1.00  0.00    -0.013 A 
HETATM    7  C9  UNL     1     -15.337   9.384  -5.979  1.00  0.00     0.083 A 
HETATM    8  C11 UNL     1     -15.892   9.162  -3.596  1.00  0.00     0.068 C 
HETATM    9  C12 UNL     1     -15.385   9.962  -2.430  1.00  0.00     0.098 C 
HETATM   10  C13 UNL     1     -16.182  11.238  -2.238  1.00  0.00     0.045 C 
HETATM   11  C14 UNL     1     -16.444  11.969  -3.495  1.00  0.00     0.051 C 
HETATM   12  C15 UNL     1     -15.381  12.110  -1.297  1.00  0.00     0.167 A 
HETATM   13  O3  UNL     1     -13.984  11.797  -1.172  1.00  0.00    -0.365 OA
HETATM   14  C16 UNL     1     -14.860  11.477  -0.144  1.00  0.00     0.243 A 
HETATM   15  C17 UNL     1     -15.356  10.079  -0.002  1.00  0.00     0.252 C 
HETATM   16  O4  UNL     1     -15.650   9.694   1.157  1.00  0.00    -0.270 OA
HETATM   17  N1  UNL     1     -15.472   9.264  -1.164  1.00  0.00    -0.343 N 
ENDROOT
BRANCH  17  18
HETATM   18  C18 UNL     1     -15.697   7.870  -1.030  1.00  0.00     0.146 C 
BRANCH  18  19
HETATM   19  C19 UNL     1     -14.528   6.955  -0.961  1.00  0.00     0.144 C 
BRANCH  19  20
HETATM   20  N2  UNL     1     -14.110   6.512   0.317  1.00  0.00    -0.366 N 
HETATM   21  C20 UNL     1     -12.665   6.345   0.613  1.00  0.00     0.151 C 
BRANCH  20  22
HETATM   22  C21 UNL     1     -14.957   6.208   1.377  1.00  0.00     0.137 C 
BRANCH  22  23
HETATM   23  O5  UNL     1     -15.007   7.087   2.363  1.00  0.00    -0.348 OA
ATOM     24  H5  UNL     1     -15.873   7.367   2.638  1.00  0.00     0.219 HD
ENDBRANCH  22  23
BRANCH  22  25
HETATM   25  C22 UNL     1     -15.828   5.042   1.581  1.00  0.00     0.247 C 
BRANCH  25  26
HETATM   26  O6  UNL     1     -15.785   4.034   0.671  1.00  0.00    -0.393 OA
ATOM     27  H6  UNL     1     -16.260   4.140  -0.145  1.00  0.00     0.210 HD
ENDBRANCH  25  26
ENDBRANCH  22  25
ENDBRANCH  20  22
ENDBRANCH  19  20
ENDBRANCH  18  19
ENDBRANCH  17  18
BRANCH   7  28
HETATM   28  O2  UNL     1     -15.069   8.026  -5.996  1.00  0.00    -0.355 OA
HETATM   29  C10 UNL     1     -16.142   7.139  -6.323  1.00  0.00     0.210 C 
ENDBRANCH   7  28
BRANCH   4  30
HETATM   30  O1  UNL     1     -16.150  13.481  -5.914  1.00  0.00    -0.359 OA
ATOM     31  H1  UNL     1     -16.364  13.893  -5.085  1.00  0.00     0.217 HD
ENDBRANCH   4  30
BRANCH   1  32
HETATM   32  C3  UNL     1     -14.785   9.568  -8.391  1.00  0.00     0.042 C 
BRANCH  32  33
HETATM   33  C2  UNL     1     -13.304   9.606  -8.614  1.00  0.00     0.000 C 
HETATM   34  C1  UNL     1     -13.030   9.946 -10.075  1.00  0.00     0.005 C 
ENDBRANCH  32  33
ENDBRANCH   1  32
TORSDOF 11
ENDMDL
MODEL 4
REMARK VINA RESULT: -6.415557623      1.990      3.291
REMARK  11 active torsions:
REMARK  status: ('A' for Active; 'I' for Inactive)
REMARK    1  A    between atoms: C2_2  and  C3_3 
REMARK    2  A    between atoms: C3_3  and  C4_4 
REMARK    3  A    between atoms: C6_7  and  O1_8 
REMARK    4  A    between atoms: C9_12  and  O2_13 
REMARK    5  A    between atoms: N1_24  and  C18_25 
REMARK    6  A    between atoms: C18_25  and  C19_26 
REMARK    7  A    between atoms: C19_26  and  N2_27 
REMARK    8  A    between atoms: N2_27  and  C21_29 
REMARK    9  A    between atoms: C21_29  and  O5_30 
REMARK   10  A    between atoms: C21_29  and  C22_32 
REMARK   11  A    between atoms: C22_32  and  O6_33 
ROOT
HETATM    1  C4  UNL     1     -15.231  10.192  -7.118  1.00  0.00    -0.004 A 
HETATM    2  C5  UNL     1     -15.495  11.543  -7.098  1.00  0.00     0.053 A 
HETATM    3 BR1  UNL     1     -15.288  12.562  -8.693  1.00  0.00    -0.047 Br
HETATM    4  C6  UNL     1     -15.907  12.153  -5.906  1.00  0.00     0.090 A 
HETATM    5  C7  UNL     1     -16.046  11.385  -4.755  1.00  0.00    -0.014 A 
HETATM    6  C8  UNL     1     -15.778  10.044  -4.805  1.00  0.00    -0.013 A 
HETATM    7  C9  UNL     1     -15.369   9.412  -5.964  1.00  0.00     0.083 A 
HETATM    8  C11 UNL     1     -15.939   9.229  -3.582  1.00  0.00     0.068 C 
HETATM    9  C12 UNL     1     -15.433  10.043  -2.424  1.00  0.00     0.098 C 
HETATM   10  C13 UNL     1     -16.223  11.326  -2.256  1.00  0.00     0.045 C 
HETATM   11  C14 UNL     1     -16.473  12.040  -3.526  1.00  0.00     0.051 C 
HETATM   12  C15 UNL     1     -15.421  12.208  -1.323  1.00  0.00     0.167 A 
HETATM   13  O3  UNL     1     -14.027  11.887  -1.185  1.00  0.00    -0.365 OA
HETATM   14  C16 UNL     1     -14.911  11.588  -0.158  1.00  0.00     0.243 A 
HETATM   15  C17 UNL     1     -15.417  10.195   0.001  1.00  0.00     0.252 C 
HETATM   16  O4  UNL     1     -15.721   9.830   1.164  1.00  0.00    -0.270 OA
HETATM   17  N1  UNL     1     -15.532   9.364  -1.148  1.00  0.00    -0.343 N 
ENDROOT
BRANCH  17  18
HETATM   18  C18 UNL     1     -15.767   7.974  -0.995  1.00  0.00     0.146 C 
BRANCH  18  19
HETATM   19  C19 UNL     1     -17.141   7.506  -0.676  1.00  0.00     0.144 C 
BRANCH  19  20
HETATM   20  N2  UNL     1     -18.038   7.305  -1.753  1.00  0.00    -0.366 N 
HETATM   21  C20 UNL     1     -17.917   6.098  -2.609  1.00  0.00     0.151 C 
BRANCH  20  22
HETATM   22  C21 UNL     1     -19.075   8.162  -2.104  1.00  0.00     0.137 C 
BRANCH  22  23
HETATM   23  O5  UNL     1     -19.068   9.357  -1.539  1.00  0.00    -0.348 OA
ATOM     24  H5  UNL     1     -18.221   9.778  -1.449  1.00  0.00     0.219 HD
ENDBRANCH  22  23
BRANCH  22  25
HETATM   25  C22 UNL     1     -20.201   7.949  -3.024  1.00  0.00     0.247 C 
BRANCH  25  26
HETATM   26  O6  UNL     1     -20.519   8.939  -3.898  1.00  0.00    -0.393 OA
ATOM     27  H6  UNL     1     -21.437   9.107  -4.078  1.00  0.00     0.210 HD
ENDBRANCH  25  26
ENDBRANCH  22  25
ENDBRANCH  20  22
ENDBRANCH  19  20
ENDBRANCH  18  19
ENDBRANCH  17  18
BRANCH   7  28
HETATM   28  O2  UNL     1     -15.110   8.052  -5.959  1.00  0.00    -0.355 OA
HETATM   29  C10 UNL     1     -16.197   7.165  -6.239  1.00  0.00     0.210 C 
ENDBRANCH   7  28
BRANCH   4  30
HETATM   30  O1  UNL     1     -16.154  13.514  -5.965  1.00  0.00    -0.359 OA
ATOM     31  H1  UNL     1     -15.755  13.985  -6.687  1.00  0.00     0.217 HD
ENDBRANCH   4  30
BRANCH   1  32
HETATM   32  C3  UNL     1     -14.802   9.556  -8.375  1.00  0.00     0.042 C 
BRANCH  32  33
HETATM   33  C2  UNL     1     -13.322   9.601  -8.602  1.00  0.00     0.000 C 
HETATM   34  C1  UNL     1     -13.052   9.923 -10.068  1.00  0.00     0.005 C 
ENDBRANCH  32  33
ENDBRANCH   1  32
TORSDOF 11
ENDMDL
MODEL 5
REMARK VINA RESULT: -6.398108212      2.278      3.268
REMARK  11 active torsions:
REMARK  status: ('A' for Active; 'I' for Inactive)
REMARK    1  A    between atoms: C2_2  and  C3_3 
REMARK    2  A    between atoms: C3_3  and  C4_4 
REMARK    3  A    between atoms: C6_7  and  O1_8 
REMARK    4  A    between atoms: C9_12  and  O2_13 
REMARK    5  A    between atoms: N1_24  and  C18_25 
REMARK    6  A    between atoms: C18_25  and  C19_26 
REMARK    7  A    between atoms: C19_26  and  N2_27 
REMARK    8  A    between atoms: N2_27  and  C21_29 
REMARK    9  A    between atoms: C21_29  and  O5_30 
REMARK   10  A    between atoms: C21_29  and  C22_32 
REMARK   11  A    between atoms: C22_32  and  O6_33 
ROOT
HETATM    1  C4  UNL     1     -15.188   9.879  -7.034  1.00  0.00    -0.004 A 
HETATM    2  C5  UNL     1     -14.921  11.133  -7.536  1.00  0.00     0.053 A 
HETATM    3 BR1  UNL     1     -13.841  11.308  -9.095  1.00  0.00    -0.047 Br
HETATM    4  C6  UNL     1     -15.440  12.265  -6.893  1.00  0.00     0.090 A 
HETATM    5  C7  UNL     1     -16.223  12.107  -5.754  1.00  0.00    -0.014 A 
HETATM    6  C8  UNL     1     -16.473  10.849  -5.279  1.00  0.00    -0.013 A 
HETATM    7  C9  UNL     1     -15.975   9.713  -5.888  1.00  0.00     0.083 A 
HETATM    8  C11 UNL     1     -17.316  10.685  -4.074  1.00  0.00     0.068 C 
HETATM    9  C12 UNL     1     -16.950  11.781  -3.113  1.00  0.00     0.098 C 
HETATM   10  C13 UNL     1     -17.213  13.153  -3.703  1.00  0.00     0.045 C 
HETATM   11  C14 UNL     1     -16.750  13.297  -5.100  1.00  0.00     0.051 C 
HETATM   12  C15 UNL     1     -16.492  14.148  -2.821  1.00  0.00     0.167 A 
HETATM   13  O3  UNL     1     -15.445  13.621  -1.989  1.00  0.00    -0.365 OA
HETATM   14  C16 UNL     1     -16.659  13.986  -1.425  1.00  0.00     0.243 A 
HETATM   15  C17 UNL     1     -17.670  12.940  -1.102  1.00  0.00     0.252 C 
HETATM   16  O4  UNL     1     -18.449  13.178  -0.145  1.00  0.00    -0.270 OA
HETATM   17  N1  UNL     1     -17.705  11.747  -1.877  1.00  0.00    -0.343 N 
ENDROOT
BRANCH  17  18
HETATM   18  C18 UNL     1     -18.477  10.641  -1.439  1.00  0.00     0.146 C 
BRANCH  18  19
HETATM   19  C19 UNL     1     -17.905   9.719  -0.424  1.00  0.00     0.144 C 
BRANCH  19  20
HETATM   20  N2  UNL     1     -16.862   8.853  -0.831  1.00  0.00    -0.366 N 
HETATM   21  C20 UNL     1     -17.177   7.586  -1.537  1.00  0.00     0.151 C 
BRANCH  20  22
HETATM   22  C21 UNL     1     -15.505   9.083  -0.633  1.00  0.00     0.137 C 
BRANCH  22  23
HETATM   23  O5  UNL     1     -14.980   8.593   0.477  1.00  0.00    -0.348 OA
ATOM     24  H5  UNL     1     -14.496   7.780   0.395  1.00  0.00     0.219 HD
ENDBRANCH  22  23
BRANCH  22  25
HETATM   25  C22 UNL     1     -14.538   9.797  -1.479  1.00  0.00     0.247 C 
BRANCH  25  26
HETATM   26  O6  UNL     1     -14.211  11.074  -1.152  1.00  0.00    -0.393 OA
ATOM     27  H6  UNL     1     -13.562  11.524  -1.680  1.00  0.00     0.210 HD
ENDBRANCH  25  26
ENDBRANCH  22  25
ENDBRANCH  20  22
ENDBRANCH  19  20
ENDBRANCH  18  19
ENDBRANCH  17  18
BRANCH   7  28
HETATM   28  O2  UNL     1     -16.259   8.462  -5.365  1.00  0.00    -0.355 OA
HETATM   29  C10 UNL     1     -15.236   7.808  -4.610  1.00  0.00     0.210 C 
ENDBRANCH   7  28
BRANCH   4  30
HETATM   30  O1  UNL     1     -15.129  13.490  -7.457  1.00  0.00    -0.359 OA
ATOM     31  H1  UNL     1     -15.660  14.228  -7.183  1.00  0.00     0.217 HD
ENDBRANCH   4  30
BRANCH   1  32
HETATM   32  C3  UNL     1     -14.643   8.694  -7.717  1.00  0.00     0.042 C 
BRANCH  32  33
HETATM   33  C2  UNL     1     -15.583   8.083  -8.711  1.00  0.00     0.000 C 
HETATM   34  C1  UNL     1     -15.962   6.682  -8.241  1.00  0.00     0.005 C 
ENDBRANCH  32  33
ENDBRANCH   1  32
TORSDOF 11
ENDMDL
