MODEL 1
REMARK VINA RESULT: -7.785644794      0.000      0.000
REMARK  3 active torsions:
REMARK  status: ('A' for Active; 'I' for Inactive)
REMARK    1  A    between atoms: C2_2  and  C3_3 
REMARK    2  A    between atoms: C3_3  and  N1_4 
REMARK    3  A    between atoms: N1_4  and  C4_6 
ROOT
HETATM    1  C4  UNL     1      43.944  43.707 -12.984  1.00  0.00     0.123 A 
HETATM    2  N2  UNL     1      43.005  44.618 -13.335  1.00  0.00    -0.338 N 
ATOM      3  H2  UNL     1      42.023  44.582 -13.060  1.00  0.00     0.167 HD
HETATM    4  C5  UNL     1      43.555  45.574 -14.096  1.00  0.00     0.089 A 
HETATM    5  C6  UNL     1      43.050  46.706 -14.701  1.00  0.00     0.182 A 
HETATM    6  F1  UNL     1      41.754  47.030 -14.579  1.00  0.00    -0.200 F 
HETATM    7  C7  UNL     1      43.871  47.543 -15.453  1.00  0.00     0.164 A 
HETATM    8  F2  UNL     1      43.390  48.642 -16.044  1.00  0.00    -0.202 F 
HETATM    9  C8  UNL     1      45.207  47.242 -15.600  1.00  0.00     0.003 A 
HETATM   10  C9  UNL     1      46.109  48.132 -16.409  1.00  0.00     0.053 C 
HETATM   11  C10 UNL     1      45.678  46.108 -14.985  1.00  0.00     0.057 A 
HETATM   12 CL1  UNL     1      47.368  45.719 -15.164  1.00  0.00    -0.083 Cl
HETATM   13  C11 UNL     1      44.899  45.256 -14.234  1.00  0.00     0.041 A 
HETATM   14  C12 UNL     1      45.151  44.079 -13.535  1.00  0.00     0.102 A 
HETATM   15  C13 UNL     1      46.422  43.423 -13.433  1.00  0.00     0.104 C 
HETATM   16  N3  UNL     1      47.444  42.884 -13.340  1.00  0.00    -0.191 NA
ENDROOT
BRANCH   1  17
HETATM   17  N1  UNL     1      43.772  42.543 -12.186  1.00  0.00    -0.375 N 
ATOM     18  H1  UNL     1      43.890  41.615 -12.592  1.00  0.00     0.161 HD
BRANCH  17  19
HETATM   19  C3  UNL     1      43.426  42.698 -10.786  1.00  0.00     0.121 C 
BRANCH  19  20
HETATM   20  C2  UNL     1      44.334  43.654 -10.074  1.00  0.00     0.015 C 
HETATM   21  C1  UNL     1      44.329  43.306  -8.588  1.00  0.00     0.006 C 
ENDBRANCH  19  20
ENDBRANCH  17  19
ENDBRANCH   1  17
TORSDOF 3
ENDMDL
MODEL 2
REMARK VINA RESULT: -7.751138277      2.573      4.015
REMARK  3 active torsions:
REMARK  status: ('A' for Active; 'I' for Inactive)
REMARK    1  A    between atoms: C2_2  and  C3_3 
REMARK    2  A    between atoms: C3_3  and  N1_4 
REMARK    3  A    between atoms: N1_4  and  C4_6 
ROOT
HETATM    1  C4  UNL     1      46.251  44.295 -14.112  1.00  0.00     0.123 A 
HETATM    2  N2  UNL     1      47.077  45.060 -14.865  1.00  0.00    -0.338 N 
ATOM      3  H2  UNL     1      48.050  44.837 -15.078  1.00  0.00     0.167 HD
HETATM    4  C5  UNL     1      46.429  46.152 -15.291  1.00  0.00     0.089 A 
HETATM    5  C6  UNL     1      46.803  47.228 -16.070  1.00  0.00     0.182 A 
HETATM    6  F1  UNL     1      48.045  47.317 -16.566  1.00  0.00    -0.200 F 
HETATM    7  C7  UNL     1      45.900  48.248 -16.363  1.00  0.00     0.164 A 
HETATM    8  F2  UNL     1      46.253  49.294 -17.117  1.00  0.00    -0.202 F 
HETATM    9  C8  UNL     1      44.615  48.189 -15.871  1.00  0.00     0.003 A 
HETATM   10  C9  UNL     1      43.626  49.280 -16.174  1.00  0.00     0.053 C 
HETATM   11  C10 UNL     1      44.276  47.105 -15.099  1.00  0.00     0.057 A 
HETATM   12 CL1  UNL     1      42.651  47.021 -14.471  1.00  0.00    -0.083 Cl
HETATM   13  C11 UNL     1      45.138  46.077 -14.787  1.00  0.00     0.041 A 
HETATM   14  C12 UNL     1      45.019  44.907 -14.042  1.00  0.00     0.102 A 
HETATM   15  C13 UNL     1      43.838  44.468 -13.358  1.00  0.00     0.104 C 
HETATM   16  N3  UNL     1      42.888  44.099 -12.804  1.00  0.00    -0.191 NA
ENDROOT
BRANCH   1  17
HETATM   17  N1  UNL     1      46.549  43.059 -13.475  1.00  0.00    -0.375 N 
ATOM     18  H1  UNL     1      46.632  43.007 -12.460  1.00  0.00     0.161 HD
BRANCH  17  19
HETATM   19  C3  UNL     1      46.734  41.875 -14.293  1.00  0.00     0.121 C 
BRANCH  19  20
HETATM   20  C2  UNL     1      45.434  41.236 -14.676  1.00  0.00     0.015 C 
HETATM   21  C1  UNL     1      45.557  40.719 -16.107  1.00  0.00     0.006 C 
ENDBRANCH  19  20
ENDBRANCH  17  19
ENDBRANCH   1  17
TORSDOF 3
ENDMDL
MODEL 3
REMARK VINA RESULT: -7.418165274      5.211      7.381
REMARK  3 active torsions:
REMARK  status: ('A' for Active; 'I' for Inactive)
REMARK    1  A    between atoms: C2_2  and  C3_3 
REMARK    2  A    between atoms: C3_3  and  N1_4 
REMARK    3  A    between atoms: N1_4  and  C4_6 
ROOT
HETATM    1  C4  UNL     1      46.983  47.917 -17.308  1.00  0.00     0.123 A 
HETATM    2  N2  UNL     1      46.550  47.145 -18.335  1.00  0.00    -0.338 N 
ATOM      3  H2  UNL     1      45.962  46.317 -18.237  1.00  0.00     0.167 HD
HETATM    4  C5  UNL     1      47.008  47.630 -19.497  1.00  0.00     0.089 A 
HETATM    5  C6  UNL     1      46.865  47.229 -20.809  1.00  0.00     0.182 A 
HETATM    6  F1  UNL     1      46.140  46.144 -21.120  1.00  0.00    -0.200 F 
HETATM    7  C7  UNL     1      47.467  47.940 -21.845  1.00  0.00     0.164 A 
HETATM    8  F2  UNL     1      47.333  47.559 -23.120  1.00  0.00    -0.202 F 
HETATM    9  C8  UNL     1      48.218  49.059 -21.563  1.00  0.00     0.003 A 
HETATM   10  C9  UNL     1      48.876  49.839 -22.666  1.00  0.00     0.053 C 
HETATM   11  C10 UNL     1      48.341  49.431 -20.247  1.00  0.00     0.057 A 
HETATM   12 CL1  UNL     1      49.290  50.847 -19.879  1.00  0.00    -0.083 Cl
HETATM   13  C11 UNL     1      47.763  48.755 -19.195  1.00  0.00     0.041 A 
HETATM   14  C12 UNL     1      47.750  48.942 -17.816  1.00  0.00     0.102 A 
HETATM   15  C13 UNL     1      48.413  49.998 -17.109  1.00  0.00     0.104 C 
HETATM   16  N3  UNL     1      48.942  50.850 -16.525  1.00  0.00    -0.191 NA
ENDROOT
BRANCH   1  17
HETATM   17  N1  UNL     1      46.721  47.746 -15.922  1.00  0.00    -0.375 N 
ATOM     18  H1  UNL     1      47.486  47.728 -15.248  1.00  0.00     0.161 HD
BRANCH  17  19
HETATM   19  C3  UNL     1      45.347  47.596 -15.480  1.00  0.00     0.121 C 
BRANCH  19  20
HETATM   20  C2  UNL     1      44.446  48.651 -16.045  1.00  0.00     0.015 C 
HETATM   21  C1  UNL     1      43.000  48.208 -15.842  1.00  0.00     0.006 C 
ENDBRANCH  19  20
ENDBRANCH  17  19
ENDBRANCH   1  17
TORSDOF 3
ENDMDL
MODEL 4
REMARK VINA RESULT: -7.368282629      1.709      2.464
REMARK  3 active torsions:
REMARK  status: ('A' for Active; 'I' for Inactive)
REMARK    1  A    between atoms: C2_2  and  C3_3 
REMARK    2  A    between atoms: C3_3  and  N1_4 
REMARK    3  A    between atoms: N1_4  and  C4_6 
ROOT
HETATM    1  C4  UNL     1      44.062  43.678 -13.707  1.00  0.00     0.123 A 
HETATM    2  N2  UNL     1      43.041  44.532 -13.961  1.00  0.00    -0.338 N 
ATOM      3  H2  UNL     1      42.059  44.347 -13.756  1.00  0.00     0.167 HD
HETATM    4  C5  UNL     1      43.510  45.655 -14.520  1.00  0.00     0.089 A 
HETATM    5  C6  UNL     1      42.906  46.813 -14.962  1.00  0.00     0.182 A 
HETATM    6  F1  UNL     1      41.577  46.974 -14.868  1.00  0.00    -0.200 F 
HETATM    7  C7  UNL     1      43.658  47.847 -15.516  1.00  0.00     0.164 A 
HETATM    8  F2  UNL     1      43.080  48.974 -15.947  1.00  0.00    -0.202 F 
HETATM    9  C8  UNL     1      45.024  47.718 -15.627  1.00  0.00     0.003 A 
HETATM   10  C9  UNL     1      45.853  48.822 -16.223  1.00  0.00     0.053 C 
HETATM   11  C10 UNL     1      45.594  46.552 -15.178  1.00  0.00     0.057 A 
HETATM   12 CL1  UNL     1      47.324  46.379 -15.315  1.00  0.00    -0.083 Cl
HETATM   13  C11 UNL     1      44.886  45.508 -14.626  1.00  0.00     0.041 A 
HETATM   14  C12 UNL     1      45.241  44.263 -14.114  1.00  0.00     0.102 A 
HETATM   15  C13 UNL     1      46.573  43.736 -14.044  1.00  0.00     0.104 C 
HETATM   16  N3  UNL     1      47.645  43.300 -13.977  1.00  0.00    -0.191 NA
ENDROOT
BRANCH   1  17
HETATM   17  N1  UNL     1      43.989  42.385 -13.121  1.00  0.00    -0.375 N 
ATOM     18  H1  UNL     1      43.530  42.249 -12.221  1.00  0.00     0.161 HD
BRANCH  17  19
HETATM   19  C3  UNL     1      44.579  41.262 -13.825  1.00  0.00     0.121 C 
BRANCH  19  20
HETATM   20  C2  UNL     1      44.132  41.182 -15.253  1.00  0.00     0.015 C 
HETATM   21  C1  UNL     1      45.337  40.811 -16.114  1.00  0.00     0.006 C 
ENDBRANCH  19  20
ENDBRANCH  17  19
ENDBRANCH   1  17
TORSDOF 3
ENDMDL
MODEL 5
REMARK VINA RESULT: -7.344995833      7.570      9.163
REMARK  3 active torsions:
REMARK  status: ('A' for Active; 'I' for Inactive)
REMARK    1  A    between atoms: C2_2  and  C3_3 
REMARK    2  A    between atoms: C3_3  and  N1_4 
REMARK    3  A    between atoms: N1_4  and  C4_6 
ROOT
HETATM    1  C4  UNL     1      46.564  46.128 -20.822  1.00  0.00     0.123 A 
HETATM    2  N2  UNL     1      47.220  46.031 -19.640  1.00  0.00    -0.338 N 
ATOM      3  H2  UNL     1      47.159  45.239 -19.000  1.00  0.00     0.167 HD
HETATM    4  C5  UNL     1      47.961  47.129 -19.436  1.00  0.00     0.089 A 
HETATM    5  C6  UNL     1      48.799  47.526 -18.414  1.00  0.00     0.182 A 
HETATM    6  F1  UNL     1      48.999  46.740 -17.346  1.00  0.00    -0.200 F 
HETATM    7  C7  UNL     1      49.460  48.751 -18.465  1.00  0.00     0.164 A 
HETATM    8  F2  UNL     1      50.273  49.144 -17.479  1.00  0.00    -0.202 F 
HETATM    9  C8  UNL     1      49.279  49.583 -19.547  1.00  0.00     0.003 A 
HETATM   10  C9  UNL     1      49.982  50.910 -19.620  1.00  0.00     0.053 C 
HETATM   11  C10 UNL     1      48.439  49.159 -20.546  1.00  0.00     0.057 A 
HETATM   12 CL1  UNL     1      48.203  50.206 -21.921  1.00  0.00    -0.083 Cl
HETATM   13  C11 UNL     1      47.768  47.956 -20.533  1.00  0.00     0.041 A 
HETATM   14  C12 UNL     1      46.887  47.331 -21.412  1.00  0.00     0.102 A 
HETATM   15  C13 UNL     1      46.435  47.863 -22.664  1.00  0.00     0.104 C 
HETATM   16  N3  UNL     1      46.065  48.281 -23.680  1.00  0.00    -0.191 NA
ENDROOT
BRANCH   1  17
HETATM   17  N1  UNL     1      45.679  45.181 -21.405  1.00  0.00    -0.375 N 
ATOM     18  H1  UNL     1      44.867  44.846 -20.889  1.00  0.00     0.161 HD
BRANCH  17  19
HETATM   19  C3  UNL     1      45.951  44.701 -22.747  1.00  0.00     0.121 C 
BRANCH  19  20
HETATM   20  C2  UNL     1      47.380  44.289 -22.929  1.00  0.00     0.015 C 
HETATM   21  C1  UNL     1      47.405  42.841 -23.411  1.00  0.00     0.006 C 
ENDBRANCH  19  20
ENDBRANCH  17  19
ENDBRANCH   1  17
TORSDOF 3
ENDMDL
