MODEL 1
REMARK VINA RESULT: -8.828748911      0.000      0.000
REMARK  13 active torsions:
REMARK  status: ('A' for Active; 'I' for Inactive)
REMARK    1  A    between atoms: N1_1  and  C1_4 
REMARK    2  A    between atoms: C2_7  and  C3_8 
REMARK    3  A    between atoms: C4_10  and  C5_11 
REMARK    4  A    between atoms: N5_16  and  C6_17 
REMARK    5  A    between atoms: C6_17  and  C7_18 
REMARK    6  A    between atoms: C7_18  and  N6_19 
REMARK    7  A    between atoms: C7_18  and  C12_31 
REMARK       I    between atoms: N6_19  and  C8_21 
REMARK    8  A    between atoms: C8_21  and  O2_23 
REMARK    9  A    between atoms: O2_23  and  C9_24 
REMARK   10  A    between atoms: C9_24  and  C10_25 
REMARK   11  A    between atoms: C9_24  and  C11_28 
REMARK   12  A    between atoms: C10_25  and  O3_26 
REMARK   13  A    between atoms: C11_28  and  O4_29 
ROOT
HETATM    1  C7  UNL     1       0.392  17.542  69.687  1.00  0.00     0.162 C 
ENDROOT
BRANCH   1   2
HETATM    2  C6  UNL     1       1.667  17.037  70.260  1.00  0.00     0.202 C 
BRANCH   2   3
HETATM    3  N5  UNL     1       1.855  17.429  71.640  1.00  0.00    -0.216 N 
HETATM    4  N4  UNL     1       1.572  16.780  72.742  1.00  0.00    -0.224 N 
HETATM    5  N3  UNL     1       1.875  17.515  73.771  1.00  0.00    -0.268 N 
ATOM      6  H4  UNL     1       1.174  15.841  72.786  1.00  0.00     0.210 HD
HETATM    7  C5  UNL     1       2.367  18.677  73.365  1.00  0.00     0.155 A 
ATOM      8  H3  UNL     1       1.752  17.239  74.745  1.00  0.00     0.190 HD
HETATM    9  N14 UNL     1       2.354  18.620  72.030  1.00  0.00    -0.266 N 
ATOM     10  H14 UNL     1       2.672  19.360  71.405  1.00  0.00     0.190 HD
BRANCH   7  11
HETATM   11  C4  UNL     1       2.827  19.819  74.159  1.00  0.00     0.103 A 
HETATM   12  C2  UNL     1       2.288  21.062  74.016  1.00  0.00     0.056 A 
HETATM   13  N2  UNL     1       2.789  22.055  74.788  1.00  0.00    -0.194 N 
HETATM   14  C1  UNL     1       3.779  21.880  75.677  1.00  0.00     0.679 A 
ATOM     15  H2  UNL     1       2.391  22.989  74.689  1.00  0.00     0.184 HD
HETATM   16  N15 UNL     1       4.300  20.657  75.810  1.00  0.00    -0.155 N 
HETATM   17  C17 UNL     1       3.842  19.624  75.067  1.00  0.00     0.275 A 
ATOM     18  H15 UNL     1       5.051  20.500  76.481  1.00  0.00     0.187 HD
HETATM   19  O5  UNL     1       4.360  18.496  75.224  1.00  0.00    -0.267 OA
BRANCH  12  20
HETATM   20  C3  UNL     1       1.169  21.339  73.048  1.00  0.00     0.145 C 
HETATM   21  S1  UNL     1       0.277  22.814  73.654  1.00  0.00    -0.091 SA
ENDBRANCH  12  20
BRANCH  14  22
HETATM   22  N1  UNL     1       4.244  22.854  76.415  1.00  0.00    -0.234 N 
ATOM     23  H12 UNL     1       3.619  23.612  76.688  1.00  0.00     0.174 HD
ATOM     24  H11 UNL     1       5.214  22.892  76.728  1.00  0.00     0.174 HD
ENDBRANCH  14  22
ENDBRANCH   7  11
ENDBRANCH   2   3
ENDBRANCH   1   2
BRANCH   1  25
HETATM   25  N6  UNL     1       0.523  18.991  69.449  1.00  0.00    -0.325 N 
HETATM   26  C8  UNL     1       0.988  19.544  68.249  1.00  0.00     0.361 C 
HETATM   27  O1  UNL     1       1.337  18.890  67.248  1.00  0.00    -0.238 OA
ATOM     28  H6  UNL     1       0.261  19.628  70.202  1.00  0.00     0.165 HD
BRANCH  26  29
HETATM   29  O2  UNL     1       1.087  20.927  68.116  1.00  0.00    -0.294 OA
BRANCH  29  30
HETATM   30  C9  UNL     1       1.804  21.537  67.076  1.00  0.00     0.180 C 
BRANCH  30  31
HETATM   31  C10 UNL     1       1.004  22.027  65.934  1.00  0.00     0.199 C 
BRANCH  31  32
HETATM   32  O3  UNL     1       0.627  20.886  65.184  1.00  0.00    -0.398 OA
ATOM     33  H3  UNL     1      -0.266  20.679  65.435  1.00  0.00     0.209 HD
ENDBRANCH  31  32
ENDBRANCH  30  31
BRANCH  30  34
HETATM   34  C11 UNL     1       2.643  22.626  67.738  1.00  0.00     0.199 C 
BRANCH  34  35
HETATM   35  O4  UNL     1       2.782  23.754  66.973  1.00  0.00    -0.398 OA
ATOM     36  H4  UNL     1       2.415  24.533  67.374  1.00  0.00     0.209 HD
ENDBRANCH  34  35
ENDBRANCH  30  34
ENDBRANCH  29  30
ENDBRANCH  26  29
ENDBRANCH   1  25
BRANCH   1  37
HETATM   37  C12 UNL     1      -0.772  17.440  70.637  1.00  0.00     0.094 A 
HETATM   38  N7  UNL     1      -1.191  18.376  71.490  1.00  0.00    -0.188 N 
HETATM   39  C13 UNL     1      -2.284  17.951  72.160  1.00  0.00     0.707 A 
ATOM     40  H7  UNL     1      -0.748  19.286  71.619  1.00  0.00     0.184 HD
HETATM   41  N8  UNL     1      -3.060  18.511  73.098  1.00  0.00    -0.173 N 
HETATM   42  N12 UNL     1      -2.555  16.707  71.710  1.00  0.00    -0.069 N 
HETATM   43  C14 UNL     1      -4.115  17.872  73.616  1.00  0.00     0.174 A 
ATOM     44  H8  UNL     1      -2.840  19.451  73.426  1.00  0.00     0.185 HD
HETATM   45  N9  UNL     1      -4.954  18.438  74.608  1.00  0.00    -0.078 NA
HETATM   46  C15 UNL     1      -4.385  16.613  73.157  1.00  0.00     0.173 A 
HETATM   47  N10 UNL     1      -5.474  15.832  73.622  1.00  0.00    -0.078 NA
HETATM   48  N11 UNL     1      -3.594  16.070  72.216  1.00  0.00    -0.262 N 
ATOM     49  H11 UNL     1      -3.805  15.130  71.881  1.00  0.00     0.189 HD
HETATM   50  C16 UNL     1      -1.628  16.369  70.764  1.00  0.00     0.181 A 
HETATM   51  N13 UNL     1      -1.630  15.115  70.091  1.00  0.00    -0.078 NA
ENDBRANCH   1  37
TORSDOF 13
ENDMDL
MODEL 2
REMARK VINA RESULT: -8.827092081      0.986      1.634
REMARK  13 active torsions:
REMARK  status: ('A' for Active; 'I' for Inactive)
REMARK    1  A    between atoms: N1_1  and  C1_4 
REMARK    2  A    between atoms: C2_7  and  C3_8 
REMARK    3  A    between atoms: C4_10  and  C5_11 
REMARK    4  A    between atoms: N5_16  and  C6_17 
REMARK    5  A    between atoms: C6_17  and  C7_18 
REMARK    6  A    between atoms: C7_18  and  N6_19 
REMARK    7  A    between atoms: C7_18  and  C12_31 
REMARK       I    between atoms: N6_19  and  C8_21 
REMARK    8  A    between atoms: C8_21  and  O2_23 
REMARK    9  A    between atoms: O2_23  and  C9_24 
REMARK   10  A    between atoms: C9_24  and  C10_25 
REMARK   11  A    between atoms: C9_24  and  C11_28 
REMARK   12  A    between atoms: C10_25  and  O3_26 
REMARK   13  A    between atoms: C11_28  and  O4_29 
ROOT
HETATM    1  C7  UNL     1       0.495  17.889  69.679  1.00  0.00     0.162 C 
ENDROOT
BRANCH   1   2
HETATM    2  C6  UNL     1       1.592  17.087  70.282  1.00  0.00     0.202 C 
BRANCH   2   3
HETATM    3  N5  UNL     1       1.858  17.449  71.657  1.00  0.00    -0.216 N 
HETATM    4  N4  UNL     1       1.690  16.754  72.755  1.00  0.00    -0.224 N 
HETATM    5  N3  UNL     1       2.028  17.474  73.783  1.00  0.00    -0.268 N 
ATOM      6  H4  UNL     1       1.346  15.794  72.797  1.00  0.00     0.210 HD
HETATM    7  C5  UNL     1       2.428  18.673  73.381  1.00  0.00     0.155 A 
ATOM      8  H3  UNL     1       1.990  17.164  74.754  1.00  0.00     0.190 HD
HETATM    9  N14 UNL     1       2.321  18.653  72.050  1.00  0.00    -0.266 N 
ATOM     10  H14 UNL     1       2.554  19.427  71.428  1.00  0.00     0.190 HD
BRANCH   7  11
HETATM   11  C4  UNL     1       2.884  19.815  74.177  1.00  0.00     0.103 A 
HETATM   12  C2  UNL     1       2.352  21.059  74.026  1.00  0.00     0.056 A 
HETATM   13  N2  UNL     1       2.848  22.053  74.801  1.00  0.00    -0.194 N 
HETATM   14  C1  UNL     1       3.828  21.876  75.700  1.00  0.00     0.679 A 
ATOM     15  H2  UNL     1       2.455  22.988  74.696  1.00  0.00     0.184 HD
HETATM   16  N15 UNL     1       4.343  20.651  75.842  1.00  0.00    -0.155 N 
HETATM   17  C17 UNL     1       3.889  19.618  75.096  1.00  0.00     0.275 A 
ATOM     18  H15 UNL     1       5.087  20.493  76.521  1.00  0.00     0.187 HD
HETATM   19  O5  UNL     1       4.401  18.488  75.261  1.00  0.00    -0.267 OA
BRANCH  12  20
HETATM   20  C3  UNL     1       1.244  21.338  73.046  1.00  0.00     0.145 C 
HETATM   21  S1  UNL     1       0.311  22.779  73.674  1.00  0.00    -0.091 SA
ENDBRANCH  12  20
BRANCH  14  22
HETATM   22  N1  UNL     1       4.290  22.850  76.441  1.00  0.00    -0.234 N 
ATOM     23  H12 UNL     1       3.715  23.680  76.583  1.00  0.00     0.174 HD
ATOM     24  H11 UNL     1       5.209  22.817  76.882  1.00  0.00     0.174 HD
ENDBRANCH  14  22
ENDBRANCH   7  11
ENDBRANCH   2   3
ENDBRANCH   1   2
BRANCH   1  25
HETATM   25  N6  UNL     1       1.052  19.170  69.208  1.00  0.00    -0.325 N 
HETATM   26  C8  UNL     1       1.502  19.389  67.900  1.00  0.00     0.361 C 
HETATM   27  O1  UNL     1       1.484  18.544  66.986  1.00  0.00    -0.238 OA
ATOM     28  H6  UNL     1       1.114  19.941  69.873  1.00  0.00     0.165 HD
BRANCH  26  29
HETATM   29  O2  UNL     1       2.022  20.632  67.546  1.00  0.00    -0.294 OA
BRANCH  29  30
HETATM   30  C9  UNL     1       1.233  21.651  66.991  1.00  0.00     0.180 C 
BRANCH  30  31
HETATM   31  C10 UNL     1       1.565  23.030  67.404  1.00  0.00     0.199 C 
BRANCH  31  32
HETATM   32  O3  UNL     1       2.927  23.020  67.792  1.00  0.00    -0.398 OA
ATOM     33  H3  UNL     1       2.957  23.332  68.688  1.00  0.00     0.209 HD
ENDBRANCH  31  32
ENDBRANCH  30  31
BRANCH  30  34
HETATM   34  C11 UNL     1       1.293  21.441  65.481  1.00  0.00     0.199 C 
BRANCH  34  35
HETATM   35  O4  UNL     1       0.408  20.503  65.021  1.00  0.00    -0.398 OA
ATOM     36  H4  UNL     1      -0.350  20.875  64.587  1.00  0.00     0.209 HD
ENDBRANCH  34  35
ENDBRANCH  30  34
ENDBRANCH  29  30
ENDBRANCH  26  29
ENDBRANCH   1  25
BRANCH   1  37
HETATM   37  C12 UNL     1      -0.560  18.300  70.671  1.00  0.00     0.094 A 
HETATM   38  N7  UNL     1      -0.936  19.545  70.967  1.00  0.00    -0.188 N 
HETATM   39  C13 UNL     1      -1.933  19.535  71.877  1.00  0.00     0.707 A 
ATOM     40  H7  UNL     1      -0.527  20.388  70.562  1.00  0.00     0.184 HD
HETATM   41  N8  UNL     1      -2.637  20.505  72.477  1.00  0.00    -0.173 N 
HETATM   42  N12 UNL     1      -2.188  18.240  72.159  1.00  0.00    -0.069 N 
HETATM   43  C14 UNL     1      -3.601  20.234  73.364  1.00  0.00     0.174 A 
ATOM     44  H8  UNL     1      -2.431  21.478  72.252  1.00  0.00     0.185 HD
HETATM   45  N9  UNL     1      -4.363  21.237  74.013  1.00  0.00    -0.078 NA
HETATM   46  C15 UNL     1      -3.855  18.920  73.646  1.00  0.00     0.173 A 
HETATM   47  N10 UNL     1      -4.852  18.500  74.563  1.00  0.00    -0.078 NA
HETATM   48  N11 UNL     1      -3.138  17.963  73.033  1.00  0.00    -0.262 N 
ATOM     49  H11 UNL     1      -3.335  16.987  73.251  1.00  0.00     0.189 HD
HETATM   50  C16 UNL     1      -1.346  17.455  71.421  1.00  0.00     0.181 A 
HETATM   51  N13 UNL     1      -1.355  16.033  71.489  1.00  0.00    -0.078 NA
ENDBRANCH   1  37
TORSDOF 13
ENDMDL
MODEL 3
REMARK VINA RESULT: -8.693467296      3.604      7.344
REMARK  13 active torsions:
REMARK  status: ('A' for Active; 'I' for Inactive)
REMARK    1  A    between atoms: N1_1  and  C1_4 
REMARK    2  A    between atoms: C2_7  and  C3_8 
REMARK    3  A    between atoms: C4_10  and  C5_11 
REMARK    4  A    between atoms: N5_16  and  C6_17 
REMARK    5  A    between atoms: C6_17  and  C7_18 
REMARK    6  A    between atoms: C7_18  and  N6_19 
REMARK    7  A    between atoms: C7_18  and  C12_31 
REMARK       I    between atoms: N6_19  and  C8_21 
REMARK    8  A    between atoms: C8_21  and  O2_23 
REMARK    9  A    between atoms: O2_23  and  C9_24 
REMARK   10  A    between atoms: C9_24  and  C10_25 
REMARK   11  A    between atoms: C9_24  and  C11_28 
REMARK   12  A    between atoms: C10_25  and  O3_26 
REMARK   13  A    between atoms: C11_28  and  O4_29 
ROOT
HETATM    1  C7  UNL     1       1.158  20.181  70.875  1.00  0.00     0.162 C 
ENDROOT
BRANCH   1   2
HETATM    2  C6  UNL     1       1.815  20.131  69.542  1.00  0.00     0.202 C 
BRANCH   2   3
HETATM    3  N5  UNL     1       1.417  21.223  68.680  1.00  0.00    -0.216 N 
HETATM    4  N4  UNL     1       0.220  21.665  68.386  1.00  0.00    -0.224 N 
HETATM    5  N3  UNL     1       0.314  22.650  67.543  1.00  0.00    -0.268 N 
ATOM      6  H4  UNL     1      -0.653  21.293  68.761  1.00  0.00     0.210 HD
HETATM    7  C5  UNL     1       1.589  22.879  67.259  1.00  0.00     0.155 A 
ATOM      8  H3  UNL     1      -0.475  23.170  67.157  1.00  0.00     0.190 HD
HETATM    9  N14 UNL     1       2.277  21.984  67.973  1.00  0.00    -0.266 N 
ATOM     10  H14 UNL     1       3.292  21.892  67.983  1.00  0.00     0.190 HD
BRANCH   7  11
HETATM   11  C4  UNL     1       2.175  23.872  66.355  1.00  0.00     0.103 A 
HETATM   12  C2  UNL     1       2.180  23.705  65.003  1.00  0.00     0.056 A 
HETATM   13  N2  UNL     1       2.755  24.674  64.253  1.00  0.00    -0.194 N 
HETATM   14  C1  UNL     1       3.317  25.778  64.767  1.00  0.00     0.679 A 
ATOM     15  H2  UNL     1       2.763  24.558  63.239  1.00  0.00     0.184 HD
HETATM   16  N15 UNL     1       3.307  25.934  66.094  1.00  0.00    -0.155 N 
HETATM   17  C17 UNL     1       2.747  25.000  66.896  1.00  0.00     0.275 A 
ATOM     18  H15 UNL     1       3.725  26.767  66.507  1.00  0.00     0.187 HD
HETATM   19  O5  UNL     1       2.760  25.186  68.134  1.00  0.00    -0.267 OA
BRANCH  12  20
HETATM   20  C3  UNL     1       1.563  22.498  64.347  1.00  0.00     0.145 C 
HETATM   21  S1  UNL     1       2.819  21.172  64.354  1.00  0.00    -0.091 SA
ENDBRANCH  12  20
BRANCH  14  22
HETATM   22  N1  UNL     1       3.864  26.704  64.022  1.00  0.00    -0.234 N 
ATOM     23  H12 UNL     1       4.326  26.433  63.154  1.00  0.00     0.174 HD
ATOM     24  H11 UNL     1       3.854  27.691  64.277  1.00  0.00     0.174 HD
ENDBRANCH  14  22
ENDBRANCH   7  11
ENDBRANCH   2   3
ENDBRANCH   1   2
BRANCH   1  25
HETATM   25  N6  UNL     1       2.093  19.649  71.882  1.00  0.00    -0.325 N 
HETATM   26  C8  UNL     1       2.486  20.352  73.028  1.00  0.00     0.361 C 
HETATM   27  O1  UNL     1       2.096  21.493  73.336  1.00  0.00    -0.238 OA
ATOM     28  H6  UNL     1       2.478  18.715  71.735  1.00  0.00     0.165 HD
BRANCH  26  29
HETATM   29  O2  UNL     1       3.382  19.772  73.922  1.00  0.00    -0.294 OA
BRANCH  29  30
HETATM   30  C9  UNL     1       2.966  18.982  75.005  1.00  0.00     0.180 C 
BRANCH  30  31
HETATM   31  C10 UNL     1       3.278  17.542  74.918  1.00  0.00     0.199 C 
BRANCH  31  32
HETATM   32  O3  UNL     1       4.444  17.332  75.695  1.00  0.00    -0.398 OA
ATOM     33  H3  UNL     1       4.256  16.606  76.278  1.00  0.00     0.209 HD
ENDBRANCH  31  32
ENDBRANCH  30  31
BRANCH  30  34
HETATM   34  C11 UNL     1       3.544  19.652  76.248  1.00  0.00     0.199 C 
BRANCH  34  35
HETATM   35  O4  UNL     1       4.724  20.309  76.020  1.00  0.00    -0.398 OA
ATOM     36  H4  UNL     1       5.487  19.846  76.346  1.00  0.00     0.209 HD
ENDBRANCH  34  35
ENDBRANCH  30  34
ENDBRANCH  29  30
ENDBRANCH  26  29
ENDBRANCH   1  25
BRANCH   1  37
HETATM   37  C12 UNL     1      -0.040  19.275  70.985  1.00  0.00     0.094 A 
HETATM   38  N7  UNL     1      -0.390  18.308  70.135  1.00  0.00    -0.188 N 
HETATM   39  C13 UNL     1      -1.502  17.677  70.569  1.00  0.00     0.707 A 
ATOM     40  H7  UNL     1       0.112  18.077  69.277  1.00  0.00     0.184 HD
HETATM   41  N8  UNL     1      -2.229  16.661  70.083  1.00  0.00    -0.173 N 
HETATM   42  N12 UNL     1      -1.858  18.271  71.728  1.00  0.00    -0.069 N 
HETATM   43  C14 UNL     1      -3.315  16.202  70.716  1.00  0.00     0.174 A 
ATOM     44  H8  UNL     1      -1.945  16.224  69.207  1.00  0.00     0.185 HD
HETATM   45  N9  UNL     1      -4.101  15.129  70.228  1.00  0.00    -0.078 NA
HETATM   46  C15 UNL     1      -3.671  16.807  71.889  1.00  0.00     0.173 A 
HETATM   47  N10 UNL     1      -4.797  16.415  72.657  1.00  0.00    -0.078 NA
HETATM   48  N11 UNL     1      -2.929  17.825  72.358  1.00  0.00    -0.262 N 
ATOM     49  H11 UNL     1      -3.203  18.269  73.234  1.00  0.00     0.189 HD
HETATM   50  C16 UNL     1      -0.964  19.267  72.005  1.00  0.00     0.181 A 
HETATM   51  N13 UNL     1      -1.057  20.092  73.161  1.00  0.00    -0.078 NA
ENDBRANCH   1  37
TORSDOF 13
ENDMDL
MODEL 4
REMARK VINA RESULT: -8.690297950      1.179      1.382
REMARK  13 active torsions:
REMARK  status: ('A' for Active; 'I' for Inactive)
REMARK    1  A    between atoms: N1_1  and  C1_4 
REMARK    2  A    between atoms: C2_7  and  C3_8 
REMARK    3  A    between atoms: C4_10  and  C5_11 
REMARK    4  A    between atoms: N5_16  and  C6_17 
REMARK    5  A    between atoms: C6_17  and  C7_18 
REMARK    6  A    between atoms: C7_18  and  N6_19 
REMARK    7  A    between atoms: C7_18  and  C12_31 
REMARK       I    between atoms: N6_19  and  C8_21 
REMARK    8  A    between atoms: C8_21  and  O2_23 
REMARK    9  A    between atoms: O2_23  and  C9_24 
REMARK   10  A    between atoms: C9_24  and  C10_25 
REMARK   11  A    between atoms: C9_24  and  C11_28 
REMARK   12  A    between atoms: C10_25  and  O3_26 
REMARK   13  A    between atoms: C11_28  and  O4_29 
ROOT
HETATM    1  C7  UNL     1       0.841  18.645  69.182  1.00  0.00     0.162 C 
ENDROOT
BRANCH   1   2
HETATM    2  C6  UNL     1       2.203  18.429  69.737  1.00  0.00     0.202 C 
BRANCH   2   3
HETATM    3  N5  UNL     1       2.246  18.546  71.179  1.00  0.00    -0.216 N 
HETATM    4  N4  UNL     1       1.955  17.662  72.101  1.00  0.00    -0.224 N 
HETATM    5  N3  UNL     1       2.100  18.196  73.277  1.00  0.00    -0.268 N 
ATOM      6  H4  UNL     1       1.660  16.701  71.923  1.00  0.00     0.210 HD
HETATM    7  C5  UNL     1       2.492  19.456  73.154  1.00  0.00     0.155 A 
ATOM      8  H3  UNL     1       1.938  17.716  74.163  1.00  0.00     0.190 HD
HETATM    9  N14 UNL     1       2.583  19.672  71.840  1.00  0.00    -0.266 N 
ATOM     10  H14 UNL     1       2.863  20.551  71.404  1.00  0.00     0.190 HD
BRANCH   7  11
HETATM   11  C4  UNL     1       2.766  20.449  74.196  1.00  0.00     0.103 A 
HETATM   12  C2  UNL     1       2.067  21.615  74.286  1.00  0.00     0.056 A 
HETATM   13  N2  UNL     1       2.402  22.474  75.277  1.00  0.00    -0.194 N 
HETATM   14  C1  UNL     1       3.379  22.238  76.166  1.00  0.00     0.679 A 
ATOM     15  H2  UNL     1       1.883  23.348  75.353  1.00  0.00     0.184 HD
HETATM   16  N15 UNL     1       4.058  21.092  76.071  1.00  0.00    -0.155 N 
HETATM   17  C17 UNL     1       3.770  20.194  75.102  1.00  0.00     0.275 A 
ATOM     18  H15 UNL     1       4.803  20.891  76.738  1.00  0.00     0.187 HD
HETATM   19  O5  UNL     1       4.432  19.134  75.050  1.00  0.00    -0.267 OA
BRANCH  12  20
HETATM   20  C3  UNL     1       0.951  21.949  73.332  1.00  0.00     0.145 C 
HETATM   21  S1  UNL     1       0.122  23.449  73.968  1.00  0.00    -0.091 SA
ENDBRANCH  12  20
BRANCH  14  22
HETATM   22  N1  UNL     1       3.683  23.081  77.119  1.00  0.00    -0.234 N 
ATOM     23  H12 UNL     1       3.772  24.072  76.895  1.00  0.00     0.174 HD
ATOM     24  H11 UNL     1       3.841  22.788  78.083  1.00  0.00     0.174 HD
ENDBRANCH  14  22
ENDBRANCH   7  11
ENDBRANCH   2   3
ENDBRANCH   1   2
BRANCH   1  25
HETATM   25  N6  UNL     1       0.779  19.998  68.601  1.00  0.00    -0.325 N 
HETATM   26  C8  UNL     1       1.059  20.282  67.258  1.00  0.00     0.361 C 
HETATM   27  O1  UNL     1       1.385  19.439  66.402  1.00  0.00    -0.238 OA
ATOM     28  H6  UNL     1       0.517  20.773  69.211  1.00  0.00     0.165 HD
BRANCH  26  29
HETATM   29  O2  UNL     1       0.982  21.594  66.798  1.00  0.00    -0.294 OA
BRANCH  29  30
HETATM   30  C9  UNL     1       2.109  22.312  66.368  1.00  0.00     0.180 C 
BRANCH  30  31
HETATM   31  C10 UNL     1       2.192  22.586  64.919  1.00  0.00     0.199 C 
BRANCH  31  32
HETATM   32  O3  UNL     1       2.954  23.771  64.774  1.00  0.00    -0.398 OA
ATOM     33  H3  UNL     1       2.426  24.373  64.263  1.00  0.00     0.209 HD
ENDBRANCH  31  32
ENDBRANCH  30  31
BRANCH  30  34
HETATM   34  C11 UNL     1       2.145  23.573  67.225  1.00  0.00     0.199 C 
BRANCH  34  35
HETATM   35  O4  UNL     1       3.330  23.754  67.887  1.00  0.00    -0.398 OA
ATOM     36  H4  UNL     1       3.519  24.663  68.087  1.00  0.00     0.209 HD
ENDBRANCH  34  35
ENDBRANCH  30  34
ENDBRANCH  29  30
ENDBRANCH  26  29
ENDBRANCH   1  25
BRANCH   1  37
HETATM   37  C12 UNL     1      -0.237  18.657  70.234  1.00  0.00     0.094 A 
HETATM   38  N7  UNL     1      -0.637  19.706  70.955  1.00  0.00    -0.188 N 
HETATM   39  C13 UNL     1      -1.649  19.356  71.777  1.00  0.00     0.707 A 
ATOM     40  H7  UNL     1      -0.234  20.641  70.895  1.00  0.00     0.184 HD
HETATM   41  N8  UNL     1      -2.378  20.034  72.675  1.00  0.00    -0.173 N 
HETATM   42  N12 UNL     1      -1.889  18.045  71.561  1.00  0.00    -0.069 N 
HETATM   43  C14 UNL     1      -3.353  19.450  73.380  1.00  0.00     0.174 A 
ATOM     44  H8  UNL     1      -2.183  21.024  72.825  1.00  0.00     0.185 HD
HETATM   45  N9  UNL     1      -4.141  20.140  74.334  1.00  0.00    -0.078 NA
HETATM   46  C15 UNL     1      -3.592  18.122  73.158  1.00  0.00     0.173 A 
HETATM   47  N10 UNL     1      -4.598  17.388  73.836  1.00  0.00    -0.078 NA
HETATM   48  N11 UNL     1      -2.850  17.461  72.253  1.00  0.00    -0.262 N 
ATOM     49  H11 UNL     1      -3.036  16.471  72.096  1.00  0.00     0.189 HD
HETATM   50  C16 UNL     1      -1.023  17.590  70.607  1.00  0.00     0.181 A 
HETATM   51  N13 UNL     1      -1.011  16.242  70.150  1.00  0.00    -0.078 NA
ENDBRANCH   1  37
TORSDOF 13
ENDMDL
MODEL 5
REMARK VINA RESULT: -8.588092740      2.948      7.087
REMARK  13 active torsions:
REMARK  status: ('A' for Active; 'I' for Inactive)
REMARK    1  A    between atoms: N1_1  and  C1_4 
REMARK    2  A    between atoms: C2_7  and  C3_8 
REMARK    3  A    between atoms: C4_10  and  C5_11 
REMARK    4  A    between atoms: N5_16  and  C6_17 
REMARK    5  A    between atoms: C6_17  and  C7_18 
REMARK    6  A    between atoms: C7_18  and  N6_19 
REMARK    7  A    between atoms: C7_18  and  C12_31 
REMARK       I    between atoms: N6_19  and  C8_21 
REMARK    8  A    between atoms: C8_21  and  O2_23 
REMARK    9  A    between atoms: O2_23  and  C9_24 
REMARK   10  A    between atoms: C9_24  and  C10_25 
REMARK   11  A    between atoms: C9_24  and  C11_28 
REMARK   12  A    between atoms: C10_25  and  O3_26 
REMARK   13  A    between atoms: C11_28  and  O4_29 
ROOT
HETATM    1  C7  UNL     1       1.773  16.703  72.935  1.00  0.00     0.162 C 
ENDROOT
BRANCH   1   2
HETATM    2  C6  UNL     1       2.395  16.417  71.616  1.00  0.00     0.202 C 
BRANCH   2   3
HETATM    3  N5  UNL     1       1.735  17.101  70.525  1.00  0.00    -0.216 N 
HETATM    4  N4  UNL     1       0.799  16.676  69.712  1.00  0.00    -0.224 N 
HETATM    5  N3  UNL     1       0.512  17.609  68.854  1.00  0.00    -0.268 N 
ATOM      6  H4  UNL     1       0.364  15.754  69.748  1.00  0.00     0.210 HD
HETATM    7  C5  UNL     1       1.260  18.679  69.084  1.00  0.00     0.155 A 
ATOM      8  H3  UNL     1      -0.186  17.530  68.114  1.00  0.00     0.190 HD
HETATM    9  N14 UNL     1       2.024  18.358  70.131  1.00  0.00    -0.266 N 
ATOM     10  H14 UNL     1       2.717  18.968  70.565  1.00  0.00     0.190 HD
BRANCH   7  11
HETATM   11  C4  UNL     1       1.297  19.957  68.369  1.00  0.00     0.103 A 
HETATM   12  C2  UNL     1       0.866  21.116  68.939  1.00  0.00     0.056 A 
HETATM   13  N2  UNL     1       0.930  22.245  68.193  1.00  0.00    -0.194 N 
HETATM   14  C1  UNL     1       1.392  22.279  66.934  1.00  0.00     0.679 A 
ATOM     15  H2  UNL     1       0.611  23.118  68.612  1.00  0.00     0.184 HD
HETATM   16  N15 UNL     1       1.814  21.137  66.384  1.00  0.00    -0.155 N 
HETATM   17  C17 UNL     1       1.774  19.977  67.078  1.00  0.00     0.275 A 
ATOM     18  H15 UNL     1       2.171  21.140  65.429  1.00  0.00     0.187 HD
HETATM   19  O5  UNL     1       2.179  18.931  66.523  1.00  0.00    -0.267 OA
BRANCH  12  20
HETATM   20  C3  UNL     1       0.343  21.164  70.350  1.00  0.00     0.145 C 
HETATM   21  S1  UNL     1      -1.482  21.188  70.254  1.00  0.00    -0.091 SA
ENDBRANCH  12  20
BRANCH  14  22
HETATM   22  N1  UNL     1       1.448  23.382  66.233  1.00  0.00    -0.234 N 
ATOM     23  H12 UNL     1       0.603  23.723  65.775  1.00  0.00     0.174 HD
ATOM     24  H11 UNL     1       2.309  23.918  66.120  1.00  0.00     0.174 HD
ENDBRANCH  14  22
ENDBRANCH   7  11
ENDBRANCH   2   3
ENDBRANCH   1   2
BRANCH   1  25
HETATM   25  N6  UNL     1       0.308  16.662  72.783  1.00  0.00    -0.325 N 
HETATM   26  C8  UNL     1      -0.403  15.523  72.385  1.00  0.00     0.361 C 
HETATM   27  O1  UNL     1       0.108  14.419  72.118  1.00  0.00    -0.238 OA
ATOM     28  H6  UNL     1      -0.220  17.513  72.979  1.00  0.00     0.165 HD
BRANCH  26  29
HETATM   29  O2  UNL     1      -1.789  15.579  72.260  1.00  0.00    -0.294 OA
BRANCH  29  30
HETATM   30  C9  UNL     1      -2.489  16.790  72.150  1.00  0.00     0.180 C 
BRANCH  30  31
HETATM   31  C10 UNL     1      -2.487  17.424  70.815  1.00  0.00     0.199 C 
BRANCH  31  32
HETATM   32  O3  UNL     1      -2.313  16.381  69.872  1.00  0.00    -0.398 OA
ATOM     33  H3  UNL     1      -1.622  15.824  70.208  1.00  0.00     0.209 HD
ENDBRANCH  31  32
ENDBRANCH  30  31
BRANCH  30  34
HETATM   34  C11 UNL     1      -3.890  16.505  72.681  1.00  0.00     0.199 C 
BRANCH  34  35
HETATM   35  O4  UNL     1      -4.706  15.881  71.775  1.00  0.00    -0.398 OA
ATOM     36  H4  UNL     1      -5.279  16.476  71.306  1.00  0.00     0.209 HD
ENDBRANCH  34  35
ENDBRANCH  30  34
ENDBRANCH  29  30
ENDBRANCH  26  29
ENDBRANCH   1  25
BRANCH   1  37
HETATM   37  C12 UNL     1       2.043  18.098  73.433  1.00  0.00     0.094 A 
HETATM   38  N7  UNL     1       1.397  19.211  73.081  1.00  0.00    -0.188 N 
HETATM   39  C13 UNL     1       1.885  20.274  73.753  1.00  0.00     0.707 A 
ATOM     40  H7  UNL     1       0.639  19.252  72.398  1.00  0.00     0.184 HD
HETATM   41  N8  UNL     1       1.576  21.579  73.755  1.00  0.00    -0.173 N 
HETATM   42  N12 UNL     1       2.869  19.810  74.552  1.00  0.00    -0.069 N 
HETATM   43  C14 UNL     1       2.219  22.456  74.533  1.00  0.00     0.174 A 
ATOM     44  H8  UNL     1       0.829  21.912  73.145  1.00  0.00     0.185 HD
HETATM   45  N9  UNL     1       1.915  23.840  74.558  1.00  0.00    -0.078 NA
HETATM   46  C15 UNL     1       3.216  21.981  75.340  1.00  0.00     0.173 A 
HETATM   47  N10 UNL     1       3.970  22.806  76.213  1.00  0.00    -0.078 NA
HETATM   48  N11 UNL     1       3.509  20.670  75.323  1.00  0.00    -0.262 N 
ATOM     49  H11 UNL     1       4.254  20.326  75.928  1.00  0.00     0.189 HD
HETATM   50  C16 UNL     1       2.985  18.461  74.369  1.00  0.00     0.181 A 
HETATM   51  N13 UNL     1       3.939  17.664  75.064  1.00  0.00    -0.078 NA
ENDBRANCH   1  37
TORSDOF 13
ENDMDL
