MODEL 1
REMARK VINA RESULT: -5.347910658      0.000      0.000
REMARK  11 active torsions:
REMARK  status: ('A' for Active; 'I' for Inactive)
REMARK    1  A    between atoms: N1_2  and  C2_3 
REMARK    2  A    between atoms: N1_2  and  C12_38 
REMARK    3  A    between atoms: C2_3  and  C3_4 
REMARK    4  A    between atoms: N2_6  and  N3_7 
REMARK    5  A    between atoms: C7_14  and  N5_15 
REMARK    6  A    between atoms: C8_20  and  N7_21 
REMARK       I    between atoms: N7_21  and  C9_23 
REMARK    7  A    between atoms: N9_25  and  O1_27 
REMARK    8  A    between atoms: N10_29  and  C10_30 
REMARK    9  A    between atoms: C12_38  and  O3_39 
REMARK   10  A    between atoms: C12_38  and  C13_41 
REMARK   11  A    between atoms: C13_41  and  N14_42 
ROOT
HETATM    1  C3  UNL     1      79.288 -12.447 -51.334  1.00  0.00     0.075 A 
HETATM    2  C4  UNL     1      79.526 -13.358 -50.424  1.00  0.00     0.147 A 
HETATM    3  N2  UNL     1      78.447 -14.104 -49.844  1.00  0.00    -0.264 N 
HETATM    4  C5  UNL     1      77.117 -13.853 -50.259  1.00  0.00     0.145 A 
HETATM    5  C6  UNL     1      76.891 -12.893 -51.214  1.00  0.00     0.162 A 
HETATM    6  N4  UNL     1      75.604 -12.665 -51.597  1.00  0.00    -0.174 N 
ATOM      7  H4  UNL     1      75.392 -11.961 -52.304  1.00  0.00     0.186 HD
HETATM    8  C7  UNL     1      74.617 -13.380 -51.032  1.00  0.00     0.679 A 
HETATM    9  N6  UNL     1      74.845 -14.332 -50.085  1.00  0.00    -0.174 N 
ATOM     10  H6  UNL     1      74.060 -14.847 -49.688  1.00  0.00     0.186 HD
HETATM   11  C8  UNL     1      76.093 -14.597 -49.670  1.00  0.00     0.156 A 
HETATM   12  N10 UNL     1      77.957 -12.155 -51.788  1.00  0.00    -0.274 N 
ENDROOT
BRANCH   1  13
HETATM   13  C2  UNL     1      80.357 -11.649 -51.965  1.00  0.00     0.119 C 
BRANCH  13  14
HETATM   14  N1  UNL     1      80.764 -12.142 -53.211  1.00  0.00    -0.365 N 
HETATM   15  C1  UNL     1      80.815 -13.519 -53.446  1.00  0.00     0.151 C 
BRANCH  14  16
HETATM   16  C12 UNL     1      81.193 -11.232 -54.186  1.00  0.00     0.244 C 
BRANCH  16  17
HETATM   17  O3  UNL     1      80.501 -10.030 -54.076  1.00  0.00    -0.375 OA
ATOM     18  H3  UNL     1      80.817  -9.400 -54.713  1.00  0.00     0.212 HD
ENDBRANCH  16  17
BRANCH  16  19
HETATM   19  C13 UNL     1      81.261 -11.700 -55.600  1.00  0.00     0.282 C 
BRANCH  19  20
HETATM   20  N14 UNL     1      80.081 -11.419 -56.381  1.00  0.00    -0.075 N 
ATOM     21 3H14 UNL     1      79.558 -12.277 -56.556  1.00  0.00     0.274 HD
ATOM     22 2H14 UNL     1      79.397 -10.909 -55.820  1.00  0.00     0.274 HD
ATOM     23 1H14 UNL     1      80.260 -10.927 -57.256  1.00  0.00     0.274 HD
ENDBRANCH  19  20
ENDBRANCH  16  19
ENDBRANCH  14  16
ENDBRANCH  13  14
ENDBRANCH   1  13
BRANCH  12  24
HETATM   24  C10 UNL     1      77.719 -11.163 -52.767  1.00  0.00     0.179 A 
HETATM   25  N11 UNL     1      77.712  -9.837 -52.511  1.00  0.00    -0.222 N 
HETATM   26  O2  UNL     1      77.469  -9.210 -53.607  1.00  0.00    -0.154 OA
ATOM     27  H11 UNL     1      77.873  -9.406 -51.601  1.00  0.00     0.198 HD
HETATM   28  N12 UNL     1      77.310 -10.064 -54.597  1.00  0.00    -0.224 N 
HETATM   29  C11 UNL     1      77.458 -11.310 -54.113  1.00  0.00     0.184 A 
ATOM     30  H12 UNL     1      77.108  -9.822 -55.566  1.00  0.00     0.198 HD
HETATM   31  N13 UNL     1      77.381 -12.566 -54.770  1.00  0.00    -0.077 NA
ENDBRANCH  12  24
BRANCH   3  32
HETATM   32  N3  UNL     1      78.712 -15.082 -48.862  1.00  0.00    -0.338 N 
ATOM     33  H32 UNL     1      78.142 -15.129 -48.017  1.00  0.00     0.177 HD
ATOM     34  H31 UNL     1      79.477 -15.744 -48.993  1.00  0.00     0.177 HD
ENDBRANCH   3  32
BRANCH  11  35
HETATM   35  N7  UNL     1      76.394 -15.464 -48.799  1.00  0.00    -0.313 N 
HETATM   36  C9  UNL     1      75.695 -16.695 -48.736  1.00  0.00     0.213 C 
HETATM   37  N8  UNL     1      74.789 -16.879 -47.666  1.00  0.00    -0.061 NA
HETATM   38  N9  UNL     1      75.887 -17.627 -49.631  1.00  0.00    -0.241 N 
ATOM     39  H9  UNL     1      76.550 -17.473 -50.391  1.00  0.00     0.197 HD
ATOM     40  H7  UNL     1      77.145 -15.275 -48.136  1.00  0.00     0.170 HD
BRANCH  38  41
HETATM   41  O1  UNL     1      75.208 -18.799 -49.553  1.00  0.00    -0.287 OA
ATOM     42  H1  UNL     1      75.304 -19.454 -50.235  1.00  0.00     0.244 HD
ENDBRANCH  38  41
ENDBRANCH  11  35
BRANCH   8  43
HETATM   43  N5  UNL     1      73.387 -13.186 -51.373  1.00  0.00    -0.234 N 
ATOM     44  H52 UNL     1      73.202 -12.391 -51.986  1.00  0.00     0.174 HD
ATOM     45  H51 UNL     1      72.651 -13.807 -51.037  1.00  0.00     0.174 HD
ENDBRANCH   8  43
TORSDOF 11
ENDMDL
MODEL 2
REMARK VINA RESULT: -5.243409682      2.386      7.378
REMARK  11 active torsions:
REMARK  status: ('A' for Active; 'I' for Inactive)
REMARK    1  A    between atoms: N1_2  and  C2_3 
REMARK    2  A    between atoms: N1_2  and  C12_38 
REMARK    3  A    between atoms: C2_3  and  C3_4 
REMARK    4  A    between atoms: N2_6  and  N3_7 
REMARK    5  A    between atoms: C7_14  and  N5_15 
REMARK    6  A    between atoms: C8_20  and  N7_21 
REMARK       I    between atoms: N7_21  and  C9_23 
REMARK    7  A    between atoms: N9_25  and  O1_27 
REMARK    8  A    between atoms: N10_29  and  C10_30 
REMARK    9  A    between atoms: C12_38  and  O3_39 
REMARK   10  A    between atoms: C12_38  and  C13_41 
REMARK   11  A    between atoms: C13_41  and  N14_42 
ROOT
HETATM    1  C3  UNL     1      77.984 -15.662 -48.535  1.00  0.00     0.075 A 
HETATM    2  C4  UNL     1      78.835 -14.875 -49.143  1.00  0.00     0.147 A 
HETATM    3  N2  UNL     1      78.379 -13.925 -50.115  1.00  0.00    -0.264 N 
HETATM    4  C5  UNL     1      76.998 -13.838 -50.417  1.00  0.00     0.145 A 
HETATM    5  C6  UNL     1      76.124 -14.673 -49.767  1.00  0.00     0.162 A 
HETATM    6  N4  UNL     1      74.800 -14.574 -50.074  1.00  0.00    -0.174 N 
ATOM      7  H4  UNL     1      74.117 -15.175 -49.615  1.00  0.00     0.186 HD
HETATM    8  C7  UNL     1      74.406 -13.675 -50.991  1.00  0.00     0.679 A 
HETATM    9  N6  UNL     1      75.277 -12.847 -51.633  1.00  0.00    -0.174 N 
ATOM     10  H6  UNL     1      74.926 -12.181 -52.321  1.00  0.00     0.186 HD
HETATM   11  C8  UNL     1      76.591 -12.901 -51.370  1.00  0.00     0.156 A 
HETATM   12  N10 UNL     1      76.574 -15.613 -48.807  1.00  0.00    -0.274 N 
ENDROOT
BRANCH   1  13
HETATM   13  C2  UNL     1      78.396 -16.660 -47.528  1.00  0.00     0.119 C 
BRANCH  13  14
HETATM   14  N1  UNL     1      78.823 -16.093 -46.320  1.00  0.00    -0.365 N 
HETATM   15  C1  UNL     1      80.086 -15.503 -46.222  1.00  0.00     0.151 C 
BRANCH  14  16
HETATM   16  C12 UNL     1      77.993 -16.202 -45.197  1.00  0.00     0.244 C 
BRANCH  16  17
HETATM   17  O3  UNL     1      77.109 -17.267 -45.339  1.00  0.00    -0.375 OA
ATOM     18  H3  UNL     1      76.470 -17.271 -44.636  1.00  0.00     0.212 HD
ENDBRANCH  16  17
BRANCH  16  19
HETATM   19  C13 UNL     1      77.298 -14.972 -44.717  1.00  0.00     0.282 C 
BRANCH  19  20
HETATM   20  N14 UNL     1      76.159 -15.221 -43.868  1.00  0.00    -0.075 N 
ATOM     21 3H14 UNL     1      75.396 -15.626 -44.409  1.00  0.00     0.274 HD
ATOM     22 2H14 UNL     1      76.354 -15.994 -43.231  1.00  0.00     0.274 HD
ATOM     23 1H14 UNL     1      75.834 -14.406 -43.348  1.00  0.00     0.274 HD
ENDBRANCH  19  20
ENDBRANCH  16  19
ENDBRANCH  14  16
ENDBRANCH  13  14
ENDBRANCH   1  13
BRANCH  12  24
HETATM   24  C10 UNL     1      75.670 -16.476 -48.144  1.00  0.00     0.179 A 
HETATM   25  N11 UNL     1      74.964 -16.128 -47.047  1.00  0.00    -0.222 N 
HETATM   26  O2  UNL     1      74.239 -17.129 -46.694  1.00  0.00    -0.154 OA
ATOM     27  H11 UNL     1      75.001 -15.223 -46.578  1.00  0.00     0.198 HD
HETATM   28  N12 UNL     1      74.429 -18.143 -47.512  1.00  0.00    -0.224 N 
HETATM   29  C11 UNL     1      75.326 -17.777 -48.444  1.00  0.00     0.184 A 
ATOM     30  H12 UNL     1      73.973 -19.053 -47.449  1.00  0.00     0.198 HD
HETATM   31  N13 UNL     1      75.863 -18.503 -49.538  1.00  0.00    -0.077 NA
ENDBRANCH  12  24
BRANCH   3  32
HETATM   32  N3  UNL     1      79.303 -13.082 -50.768  1.00  0.00    -0.338 N 
ATOM     33  H32 UNL     1      78.974 -12.324 -51.367  1.00  0.00     0.177 HD
ATOM     34  H31 UNL     1      80.305 -13.230 -50.646  1.00  0.00     0.177 HD
ENDBRANCH   3  32
BRANCH  11  35
HETATM   35  N7  UNL     1      77.467 -12.170 -51.918  1.00  0.00    -0.313 N 
HETATM   36  C9  UNL     1      77.756 -12.304 -53.298  1.00  0.00     0.213 C 
HETATM   37  N8  UNL     1      78.981 -12.916 -53.653  1.00  0.00    -0.061 NA
HETATM   38  N9  UNL     1      76.925 -11.872 -54.208  1.00  0.00    -0.241 N 
ATOM     39  H9  UNL     1      76.050 -11.428 -53.927  1.00  0.00     0.197 HD
ATOM     40  H7  UNL     1      77.969 -11.479 -51.360  1.00  0.00     0.170 HD
BRANCH  38  41
HETATM   41  O1  UNL     1      77.220 -12.010 -55.525  1.00  0.00    -0.287 OA
ATOM     42  H1  UNL     1      76.951 -11.345 -56.148  1.00  0.00     0.244 HD
ENDBRANCH  38  41
ENDBRANCH  11  35
BRANCH   8  43
HETATM   43  N5  UNL     1      73.160 -13.559 -51.304  1.00  0.00    -0.234 N 
ATOM     44  H52 UNL     1      72.942 -12.955 -52.097  1.00  0.00     0.174 HD
ATOM     45  H51 UNL     1      72.442 -14.053 -50.773  1.00  0.00     0.174 HD
ENDBRANCH   8  43
TORSDOF 11
ENDMDL
MODEL 3
REMARK VINA RESULT: -5.242470563      0.976      1.356
REMARK  11 active torsions:
REMARK  status: ('A' for Active; 'I' for Inactive)
REMARK    1  A    between atoms: N1_2  and  C2_3 
REMARK    2  A    between atoms: N1_2  and  C12_38 
REMARK    3  A    between atoms: C2_3  and  C3_4 
REMARK    4  A    between atoms: N2_6  and  N3_7 
REMARK    5  A    between atoms: C7_14  and  N5_15 
REMARK    6  A    between atoms: C8_20  and  N7_21 
REMARK       I    between atoms: N7_21  and  C9_23 
REMARK    7  A    between atoms: N9_25  and  O1_27 
REMARK    8  A    between atoms: N10_29  and  C10_30 
REMARK    9  A    between atoms: C12_38  and  O3_39 
REMARK   10  A    between atoms: C12_38  and  C13_41 
REMARK   11  A    between atoms: C13_41  and  N14_42 
ROOT
HETATM    1  C3  UNL     1      79.149 -12.948 -51.728  1.00  0.00     0.075 A 
HETATM    2  C4  UNL     1      79.376 -13.773 -50.736  1.00  0.00     0.147 A 
HETATM    3  N2  UNL     1      78.283 -14.351 -50.009  1.00  0.00    -0.264 N 
HETATM    4  C5  UNL     1      76.952 -14.028 -50.367  1.00  0.00     0.145 A 
HETATM    5  C6  UNL     1      76.739 -13.162 -51.411  1.00  0.00     0.162 A 
HETATM    6  N4  UNL     1      75.450 -12.863 -51.737  1.00  0.00    -0.174 N 
ATOM      7  H4  UNL     1      75.248 -12.224 -52.506  1.00  0.00     0.186 HD
HETATM    8  C7  UNL     1      74.451 -13.420 -51.035  1.00  0.00     0.679 A 
HETATM    9  N6  UNL     1      74.667 -14.280 -50.001  1.00  0.00    -0.174 N 
ATOM     10  H6  UNL     1      73.872 -14.677 -49.500  1.00  0.00     0.186 HD
HETATM   11  C8  UNL     1      75.915 -14.610 -49.636  1.00  0.00     0.156 A 
HETATM   12  N10 UNL     1      77.818 -12.588 -52.129  1.00  0.00    -0.274 N 
ENDROOT
BRANCH   1  13
HETATM   13  C2  UNL     1      80.233 -12.322 -52.510  1.00  0.00     0.119 C 
BRANCH  13  14
HETATM   14  N1  UNL     1      80.625 -13.073 -53.626  1.00  0.00    -0.365 N 
HETATM   15  C1  UNL     1      80.710 -14.466 -53.548  1.00  0.00     0.151 C 
BRANCH  14  16
HETATM   16  C12 UNL     1      81.005 -12.395 -54.791  1.00  0.00     0.244 C 
BRANCH  16  17
HETATM   17  O3  UNL     1      79.886 -11.959 -55.495  1.00  0.00    -0.375 OA
ATOM     18  H3  UNL     1      80.026 -12.036 -56.431  1.00  0.00     0.212 HD
ENDBRANCH  16  17
BRANCH  16  19
HETATM   19  C13 UNL     1      81.998 -13.051 -55.691  1.00  0.00     0.282 C 
BRANCH  19  20
HETATM   20  N14 UNL     1      81.645 -13.029 -57.089  1.00  0.00    -0.075 N 
ATOM     21 3H14 UNL     1      80.638 -12.909 -57.199  1.00  0.00     0.274 HD
ATOM     22 2H14 UNL     1      81.973 -12.166 -57.525  1.00  0.00     0.274 HD
ATOM     23 1H14 UNL     1      81.966 -13.839 -57.619  1.00  0.00     0.274 HD
ENDBRANCH  19  20
ENDBRANCH  16  19
ENDBRANCH  14  16
ENDBRANCH  13  14
ENDBRANCH   1  13
BRANCH  12  24
HETATM   24  C10 UNL     1      77.593 -11.692 -53.199  1.00  0.00     0.179 A 
HETATM   25  N11 UNL     1      77.251 -12.078 -54.447  1.00  0.00    -0.222 N 
HETATM   26  O2  UNL     1      77.119 -11.028 -55.178  1.00  0.00    -0.154 OA
ATOM     27  H11 UNL     1      77.118 -13.040 -54.756  1.00  0.00     0.198 HD
HETATM   28  N12 UNL     1      77.362  -9.945 -54.470  1.00  0.00    -0.224 N 
HETATM   29  C11 UNL     1      77.666 -10.315 -53.214  1.00  0.00     0.184 A 
ATOM     30  H12 UNL     1      77.325  -8.986 -54.816  1.00  0.00     0.198 HD
HETATM   31  N13 UNL     1      78.003  -9.530 -52.081  1.00  0.00    -0.077 NA
ENDBRANCH  12  24
BRANCH   3  32
HETATM   32  N3  UNL     1      78.536 -15.237 -48.940  1.00  0.00    -0.338 N 
ATOM     33  H32 UNL     1      79.374 -15.125 -48.368  1.00  0.00     0.177 HD
ATOM     34  H31 UNL     1      77.883 -15.994 -48.737  1.00  0.00     0.177 HD
ENDBRANCH   3  32
BRANCH  11  35
HETATM   35  N7  UNL     1      76.204 -15.400 -48.691  1.00  0.00    -0.313 N 
HETATM   36  C9  UNL     1      75.457 -16.587 -48.490  1.00  0.00     0.213 C 
HETATM   37  N8  UNL     1      74.576 -16.626 -47.385  1.00  0.00    -0.061 NA
HETATM   38  N9  UNL     1      75.584 -17.609 -49.293  1.00  0.00    -0.241 N 
ATOM     39  H9  UNL     1      76.230 -17.560 -50.081  1.00  0.00     0.197 HD
ATOM     40  H7  UNL     1      76.983 -15.181 -48.069  1.00  0.00     0.170 HD
BRANCH  38  41
HETATM   41  O1  UNL     1      74.858 -18.737 -49.083  1.00  0.00    -0.287 OA
ATOM     42  H1  UNL     1      75.295 -19.553 -48.870  1.00  0.00     0.244 HD
ENDBRANCH  38  41
ENDBRANCH  11  35
BRANCH   8  43
HETATM   43  N5  UNL     1      73.220 -13.155 -51.320  1.00  0.00    -0.234 N 
ATOM     44  H52 UNL     1      72.686 -12.650 -50.613  1.00  0.00     0.174 HD
ATOM     45  H51 UNL     1      72.820 -13.445 -52.213  1.00  0.00     0.174 HD
ENDBRANCH   8  43
TORSDOF 11
ENDMDL
MODEL 4
REMARK VINA RESULT: -5.116370788      1.572      2.587
REMARK  11 active torsions:
REMARK  status: ('A' for Active; 'I' for Inactive)
REMARK    1  A    between atoms: N1_2  and  C2_3 
REMARK    2  A    between atoms: N1_2  and  C12_38 
REMARK    3  A    between atoms: C2_3  and  C3_4 
REMARK    4  A    between atoms: N2_6  and  N3_7 
REMARK    5  A    between atoms: C7_14  and  N5_15 
REMARK    6  A    between atoms: C8_20  and  N7_21 
REMARK       I    between atoms: N7_21  and  C9_23 
REMARK    7  A    between atoms: N9_25  and  O1_27 
REMARK    8  A    between atoms: N10_29  and  C10_30 
REMARK    9  A    between atoms: C12_38  and  O3_39 
REMARK   10  A    between atoms: C12_38  and  C13_41 
REMARK   11  A    between atoms: C13_41  and  N14_42 
ROOT
HETATM    1  C3  UNL     1      79.239 -12.589 -50.976  1.00  0.00     0.075 A 
HETATM    2  C4  UNL     1      79.440 -13.503 -50.060  1.00  0.00     0.147 A 
HETATM    3  N2  UNL     1      78.342 -14.268 -49.545  1.00  0.00    -0.264 N 
HETATM    4  C5  UNL     1      77.034 -14.033 -50.031  1.00  0.00     0.145 A 
HETATM    5  C6  UNL     1      76.846 -13.069 -50.990  1.00  0.00     0.162 A 
HETATM    6  N4  UNL     1      75.579 -12.857 -51.442  1.00  0.00    -0.174 N 
ATOM      7  H4  UNL     1      75.396 -12.151 -52.155  1.00  0.00     0.186 HD
HETATM    8  C7  UNL     1      74.573 -13.589 -50.937  1.00  0.00     0.679 A 
HETATM    9  N6  UNL     1      74.763 -14.545 -49.985  1.00  0.00    -0.174 N 
ATOM     10  H6  UNL     1      73.964 -15.074 -49.635  1.00  0.00     0.186 HD
HETATM   11  C8  UNL     1      75.989 -14.796 -49.504  1.00  0.00     0.156 A 
HETATM   12  N10 UNL     1      77.931 -12.311 -51.500  1.00  0.00    -0.274 N 
ENDROOT
BRANCH   1  13
HETATM   13  C2  UNL     1      80.330 -11.770 -51.541  1.00  0.00     0.119 C 
BRANCH  13  14
HETATM   14  N1  UNL     1      80.974 -10.964 -50.594  1.00  0.00    -0.365 N 
HETATM   15  C1  UNL     1      82.358 -11.047 -50.417  1.00  0.00     0.151 C 
BRANCH  14  16
HETATM   16  C12 UNL     1      80.195 -10.134 -49.777  1.00  0.00     0.244 C 
BRANCH  16  17
HETATM   17  O3  UNL     1      79.944  -8.919 -50.407  1.00  0.00    -0.375 OA
ATOM     18  H3  UNL     1      79.022  -8.833 -50.618  1.00  0.00     0.212 HD
ENDBRANCH  16  17
BRANCH  16  19
HETATM   19  C13 UNL     1      80.625  -9.942 -48.362  1.00  0.00     0.282 C 
BRANCH  19  20
HETATM   20  N14 UNL     1      80.202 -10.985 -47.461  1.00  0.00    -0.075 N 
ATOM     21 3H14 UNL     1      79.194 -11.127 -47.530  1.00  0.00     0.274 HD
ATOM     22 2H14 UNL     1      80.530 -11.894 -47.790  1.00  0.00     0.274 HD
ATOM     23 1H14 UNL     1      80.474 -10.841 -46.488  1.00  0.00     0.274 HD
ENDBRANCH  19  20
ENDBRANCH  16  19
ENDBRANCH  14  16
ENDBRANCH  13  14
ENDBRANCH   1  13
BRANCH  12  24
HETATM   24  C10 UNL     1      77.733 -11.316 -52.484  1.00  0.00     0.179 A 
HETATM   25  N11 UNL     1      77.731  -9.991 -52.226  1.00  0.00    -0.222 N 
HETATM   26  O2  UNL     1      77.527  -9.360 -53.328  1.00  0.00    -0.154 OA
ATOM     27  H11 UNL     1      77.867  -9.563 -51.310  1.00  0.00     0.198 HD
HETATM   28  N12 UNL     1      77.391 -10.211 -54.323  1.00  0.00    -0.224 N 
HETATM   29  C11 UNL     1      77.513 -11.458 -53.838  1.00  0.00     0.184 A 
ATOM     30  H12 UNL     1      77.222  -9.965 -55.298  1.00  0.00     0.198 HD
HETATM   31  N13 UNL     1      77.444 -12.712 -54.499  1.00  0.00    -0.077 NA
ENDBRANCH  12  24
BRANCH   3  32
HETATM   32  N3  UNL     1      78.567 -15.250 -48.556  1.00  0.00    -0.338 N 
ATOM     33  H32 UNL     1      79.493 -15.663 -48.445  1.00  0.00     0.177 HD
ATOM     34  H31 UNL     1      77.803 -15.551 -47.952  1.00  0.00     0.177 HD
ENDBRANCH   3  32
BRANCH  11  35
HETATM   35  N7  UNL     1      76.255 -15.665 -48.624  1.00  0.00    -0.313 N 
HETATM   36  C9  UNL     1      75.506 -16.866 -48.548  1.00  0.00     0.213 C 
HETATM   37  N8  UNL     1      74.593 -17.001 -47.477  1.00  0.00    -0.061 NA
HETATM   38  N9  UNL     1      75.660 -17.815 -49.432  1.00  0.00    -0.241 N 
ATOM     39  H9  UNL     1      76.329 -17.696 -50.193  1.00  0.00     0.197 HD
ATOM     40  H7  UNL     1      77.014 -15.499 -47.963  1.00  0.00     0.170 HD
BRANCH  38  41
HETATM   41  O1  UNL     1      74.934 -18.957 -49.343  1.00  0.00    -0.287 OA
ATOM     42  H1  UNL     1      74.351 -19.210 -50.049  1.00  0.00     0.244 HD
ENDBRANCH  38  41
ENDBRANCH  11  35
BRANCH   8  43
HETATM   43  N5  UNL     1      73.361 -13.410 -51.344  1.00  0.00    -0.234 N 
ATOM     44  H52 UNL     1      73.047 -12.444 -51.433  1.00  0.00     0.174 HD
ATOM     45  H51 UNL     1      72.763 -14.208 -51.561  1.00  0.00     0.174 HD
ENDBRANCH   8  43
TORSDOF 11
ENDMDL
MODEL 5
REMARK VINA RESULT: -4.873243576      1.480      2.062
REMARK  11 active torsions:
REMARK  status: ('A' for Active; 'I' for Inactive)
REMARK    1  A    between atoms: N1_2  and  C2_3 
REMARK    2  A    between atoms: N1_2  and  C12_38 
REMARK    3  A    between atoms: C2_3  and  C3_4 
REMARK    4  A    between atoms: N2_6  and  N3_7 
REMARK    5  A    between atoms: C7_14  and  N5_15 
REMARK    6  A    between atoms: C8_20  and  N7_21 
REMARK       I    between atoms: N7_21  and  C9_23 
REMARK    7  A    between atoms: N9_25  and  O1_27 
REMARK    8  A    between atoms: N10_29  and  C10_30 
REMARK    9  A    between atoms: C12_38  and  O3_39 
REMARK   10  A    between atoms: C12_38  and  C13_41 
REMARK   11  A    between atoms: C13_41  and  N14_42 
ROOT
HETATM    1  C3  UNL     1      79.217 -12.597 -51.021  1.00  0.00     0.075 A 
HETATM    2  C4  UNL     1      79.420 -13.494 -50.090  1.00  0.00     0.147 A 
HETATM    3  N2  UNL     1      78.323 -14.250 -49.558  1.00  0.00    -0.264 N 
HETATM    4  C5  UNL     1      77.013 -14.022 -50.045  1.00  0.00     0.145 A 
HETATM    5  C6  UNL     1      76.824 -13.076 -51.022  1.00  0.00     0.162 A 
HETATM    6  N4  UNL     1      75.555 -12.872 -51.474  1.00  0.00    -0.174 N 
ATOM      7  H4  UNL     1      75.371 -12.178 -52.199  1.00  0.00     0.186 HD
HETATM    8  C7  UNL     1      74.550 -13.594 -50.954  1.00  0.00     0.679 A 
HETATM    9  N6  UNL     1      74.742 -14.533 -49.985  1.00  0.00    -0.174 N 
ATOM     10  H6  UNL     1      73.944 -15.055 -49.624  1.00  0.00     0.186 HD
HETATM   11  C8  UNL     1      75.970 -14.776 -49.502  1.00  0.00     0.156 A 
HETATM   12  N10 UNL     1      77.908 -12.328 -51.547  1.00  0.00    -0.274 N 
ENDROOT
BRANCH   1  13
HETATM   13  C2  UNL     1      80.307 -11.789 -51.603  1.00  0.00     0.119 C 
BRANCH  13  14
HETATM   14  N1  UNL     1      81.230 -12.542 -52.339  1.00  0.00    -0.365 N 
HETATM   15  C1  UNL     1      80.854 -13.148 -53.541  1.00  0.00     0.151 C 
BRANCH  14  16
HETATM   16  C12 UNL     1      82.511 -12.740 -51.807  1.00  0.00     0.244 C 
BRANCH  16  17
HETATM   17  O3  UNL     1      82.745 -14.092 -51.576  1.00  0.00    -0.375 OA
ATOM     18  H3  UNL     1      82.576 -14.312 -50.668  1.00  0.00     0.212 HD
ENDBRANCH  16  17
BRANCH  16  19
HETATM   19  C13 UNL     1      82.923 -11.903 -50.643  1.00  0.00     0.282 C 
BRANCH  19  20
HETATM   20  N14 UNL     1      83.000 -12.617 -49.392  1.00  0.00    -0.075 N 
ATOM     21 3H14 UNL     1      82.516 -12.099 -48.658  1.00  0.00     0.274 HD
ATOM     22 2H14 UNL     1      82.422 -13.456 -49.425  1.00  0.00     0.274 HD
ATOM     23 1H14 UNL     1      83.948 -12.850 -49.096  1.00  0.00     0.274 HD
ENDBRANCH  19  20
ENDBRANCH  16  19
ENDBRANCH  14  16
ENDBRANCH  13  14
ENDBRANCH   1  13
BRANCH  12  24
HETATM   24  C10 UNL     1      77.708 -11.351 -52.549  1.00  0.00     0.179 A 
HETATM   25  N11 UNL     1      77.736 -10.021 -52.320  1.00  0.00    -0.222 N 
HETATM   26  O2  UNL     1      77.521  -9.409 -53.431  1.00  0.00    -0.154 OA
ATOM     27  H11 UNL     1      77.900  -9.575 -51.417  1.00  0.00     0.198 HD
HETATM   28  N12 UNL     1      77.348 -10.279 -54.404  1.00  0.00    -0.224 N 
HETATM   29  C11 UNL     1      77.457 -11.518 -53.894  1.00  0.00     0.184 A 
ATOM     30  H12 UNL     1      77.163 -10.051 -55.381  1.00  0.00     0.198 HD
HETATM   31  N13 UNL     1      77.350 -12.785 -54.526  1.00  0.00    -0.077 NA
ENDBRANCH  12  24
BRANCH   3  32
HETATM   32  N3  UNL     1      78.550 -15.214 -48.552  1.00  0.00    -0.338 N 
ATOM     33  H32 UNL     1      78.980 -14.941 -47.668  1.00  0.00     0.177 HD
ATOM     34  H31 UNL     1      78.286 -16.187 -48.708  1.00  0.00     0.177 HD
ENDBRANCH   3  32
BRANCH  11  35
HETATM   35  N7  UNL     1      76.237 -15.629 -48.607  1.00  0.00    -0.313 N 
HETATM   36  C9  UNL     1      75.460 -16.807 -48.480  1.00  0.00     0.213 C 
HETATM   37  N8  UNL     1      74.573 -16.891 -47.381  1.00  0.00    -0.061 NA
HETATM   38  N9  UNL     1      75.565 -17.781 -49.343  1.00  0.00    -0.241 N 
ATOM     39  H9  UNL     1      76.216 -17.700 -50.125  1.00  0.00     0.197 HD
ATOM     40  H7  UNL     1      77.017 -15.466 -47.971  1.00  0.00     0.170 HD
BRANCH  38  41
HETATM   41  O1  UNL     1      74.812 -18.901 -49.204  1.00  0.00    -0.287 OA
ATOM     42  H1  UNL     1      75.119 -19.731 -49.551  1.00  0.00     0.244 HD
ENDBRANCH  38  41
ENDBRANCH  11  35
BRANCH   8  43
HETATM   43  N5  UNL     1      73.338 -13.422 -51.361  1.00  0.00    -0.234 N 
ATOM     44  H52 UNL     1      72.851 -14.248 -51.709  1.00  0.00     0.174 HD
ATOM     45  H51 UNL     1      72.905 -12.499 -51.329  1.00  0.00     0.174 HD
ENDBRANCH   8  43
TORSDOF 11
ENDMDL
