MODEL 1
REMARK VINA RESULT: -6.740287648      0.000      0.000
REMARK  11 active torsions:
REMARK  status: ('A' for Active; 'I' for Inactive)
REMARK    1  A    between atoms: N2_4  and  C3_6 
REMARK    2  A    between atoms: C3_6  and  C4_7 
REMARK    3  A    between atoms: N5_10  and  O1_11 
REMARK    4  A    between atoms: C5_13  and  O2_14 
REMARK    5  A    between atoms: O2_14  and  C6_15 
REMARK    6  A    between atoms: C6_15  and  C7_17 
REMARK    7  A    between atoms: C7_17  and  C8_18 
REMARK    8  A    between atoms: C8_18  and  O4_19 
REMARK    9  A    between atoms: C8_18  and  C9_21 
REMARK   10  A    between atoms: C12_26  and  N7_27 
REMARK   11  A    between atoms: C13_32  and  N9_33 
ROOT
HETATM    1  C8  UNL     1      75.894 -12.308 -51.815  1.00  0.00     0.178 C 
ENDROOT
BRANCH   1   2
HETATM    2  C7  UNL     1      77.092 -11.575 -52.319  1.00  0.00     0.149 C 
BRANCH   2   3
HETATM    3  C6  UNL     1      77.229 -11.888 -53.768  1.00  0.00     0.265 C 
HETATM    4  O3  UNL     1      77.939 -12.876 -54.069  1.00  0.00    -0.265 OA
BRANCH   3   5
HETATM    5  O2  UNL     1      76.639 -11.178 -54.777  1.00  0.00    -0.272 OA
BRANCH   5   6
HETATM    6  C5  UNL     1      77.311 -10.095 -55.386  1.00  0.00     0.397 C 
HETATM    7  N5  UNL     1      78.217  -9.470 -54.459  1.00  0.00    -0.038 NA
HETATM    8  N4  UNL     1      79.435  -9.129 -54.991  1.00  0.00    -0.024 NA
HETATM    9  N3  UNL     1      80.010 -10.274 -55.548  1.00  0.00    -0.095 NA
HETATM   10  C4  UNL     1      79.179 -10.865 -56.534  1.00  0.00     0.254 C 
HETATM   11  O5  UNL     1      77.885 -10.482 -56.572  1.00  0.00    -0.320 OA
BRANCH   7  12
HETATM   12  O1  UNL     1      77.637  -8.533 -53.705  1.00  0.00    -0.291 OA
ATOM     13  H1  UNL     1      77.350  -8.821 -52.847  1.00  0.00     0.239 HD
ENDBRANCH   7  12
BRANCH  10  14
HETATM   14  C3  UNL     1      79.802 -10.561 -57.903  1.00  0.00     0.171 C 
BRANCH  14  15
HETATM   15  N2  UNL     1      80.281  -9.217 -57.967  1.00  0.00    -0.378 N 
HETATM   16  C2  UNL     1      79.704  -8.281 -58.662  1.00  0.00     0.085 C 
HETATM   17  C1  UNL     1      80.255  -6.911 -58.682  1.00  0.00     0.085 C 
HETATM   18  N1  UNL     1      78.537  -8.640 -59.391  1.00  0.00    -0.088 NA
ATOM     19  H2  UNL     1      81.121  -8.977 -57.440  1.00  0.00     0.160 HD
ENDBRANCH  14  15
ENDBRANCH  10  14
ENDBRANCH   5   6
ENDBRANCH   3   5
ENDBRANCH   2   3
ENDBRANCH   1   2
BRANCH   1  20
HETATM   20  O4  UNL     1      75.163 -12.912 -52.835  1.00  0.00    -0.389 OA
ATOM     21  H4  UNL     1      74.245 -13.025 -52.614  1.00  0.00     0.210 HD
ENDBRANCH   1  20
BRANCH   1  22
HETATM   22  C9  UNL     1      76.237 -13.374 -50.840  1.00  0.00     0.056 A 
HETATM   23  C10 UNL     1      77.549 -13.667 -50.552  1.00  0.00     0.116 A 
HETATM   24  N6  UNL     1      77.811 -14.637 -49.663  1.00  0.00    -0.358 N 
HETATM   25  C11 UNL     1      76.781 -15.305 -49.071  1.00  0.00     0.121 A 
ATOM     26  H6  UNL     1      78.775 -14.874 -49.432  1.00  0.00     0.165 HD
HETATM   27  C12 UNL     1      77.035 -16.302 -48.156  1.00  0.00     0.145 A 
HETATM   28  C14 UNL     1      75.471 -15.005 -49.364  1.00  0.00     0.152 A 
HETATM   29  N8  UNL     1      76.009 -16.950 -47.582  1.00  0.00    -0.175 N 
HETATM   30  C13 UNL     1      74.724 -16.657 -47.869  1.00  0.00     0.679 A 
ATOM     31  H8  UNL     1      76.207 -17.687 -46.906  1.00  0.00     0.186 HD
HETATM   32  N10 UNL     1      74.491 -15.681 -48.764  1.00  0.00    -0.174 N 
ATOM     33  H10 UNL     1      73.524 -15.448 -48.993  1.00  0.00     0.186 HD
HETATM   34  N11 UNL     1      75.206 -14.044 -50.246  1.00  0.00    -0.340 N 
ATOM     35  H11 UNL     1      74.241 -13.809 -50.476  1.00  0.00     0.167 HD
BRANCH  27  36
HETATM   36  N7  UNL     1      78.246 -16.633 -47.836  1.00  0.00    -0.383 N 
ATOM     37  H72 UNL     1      78.812 -15.979 -47.296  1.00  0.00     0.157 HD
ATOM     38  H71 UNL     1      78.642 -17.531 -48.111  1.00  0.00     0.157 HD
ENDBRANCH  27  36
BRANCH  30  39
HETATM   39  N9  UNL     1      73.769 -17.316 -47.284  1.00  0.00    -0.234 N 
ATOM     40  H92 UNL     1      73.821 -17.612 -46.309  1.00  0.00     0.174 HD
ATOM     41  H91 UNL     1      72.926 -17.553 -47.807  1.00  0.00     0.174 HD
ENDBRANCH  30  39
ENDBRANCH   1  22
TORSDOF 11
ENDMDL
MODEL 2
REMARK VINA RESULT: -6.688663332      2.482      3.932
REMARK  11 active torsions:
REMARK  status: ('A' for Active; 'I' for Inactive)
REMARK    1  A    between atoms: N2_4  and  C3_6 
REMARK    2  A    between atoms: C3_6  and  C4_7 
REMARK    3  A    between atoms: N5_10  and  O1_11 
REMARK    4  A    between atoms: C5_13  and  O2_14 
REMARK    5  A    between atoms: O2_14  and  C6_15 
REMARK    6  A    between atoms: C6_15  and  C7_17 
REMARK    7  A    between atoms: C7_17  and  C8_18 
REMARK    8  A    between atoms: C8_18  and  O4_19 
REMARK    9  A    between atoms: C8_18  and  C9_21 
REMARK   10  A    between atoms: C12_26  and  N7_27 
REMARK   11  A    between atoms: C13_32  and  N9_33 
ROOT
HETATM    1  C8  UNL     1      80.731 -14.373 -49.972  1.00  0.00     0.178 C 
ENDROOT
BRANCH   1   2
HETATM    2  C7  UNL     1      81.154 -14.653 -51.375  1.00  0.00     0.149 C 
BRANCH   2   3
HETATM    3  C6  UNL     1      81.239 -13.347 -52.084  1.00  0.00     0.265 C 
HETATM    4  O3  UNL     1      82.373 -12.994 -52.484  1.00  0.00    -0.265 OA
BRANCH   3   5
HETATM    5  O2  UNL     1      80.177 -12.520 -52.324  1.00  0.00    -0.272 OA
BRANCH   5   6
HETATM    6  C5  UNL     1      79.441 -12.620 -53.525  1.00  0.00     0.397 C 
HETATM    7  N5  UNL     1      78.230 -13.369 -53.320  1.00  0.00    -0.038 NA
HETATM    8  N4  UNL     1      77.123 -12.850 -53.944  1.00  0.00    -0.024 NA
HETATM    9  N3  UNL     1      76.961 -11.527 -53.526  1.00  0.00    -0.095 NA
HETATM   10  C4  UNL     1      78.108 -10.736 -53.796  1.00  0.00     0.254 C 
HETATM   11  O5  UNL     1      79.257 -11.381 -54.088  1.00  0.00    -0.320 OA
BRANCH   7  12
HETATM   12  O1  UNL     1      78.397 -14.687 -53.452  1.00  0.00    -0.291 OA
ATOM     13  H1  UNL     1      77.652 -15.159 -53.806  1.00  0.00     0.239 HD
ENDBRANCH   7  12
BRANCH  10  14
HETATM   14  C3  UNL     1      77.765  -9.820 -54.979  1.00  0.00     0.171 C 
BRANCH  14  15
HETATM   15  N2  UNL     1      78.835  -9.776 -55.926  1.00  0.00    -0.378 N 
HETATM   16  C2  UNL     1      78.671  -9.955 -57.204  1.00  0.00     0.085 C 
HETATM   17  C1  UNL     1      79.824  -9.894 -58.125  1.00  0.00     0.085 C 
HETATM   18  N1  UNL     1      77.348 -10.210 -57.659  1.00  0.00    -0.088 NA
ATOM     19  H2  UNL     1      79.777  -9.593 -55.581  1.00  0.00     0.160 HD
ENDBRANCH  14  15
ENDBRANCH  10  14
ENDBRANCH   5   6
ENDBRANCH   3   5
ENDBRANCH   2   3
ENDBRANCH   1   2
BRANCH   1  20
HETATM   20  O4  UNL     1      80.956 -13.052 -49.594  1.00  0.00    -0.389 OA
ATOM     21  H4  UNL     1      80.433 -12.789 -48.846  1.00  0.00     0.210 HD
ENDBRANCH   1  20
BRANCH   1  22
HETATM   22  C9  UNL     1      79.291 -14.650 -49.736  1.00  0.00     0.056 A 
HETATM   23  C10 UNL     1      78.900 -15.654 -48.882  1.00  0.00     0.116 A 
HETATM   24  N6  UNL     1      77.588 -15.867 -48.699  1.00  0.00    -0.358 N 
HETATM   25  C11 UNL     1      76.681 -15.092 -49.357  1.00  0.00     0.121 A 
ATOM     26  H6  UNL     1      77.271 -16.606 -48.071  1.00  0.00     0.165 HD
HETATM   27  C12 UNL     1      75.331 -15.298 -49.178  1.00  0.00     0.145 A 
HETATM   28  C14 UNL     1      77.080 -14.089 -50.209  1.00  0.00     0.152 A 
HETATM   29  N8  UNL     1      74.451 -14.526 -49.834  1.00  0.00    -0.175 N 
HETATM   30  C13 UNL     1      74.843 -13.543 -50.670  1.00  0.00     0.679 A 
ATOM     31  H8  UNL     1      73.454 -14.687 -49.695  1.00  0.00     0.186 HD
HETATM   32  N10 UNL     1      76.163 -13.352 -50.835  1.00  0.00    -0.174 N 
ATOM     33  H10 UNL     1      76.475 -12.612 -51.465  1.00  0.00     0.186 HD
HETATM   34  N11 UNL     1      78.381 -13.874 -50.395  1.00  0.00    -0.340 N 
ATOM     35  H11 UNL     1      78.696 -13.136 -51.024  1.00  0.00     0.167 HD
BRANCH  27  36
HETATM   36  N7  UNL     1      74.888 -16.227 -48.389  1.00  0.00    -0.383 N 
ATOM     37  H72 UNL     1      74.986 -17.202 -48.669  1.00  0.00     0.157 HD
ATOM     38  H71 UNL     1      74.447 -16.002 -47.498  1.00  0.00     0.157 HD
ENDBRANCH  27  36
BRANCH  30  39
HETATM   39  N9  UNL     1      73.947 -12.824 -51.280  1.00  0.00    -0.234 N 
ATOM     40  H92 UNL     1      73.319 -12.191 -50.785  1.00  0.00     0.174 HD
ATOM     41  H91 UNL     1      73.858 -12.884 -52.294  1.00  0.00     0.174 HD
ENDBRANCH  30  39
ENDBRANCH   1  22
TORSDOF 11
ENDMDL
MODEL 3
REMARK VINA RESULT: -6.431991874      1.957      3.200
REMARK  11 active torsions:
REMARK  status: ('A' for Active; 'I' for Inactive)
REMARK    1  A    between atoms: N2_4  and  C3_6 
REMARK    2  A    between atoms: C3_6  and  C4_7 
REMARK    3  A    between atoms: N5_10  and  O1_11 
REMARK    4  A    between atoms: C5_13  and  O2_14 
REMARK    5  A    between atoms: O2_14  and  C6_15 
REMARK    6  A    between atoms: C6_15  and  C7_17 
REMARK    7  A    between atoms: C7_17  and  C8_18 
REMARK    8  A    between atoms: C8_18  and  O4_19 
REMARK    9  A    between atoms: C8_18  and  C9_21 
REMARK   10  A    between atoms: C12_26  and  N7_27 
REMARK   11  A    between atoms: C13_32  and  N9_33 
ROOT
HETATM    1  C8  UNL     1      76.186 -14.764 -49.991  1.00  0.00     0.178 C 
ENDROOT
BRANCH   1   2
HETATM    2  C7  UNL     1      75.044 -13.846 -50.272  1.00  0.00     0.149 C 
BRANCH   2   3
HETATM    3  C6  UNL     1      75.135 -13.447 -51.703  1.00  0.00     0.265 C 
HETATM    4  O3  UNL     1      74.056 -13.345 -52.332  1.00  0.00    -0.265 OA
BRANCH   3   5
HETATM    5  O2  UNL     1      76.303 -13.186 -52.366  1.00  0.00    -0.272 OA
BRANCH   5   6
HETATM    6  C5  UNL     1      76.791 -11.866 -52.475  1.00  0.00     0.397 C 
HETATM    7  N5  UNL     1      78.156 -11.788 -52.028  1.00  0.00    -0.038 NA
HETATM    8  N4  UNL     1      78.972 -11.010 -52.810  1.00  0.00    -0.024 NA
HETATM    9  N3  UNL     1      78.909 -11.486 -54.122  1.00  0.00    -0.095 NA
HETATM   10  C4  UNL     1      77.584 -11.489 -54.627  1.00  0.00     0.254 C 
HETATM   11  O5  UNL     1      76.576 -11.369 -53.738  1.00  0.00    -0.320 OA
BRANCH   7  12
HETATM   12  O1  UNL     1      78.270 -11.595 -50.712  1.00  0.00    -0.291 OA
ATOM     13  H1  UNL     1      77.648 -12.071 -50.174  1.00  0.00     0.239 HD
ENDBRANCH   7  12
BRANCH  10  14
HETATM   14  C3  UNL     1      77.470 -10.333 -55.630  1.00  0.00     0.171 C 
BRANCH  14  15
HETATM   15  N2  UNL     1      78.624 -10.260 -56.469  1.00  0.00    -0.378 N 
HETATM   16  C2  UNL     1      78.573  -9.995 -57.741  1.00  0.00     0.085 C 
HETATM   17  C1  UNL     1      79.808  -9.935 -58.548  1.00  0.00     0.085 C 
HETATM   18  N1  UNL     1      77.286  -9.771 -58.305  1.00  0.00    -0.088 NA
ATOM     19  H2  UNL     1      79.539 -10.425 -56.048  1.00  0.00     0.160 HD
ENDBRANCH  14  15
ENDBRANCH  10  14
ENDBRANCH   5   6
ENDBRANCH   3   5
ENDBRANCH   2   3
ENDBRANCH   1   2
BRANCH   1  20
HETATM   20  O4  UNL     1      77.398 -14.091 -49.857  1.00  0.00    -0.389 OA
ATOM     21  H4  UNL     1      77.908 -14.087 -50.659  1.00  0.00     0.210 HD
ENDBRANCH   1  20
BRANCH   1  22
HETATM   22  C9  UNL     1      75.995 -15.562 -48.753  1.00  0.00     0.056 A 
HETATM   23  C10 UNL     1      76.982 -15.623 -47.797  1.00  0.00     0.116 A 
HETATM   24  N6  UNL     1      76.764 -16.355 -46.695  1.00  0.00    -0.358 N 
HETATM   25  C11 UNL     1      75.581 -17.017 -46.548  1.00  0.00     0.121 A 
ATOM     26  H6  UNL     1      77.479 -16.417 -45.971  1.00  0.00     0.165 HD
HETATM   27  C12 UNL     1      75.343 -17.772 -45.421  1.00  0.00     0.145 A 
HETATM   28  C14 UNL     1      74.599 -16.951 -47.509  1.00  0.00     0.152 A 
HETATM   29  N8  UNL     1      74.174 -18.417 -45.292  1.00  0.00    -0.175 N 
HETATM   30  C13 UNL     1      73.211 -18.353 -46.235  1.00  0.00     0.679 A 
ATOM     31  H8  UNL     1      74.008 -18.975 -44.454  1.00  0.00     0.186 HD
HETATM   32  N10 UNL     1      73.456 -17.612 -47.329  1.00  0.00    -0.174 N 
ATOM     33  H10 UNL     1      72.738 -17.554 -48.051  1.00  0.00     0.186 HD
HETATM   34  N11 UNL     1      74.811 -16.226 -48.605  1.00  0.00    -0.340 N 
ATOM     35  H11 UNL     1      74.095 -16.166 -49.328  1.00  0.00     0.167 HD
BRANCH  27  36
HETATM   36  N7  UNL     1      76.227 -17.876 -44.479  1.00  0.00    -0.383 N 
ATOM     37  H72 UNL     1      76.572 -18.801 -44.223  1.00  0.00     0.157 HD
ATOM     38  H71 UNL     1      76.584 -17.055 -43.991  1.00  0.00     0.157 HD
ENDBRANCH  27  36
BRANCH  30  39
HETATM   39  N9  UNL     1      72.096 -18.998 -46.059  1.00  0.00    -0.234 N 
ATOM     40  H92 UNL     1      71.300 -18.598 -45.562  1.00  0.00     0.174 HD
ATOM     41  H91 UNL     1      71.998 -19.945 -46.426  1.00  0.00     0.174 HD
ENDBRANCH  30  39
ENDBRANCH   1  22
TORSDOF 11
ENDMDL
MODEL 4
REMARK VINA RESULT: -6.393345321      3.215      4.801
REMARK  11 active torsions:
REMARK  status: ('A' for Active; 'I' for Inactive)
REMARK    1  A    between atoms: N2_4  and  C3_6 
REMARK    2  A    between atoms: C3_6  and  C4_7 
REMARK    3  A    between atoms: N5_10  and  O1_11 
REMARK    4  A    between atoms: C5_13  and  O2_14 
REMARK    5  A    between atoms: O2_14  and  C6_15 
REMARK    6  A    between atoms: C6_15  and  C7_17 
REMARK    7  A    between atoms: C7_17  and  C8_18 
REMARK    8  A    between atoms: C8_18  and  O4_19 
REMARK    9  A    between atoms: C8_18  and  C9_21 
REMARK   10  A    between atoms: C12_26  and  N7_27 
REMARK   11  A    between atoms: C13_32  and  N9_33 
ROOT
HETATM    1  C8  UNL     1      75.962 -14.451 -50.164  1.00  0.00     0.178 C 
ENDROOT
BRANCH   1   2
HETATM    2  C7  UNL     1      74.700 -13.676 -50.349  1.00  0.00     0.149 C 
BRANCH   2   3
HETATM    3  C6  UNL     1      74.798 -12.969 -51.655  1.00  0.00     0.265 C 
HETATM    4  O3  UNL     1      74.208 -13.494 -52.628  1.00  0.00    -0.265 OA
BRANCH   3   5
HETATM    5  O2  UNL     1      75.480 -11.801 -51.859  1.00  0.00    -0.272 OA
BRANCH   5   6
HETATM    6  C5  UNL     1      76.811 -11.815 -52.330  1.00  0.00     0.397 C 
HETATM    7  N5  UNL     1      76.855 -11.534 -53.740  1.00  0.00    -0.038 NA
HETATM    8  N4  UNL     1      77.864 -10.686 -54.124  1.00  0.00    -0.024 NA
HETATM    9  N3  UNL     1      77.749  -9.504 -53.388  1.00  0.00    -0.095 NA
HETATM   10  C4  UNL     1      77.793  -9.737 -51.990  1.00  0.00     0.254 C 
HETATM   11  O5  UNL     1      77.608 -11.003 -51.562  1.00  0.00    -0.320 OA
BRANCH   7  12
HETATM   12  O1  UNL     1      76.701 -12.621 -54.500  1.00  0.00    -0.291 OA
ATOM     13  H1  UNL     1      76.129 -12.515 -55.251  1.00  0.00     0.239 HD
ENDBRANCH   7  12
BRANCH  10  14
HETATM   14  C3  UNL     1      79.164  -9.262 -51.488  1.00  0.00     0.171 C 
BRANCH  14  15
HETATM   15  N2  UNL     1      79.027  -8.292 -50.448  1.00  0.00    -0.378 N 
HETATM   16  C2  UNL     1      79.195  -8.560 -49.187  1.00  0.00     0.085 C 
HETATM   17  C1  UNL     1      79.038  -7.505 -48.165  1.00  0.00     0.085 C 
HETATM   18  N1  UNL     1      79.530  -9.900 -48.849  1.00  0.00    -0.088 NA
ATOM     19  H2  UNL     1      78.784  -7.336 -50.709  1.00  0.00     0.160 HD
ENDBRANCH  14  15
ENDBRANCH  10  14
ENDBRANCH   5   6
ENDBRANCH   3   5
ENDBRANCH   2   3
ENDBRANCH   1   2
BRANCH   1  20
HETATM   20  O4  UNL     1      77.077 -13.634 -50.001  1.00  0.00    -0.389 OA
ATOM     21  H4  UNL     1      77.892 -14.123 -49.976  1.00  0.00     0.210 HD
ENDBRANCH   1  20
BRANCH   1  22
HETATM   22  C9  UNL     1      75.916 -15.358 -48.989  1.00  0.00     0.056 A 
HETATM   23  C10 UNL     1      77.032 -15.557 -48.211  1.00  0.00     0.116 A 
HETATM   24  N6  UNL     1      76.942 -16.385 -47.160  1.00  0.00    -0.358 N 
HETATM   25  C11 UNL     1      75.759 -17.005 -46.887  1.00  0.00     0.121 A 
ATOM     26  H6  UNL     1      77.755 -16.551 -46.566  1.00  0.00     0.165 HD
HETATM   27  C12 UNL     1      75.653 -17.856 -45.811  1.00  0.00     0.145 A 
HETATM   28  C14 UNL     1      74.647 -16.800 -47.670  1.00  0.00     0.152 A 
HETATM   29  N8  UNL     1      74.481 -18.458 -45.557  1.00  0.00    -0.175 N 
HETATM   30  C13 UNL     1      73.390 -18.258 -46.325  1.00  0.00     0.679 A 
ATOM     31  H8  UNL     1      74.412 -19.088 -44.757  1.00  0.00     0.186 HD
HETATM   32  N10 UNL     1      73.508 -17.424 -47.372  1.00  0.00    -0.174 N 
ATOM     33  H10 UNL     1      72.692 -17.263 -47.963  1.00  0.00     0.186 HD
HETATM   34  N11 UNL     1      74.731 -15.980 -48.716  1.00  0.00    -0.340 N 
ATOM     35  H11 UNL     1      73.917 -15.817 -49.308  1.00  0.00     0.167 HD
BRANCH  27  36
HETATM   36  N7  UNL     1      76.663 -18.092 -45.033  1.00  0.00    -0.383 N 
ATOM     37  H72 UNL     1      77.581 -18.250 -45.449  1.00  0.00     0.157 HD
ATOM     38  H71 UNL     1      76.558 -18.123 -44.020  1.00  0.00     0.157 HD
ENDBRANCH  27  36
BRANCH  30  39
HETATM   39  N9  UNL     1      72.279 -18.867 -46.033  1.00  0.00    -0.234 N 
ATOM     40  H92 UNL     1      71.658 -19.251 -46.746  1.00  0.00     0.174 HD
ATOM     41  H91 UNL     1      72.003 -18.973 -45.057  1.00  0.00     0.174 HD
ENDBRANCH  30  39
ENDBRANCH   1  22
TORSDOF 11
ENDMDL
MODEL 5
REMARK VINA RESULT: -6.341074794      2.882      5.276
REMARK  11 active torsions:
REMARK  status: ('A' for Active; 'I' for Inactive)
REMARK    1  A    between atoms: N2_4  and  C3_6 
REMARK    2  A    between atoms: C3_6  and  C4_7 
REMARK    3  A    between atoms: N5_10  and  O1_11 
REMARK    4  A    between atoms: C5_13  and  O2_14 
REMARK    5  A    between atoms: O2_14  and  C6_15 
REMARK    6  A    between atoms: C6_15  and  C7_17 
REMARK    7  A    between atoms: C7_17  and  C8_18 
REMARK    8  A    between atoms: C8_18  and  O4_19 
REMARK    9  A    between atoms: C8_18  and  C9_21 
REMARK   10  A    between atoms: C12_26  and  N7_27 
REMARK   11  A    between atoms: C13_32  and  N9_33 
ROOT
HETATM    1  C8  UNL     1      75.364 -15.997 -48.417  1.00  0.00     0.178 C 
ENDROOT
BRANCH   1   2
HETATM    2  C7  UNL     1      76.587 -16.154 -49.258  1.00  0.00     0.149 C 
BRANCH   2   3
HETATM    3  C6  UNL     1      77.286 -14.840 -49.277  1.00  0.00     0.265 C 
HETATM    4  O3  UNL     1      78.299 -14.727 -48.548  1.00  0.00    -0.265 OA
BRANCH   3   5
HETATM    5  O2  UNL     1      76.901 -13.764 -50.029  1.00  0.00    -0.272 OA
BRANCH   5   6
HETATM    6  C5  UNL     1      76.752 -13.878 -51.428  1.00  0.00     0.397 C 
HETATM    7  N5  UNL     1      75.521 -13.272 -51.861  1.00  0.00    -0.038 NA
HETATM    8  N4  UNL     1      75.620 -12.531 -53.012  1.00  0.00    -0.024 NA
HETATM    9  N3  UNL     1      76.610 -11.562 -52.828  1.00  0.00    -0.095 NA
HETATM   10  C4  UNL     1      77.863 -12.134 -52.488  1.00  0.00     0.254 C 
HETATM   11  O5  UNL     1      77.872 -13.419 -52.077  1.00  0.00    -0.320 OA
BRANCH   7  12
HETATM   12  O1  UNL     1      74.476 -14.100 -51.802  1.00  0.00    -0.291 OA
ATOM     13  H1  UNL     1      74.432 -14.647 -51.026  1.00  0.00     0.239 HD
ENDBRANCH   7  12
BRANCH  10  14
HETATM   14  C3  UNL     1      78.767 -12.025 -53.723  1.00  0.00     0.171 C 
BRANCH  14  15
HETATM   15  N2  UNL     1      78.145 -11.257 -54.755  1.00  0.00    -0.378 N 
HETATM   16  C2  UNL     1      78.637 -11.130 -55.952  1.00  0.00     0.085 C 
HETATM   17  C1  UNL     1      77.939 -10.320 -56.971  1.00  0.00     0.085 C 
HETATM   18  N1  UNL     1      79.863 -11.798 -56.224  1.00  0.00    -0.088 NA
ATOM     19  H2  UNL     1      77.268 -10.783 -54.542  1.00  0.00     0.160 HD
ENDBRANCH  14  15
ENDBRANCH  10  14
ENDBRANCH   5   6
ENDBRANCH   3   5
ENDBRANCH   2   3
ENDBRANCH   1   2
BRANCH   1  20
HETATM   20  O4  UNL     1      74.371 -15.249 -49.043  1.00  0.00    -0.389 OA
ATOM     21  H4  UNL     1      74.629 -14.347 -49.194  1.00  0.00     0.210 HD
ENDBRANCH   1  20
BRANCH   1  22
HETATM   22  C9  UNL     1      74.753 -17.297 -48.038  1.00  0.00     0.056 A 
HETATM   23  C10 UNL     1      75.032 -18.438 -48.751  1.00  0.00     0.116 A 
HETATM   24  N6  UNL     1      74.457 -19.589 -48.371  1.00  0.00    -0.358 N 
HETATM   25  C11 UNL     1      73.619 -19.602 -47.297  1.00  0.00     0.121 A 
ATOM     26  H6  UNL     1      74.646 -20.451 -48.884  1.00  0.00     0.165 HD
HETATM   27  C12 UNL     1      73.023 -20.777 -46.894  1.00  0.00     0.145 A 
HETATM   28  C14 UNL     1      73.346 -18.455 -46.587  1.00  0.00     0.152 A 
HETATM   29  N8  UNL     1      72.201 -20.772 -45.834  1.00  0.00    -0.175 N 
HETATM   30  C13 UNL     1      71.933 -19.647 -45.139  1.00  0.00     0.679 A 
ATOM     31  H8  UNL     1      71.764 -21.647 -45.545  1.00  0.00     0.186 HD
HETATM   32  N10 UNL     1      72.521 -18.508 -45.542  1.00  0.00    -0.174 N 
ATOM     33  H10 UNL     1      72.328 -17.649 -45.027  1.00  0.00     0.186 HD
HETATM   34  N11 UNL     1      73.913 -17.311 -46.961  1.00  0.00    -0.340 N 
ATOM     35  H11 UNL     1      73.722 -16.450 -46.448  1.00  0.00     0.167 HD
BRANCH  27  36
HETATM   36  N7  UNL     1      73.238 -21.892 -47.519  1.00  0.00    -0.383 N 
ATOM     37  H72 UNL     1      73.826 -22.600 -47.081  1.00  0.00     0.157 HD
ATOM     38  H71 UNL     1      72.831 -22.074 -48.436  1.00  0.00     0.157 HD
ENDBRANCH  27  36
BRANCH  30  39
HETATM   39  N9  UNL     1      71.128 -19.699 -44.119  1.00  0.00    -0.234 N 
ATOM     40  H92 UNL     1      70.685 -20.565 -43.810  1.00  0.00     0.174 HD
ATOM     41  H91 UNL     1      70.921 -18.848 -43.597  1.00  0.00     0.174 HD
ENDBRANCH  30  39
ENDBRANCH   1  22
TORSDOF 11
ENDMDL
