MODEL 1
REMARK VINA RESULT: -8.043295238      0.000      0.000
REMARK  7 active torsions:
REMARK  status: ('A' for Active; 'I' for Inactive)
REMARK    1  A    between atoms: C2_2  and  N1_4 
REMARK    2  A    between atoms: N1_4  and  N2_6 
REMARK       I    between atoms: N2_6  and  C4_8 
REMARK       I    between atoms: C4_8  and  N3_9 
REMARK       I    between atoms: C4_8  and  N8_26 
REMARK    3  A    between atoms: N3_9  and  N4_11 
REMARK    4  A    between atoms: N4_11  and  C5_13 
REMARK    5  A    between atoms: C6_18  and  S1_19 
REMARK    6  A    between atoms: S1_19  and  N7_20 
REMARK    7  A    between atoms: N8_26  and  N9_28 
ROOT
HETATM    1  N2  UNL     1     -32.780  12.850  12.985  1.00  0.00    -0.129 N 
ATOM      2  H2  UNL     1     -33.135  13.622  12.421  1.00  0.00     0.205 HD
HETATM    3  C4  UNL     1     -32.161  11.898  12.373  1.00  0.00     0.730 C 
HETATM    4  N3  UNL     1     -31.656  10.811  13.136  1.00  0.00    -0.126 N 
ATOM      5  H3  UNL     1     -32.266  10.017  13.332  1.00  0.00     0.206 HD
HETATM    6  N8  UNL     1     -32.022  12.003  10.963  1.00  0.00    -0.069 N 
ATOM      7  H8  UNL     1     -32.398  11.254  10.382  1.00  0.00     0.212 HD
ENDROOT
BRANCH   4   8
HETATM    8  N4  UNL     1     -30.336  10.798  13.629  1.00  0.00    -0.249 N 
ATOM      9  H4  UNL     1     -29.542  10.793  12.988  1.00  0.00     0.191 HD
BRANCH   8  10
HETATM   10  C5  UNL     1     -30.148  10.793  14.910  1.00  0.00     0.261 A 
HETATM   11  N5  UNL     1     -31.067  10.863  15.895  1.00  0.00    -0.261 N 
HETATM   12  N6  UNL     1     -30.390  10.822  17.031  1.00  0.00    -0.265 N 
ATOM     13  H5  UNL     1     -32.079  10.932  15.786  1.00  0.00     0.190 HD
HETATM   14  C6  UNL     1     -29.069  10.729  16.763  1.00  0.00     0.284 A 
ATOM     15  H6  UNL     1     -30.802  10.856  17.963  1.00  0.00     0.190 HD
HETATM   16  O3  UNL     1     -28.961  10.714  15.456  1.00  0.00    -0.247 OA
BRANCH  14  17
HETATM   17  S1  UNL     1     -27.734  10.641  17.889  1.00  0.00     0.297 S 
HETATM   18  O1  UNL     1     -28.233  10.079  19.204  1.00  0.00    -0.197 OA
HETATM   19  O2  UNL     1     -27.172  12.006  18.078  1.00  0.00    -0.197 OA
BRANCH  17  20
HETATM   20  N7  UNL     1     -26.577   9.544  17.240  1.00  0.00    -0.321 N 
ATOM     21  H72 UNL     1     -26.397   9.394  16.248  1.00  0.00     0.169 HD
ATOM     22  H71 UNL     1     -26.117   9.083  18.024  1.00  0.00     0.169 HD
ENDBRANCH  17  20
ENDBRANCH  14  17
ENDBRANCH   8  10
ENDBRANCH   4   8
BRANCH   1  23
HETATM   23  N1  UNL     1     -33.001  12.902  14.348  1.00  0.00    -0.295 N 
ATOM     24  H1  UNL     1     -33.485  12.121  14.790  1.00  0.00     0.186 HD
BRANCH  23  25
HETATM   25  C2  UNL     1     -32.627  13.884  15.086  1.00  0.00    -0.004 C 
HETATM   26  C1  UNL     1     -31.312  14.507  14.810  1.00  0.00     0.064 C 
HETATM   27  C3  UNL     1     -33.488  14.378  16.181  1.00  0.00     0.064 C 
ENDBRANCH  23  25
ENDBRANCH   1  23
BRANCH   6  28
HETATM   28  N9  UNL     1     -31.397  13.077  10.334  1.00  0.00    -0.024 N 
HETATM   29  O4  UNL     1     -30.203  12.989  10.007  1.00  0.00    -0.516 OA
HETATM   30  O5  UNL     1     -32.101  14.215  10.082  1.00  0.00    -0.516 OA
ENDBRANCH   6  28
TORSDOF 7
ENDMDL
MODEL 2
REMARK VINA RESULT: -7.932366573      2.915      6.644
REMARK  7 active torsions:
REMARK  status: ('A' for Active; 'I' for Inactive)
REMARK    1  A    between atoms: C2_2  and  N1_4 
REMARK    2  A    between atoms: N1_4  and  N2_6 
REMARK       I    between atoms: N2_6  and  C4_8 
REMARK       I    between atoms: C4_8  and  N3_9 
REMARK       I    between atoms: C4_8  and  N8_26 
REMARK    3  A    between atoms: N3_9  and  N4_11 
REMARK    4  A    between atoms: N4_11  and  C5_13 
REMARK    5  A    between atoms: C6_18  and  S1_19 
REMARK    6  A    between atoms: S1_19  and  N7_20 
REMARK    7  A    between atoms: N8_26  and  N9_28 
ROOT
HETATM    1  N2  UNL     1     -29.652  10.675  14.346  1.00  0.00    -0.129 N 
ATOM      2  H2  UNL     1     -28.815  10.555  14.916  1.00  0.00     0.205 HD
HETATM    3  C4  UNL     1     -30.785  10.752  14.957  1.00  0.00     0.730 C 
HETATM    4  N3  UNL     1     -31.966  10.921  14.187  1.00  0.00    -0.126 N 
ATOM      5  H3  UNL     1     -32.445  10.096  13.825  1.00  0.00     0.206 HD
HETATM    6  N8  UNL     1     -30.775  10.663  16.376  1.00  0.00    -0.069 N 
ATOM      7  H8  UNL     1     -31.323   9.926  16.819  1.00  0.00     0.212 HD
ENDROOT
BRANCH   4   8
HETATM    8  N4  UNL     1     -32.496  12.197  13.908  1.00  0.00    -0.249 N 
ATOM      9  H4  UNL     1     -32.884  12.773  14.655  1.00  0.00     0.191 HD
BRANCH   8  10
HETATM   10  C5  UNL     1     -32.482  12.626  12.686  1.00  0.00     0.261 A 
HETATM   11  N5  UNL     1     -33.479  12.614  11.779  1.00  0.00    -0.261 N 
HETATM   12  N6  UNL     1     -32.982  13.158  10.680  1.00  0.00    -0.265 N 
ATOM     13  H5  UNL     1     -34.426  12.258  11.913  1.00  0.00     0.190 HD
HETATM   14  C6  UNL     1     -31.694  13.506  10.895  1.00  0.00     0.284 A 
ATOM     15  H6  UNL     1     -33.492  13.294   9.808  1.00  0.00     0.190 HD
HETATM   16  O3  UNL     1     -31.424  13.165  12.133  1.00  0.00    -0.247 OA
BRANCH  14  17
HETATM   17  S1  UNL     1     -30.571  14.260   9.787  1.00  0.00     0.297 S 
HETATM   18  O1  UNL     1     -29.330  14.674  10.548  1.00  0.00    -0.197 OA
HETATM   19  O2  UNL     1     -31.228  15.441   9.165  1.00  0.00    -0.197 OA
BRANCH  17  20
HETATM   20  N7  UNL     1     -30.118  13.078   8.621  1.00  0.00    -0.321 N 
ATOM     21  H72 UNL     1     -29.215  13.026   8.151  1.00  0.00     0.169 HD
ATOM     22  H71 UNL     1     -30.912  12.451   8.495  1.00  0.00     0.169 HD
ENDBRANCH  17  20
ENDBRANCH  14  17
ENDBRANCH   8  10
ENDBRANCH   4   8
BRANCH   1  23
HETATM   23  N1  UNL     1     -29.486  10.743  12.976  1.00  0.00    -0.295 N 
ATOM     24  H1  UNL     1     -30.139  10.231  12.383  1.00  0.00     0.186 HD
BRANCH  23  25
HETATM   25  C2  UNL     1     -28.551  11.418  12.412  1.00  0.00    -0.004 C 
HETATM   26  C1  UNL     1     -28.215  11.111  11.002  1.00  0.00     0.064 C 
HETATM   27  C3  UNL     1     -27.829  12.475  13.152  1.00  0.00     0.064 C 
ENDBRANCH  23  25
ENDBRANCH   1  23
BRANCH   6  28
HETATM   28  N9  UNL     1     -30.056  11.533  17.191  1.00  0.00    -0.024 N 
HETATM   29  O4  UNL     1     -29.685  11.158  18.315  1.00  0.00    -0.516 OA
HETATM   30  O5  UNL     1     -29.764  12.787  16.749  1.00  0.00    -0.516 OA
ENDBRANCH   6  28
TORSDOF 7
ENDMDL
MODEL 3
REMARK VINA RESULT: -7.888653361      1.036      1.237
REMARK  7 active torsions:
REMARK  status: ('A' for Active; 'I' for Inactive)
REMARK    1  A    between atoms: C2_2  and  N1_4 
REMARK    2  A    between atoms: N1_4  and  N2_6 
REMARK       I    between atoms: N2_6  and  C4_8 
REMARK       I    between atoms: C4_8  and  N3_9 
REMARK       I    between atoms: C4_8  and  N8_26 
REMARK    3  A    between atoms: N3_9  and  N4_11 
REMARK    4  A    between atoms: N4_11  and  C5_13 
REMARK    5  A    between atoms: C6_18  and  S1_19 
REMARK    6  A    between atoms: S1_19  and  N7_20 
REMARK    7  A    between atoms: N8_26  and  N9_28 
ROOT
HETATM    1  N2  UNL     1     -32.889  12.913  13.556  1.00  0.00    -0.129 N 
ATOM      2  H2  UNL     1     -33.270  13.618  12.926  1.00  0.00     0.205 HD
HETATM    3  C4  UNL     1     -32.298  11.896  13.026  1.00  0.00     0.730 C 
HETATM    4  N3  UNL     1     -31.756  10.899  13.881  1.00  0.00    -0.126 N 
ATOM      5  H3  UNL     1     -32.355  10.135  14.193  1.00  0.00     0.206 HD
HETATM    6  N8  UNL     1     -32.226  11.842  11.608  1.00  0.00    -0.069 N 
ATOM      7  H8  UNL     1     -32.628  11.034  11.133  1.00  0.00     0.212 HD
ENDROOT
BRANCH   4   8
HETATM    8  N4  UNL     1     -30.414  10.936  14.310  1.00  0.00    -0.249 N 
ATOM      9  H4  UNL     1     -29.653  10.961  13.631  1.00  0.00     0.191 HD
BRANCH   8  10
HETATM   10  C5  UNL     1     -30.164  10.939  15.580  1.00  0.00     0.261 A 
HETATM   11  N5  UNL     1     -31.014  11.158  16.604  1.00  0.00    -0.261 N 
HETATM   12  N6  UNL     1     -30.293  11.055  17.708  1.00  0.00    -0.265 N 
ATOM     13  H5  UNL     1     -32.012  11.361  16.540  1.00  0.00     0.190 HD
HETATM   14  C6  UNL     1     -29.011  10.776  17.382  1.00  0.00     0.284 A 
ATOM     15  H6  UNL     1     -30.649  11.169  18.657  1.00  0.00     0.190 HD
HETATM   16  O3  UNL     1     -28.972  10.713  16.072  1.00  0.00    -0.247 OA
BRANCH  14  17
HETATM   17  S1  UNL     1     -27.645  10.537  18.447  1.00  0.00     0.297 S 
HETATM   18  O1  UNL     1     -26.457  10.074  17.630  1.00  0.00    -0.197 OA
HETATM   19  O2  UNL     1     -28.007   9.525  19.476  1.00  0.00    -0.197 OA
BRANCH  17  20
HETATM   20  N7  UNL     1     -27.256  12.062  19.143  1.00  0.00    -0.321 N 
ATOM     21  H72 UNL     1     -27.720  12.480  19.950  1.00  0.00     0.169 HD
ATOM     22  H71 UNL     1     -26.487  12.459  18.604  1.00  0.00     0.169 HD
ENDBRANCH  17  20
ENDBRANCH  14  17
ENDBRANCH   8  10
ENDBRANCH   4   8
BRANCH   1  23
HETATM   23  N1  UNL     1     -33.044  13.118  14.914  1.00  0.00    -0.295 N 
ATOM     24  H1  UNL     1     -33.460  12.372  15.471  1.00  0.00     0.186 HD
BRANCH  23  25
HETATM   25  C2  UNL     1     -32.693  14.200  15.508  1.00  0.00    -0.004 C 
HETATM   26  C1  UNL     1     -31.349  14.754  15.221  1.00  0.00     0.064 C 
HETATM   27  C3  UNL     1     -33.607  14.875  16.453  1.00  0.00     0.064 C 
ENDBRANCH  23  25
ENDBRANCH   1  23
BRANCH   6  28
HETATM   28  N9  UNL     1     -31.633  12.836  10.834  1.00  0.00    -0.024 N 
HETATM   29  O4  UNL     1     -30.442  12.729  10.500  1.00  0.00    -0.516 OA
HETATM   30  O5  UNL     1     -32.364  13.918  10.448  1.00  0.00    -0.516 OA
ENDBRANCH   6  28
TORSDOF 7
ENDMDL
MODEL 4
REMARK VINA RESULT: -7.882631318      1.895      2.346
REMARK  7 active torsions:
REMARK  status: ('A' for Active; 'I' for Inactive)
REMARK    1  A    between atoms: C2_2  and  N1_4 
REMARK    2  A    between atoms: N1_4  and  N2_6 
REMARK       I    between atoms: N2_6  and  C4_8 
REMARK       I    between atoms: C4_8  and  N3_9 
REMARK       I    between atoms: C4_8  and  N8_26 
REMARK    3  A    between atoms: N3_9  and  N4_11 
REMARK    4  A    between atoms: N4_11  and  C5_13 
REMARK    5  A    between atoms: C6_18  and  S1_19 
REMARK    6  A    between atoms: S1_19  and  N7_20 
REMARK    7  A    between atoms: N8_26  and  N9_28 
ROOT
HETATM    1  N2  UNL     1     -31.384  13.819  13.557  1.00  0.00    -0.129 N 
ATOM      2  H2  UNL     1     -31.509  14.464  12.777  1.00  0.00     0.205 HD
HETATM    3  C4  UNL     1     -32.170  12.798  13.618  1.00  0.00     0.730 C 
HETATM    4  N3  UNL     1     -32.017  11.882  14.693  1.00  0.00    -0.126 N 
ATOM      5  H3  UNL     1     -32.507  12.060  15.570  1.00  0.00     0.206 HD
HETATM    6  N8  UNL     1     -33.146  12.655  12.594  1.00  0.00    -0.069 N 
ATOM      7  H8  UNL     1     -34.128  12.610  12.864  1.00  0.00     0.212 HD
ENDROOT
BRANCH   4   8
HETATM    8  N4  UNL     1     -31.206  10.734  14.583  1.00  0.00    -0.249 N 
ATOM      9  H4  UNL     1     -31.485   9.958  13.983  1.00  0.00     0.191 HD
BRANCH   8  10
HETATM   10  C5  UNL     1     -30.102  10.683  15.256  1.00  0.00     0.261 A 
HETATM   11  N5  UNL     1     -28.856  10.423  14.811  1.00  0.00    -0.261 N 
HETATM   12  N6  UNL     1     -28.067  10.483  15.872  1.00  0.00    -0.265 N 
ATOM     13  H5  UNL     1     -28.578  10.221  13.851  1.00  0.00     0.190 HD
HETATM   14  C6  UNL     1     -28.807  10.777  16.964  1.00  0.00     0.284 A 
ATOM     15  H6  UNL     1     -27.059  10.332  15.865  1.00  0.00     0.190 HD
HETATM   16  O3  UNL     1     -30.046  10.891  16.548  1.00  0.00    -0.247 OA
BRANCH  14  17
HETATM   17  S1  UNL     1     -28.273  10.976  18.618  1.00  0.00     0.297 S 
HETATM   18  O1  UNL     1     -29.470  11.298  19.487  1.00  0.00    -0.197 OA
HETATM   19  O2  UNL     1     -27.270  12.074  18.672  1.00  0.00    -0.197 OA
BRANCH  17  20
HETATM   20  N7  UNL     1     -27.620   9.471  19.138  1.00  0.00    -0.321 N 
ATOM     21  H72 UNL     1     -26.640   9.197  19.073  1.00  0.00     0.169 HD
ATOM     22  H71 UNL     1     -28.388   8.917  19.517  1.00  0.00     0.169 HD
ENDBRANCH  17  20
ENDBRANCH  14  17
ENDBRANCH   8  10
ENDBRANCH   4   8
BRANCH   1  23
HETATM   23  N1  UNL     1     -30.385  14.104  14.468  1.00  0.00    -0.295 N 
ATOM     24  H1  UNL     1     -30.653  14.318  15.428  1.00  0.00     0.186 HD
BRANCH  23  25
HETATM   25  C2  UNL     1     -29.138  14.114  14.166  1.00  0.00    -0.004 C 
HETATM   26  C1  UNL     1     -28.762  14.163  12.734  1.00  0.00     0.064 C 
HETATM   27  C3  UNL     1     -28.104  14.078  15.222  1.00  0.00     0.064 C 
ENDBRANCH  23  25
ENDBRANCH   1  23
BRANCH   6  28
HETATM   28  N9  UNL     1     -32.827  12.574  11.241  1.00  0.00    -0.024 N 
HETATM   29  O4  UNL     1     -32.758  11.464  10.691  1.00  0.00    -0.516 OA
HETATM   30  O5  UNL     1     -32.596  13.713  10.532  1.00  0.00    -0.516 OA
ENDBRANCH   6  28
TORSDOF 7
ENDMDL
MODEL 5
REMARK VINA RESULT: -7.728065516      3.093      4.878
REMARK  7 active torsions:
REMARK  status: ('A' for Active; 'I' for Inactive)
REMARK    1  A    between atoms: C2_2  and  N1_4 
REMARK    2  A    between atoms: N1_4  and  N2_6 
REMARK       I    between atoms: N2_6  and  C4_8 
REMARK       I    between atoms: C4_8  and  N3_9 
REMARK       I    between atoms: C4_8  and  N8_26 
REMARK    3  A    between atoms: N3_9  and  N4_11 
REMARK    4  A    between atoms: N4_11  and  C5_13 
REMARK    5  A    between atoms: C6_18  and  S1_19 
REMARK    6  A    between atoms: S1_19  and  N7_20 
REMARK    7  A    between atoms: N8_26  and  N9_28 
ROOT
HETATM    1  N2  UNL     1     -28.993  12.077  11.180  1.00  0.00    -0.129 N 
ATOM      2  H2  UNL     1     -28.153  12.652  11.250  1.00  0.00     0.205 HD
HETATM    3  C4  UNL     1     -29.173  11.172  12.081  1.00  0.00     0.730 C 
HETATM    4  N3  UNL     1     -30.336  10.358  12.008  1.00  0.00    -0.126 N 
ATOM      5  H3  UNL     1     -30.312   9.509  11.444  1.00  0.00     0.206 HD
HETATM    6  N8  UNL     1     -28.187  11.047  13.097  1.00  0.00    -0.069 N 
ATOM      7  H8  UNL     1     -27.721  10.148  13.212  1.00  0.00     0.212 HD
ENDROOT
BRANCH   4   8
HETATM    8  N4  UNL     1     -31.521  10.692  12.694  1.00  0.00    -0.249 N 
ATOM      9  H4  UNL     1     -32.433  10.490  12.283  1.00  0.00     0.191 HD
BRANCH   8  10
HETATM   10  C5  UNL     1     -31.433  11.260  13.854  1.00  0.00     0.261 A 
HETATM   11  N5  UNL     1     -31.103  10.706  15.038  1.00  0.00    -0.261 N 
HETATM   12  N6  UNL     1     -31.149  11.686  15.926  1.00  0.00    -0.265 N 
ATOM     13  H5  UNL     1     -30.865   9.730  15.214  1.00  0.00     0.190 HD
HETATM   14  C6  UNL     1     -31.503  12.835  15.309  1.00  0.00     0.284 A 
ATOM     15  H6  UNL     1     -30.950  11.588  16.922  1.00  0.00     0.190 HD
HETATM   16  O3  UNL     1     -31.667  12.534  14.042  1.00  0.00    -0.247 OA
BRANCH  14  17
HETATM   17  S1  UNL     1     -31.711  14.425  16.006  1.00  0.00     0.297 S 
HETATM   18  O1  UNL     1     -30.356  14.970  16.406  1.00  0.00    -0.197 OA
HETATM   19  O2  UNL     1     -32.608  14.319  17.188  1.00  0.00    -0.197 OA
BRANCH  17  20
HETATM   20  N7  UNL     1     -32.362  15.447  14.784  1.00  0.00    -0.321 N 
ATOM     21  H72 UNL     1     -32.271  15.299  13.779  1.00  0.00     0.169 HD
ATOM     22  H71 UNL     1     -32.847  16.213  15.250  1.00  0.00     0.169 HD
ENDBRANCH  17  20
ENDBRANCH  14  17
ENDBRANCH   8  10
ENDBRANCH   4   8
BRANCH   1  23
HETATM   23  N1  UNL     1     -29.853  12.328  10.128  1.00  0.00    -0.295 N 
ATOM     24  H1  UNL     1     -30.010  11.588   9.445  1.00  0.00     0.186 HD
BRANCH  23  25
HETATM   25  C2  UNL     1     -30.462  13.446   9.967  1.00  0.00    -0.004 C 
HETATM   26  C1  UNL     1     -31.730  13.667  10.701  1.00  0.00     0.064 C 
HETATM   27  C3  UNL     1     -29.912  14.486   9.072  1.00  0.00     0.064 C 
ENDBRANCH  23  25
ENDBRANCH   1  23
BRANCH   6  28
HETATM   28  N9  UNL     1     -27.826  12.093  13.943  1.00  0.00    -0.024 N 
HETATM   29  O4  UNL     1     -27.160  13.041  13.500  1.00  0.00    -0.516 OA
HETATM   30  O5  UNL     1     -28.207  12.066  15.250  1.00  0.00    -0.516 OA
ENDBRANCH   6  28
TORSDOF 7
ENDMDL
