MODEL 1
REMARK VINA RESULT: -4.970448251      0.000      0.000
REMARK  5 active torsions:
REMARK  status: ('A' for Active; 'I' for Inactive)
REMARK    1  A    between atoms: C2_2  and  C3_3 
REMARK    2  A    between atoms: C3_3  and  O1_4 
REMARK    3  A    between atoms: O1_4  and  C4_5 
REMARK    4  A    between atoms: C7_9  and  O2_10 
REMARK    5  A    between atoms: C8_12  and  O3_13 
ROOT
HETATM    1  C4  UNL     1       8.111   6.500  -2.175  1.00  0.00     0.214 C 
HETATM    2  S1  UNL     1       6.506   7.141  -1.547  1.00  0.00    -0.135 SA
HETATM    3  C5  UNL     1       6.501   8.952  -1.795  1.00  0.00     0.079 C 
HETATM    4  C6  UNL     1       7.471   9.277  -2.918  1.00  0.00     0.045 C 
HETATM    5  C7  UNL     1       7.484   8.168  -3.950  1.00  0.00     0.150 C 
HETATM    6  C8  UNL     1       8.432   7.080  -3.511  1.00  0.00     0.185 C 
ENDROOT
BRANCH   1   7
HETATM    7  O1  UNL     1       9.092   6.909  -1.281  1.00  0.00    -0.369 OA
BRANCH   7   8
HETATM    8  C3  UNL     1      10.302   6.384  -1.643  1.00  0.00     0.196 C 
BRANCH   8   9
HETATM    9  C2  UNL     1      10.762   5.394  -0.651  1.00  0.00    -0.011 C 
HETATM   10  C1  UNL     1      11.425   4.325  -1.070  1.00  0.00     0.009 C 
ENDBRANCH   8   9
ENDBRANCH   7   8
ENDBRANCH   1   7
BRANCH   6  11
HETATM   11  O3  UNL     1       8.476   6.060  -4.496  1.00  0.00    -0.390 OA
ATOM     12  H3  UNL     1       8.595   6.437  -5.360  1.00  0.00     0.210 HD
ENDBRANCH   6  11
BRANCH   5  13
HETATM   13  O2  UNL     1       8.029   8.719  -5.132  1.00  0.00    -0.393 OA
ATOM     14  H2  UNL     1       8.800   8.206  -5.342  1.00  0.00     0.210 HD
ENDBRANCH   5  13
TORSDOF 5
ENDMDL
MODEL 2
REMARK VINA RESULT: -4.783558458      0.994      1.209
REMARK  5 active torsions:
REMARK  status: ('A' for Active; 'I' for Inactive)
REMARK    1  A    between atoms: C2_2  and  C3_3 
REMARK    2  A    between atoms: C3_3  and  O1_4 
REMARK    3  A    between atoms: O1_4  and  C4_5 
REMARK    4  A    between atoms: C7_9  and  O2_10 
REMARK    5  A    between atoms: C8_12  and  O3_13 
ROOT
HETATM    1  C4  UNL     1       7.895   6.619  -2.129  1.00  0.00     0.214 C 
HETATM    2  S1  UNL     1       6.246   7.283  -1.655  1.00  0.00    -0.135 SA
HETATM    3  C5  UNL     1       6.277   9.088  -1.939  1.00  0.00     0.079 C 
HETATM    4  C6  UNL     1       7.343   9.384  -2.981  1.00  0.00     0.045 C 
HETATM    5  C7  UNL     1       7.438   8.254  -3.985  1.00  0.00     0.150 C 
HETATM    6  C8  UNL     1       8.335   7.170  -3.443  1.00  0.00     0.185 C 
ENDROOT
BRANCH   1   7
HETATM    7  O1  UNL     1       8.798   7.041  -1.161  1.00  0.00    -0.369 OA
BRANCH   7   8
HETATM    8  C3  UNL     1       8.368   6.655   0.078  1.00  0.00     0.196 C 
BRANCH   8   9
HETATM    9  C2  UNL     1       9.498   6.188   0.904  1.00  0.00    -0.011 C 
HETATM   10  C1  UNL     1      10.701   6.092   0.352  1.00  0.00     0.009 C 
ENDBRANCH   8   9
ENDBRANCH   7   8
ENDBRANCH   1   7
BRANCH   6  11
HETATM   11  O3  UNL     1       8.456   6.129  -4.400  1.00  0.00    -0.390 OA
ATOM     12  H3  UNL     1       9.292   5.687  -4.304  1.00  0.00     0.210 HD
ENDBRANCH   6  11
BRANCH   5  13
HETATM   13  O2  UNL     1       8.087   8.777  -5.125  1.00  0.00    -0.393 OA
ATOM     14  H2  UNL     1       9.014   8.812  -4.919  1.00  0.00     0.210 HD
ENDBRANCH   5  13
TORSDOF 5
ENDMDL
MODEL 3
REMARK VINA RESULT: -4.607101005      5.616      6.828
REMARK  5 active torsions:
REMARK  status: ('A' for Active; 'I' for Inactive)
REMARK    1  A    between atoms: C2_2  and  C3_3 
REMARK    2  A    between atoms: C3_3  and  O1_4 
REMARK    3  A    between atoms: O1_4  and  C4_5 
REMARK    4  A    between atoms: C7_9  and  O2_10 
REMARK    5  A    between atoms: C8_12  and  O3_13 
ROOT
HETATM    1  C4  UNL     1      14.268   5.789   1.094  1.00  0.00     0.214 C 
HETATM    2  S1  UNL     1      13.597   6.685  -0.365  1.00  0.00    -0.135 SA
HETATM    3  C5  UNL     1      11.787   6.430  -0.382  1.00  0.00     0.079 C 
HETATM    4  C6  UNL     1      11.341   6.111   1.035  1.00  0.00     0.045 C 
HETATM    5  C7  UNL     1      12.196   6.852   2.043  1.00  0.00     0.150 C 
HETATM    6  C8  UNL     1      13.455   6.067   2.313  1.00  0.00     0.185 C 
ENDROOT
BRANCH   1   7
HETATM    7  O1  UNL     1      14.177   4.430   0.816  1.00  0.00    -0.369 OA
BRANCH   7   8
HETATM    8  C3  UNL     1      14.660   4.177  -0.438  1.00  0.00     0.196 C 
BRANCH   8   9
HETATM    9  C2  UNL     1      14.019   2.981  -1.015  1.00  0.00    -0.011 C 
HETATM   10  C1  UNL     1      12.739   3.040  -1.357  1.00  0.00     0.009 C 
ENDBRANCH   8   9
ENDBRANCH   7   8
ENDBRANCH   1   7
BRANCH   6  11
HETATM   11  O3  UNL     1      14.237   6.739   3.287  1.00  0.00    -0.390 OA
ATOM     12  H3  UNL     1      14.925   7.244   2.869  1.00  0.00     0.210 HD
ENDBRANCH   6  11
BRANCH   5  13
HETATM   13  O2  UNL     1      11.469   6.870   3.255  1.00  0.00    -0.393 OA
ATOM     14  H2  UNL     1      11.547   7.750   3.606  1.00  0.00     0.210 HD
ENDBRANCH   5  13
TORSDOF 5
ENDMDL
MODEL 4
REMARK VINA RESULT: -4.605748043      5.273      6.767
REMARK  5 active torsions:
REMARK  status: ('A' for Active; 'I' for Inactive)
REMARK    1  A    between atoms: C2_2  and  C3_3 
REMARK    2  A    between atoms: C3_3  and  O1_4 
REMARK    3  A    between atoms: O1_4  and  C4_5 
REMARK    4  A    between atoms: C7_9  and  O2_10 
REMARK    5  A    between atoms: C8_12  and  O3_13 
ROOT
HETATM    1  C4  UNL     1      13.411   5.506  -0.188  1.00  0.00     0.214 C 
HETATM    2  S1  UNL     1      12.045   6.715  -0.420  1.00  0.00    -0.135 SA
HETATM    3  C5  UNL     1      10.969   6.620   1.056  1.00  0.00     0.079 C 
HETATM    4  C6  UNL     1      11.796   6.077   2.208  1.00  0.00     0.045 C 
HETATM    5  C7  UNL     1      13.235   6.539   2.098  1.00  0.00     0.150 C 
HETATM    6  C8  UNL     1      13.995   5.616   1.180  1.00  0.00     0.185 C 
ENDROOT
BRANCH   1   7
HETATM    7  O1  UNL     1      12.862   4.238  -0.322  1.00  0.00    -0.369 OA
BRANCH   7   8
HETATM    8  C3  UNL     1      13.831   3.345  -0.687  1.00  0.00     0.196 C 
BRANCH   8   9
HETATM    9  C2  UNL     1      13.532   2.756  -2.006  1.00  0.00    -0.011 C 
HETATM   10  C1  UNL     1      14.423   1.951  -2.568  1.00  0.00     0.009 C 
ENDBRANCH   8   9
ENDBRANCH   7   8
ENDBRANCH   1   7
BRANCH   6  11
HETATM   11  O3  UNL     1      15.352   6.024   1.108  1.00  0.00    -0.390 OA
ATOM     12  H3  UNL     1      15.647   6.344   1.953  1.00  0.00     0.210 HD
ENDBRANCH   6  11
BRANCH   5  13
HETATM   13  O2  UNL     1      13.809   6.389   3.381  1.00  0.00    -0.393 OA
ATOM     14  H2  UNL     1      14.620   5.909   3.262  1.00  0.00     0.210 HD
ENDBRANCH   5  13
TORSDOF 5
ENDMDL
MODEL 5
REMARK VINA RESULT: -4.484278804      5.243      6.507
REMARK  5 active torsions:
REMARK  status: ('A' for Active; 'I' for Inactive)
REMARK    1  A    between atoms: C2_2  and  C3_3 
REMARK    2  A    between atoms: C3_3  and  O1_4 
REMARK    3  A    between atoms: O1_4  and  C4_5 
REMARK    4  A    between atoms: C7_9  and  O2_10 
REMARK    5  A    between atoms: C8_12  and  O3_13 
ROOT
HETATM    1  C4  UNL     1      13.427   3.073  -1.174  1.00  0.00     0.214 C 
HETATM    2  S1  UNL     1      14.386   3.668   0.278  1.00  0.00    -0.135 SA
HETATM    3  C5  UNL     1      14.464   5.491   0.177  1.00  0.00     0.079 C 
HETATM    4  C6  UNL     1      13.286   5.969  -0.655  1.00  0.00     0.045 C 
HETATM    5  C7  UNL     1      12.085   5.071  -0.444  1.00  0.00     0.150 C 
HETATM    6  C8  UNL     1      12.182   3.873  -1.356  1.00  0.00     0.185 C 
ENDROOT
BRANCH   1   7
HETATM    7  O1  UNL     1      14.226   3.259  -2.295  1.00  0.00    -0.369 OA
BRANCH   7   8
HETATM    8  C3  UNL     1      14.257   2.114  -3.042  1.00  0.00     0.196 C 
BRANCH   8   9
HETATM    9  C2  UNL     1      13.664   2.339  -4.374  1.00  0.00    -0.011 C 
HETATM   10  C1  UNL     1      12.389   2.034  -4.570  1.00  0.00     0.009 C 
ENDBRANCH   8   9
ENDBRANCH   7   8
ENDBRANCH   1   7
BRANCH   6  11
HETATM   11  O3  UNL     1      11.037   3.052  -1.188  1.00  0.00    -0.390 OA
ATOM     12  H3  UNL     1      11.133   2.502  -0.419  1.00  0.00     0.210 HD
ENDBRANCH   6  11
BRANCH   5  13
HETATM   13  O2  UNL     1      10.952   5.803  -0.866  1.00  0.00    -0.393 OA
ATOM     14  H2  UNL     1      11.114   6.711  -0.639  1.00  0.00     0.210 HD
ENDBRANCH   5  13
TORSDOF 5
ENDMDL
