MODEL 1
REMARK VINA RESULT: -6.948134471      0.000      0.000
REMARK  3 active torsions:
REMARK  status: ('A' for Active; 'I' for Inactive)
REMARK    1  A    between atoms: C7_7  and  N1_8 
REMARK    2  A    between atoms: N1_8  and  C8_11 
REMARK    3  A    between atoms: C8_11  and  C9_12 
ROOT
HETATM    1  N1  UNL     1      12.671   3.864  -0.892  1.00  0.00    -0.064 N 
ATOM      2  H11 UNL     1      12.103   3.892  -1.739  1.00  0.00     0.278 HD
ATOM      3  H12 UNL     1      11.946   3.646  -0.209  1.00  0.00     0.278 HD
ENDROOT
BRANCH   1   4
HETATM    4  C7  UNL     1      13.248   5.142  -0.628  1.00  0.00     0.190 C 
HETATM    5  C2  UNL     1      12.235   6.088  -0.090  1.00  0.00     0.012 C 
HETATM    6  C1  UNL     1      10.841   5.851  -0.610  1.00  0.00     0.012 C 
HETATM    7  C3  UNL     1      12.258   6.004   1.432  1.00  0.00     0.006 C 
HETATM    8  C4  UNL     1      13.479   6.787   1.899  1.00  0.00     0.000 C 
HETATM    9  C5  UNL     1      14.646   6.365   1.035  1.00  0.00     0.002 C 
HETATM   10  C6  UNL     1      14.351   5.015   0.400  1.00  0.00     0.033 C 
ENDBRANCH   1   4
BRANCH   1  11
HETATM   11  C8  UNL     1      13.648   2.798  -0.963  1.00  0.00     0.311 C 
BRANCH  11  12
HETATM   12  C9  UNL     1      13.976   2.446  -2.367  1.00  0.00     0.136 A 
HETATM   13  N2  UNL     1      15.202   2.149  -2.872  1.00  0.00    -0.269 N 
HETATM   14  N3  UNL     1      15.076   1.891  -4.167  1.00  0.00    -0.005 NA
ATOM     15  H2  UNL     1      16.073   2.129  -2.343  1.00  0.00     0.185 HD
HETATM   16  N4  UNL     1      13.806   2.011  -4.512  1.00  0.00    -0.225 N 
HETATM   17  N5  UNL     1      13.144   2.346  -3.427  1.00  0.00    -0.274 N 
ATOM     18  H4  UNL     1      13.414   1.871  -5.442  1.00  0.00     0.205 HD
ATOM     19  H5  UNL     1      12.138   2.508  -3.391  1.00  0.00     0.189 HD
ENDBRANCH  11  12
ENDBRANCH   1  11
TORSDOF 3
ENDMDL
MODEL 2
REMARK VINA RESULT: -6.851507777      0.422      1.024
REMARK  3 active torsions:
REMARK  status: ('A' for Active; 'I' for Inactive)
REMARK    1  A    between atoms: C7_7  and  N1_8 
REMARK    2  A    between atoms: N1_8  and  C8_11 
REMARK    3  A    between atoms: C8_11  and  C9_12 
ROOT
HETATM    1  N1  UNL     1      13.169   3.965  -0.823  1.00  0.00    -0.064 N 
ATOM      2  H11 UNL     1      12.529   3.953  -1.617  1.00  0.00     0.278 HD
ATOM      3  H12 UNL     1      12.557   3.573  -0.107  1.00  0.00     0.278 HD
ENDROOT
BRANCH   1   4
HETATM    4  C7  UNL     1      13.541   5.302  -0.494  1.00  0.00     0.190 C 
HETATM    5  C2  UNL     1      12.367   6.088  -0.029  1.00  0.00     0.012 C 
HETATM    6  C1  UNL     1      11.066   5.677  -0.667  1.00  0.00     0.012 C 
HETATM    7  C3  UNL     1      12.278   5.970   1.488  1.00  0.00     0.006 C 
HETATM    8  C4  UNL     1      13.338   6.899   2.066  1.00  0.00     0.000 C 
HETATM    9  C5  UNL     1      14.618   6.662   1.297  1.00  0.00     0.002 C 
HETATM   10  C6  UNL     1      14.564   5.300   0.621  1.00  0.00     0.033 C 
ENDBRANCH   1   4
BRANCH   1  11
HETATM   11  C8  UNL     1      14.302   3.097  -1.062  1.00  0.00     0.311 C 
BRANCH  11  12
HETATM   12  C9  UNL     1      14.212   2.428  -2.384  1.00  0.00     0.136 A 
HETATM   13  N2  UNL     1      13.127   2.365  -3.199  1.00  0.00    -0.269 N 
HETATM   14  N3  UNL     1      13.451   1.679  -4.287  1.00  0.00    -0.005 NA
ATOM     15  H2  UNL     1      12.214   2.777  -3.005  1.00  0.00     0.185 HD
HETATM   16  N4  UNL     1      14.713   1.298  -4.198  1.00  0.00    -0.225 N 
HETATM   17  N5  UNL     1      15.171   1.749  -3.052  1.00  0.00    -0.274 N 
ATOM     18  H4  UNL     1      15.234   0.757  -4.888  1.00  0.00     0.205 HD
ATOM     19  H5  UNL     1      16.121   1.606  -2.713  1.00  0.00     0.189 HD
ENDBRANCH  11  12
ENDBRANCH   1  11
TORSDOF 3
ENDMDL
MODEL 3
REMARK VINA RESULT: -6.714572644      1.006      2.311
REMARK  3 active torsions:
REMARK  status: ('A' for Active; 'I' for Inactive)
REMARK    1  A    between atoms: C7_7  and  N1_8 
REMARK    2  A    between atoms: N1_8  and  C8_11 
REMARK    3  A    between atoms: C8_11  and  C9_12 
ROOT
HETATM    1  N1  UNL     1      14.228   4.378  -1.144  1.00  0.00    -0.064 N 
ATOM      2  H11 UNL     1      14.987   5.035  -0.968  1.00  0.00     0.278 HD
ATOM      3  H12 UNL     1      13.950   4.686  -2.076  1.00  0.00     0.278 HD
ENDROOT
BRANCH   1   4
HETATM    4  C7  UNL     1      13.166   4.568  -0.212  1.00  0.00     0.190 C 
HETATM    5  C2  UNL     1      13.352   5.821   0.567  1.00  0.00     0.012 C 
HETATM    6  C1  UNL     1      14.794   6.185   0.802  1.00  0.00     0.012 C 
HETATM    7  C3  UNL     1      12.628   6.950  -0.157  1.00  0.00     0.006 C 
HETATM    8  C4  UNL     1      11.143   6.788   0.144  1.00  0.00     0.000 C 
HETATM    9  C5  UNL     1      10.797   5.330  -0.054  1.00  0.00     0.002 C 
HETATM   10  C6  UNL     1      11.843   4.671  -0.939  1.00  0.00     0.033 C 
ENDBRANCH   1   4
BRANCH   1  11
HETATM   11  C8  UNL     1      14.723   3.018  -1.179  1.00  0.00     0.311 C 
BRANCH  11  12
HETATM   12  C9  UNL     1      14.442   2.364  -2.482  1.00  0.00     0.136 A 
HETATM   13  N2  UNL     1      13.249   2.306  -3.129  1.00  0.00    -0.269 N 
HETATM   14  N3  UNL     1      13.412   1.634  -4.261  1.00  0.00    -0.005 NA
ATOM     15  H2  UNL     1      12.374   2.713  -2.799  1.00  0.00     0.185 HD
HETATM   16  N4  UNL     1      14.674   1.257  -4.363  1.00  0.00    -0.225 N 
HETATM   17  N5  UNL     1      15.294   1.696  -3.291  1.00  0.00    -0.274 N 
ATOM     18  H4  UNL     1      15.089   0.726  -5.128  1.00  0.00     0.205 HD
ATOM     19  H5  UNL     1      16.284   1.553  -3.096  1.00  0.00     0.189 HD
ENDBRANCH  11  12
ENDBRANCH   1  11
TORSDOF 3
ENDMDL
MODEL 4
REMARK VINA RESULT: -6.687389669      1.816      3.262
REMARK  3 active torsions:
REMARK  status: ('A' for Active; 'I' for Inactive)
REMARK    1  A    between atoms: C7_7  and  N1_8 
REMARK    2  A    between atoms: N1_8  and  C8_11 
REMARK    3  A    between atoms: C8_11  and  C9_12 
ROOT
HETATM    1  N1  UNL     1      14.405   2.360  -2.507  1.00  0.00    -0.064 N 
ATOM      2  H11 UNL     1      15.105   1.672  -2.230  1.00  0.00     0.278 HD
ATOM      3  H12 UNL     1      15.015   3.157  -2.692  1.00  0.00     0.278 HD
ENDROOT
BRANCH   1   4
HETATM    4  C7  UNL     1      13.517   2.643  -1.427  1.00  0.00     0.190 C 
HETATM    5  C2  UNL     1      14.080   3.683  -0.526  1.00  0.00     0.012 C 
HETATM    6  C1  UNL     1      15.583   3.665  -0.437  1.00  0.00     0.012 C 
HETATM    7  C3  UNL     1      13.590   5.046  -1.001  1.00  0.00     0.006 C 
HETATM    8  C4  UNL     1      12.146   5.185  -0.531  1.00  0.00     0.000 C 
HETATM    9  C5  UNL     1      11.435   3.894  -0.866  1.00  0.00     0.002 C 
HETATM   10  C6  UNL     1      12.196   3.157  -1.957  1.00  0.00     0.033 C 
ENDBRANCH   1   4
BRANCH   1  11
HETATM   11  C8  UNL     1      13.725   1.942  -3.715  1.00  0.00     0.311 C 
BRANCH  11  12
HETATM   12  C9  UNL     1      14.249   2.646  -4.912  1.00  0.00     0.136 A 
HETATM   13  N2  UNL     1      15.529   2.649  -5.366  1.00  0.00    -0.269 N 
HETATM   14  N3  UNL     1      15.590   3.395  -6.461  1.00  0.00    -0.005 NA
ATOM     15  H2  UNL     1      16.313   2.158  -4.935  1.00  0.00     0.185 HD
HETATM   16  N4  UNL     1      14.387   3.873  -6.727  1.00  0.00    -0.225 N 
HETATM   17  N5  UNL     1      13.580   3.422  -5.794  1.00  0.00    -0.274 N 
ATOM     18  H4  UNL     1      14.134   4.476  -7.508  1.00  0.00     0.205 HD
ATOM     19  H5  UNL     1      12.583   3.629  -5.742  1.00  0.00     0.189 HD
ENDBRANCH  11  12
ENDBRANCH   1  11
TORSDOF 3
ENDMDL
MODEL 5
REMARK VINA RESULT: -6.575169710      0.859      1.470
REMARK  3 active torsions:
REMARK  status: ('A' for Active; 'I' for Inactive)
REMARK    1  A    between atoms: C7_7  and  N1_8 
REMARK    2  A    between atoms: N1_8  and  C8_11 
REMARK    3  A    between atoms: C8_11  and  C9_12 
ROOT
HETATM    1  N1  UNL     1      12.734   3.765  -0.857  1.00  0.00    -0.064 N 
ATOM      2  H11 UNL     1      11.815   3.860  -1.289  1.00  0.00     0.278 HD
ATOM      3  H12 UNL     1      12.465   3.313   0.017  1.00  0.00     0.278 HD
ENDROOT
BRANCH   1   4
HETATM    4  C7  UNL     1      13.311   5.045  -0.608  1.00  0.00     0.190 C 
HETATM    5  C2  UNL     1      12.272   6.037  -0.221  1.00  0.00     0.012 C 
HETATM    6  C1  UNL     1      10.930   5.795  -0.859  1.00  0.00     0.012 C 
HETATM    7  C3  UNL     1      12.149   6.037   1.298  1.00  0.00     0.006 C 
HETATM    8  C4  UNL     1      13.338   6.824   1.838  1.00  0.00     0.000 C 
HETATM    9  C5  UNL     1      14.571   6.335   1.114  1.00  0.00     0.002 C 
HETATM   10  C6  UNL     1      14.308   4.957   0.527  1.00  0.00     0.033 C 
ENDBRANCH   1   4
BRANCH   1  11
HETATM   11  C8  UNL     1      13.584   2.897  -1.644  1.00  0.00     0.311 C 
BRANCH  11  12
HETATM   12  C9  UNL     1      12.965   2.559  -2.950  1.00  0.00     0.136 A 
HETATM   13  N2  UNL     1      11.708   2.864  -3.365  1.00  0.00    -0.269 N 
HETATM   14  N3  UNL     1      11.537   2.388  -4.591  1.00  0.00    -0.005 NA
ATOM     15  H2  UNL     1      11.011   3.376  -2.823  1.00  0.00     0.185 HD
HETATM   16  N4  UNL     1      12.647   1.784  -4.979  1.00  0.00    -0.225 N 
HETATM   17  N5  UNL     1      13.506   1.888  -3.991  1.00  0.00    -0.274 N 
ATOM     18  H4  UNL     1      12.806   1.326  -5.876  1.00  0.00     0.205 HD
ATOM     19  H5  UNL     1      14.453   1.512  -4.007  1.00  0.00     0.189 HD
ENDBRANCH  11  12
ENDBRANCH   1  11
TORSDOF 3
ENDMDL
