MODEL 1
REMARK VINA RESULT: -8.729523045      0.000      0.000
REMARK  5 active torsions:
REMARK  status: ('A' for Active; 'I' for Inactive)
REMARK    1  A    between atoms: C2_2  and  N1_4 
REMARK    2  A    between atoms: C6_7  and  O1_8 
REMARK    3  A    between atoms: O1_8  and  C7_9 
REMARK    4  A    between atoms: C12_15  and  C13_16 
REMARK    5  A    between atoms: C16_19  and  N2_20 
REMARK       I    between atoms: N2_20  and  C17_22 
REMARK       I    between atoms: C17_22  and  N3_24 
ROOT
HETATM    1  C7  UNL     1      -6.776   9.557   3.815  1.00  0.00     0.101 A 
HETATM    2  C8  UNL     1      -6.069   9.204   4.966  1.00  0.00     0.068 A 
HETATM    3 CL1  UNL     1      -6.890   8.711   6.406  1.00  0.00    -0.081 Cl
HETATM    4  C9  UNL     1      -4.702   9.219   4.976  1.00  0.00     0.027 A 
HETATM    5  C10 UNL     1      -4.038   9.585   3.841  1.00  0.00     0.003 A 
HETATM    6  C11 UNL     1      -4.737   9.920   2.728  1.00  0.00     0.014 A 
HETATM    7  C12 UNL     1      -6.160   9.916   2.669  1.00  0.00     0.001 A 
ENDROOT
BRANCH   7   8
HETATM    8  C13 UNL     1      -6.710  10.071   1.354  1.00  0.00    -0.067 C 
HETATM    9  C14 UNL     1      -8.125  10.631   1.312  1.00  0.00     0.037 C 
HETATM   10  C15 UNL     1      -8.969  10.045   0.239  1.00  0.00     0.029 C 
HETATM   11  C16 UNL     1      -8.391   9.932  -1.119  1.00  0.00     0.086 C 
HETATM   12  C22 UNL     1      -6.885   9.995  -1.053  1.00  0.00     0.029 C 
HETATM   13  C23 UNL     1      -6.525   9.182   0.225  1.00  0.00     0.037 C 
BRANCH  11  14
HETATM   14  N2  UNL     1      -8.968  10.857  -2.077  1.00  0.00    -0.338 N 
HETATM   15  C17 UNL     1      -9.068  10.573  -3.436  1.00  0.00     0.318 C 
HETATM   16  O2  UNL     1      -8.621   9.443  -3.848  1.00  0.00    -0.247 OA
HETATM   17  N3  UNL     1      -9.616  11.410  -4.408  1.00  0.00    -0.330 N 
HETATM   18  C18 UNL     1      -9.662  11.056  -5.830  1.00  0.00     0.153 C 
HETATM   19  C21 UNL     1     -10.190  12.688  -4.071  1.00  0.00     0.153 C 
HETATM   20  C19 UNL     1      -9.283  12.330  -6.573  1.00  0.00     0.187 C 
HETATM   21  O3  UNL     1      -8.518  13.162  -5.741  1.00  0.00    -0.388 OA
HETATM   22  C20 UNL     1      -9.312  13.746  -4.733  1.00  0.00     0.187 C 
ATOM     23  H2  UNL     1      -9.314  11.755  -1.739  1.00  0.00     0.164 HD
ENDBRANCH  11  14
ENDBRANCH   7   8
BRANCH   1  24
HETATM   24  O1  UNL     1      -8.156   9.518   3.922  1.00  0.00    -0.343 OA
BRANCH  24  25
HETATM   25  C6  UNL     1      -8.747   8.237   3.919  1.00  0.00     0.132 C 
HETATM   26  C5  UNL     1      -7.882   7.159   3.301  1.00  0.00     0.052 C 
HETATM   27  C4  UNL     1      -8.474   5.807   3.706  1.00  0.00     0.119 C 
HETATM   28  N1  UNL     1      -9.768   5.927   4.252  1.00  0.00    -0.409 N 
HETATM   29  C25 UNL     1     -10.685   6.750   3.561  1.00  0.00     0.119 C 
HETATM   30  C24 UNL     1     -10.094   8.083   3.271  1.00  0.00     0.052 C 
BRANCH  28  31
HETATM   31  C2  UNL     1     -10.253   4.893   5.059  1.00  0.00     0.070 C 
HETATM   32  C1  UNL     1      -9.975   5.033   6.536  1.00  0.00     0.031 C 
HETATM   33  C3  UNL     1     -11.762   4.681   4.936  1.00  0.00     0.031 C 
ENDBRANCH  28  31
ENDBRANCH  24  25
ENDBRANCH   1  24
TORSDOF 5
ENDMDL
MODEL 2
REMARK VINA RESULT: -8.665387263      3.184      8.664
REMARK  5 active torsions:
REMARK  status: ('A' for Active; 'I' for Inactive)
REMARK    1  A    between atoms: C2_2  and  N1_4 
REMARK    2  A    between atoms: C6_7  and  O1_8 
REMARK    3  A    between atoms: O1_8  and  C7_9 
REMARK    4  A    between atoms: C12_15  and  C13_16 
REMARK    5  A    between atoms: C16_19  and  N2_20 
REMARK       I    between atoms: N2_20  and  C17_22 
REMARK       I    between atoms: C17_22  and  N3_24 
ROOT
HETATM    1  C7  UNL     1      -8.307  10.449  -2.130  1.00  0.00     0.101 A 
HETATM    2  C8  UNL     1      -8.777  11.021  -3.315  1.00  0.00     0.068 A 
HETATM    3 CL1  UNL     1      -8.111  10.579  -4.849  1.00  0.00    -0.081 Cl
HETATM    4  C9  UNL     1      -9.794  11.934  -3.292  1.00  0.00     0.027 A 
HETATM    5  C10 UNL     1     -10.346  12.277  -2.091  1.00  0.00     0.003 A 
HETATM    6  C11 UNL     1      -9.884  11.711  -0.949  1.00  0.00     0.014 A 
HETATM    7  C12 UNL     1      -8.829  10.754  -0.923  1.00  0.00     0.001 A 
ENDROOT
BRANCH   7   8
HETATM    8  C13 UNL     1      -8.639  10.100   0.338  1.00  0.00    -0.067 C 
HETATM    9  C14 UNL     1      -9.876   9.410   0.897  1.00  0.00     0.037 C 
HETATM   10  C15 UNL     1      -9.994   9.499   2.376  1.00  0.00     0.029 C 
HETATM   11  C16 UNL     1      -8.794   9.202   3.189  1.00  0.00     0.086 C 
HETATM   12  C22 UNL     1      -7.548   9.326   2.349  1.00  0.00     0.029 C 
HETATM   13  C23 UNL     1      -7.822  10.563   1.442  1.00  0.00     0.037 C 
BRANCH  11  14
HETATM   14  N2  UNL     1      -8.879   7.947   3.915  1.00  0.00    -0.338 N 
HETATM   15  C17 UNL     1      -9.948   7.066   3.778  1.00  0.00     0.318 C 
HETATM   16  O2  UNL     1     -10.896   7.392   2.976  1.00  0.00    -0.247 OA
HETATM   17  N3  UNL     1     -10.091   5.845   4.436  1.00  0.00    -0.330 N 
HETATM   18  C18 UNL     1     -11.261   4.979   4.265  1.00  0.00     0.153 C 
HETATM   19  C21 UNL     1      -9.078   5.344   5.330  1.00  0.00     0.153 C 
HETATM   20  C19 UNL     1     -11.599   4.478   5.662  1.00  0.00     0.187 C 
HETATM   21  O3  UNL     1     -11.111   5.375   6.625  1.00  0.00    -0.388 OA
HETATM   22  C20 UNL     1      -9.706   5.309   6.721  1.00  0.00     0.187 C 
ATOM     23  H2  UNL     1      -8.123   7.702   4.554  1.00  0.00     0.164 HD
ENDBRANCH  11  14
ENDBRANCH   7   8
BRANCH   1  24
HETATM   24  O1  UNL     1      -7.266   9.548  -2.270  1.00  0.00    -0.343 OA
BRANCH  24  25
HETATM   25  C6  UNL     1      -6.109   9.805  -1.505  1.00  0.00     0.132 C 
HETATM   26  C5  UNL     1      -5.340  11.034  -1.943  1.00  0.00     0.052 C 
HETATM   27  C4  UNL     1      -4.364  11.390  -0.819  1.00  0.00     0.119 C 
HETATM   28  N1  UNL     1      -4.235  10.355   0.130  1.00  0.00    -0.409 N 
HETATM   29  C25 UNL     1      -4.055   9.045  -0.366  1.00  0.00     0.119 C 
HETATM   30  C24 UNL     1      -5.082   8.715  -1.390  1.00  0.00     0.052 C 
BRANCH  28  31
HETATM   31  C2  UNL     1      -3.759  10.672   1.406  1.00  0.00     0.070 C 
HETATM   32  C1  UNL     1      -4.355  11.907   2.036  1.00  0.00     0.031 C 
HETATM   33  C3  UNL     1      -3.953   9.548   2.425  1.00  0.00     0.031 C 
ENDBRANCH  28  31
ENDBRANCH  24  25
ENDBRANCH   1  24
TORSDOF 5
ENDMDL
MODEL 3
REMARK VINA RESULT: -8.605205827      1.608      1.985
REMARK  5 active torsions:
REMARK  status: ('A' for Active; 'I' for Inactive)
REMARK    1  A    between atoms: C2_2  and  N1_4 
REMARK    2  A    between atoms: C6_7  and  O1_8 
REMARK    3  A    between atoms: O1_8  and  C7_9 
REMARK    4  A    between atoms: C12_15  and  C13_16 
REMARK    5  A    between atoms: C16_19  and  N2_20 
REMARK       I    between atoms: N2_20  and  C17_22 
REMARK       I    between atoms: C17_22  and  N3_24 
ROOT
HETATM    1  C7  UNL     1      -6.812   9.612   3.762  1.00  0.00     0.101 A 
HETATM    2  C8  UNL     1      -6.014   9.290   4.862  1.00  0.00     0.068 A 
HETATM    3 CL1  UNL     1      -6.711   8.737   6.344  1.00  0.00    -0.081 Cl
HETATM    4  C9  UNL     1      -4.652   9.386   4.785  1.00  0.00     0.027 A 
HETATM    5  C10 UNL     1      -4.084   9.800   3.615  1.00  0.00     0.003 A 
HETATM    6  C11 UNL     1      -4.871  10.105   2.553  1.00  0.00     0.014 A 
HETATM    7  C12 UNL     1      -6.292  10.018   2.584  1.00  0.00     0.001 A 
ENDROOT
BRANCH   7   8
HETATM    8  C13 UNL     1      -6.933  10.153   1.309  1.00  0.00    -0.067 C 
HETATM    9  C14 UNL     1      -8.445  10.322   1.365  1.00  0.00     0.037 C 
HETATM   10  C15 UNL     1      -9.165   9.645   0.256  1.00  0.00     0.029 C 
HETATM   11  C16 UNL     1      -8.650   9.824  -1.121  1.00  0.00     0.086 C 
HETATM   12  C22 UNL     1      -7.211  10.276  -1.087  1.00  0.00     0.029 C 
HETATM   13  C23 UNL     1      -6.584   9.462   0.085  1.00  0.00     0.037 C 
BRANCH  11  14
HETATM   14  N2  UNL     1      -9.498  10.656  -1.955  1.00  0.00    -0.338 N 
HETATM   15  C17 UNL     1      -9.491  12.046  -1.889  1.00  0.00     0.318 C 
HETATM   16  O2  UNL     1      -8.701  12.604  -1.045  1.00  0.00    -0.247 OA
HETATM   17  N3  UNL     1     -10.271  12.906  -2.663  1.00  0.00    -0.330 N 
HETATM   18  C18 UNL     1     -10.234  14.364  -2.519  1.00  0.00     0.153 C 
HETATM   19  C21 UNL     1     -11.167  12.409  -3.676  1.00  0.00     0.153 C 
HETATM   20  C19 UNL     1     -11.686  14.813  -2.600  1.00  0.00     0.187 C 
HETATM   21  O3  UNL     1     -12.536  13.760  -2.225  1.00  0.00    -0.388 OA
HETATM   22  C20 UNL     1     -12.579  12.761  -3.217  1.00  0.00     0.187 C 
ATOM     23  H2  UNL     1     -10.126  10.202  -2.618  1.00  0.00     0.164 HD
ENDBRANCH  11  14
ENDBRANCH   7   8
BRANCH   1  24
HETATM   24  O1  UNL     1      -8.178   9.492   3.956  1.00  0.00    -0.343 OA
BRANCH  24  25
HETATM   25  C6  UNL     1      -8.682   8.178   4.053  1.00  0.00     0.132 C 
HETATM   26  C5  UNL     1      -7.842   7.141   3.338  1.00  0.00     0.052 C 
HETATM   27  C4  UNL     1      -8.287   5.764   3.839  1.00  0.00     0.119 C 
HETATM   28  N1  UNL     1      -9.500   5.819   4.556  1.00  0.00    -0.409 N 
HETATM   29  C25 UNL     1     -10.552   6.568   3.985  1.00  0.00     0.119 C 
HETATM   30  C24 UNL     1     -10.092   7.928   3.598  1.00  0.00     0.052 C 
BRANCH  28  31
HETATM   31  C2  UNL     1      -9.804   4.776   5.437  1.00  0.00     0.070 C 
HETATM   32  C1  UNL     1      -9.230   4.907   6.826  1.00  0.00     0.031 C 
HETATM   33  C3  UNL     1     -11.306   4.557   5.625  1.00  0.00     0.031 C 
ENDBRANCH  28  31
ENDBRANCH  24  25
ENDBRANCH   1  24
TORSDOF 5
ENDMDL
MODEL 4
REMARK VINA RESULT: -8.580815926      4.222      8.842
REMARK  5 active torsions:
REMARK  status: ('A' for Active; 'I' for Inactive)
REMARK    1  A    between atoms: C2_2  and  N1_4 
REMARK    2  A    between atoms: C6_7  and  O1_8 
REMARK    3  A    between atoms: O1_8  and  C7_9 
REMARK    4  A    between atoms: C12_15  and  C13_16 
REMARK    5  A    between atoms: C16_19  and  N2_20 
REMARK       I    between atoms: N2_20  and  C17_22 
REMARK       I    between atoms: C17_22  and  N3_24 
ROOT
HETATM    1  C7  UNL     1      -6.311   9.927   0.083  1.00  0.00     0.101 A 
HETATM    2  C8  UNL     1      -6.811   9.757  -1.210  1.00  0.00     0.068 A 
HETATM    3 CL1  UNL     1      -8.415  10.254  -1.623  1.00  0.00    -0.081 Cl
HETATM    4  C9  UNL     1      -6.032   9.210  -2.191  1.00  0.00     0.027 A 
HETATM    5  C10 UNL     1      -4.755   8.833  -1.887  1.00  0.00     0.003 A 
HETATM    6  C11 UNL     1      -4.281   9.007  -0.629  1.00  0.00     0.014 A 
HETATM    7  C12 UNL     1      -5.053   9.575   0.425  1.00  0.00     0.001 A 
ENDROOT
BRANCH   7   8
HETATM    8  C13 UNL     1      -4.314   9.892   1.611  1.00  0.00    -0.067 C 
HETATM    9  C14 UNL     1      -4.350   8.824   2.695  1.00  0.00     0.037 C 
HETATM   10  C15 UNL     1      -4.388   9.372   4.076  1.00  0.00     0.029 C 
HETATM   11  C16 UNL     1      -3.445  10.460   4.419  1.00  0.00     0.086 C 
HETATM   12  C22 UNL     1      -2.946  11.135   3.166  1.00  0.00     0.029 C 
HETATM   13  C23 UNL     1      -4.197  11.192   2.240  1.00  0.00     0.037 C 
BRANCH  11  14
HETATM   14  N2  UNL     1      -2.381  10.047   5.316  1.00  0.00    -0.338 N 
HETATM   15  C17 UNL     1      -2.386  10.338   6.678  1.00  0.00     0.318 C 
HETATM   16  O2  UNL     1      -3.376  11.007   7.145  1.00  0.00    -0.247 OA
HETATM   17  N3  UNL     1      -1.405   9.967   7.597  1.00  0.00    -0.330 N 
HETATM   18  C18 UNL     1      -1.460  10.334   9.015  1.00  0.00     0.153 C 
HETATM   19  C21 UNL     1      -0.263   9.178   7.208  1.00  0.00     0.153 C 
HETATM   20  C19 UNL     1      -0.040  10.740   9.381  1.00  0.00     0.187 C 
HETATM   21  O3  UNL     1       0.652  11.158   8.233  1.00  0.00    -0.388 OA
HETATM   22  C20 UNL     1       0.963  10.066   7.398  1.00  0.00     0.187 C 
ATOM     23  H2  UNL     1      -1.596   9.521   4.932  1.00  0.00     0.164 HD
ENDBRANCH  11  14
ENDBRANCH   7   8
BRANCH   1  24
HETATM   24  O1  UNL     1      -7.191  10.478   1.000  1.00  0.00    -0.343 OA
BRANCH  24  25
HETATM   25  C6  UNL     1      -7.961   9.567   1.752  1.00  0.00     0.132 C 
HETATM   26  C5  UNL     1      -9.449   9.651   1.487  1.00  0.00     0.052 C 
HETATM   27  C4  UNL     1     -10.091   8.387   2.066  1.00  0.00     0.119 C 
HETATM   28  N1  UNL     1      -9.216   7.679   2.913  1.00  0.00    -0.409 N 
HETATM   29  C25 UNL     1      -8.503   8.428   3.875  1.00  0.00     0.119 C 
HETATM   30  C24 UNL     1      -7.823   9.593   3.248  1.00  0.00     0.052 C 
BRANCH  28  31
HETATM   31  C2  UNL     1      -9.467   6.324   3.154  1.00  0.00     0.070 C 
HETATM   32  C1  UNL     1      -8.631   5.688   4.237  1.00  0.00     0.031 C 
HETATM   33  C3  UNL     1     -10.922   6.031   3.523  1.00  0.00     0.031 C 
ENDBRANCH  28  31
ENDBRANCH  24  25
ENDBRANCH   1  24
TORSDOF 5
ENDMDL
MODEL 5
REMARK VINA RESULT: -8.526658028      4.950      8.293
REMARK  5 active torsions:
REMARK  status: ('A' for Active; 'I' for Inactive)
REMARK    1  A    between atoms: C2_2  and  N1_4 
REMARK    2  A    between atoms: C6_7  and  O1_8 
REMARK    3  A    between atoms: O1_8  and  C7_9 
REMARK    4  A    between atoms: C12_15  and  C13_16 
REMARK    5  A    between atoms: C16_19  and  N2_20 
REMARK       I    between atoms: N2_20  and  C17_22 
REMARK       I    between atoms: C17_22  and  N3_24 
ROOT
HETATM    1  C7  UNL     1      -3.848  11.383   2.529  1.00  0.00     0.101 A 
HETATM    2  C8  UNL     1      -3.016  12.275   1.848  1.00  0.00     0.068 A 
HETATM    3 CL1  UNL     1      -1.315  11.990   1.716  1.00  0.00    -0.081 Cl
HETATM    4  C9  UNL     1      -3.531  13.390   1.250  1.00  0.00     0.027 A 
HETATM    5  C10 UNL     1      -4.876  13.619   1.326  1.00  0.00     0.003 A 
HETATM    6  C11 UNL     1      -5.673  12.742   1.986  1.00  0.00     0.014 A 
HETATM    7  C12 UNL     1      -5.182  11.566   2.622  1.00  0.00     0.001 A 
ENDROOT
BRANCH   7   8
HETATM    8  C13 UNL     1      -6.194  10.651   3.062  1.00  0.00    -0.067 C 
HETATM    9  C14 UNL     1      -5.910   9.186   2.761  1.00  0.00     0.037 C 
HETATM   10  C15 UNL     1      -7.121   8.402   2.402  1.00  0.00     0.029 C 
HETATM   11  C16 UNL     1      -8.326   8.558   3.246  1.00  0.00     0.086 C 
HETATM   12  C22 UNL     1      -8.251   9.842   4.034  1.00  0.00     0.029 C 
HETATM   13  C23 UNL     1      -7.627  10.864   3.038  1.00  0.00     0.037 C 
BRANCH  11  14
HETATM   14  N2  UNL     1      -8.618   7.394   4.064  1.00  0.00    -0.338 N 
HETATM   15  C17 UNL     1      -9.761   6.618   3.891  1.00  0.00     0.318 C 
HETATM   16  O2  UNL     1     -10.587   6.961   2.971  1.00  0.00    -0.247 OA
HETATM   17  N3  UNL     1     -10.100   5.487   4.633  1.00  0.00    -0.330 N 
HETATM   18  C18 UNL     1     -11.338   4.733   4.415  1.00  0.00     0.153 C 
HETATM   19  C21 UNL     1      -9.238   4.972   5.666  1.00  0.00     0.153 C 
HETATM   20  C19 UNL     1     -11.859   4.404   5.808  1.00  0.00     0.187 C 
HETATM   21  O3  UNL     1     -11.367   5.335   6.736  1.00  0.00    -0.388 OA
HETATM   22  C20 UNL     1      -9.994   5.135   6.982  1.00  0.00     0.187 C 
ATOM     23  H2  UNL     1      -7.958   7.135   4.796  1.00  0.00     0.164 HD
ENDBRANCH  11  14
ENDBRANCH   7   8
BRANCH   1  24
HETATM   24  O1  UNL     1      -3.217  10.295   3.108  1.00  0.00    -0.343 OA
BRANCH  24  25
HETATM   25  C6  UNL     1      -3.111  10.310   4.514  1.00  0.00     0.132 C 
HETATM   26  C5  UNL     1      -1.733  10.669   5.027  1.00  0.00     0.052 C 
HETATM   27  C4  UNL     1      -1.868  11.010   6.513  1.00  0.00     0.119 C 
HETATM   28  N1  UNL     1      -3.114  10.618   7.043  1.00  0.00    -0.409 N 
HETATM   29  C25 UNL     1      -3.568   9.318   6.729  1.00  0.00     0.119 C 
HETATM   30  C24 UNL     1      -3.501   9.068   5.264  1.00  0.00     0.052 C 
BRANCH  28  31
HETATM   31  C2  UNL     1      -3.567  11.234   8.214  1.00  0.00     0.070 C 
HETATM   32  C1  UNL     1      -4.920  10.782   8.708  1.00  0.00     0.031 C 
HETATM   33  C3  UNL     1      -2.613  11.066   9.398  1.00  0.00     0.031 C 
ENDBRANCH  28  31
ENDBRANCH  24  25
ENDBRANCH   1  24
TORSDOF 5
ENDMDL
