MODEL 1
REMARK VINA RESULT: -7.692529389      0.000      0.000
REMARK  16 active torsions:
REMARK  status: ('A' for Active; 'I' for Inactive)
REMARK    1  A    between atoms: O1_2  and  C2_3 
REMARK    2  A    between atoms: C4_5  and  C5_6 
REMARK    3  A    between atoms: C6_7  and  C7_8 
REMARK    4  A    between atoms: C7_8  and  O3_10 
REMARK    5  A    between atoms: O3_10  and  C8_11 
REMARK    6  A    between atoms: C8_11  and  C9_12 
REMARK    7  A    between atoms: C9_12  and  C23_30 
REMARK    8  A    between atoms: C10_13  and  C11_14 
REMARK    9  A    between atoms: C13_16  and  O4_17 
REMARK   10  A    between atoms: C15_20  and  O5_21 
REMARK   11  A    between atoms: O5_21  and  C16_22 
REMARK   12  A    between atoms: C18_25  and  C19_26 
REMARK   13  A    between atoms: C23_30  and  O7_31 
REMARK   14  A    between atoms: O7_31  and  C24_32 
REMARK   15  A    between atoms: C27_36  and  O9_37 
REMARK   16  A    between atoms: C29_39  and  O10_40 
ROOT
HETATM    1  C9  UNL     1       7.095   6.063  12.917  1.00  0.00    -0.031 C 
HETATM    2  C10 UNL     1       8.210   6.253  13.597  1.00  0.00     0.019 C 
ENDROOT
BRANCH   1   3
HETATM    3  C8  UNL     1       6.695   4.628  12.624  1.00  0.00     0.215 C 
BRANCH   3   4
HETATM    4  O3  UNL     1       6.675   3.927  13.842  1.00  0.00    -0.314 OA
BRANCH   4   5
HETATM    5  C7  UNL     1       6.380   2.518  13.773  1.00  0.00     0.283 C 
HETATM    6  O2  UNL     1       5.184   2.287  13.971  1.00  0.00    -0.260 OA
BRANCH   5   7
HETATM    7  C6  UNL     1       7.451   1.612  13.500  1.00  0.00     0.083 C 
HETATM    8  C5  UNL     1       7.794   0.892  12.513  1.00  0.00     0.017 C 
BRANCH   8   9
HETATM    9  C4  UNL     1       7.296   0.614  11.205  1.00  0.00    -0.031 A 
HETATM   10  C3  UNL     1       6.592   1.442  10.386  1.00  0.00     0.051 A 
HETATM   11  C2  UNL     1       6.210   1.127   9.074  1.00  0.00     0.105 A 
HETATM   12  C29 UNL     1       6.540  -0.082   8.539  1.00  0.00     0.135 A 
HETATM   13  C27 UNL     1       7.248  -0.950   9.337  1.00  0.00     0.105 A 
HETATM   14  C26 UNL     1       7.619  -0.641  10.609  1.00  0.00     0.051 A 
BRANCH  11  15
HETATM   15  O1  UNL     1       5.495   2.034   8.302  1.00  0.00    -0.353 OA
HETATM   16  C1  UNL     1       6.170   3.022   7.560  1.00  0.00     0.210 C 
ENDBRANCH  11  15
BRANCH  12  17
HETATM   17  O10 UNL     1       6.189  -0.452   7.245  1.00  0.00    -0.351 OA
HETATM   18  C30 UNL     1       4.910  -1.053   7.039  1.00  0.00     0.210 C 
ENDBRANCH  12  17
BRANCH  13  19
HETATM   19  O9  UNL     1       7.587  -2.201   8.781  1.00  0.00    -0.353 OA
HETATM   20  C28 UNL     1       8.788  -2.306   8.049  1.00  0.00     0.210 C 
ENDBRANCH  13  19
ENDBRANCH   8   9
ENDBRANCH   5   7
ENDBRANCH   4   5
ENDBRANCH   3   4
ENDBRANCH   1   3
BRANCH   1  21
HETATM   21  C23 UNL     1       6.178   7.108  12.442  1.00  0.00     0.215 C 
BRANCH  21  22
HETATM   22  O7  UNL     1       6.316   7.360  11.036  1.00  0.00    -0.317 OA
BRANCH  22  23
HETATM   23  C24 UNL     1       6.502   8.671  10.647  1.00  0.00     0.255 C 
HETATM   24  C25 UNL     1       7.042   9.684  11.582  1.00  0.00     0.126 C 
HETATM   25  O8  UNL     1       6.212   9.029   9.482  1.00  0.00    -0.266 OA
ENDBRANCH  22  23
ENDBRANCH  21  22
ENDBRANCH   1  21
BRANCH   2  26
HETATM   26  C11 UNL     1       8.778   7.519  13.980  1.00  0.00    -0.023 A 
HETATM   27  C12 UNL     1       8.136   8.142  15.051  1.00  0.00     0.048 A 
HETATM   28  C13 UNL     1       8.530   9.325  15.590  1.00  0.00     0.069 A 
HETATM   29  C14 UNL     1       9.615   9.938  15.053  1.00  0.00     0.074 A 
HETATM   30  C15 UNL     1      10.282   9.337  13.974  1.00  0.00     0.089 A 
HETATM   31  C18 UNL     1       9.889   8.142  13.423  1.00  0.00    -0.006 A 
BRANCH  28  32
HETATM   32  O4  UNL     1       7.816   9.878  16.674  1.00  0.00    -0.361 OA
ATOM     33  H4  UNL     1       8.285  10.203  17.434  1.00  0.00     0.217 HD
ENDBRANCH  28  32
BRANCH  30  34
HETATM   34  O5  UNL     1      11.379  10.010  13.470  1.00  0.00    -0.279 OA
BRANCH  34  35
HETATM   35  C16 UNL     1      12.463  10.264  14.297  1.00  0.00     0.260 C 
HETATM   36  C17 UNL     1      13.259   9.142  14.846  1.00  0.00     0.126 C 
HETATM   37  O6  UNL     1      12.728  11.464  14.552  1.00  0.00    -0.265 OA
ENDBRANCH  34  35
ENDBRANCH  30  34
BRANCH  31  38
HETATM   38  C19 UNL     1      10.530   7.501  12.279  1.00  0.00    -0.021 C 
HETATM   39  C20 UNL     1      11.677   6.560  12.684  1.00  0.00     0.019 C 
HETATM   40  C21 UNL     1      11.196   8.619  11.450  1.00  0.00     0.019 C 
HETATM   41  C22 UNL     1       9.700   6.731  11.325  1.00  0.00     0.019 C 
ENDBRANCH  31  38
ENDBRANCH   2  26
TORSDOF 16
ENDMDL
MODEL 2
REMARK VINA RESULT: -7.652930666      4.605      9.290
REMARK  16 active torsions:
REMARK  status: ('A' for Active; 'I' for Inactive)
REMARK    1  A    between atoms: O1_2  and  C2_3 
REMARK    2  A    between atoms: C4_5  and  C5_6 
REMARK    3  A    between atoms: C6_7  and  C7_8 
REMARK    4  A    between atoms: C7_8  and  O3_10 
REMARK    5  A    between atoms: O3_10  and  C8_11 
REMARK    6  A    between atoms: C8_11  and  C9_12 
REMARK    7  A    between atoms: C9_12  and  C23_30 
REMARK    8  A    between atoms: C10_13  and  C11_14 
REMARK    9  A    between atoms: C13_16  and  O4_17 
REMARK   10  A    between atoms: C15_20  and  O5_21 
REMARK   11  A    between atoms: O5_21  and  C16_22 
REMARK   12  A    between atoms: C18_25  and  C19_26 
REMARK   13  A    between atoms: C23_30  and  O7_31 
REMARK   14  A    between atoms: O7_31  and  C24_32 
REMARK   15  A    between atoms: C27_36  and  O9_37 
REMARK   16  A    between atoms: C29_39  and  O10_40 
ROOT
HETATM    1  C9  UNL     1       6.133   1.932  12.431  1.00  0.00    -0.031 C 
HETATM    2  C10 UNL     1       5.848   3.104  11.895  1.00  0.00     0.019 C 
ENDROOT
BRANCH   1   3
HETATM    3  C8  UNL     1       5.661   1.683  13.853  1.00  0.00     0.215 C 
BRANCH   3   4
HETATM    4  O3  UNL     1       6.781   1.753  14.699  1.00  0.00    -0.314 OA
BRANCH   4   5
HETATM    5  C7  UNL     1       7.141   0.544  15.396  1.00  0.00     0.283 C 
HETATM    6  O2  UNL     1       8.290   0.183  15.129  1.00  0.00    -0.260 OA
BRANCH   5   7
HETATM    7  C6  UNL     1       6.175  -0.055  16.263  1.00  0.00     0.083 C 
HETATM    8  C5  UNL     1       5.997  -0.104  17.518  1.00  0.00     0.017 C 
BRANCH   8   9
HETATM    9  C4  UNL     1       6.656   0.392  18.682  1.00  0.00    -0.031 A 
HETATM   10  C3  UNL     1       7.836   1.067  18.751  1.00  0.00     0.051 A 
HETATM   11  C2  UNL     1       8.380   1.601  19.927  1.00  0.00     0.105 A 
HETATM   12  C29 UNL     1       7.720   1.456  21.111  1.00  0.00     0.135 A 
HETATM   13  C27 UNL     1       6.525   0.776  21.085  1.00  0.00     0.105 A 
HETATM   14  C26 UNL     1       5.999   0.260  19.941  1.00  0.00     0.051 A 
BRANCH  11  15
HETATM   15  O1  UNL     1       9.591   2.282  19.909  1.00  0.00    -0.353 OA
HETATM   16  C1  UNL     1      10.798   1.579  19.738  1.00  0.00     0.210 C 
ENDBRANCH  11  15
BRANCH  12  17
HETATM   17  O10 UNL     1       8.209   1.963  22.311  1.00  0.00    -0.351 OA
HETATM   18  C30 UNL     1       8.894   1.069  23.190  1.00  0.00     0.210 C 
ENDBRANCH  12  17
BRANCH  13  19
HETATM   19  O9  UNL     1       5.846   0.626  22.312  1.00  0.00    -0.353 OA
HETATM   20  C28 UNL     1       4.888   1.597  22.670  1.00  0.00     0.210 C 
ENDBRANCH  13  19
ENDBRANCH   8   9
ENDBRANCH   5   7
ENDBRANCH   4   5
ENDBRANCH   3   4
ENDBRANCH   1   3
BRANCH   1  21
HETATM   21  C23 UNL     1       6.837   0.823  11.772  1.00  0.00     0.215 C 
BRANCH  21  22
HETATM   22  O7  UNL     1       5.972  -0.287  11.496  1.00  0.00    -0.317 OA
BRANCH  22  23
HETATM   23  C24 UNL     1       6.186  -0.974  10.318  1.00  0.00     0.255 C 
HETATM   24  C25 UNL     1       7.546  -1.139   9.758  1.00  0.00     0.126 C 
HETATM   25  O8  UNL     1       5.220  -1.474   9.697  1.00  0.00    -0.266 OA
ENDBRANCH  22  23
ENDBRANCH  21  22
ENDBRANCH   1  21
BRANCH   2  26
HETATM   26  C11 UNL     1       6.198   3.552  10.573  1.00  0.00    -0.023 A 
HETATM   27  C12 UNL     1       5.941   2.629   9.560  1.00  0.00     0.048 A 
HETATM   28  C13 UNL     1       6.168   2.863   8.241  1.00  0.00     0.069 A 
HETATM   29  C14 UNL     1       6.675   4.071   7.889  1.00  0.00     0.074 A 
HETATM   30  C15 UNL     1       6.945   5.022   8.885  1.00  0.00     0.089 A 
HETATM   31  C18 UNL     1       6.720   4.792  10.220  1.00  0.00    -0.006 A 
BRANCH  28  32
HETATM   32  O4  UNL     1       5.876   1.865   7.288  1.00  0.00    -0.361 OA
ATOM     33  H4  UNL     1       6.074   2.013   6.370  1.00  0.00     0.217 HD
ENDBRANCH  28  32
BRANCH  30  34
HETATM   34  O5  UNL     1       7.461   6.233   8.464  1.00  0.00    -0.279 OA
BRANCH  34  35
HETATM   35  C16 UNL     1       6.819   6.934   7.454  1.00  0.00     0.260 C 
HETATM   36  C17 UNL     1       5.482   7.526   7.694  1.00  0.00     0.126 C 
HETATM   37  O6  UNL     1       7.413   7.041   6.354  1.00  0.00    -0.265 OA
ENDBRANCH  34  35
ENDBRANCH  30  34
BRANCH  31  38
HETATM   38  C19 UNL     1       7.020   5.737  11.291  1.00  0.00    -0.021 C 
HETATM   39  C20 UNL     1       5.881   6.740  11.543  1.00  0.00     0.019 C 
HETATM   40  C21 UNL     1       8.215   6.591  10.818  1.00  0.00     0.019 C 
HETATM   41  C22 UNL     1       7.398   5.220  12.625  1.00  0.00     0.019 C 
ENDBRANCH  31  38
ENDBRANCH   2  26
TORSDOF 16
ENDMDL
MODEL 3
REMARK VINA RESULT: -7.534919302      4.529      8.617
REMARK  16 active torsions:
REMARK  status: ('A' for Active; 'I' for Inactive)
REMARK    1  A    between atoms: O1_2  and  C2_3 
REMARK    2  A    between atoms: C4_5  and  C5_6 
REMARK    3  A    between atoms: C6_7  and  C7_8 
REMARK    4  A    between atoms: C7_8  and  O3_10 
REMARK    5  A    between atoms: O3_10  and  C8_11 
REMARK    6  A    between atoms: C8_11  and  C9_12 
REMARK    7  A    between atoms: C9_12  and  C23_30 
REMARK    8  A    between atoms: C10_13  and  C11_14 
REMARK    9  A    between atoms: C13_16  and  O4_17 
REMARK   10  A    between atoms: C15_20  and  O5_21 
REMARK   11  A    between atoms: O5_21  and  C16_22 
REMARK   12  A    between atoms: C18_25  and  C19_26 
REMARK   13  A    between atoms: C23_30  and  O7_31 
REMARK   14  A    between atoms: O7_31  and  C24_32 
REMARK   15  A    between atoms: C27_36  and  O9_37 
REMARK   16  A    between atoms: C29_39  and  O10_40 
ROOT
HETATM    1  C9  UNL     1       6.173   2.415  12.494  1.00  0.00    -0.031 C 
HETATM    2  C10 UNL     1       6.152   3.733  12.441  1.00  0.00     0.019 C 
ENDROOT
BRANCH   1   3
HETATM    3  C8  UNL     1       5.590   1.758  13.732  1.00  0.00     0.215 C 
BRANCH   3   4
HETATM    4  O3  UNL     1       6.541   1.857  14.762  1.00  0.00    -0.314 OA
BRANCH   4   5
HETATM    5  C7  UNL     1       6.993   0.619  15.346  1.00  0.00     0.283 C 
HETATM    6  O2  UNL     1       8.134   0.325  14.979  1.00  0.00    -0.260 OA
BRANCH   5   7
HETATM    7  C6  UNL     1       6.112  -0.078  16.230  1.00  0.00     0.083 C 
HETATM    8  C5  UNL     1       5.986  -0.173  17.489  1.00  0.00     0.017 C 
BRANCH   8   9
HETATM    9  C4  UNL     1       6.649   0.344  18.642  1.00  0.00    -0.031 A 
HETATM   10  C3  UNL     1       7.835   1.010  18.697  1.00  0.00     0.051 A 
HETATM   11  C2  UNL     1       8.383   1.567  19.861  1.00  0.00     0.105 A 
HETATM   12  C29 UNL     1       7.719   1.455  21.047  1.00  0.00     0.135 A 
HETATM   13  C27 UNL     1       6.518   0.786  21.035  1.00  0.00     0.105 A 
HETATM   14  C26 UNL     1       5.989   0.248  19.903  1.00  0.00     0.051 A 
BRANCH  11  15
HETATM   15  O1  UNL     1       9.599   2.236  19.829  1.00  0.00    -0.353 OA
HETATM   16  C1  UNL     1      10.806   1.513  19.768  1.00  0.00     0.210 C 
ENDBRANCH  11  15
BRANCH  12  17
HETATM   17  O10 UNL     1       8.212   1.986  22.235  1.00  0.00    -0.351 OA
HETATM   18  C30 UNL     1       8.890   1.108  23.134  1.00  0.00     0.210 C 
ENDBRANCH  12  17
BRANCH  13  19
HETATM   19  O9  UNL     1       5.836   0.672  22.264  1.00  0.00    -0.353 OA
HETATM   20  C28 UNL     1       4.887   1.660  22.598  1.00  0.00     0.210 C 
ENDBRANCH  13  19
ENDBRANCH   8   9
ENDBRANCH   5   7
ENDBRANCH   4   5
ENDBRANCH   3   4
ENDBRANCH   1   3
BRANCH   1  21
HETATM   21  C23 UNL     1       6.677   1.512  11.450  1.00  0.00     0.215 C 
BRANCH  21  22
HETATM   22  O7  UNL     1       6.162   0.180  11.583  1.00  0.00    -0.317 OA
BRANCH  22  23
HETATM   23  C24 UNL     1       6.352  -0.678  10.518  1.00  0.00     0.255 C 
HETATM   24  C25 UNL     1       7.704  -0.956   9.985  1.00  0.00     0.126 C 
HETATM   25  O8  UNL     1       5.371  -1.241   9.980  1.00  0.00    -0.266 OA
ENDBRANCH  22  23
ENDBRANCH  21  22
ENDBRANCH   1  21
BRANCH   2  26
HETATM   26  C11 UNL     1       6.650   4.559  11.372  1.00  0.00    -0.023 A 
HETATM   27  C12 UNL     1       6.347   4.096  10.091  1.00  0.00     0.048 A 
HETATM   28  C13 UNL     1       6.695   4.740   8.947  1.00  0.00     0.069 A 
HETATM   29  C14 UNL     1       7.380   5.907   9.058  1.00  0.00     0.074 A 
HETATM   30  C15 UNL     1       7.700   6.399  10.333  1.00  0.00     0.089 A 
HETATM   31  C18 UNL     1       7.353   5.753  11.494  1.00  0.00    -0.006 A 
BRANCH  28  32
HETATM   32  O4  UNL     1       6.344   4.192   7.696  1.00  0.00    -0.361 OA
ATOM     33  H4  UNL     1       6.277   3.250   7.593  1.00  0.00     0.217 HD
ENDBRANCH  28  32
BRANCH  30  34
HETATM   34  O5  UNL     1       8.398   7.590  10.380  1.00  0.00    -0.279 OA
BRANCH  34  35
HETATM   35  C16 UNL     1       9.471   7.787   9.524  1.00  0.00     0.260 C 
HETATM   36  C17 UNL     1      10.704   6.981   9.679  1.00  0.00     0.126 C 
HETATM   37  O6  UNL     1       9.349   8.662   8.632  1.00  0.00    -0.265 OA
ENDBRANCH  34  35
ENDBRANCH  30  34
BRANCH  31  38
HETATM   38  C19 UNL     1       7.698   6.209  12.837  1.00  0.00    -0.021 C 
HETATM   39  C20 UNL     1       7.229   7.646  13.120  1.00  0.00     0.019 C 
HETATM   40  C21 UNL     1       9.238   6.261  12.914  1.00  0.00     0.019 C 
HETATM   41  C22 UNL     1       7.263   5.410  14.004  1.00  0.00     0.019 C 
ENDBRANCH  31  38
ENDBRANCH   2  26
TORSDOF 16
ENDMDL
MODEL 4
REMARK VINA RESULT: -7.491682454      4.446      8.487
REMARK  16 active torsions:
REMARK  status: ('A' for Active; 'I' for Inactive)
REMARK    1  A    between atoms: O1_2  and  C2_3 
REMARK    2  A    between atoms: C4_5  and  C5_6 
REMARK    3  A    between atoms: C6_7  and  C7_8 
REMARK    4  A    between atoms: C7_8  and  O3_10 
REMARK    5  A    between atoms: O3_10  and  C8_11 
REMARK    6  A    between atoms: C8_11  and  C9_12 
REMARK    7  A    between atoms: C9_12  and  C23_30 
REMARK    8  A    between atoms: C10_13  and  C11_14 
REMARK    9  A    between atoms: C13_16  and  O4_17 
REMARK   10  A    between atoms: C15_20  and  O5_21 
REMARK   11  A    between atoms: O5_21  and  C16_22 
REMARK   12  A    between atoms: C18_25  and  C19_26 
REMARK   13  A    between atoms: C23_30  and  O7_31 
REMARK   14  A    between atoms: O7_31  and  C24_32 
REMARK   15  A    between atoms: C27_36  and  O9_37 
REMARK   16  A    between atoms: C29_39  and  O10_40 
ROOT
HETATM    1  C9  UNL     1       6.137   2.408  12.480  1.00  0.00    -0.031 C 
HETATM    2  C10 UNL     1       6.117   3.726  12.427  1.00  0.00     0.019 C 
ENDROOT
BRANCH   1   3
HETATM    3  C8  UNL     1       5.544   1.751  13.714  1.00  0.00     0.215 C 
BRANCH   3   4
HETATM    4  O3  UNL     1       6.505   1.809  14.739  1.00  0.00    -0.314 OA
BRANCH   4   5
HETATM    5  C7  UNL     1       7.038   0.552  15.198  1.00  0.00     0.283 C 
HETATM    6  O2  UNL     1       8.160   0.330  14.736  1.00  0.00    -0.260 OA
BRANCH   5   7
HETATM    7  C6  UNL     1       6.243  -0.241  16.083  1.00  0.00     0.083 C 
HETATM    8  C5  UNL     1       6.089  -0.308  17.341  1.00  0.00     0.017 C 
BRANCH   8   9
HETATM    9  C4  UNL     1       6.621   0.348  18.491  1.00  0.00    -0.031 A 
HETATM   10  C3  UNL     1       5.937   0.893  19.534  1.00  0.00     0.051 A 
HETATM   11  C2  UNL     1       6.534   1.446  20.676  1.00  0.00     0.105 A 
HETATM   12  C29 UNL     1       7.892   1.464  20.794  1.00  0.00     0.135 A 
HETATM   13  C27 UNL     1       8.620   0.926  19.759  1.00  0.00     0.105 A 
HETATM   14  C26 UNL     1       8.037   0.389  18.653  1.00  0.00     0.051 A 
BRANCH  11  15
HETATM   15  O1  UNL     1       5.760   1.979  21.698  1.00  0.00    -0.353 OA
HETATM   16  C1  UNL     1       5.163   1.133  22.652  1.00  0.00     0.210 C 
ENDBRANCH  11  15
BRANCH  12  17
HETATM   17  O10 UNL     1       8.541   1.999  21.902  1.00  0.00    -0.351 OA
HETATM   18  C30 UNL     1       8.727   1.160  23.043  1.00  0.00     0.210 C 
ENDBRANCH  12  17
BRANCH  13  19
HETATM   19  O9  UNL     1      10.024   0.949  19.884  1.00  0.00    -0.353 OA
HETATM   20  C28 UNL     1      10.698   2.166  19.655  1.00  0.00     0.210 C 
ENDBRANCH  13  19
ENDBRANCH   8   9
ENDBRANCH   5   7
ENDBRANCH   4   5
ENDBRANCH   3   4
ENDBRANCH   1   3
BRANCH   1  21
HETATM   21  C23 UNL     1       6.649   1.504  11.440  1.00  0.00     0.215 C 
BRANCH  21  22
HETATM   22  O7  UNL     1       6.101   0.182  11.545  1.00  0.00    -0.317 OA
BRANCH  22  23
HETATM   23  C24 UNL     1       6.323  -0.677  10.488  1.00  0.00     0.255 C 
HETATM   24  C25 UNL     1       7.691  -0.953   9.993  1.00  0.00     0.126 C 
HETATM   25  O8  UNL     1       5.359  -1.243   9.923  1.00  0.00    -0.266 OA
ENDBRANCH  22  23
ENDBRANCH  21  22
ENDBRANCH   1  21
BRANCH   2  26
HETATM   26  C11 UNL     1       6.624   4.551  11.362  1.00  0.00    -0.023 A 
HETATM   27  C12 UNL     1       6.332   4.088  10.079  1.00  0.00     0.048 A 
HETATM   28  C13 UNL     1       6.690   4.731   8.938  1.00  0.00     0.069 A 
HETATM   29  C14 UNL     1       7.373   5.898   9.054  1.00  0.00     0.074 A 
HETATM   30  C15 UNL     1       7.682   6.391  10.331  1.00  0.00     0.089 A 
HETATM   31  C18 UNL     1       7.326   5.745  11.489  1.00  0.00    -0.006 A 
BRANCH  28  32
HETATM   32  O4  UNL     1       6.349   4.183   7.684  1.00  0.00    -0.361 OA
ATOM     33  H4  UNL     1       6.244   4.752   6.930  1.00  0.00     0.217 HD
ENDBRANCH  28  32
BRANCH  30  34
HETATM   34  O5  UNL     1       8.380   7.583  10.384  1.00  0.00    -0.279 OA
BRANCH  34  35
HETATM   35  C16 UNL     1       9.411   7.810   9.485  1.00  0.00     0.260 C 
HETATM   36  C17 UNL     1      10.671   7.040   9.589  1.00  0.00     0.126 C 
HETATM   37  O6  UNL     1       9.227   8.681   8.601  1.00  0.00    -0.265 OA
ENDBRANCH  34  35
ENDBRANCH  30  34
BRANCH  31  38
HETATM   38  C19 UNL     1       7.660   6.202  12.835  1.00  0.00    -0.021 C 
HETATM   39  C20 UNL     1       7.098   7.599  13.150  1.00  0.00     0.019 C 
HETATM   40  C21 UNL     1       9.193   6.359  12.891  1.00  0.00     0.019 C 
HETATM   41  C22 UNL     1       7.298   5.356  13.994  1.00  0.00     0.019 C 
ENDBRANCH  31  38
ENDBRANCH   2  26
TORSDOF 16
ENDMDL
MODEL 5
REMARK VINA RESULT: -7.456449187      4.517      9.155
REMARK  16 active torsions:
REMARK  status: ('A' for Active; 'I' for Inactive)
REMARK    1  A    between atoms: O1_2  and  C2_3 
REMARK    2  A    between atoms: C4_5  and  C5_6 
REMARK    3  A    between atoms: C6_7  and  C7_8 
REMARK    4  A    between atoms: C7_8  and  O3_10 
REMARK    5  A    between atoms: O3_10  and  C8_11 
REMARK    6  A    between atoms: C8_11  and  C9_12 
REMARK    7  A    between atoms: C9_12  and  C23_30 
REMARK    8  A    between atoms: C10_13  and  C11_14 
REMARK    9  A    between atoms: C13_16  and  O4_17 
REMARK   10  A    between atoms: C15_20  and  O5_21 
REMARK   11  A    between atoms: O5_21  and  C16_22 
REMARK   12  A    between atoms: C18_25  and  C19_26 
REMARK   13  A    between atoms: C23_30  and  O7_31 
REMARK   14  A    between atoms: O7_31  and  C24_32 
REMARK   15  A    between atoms: C27_36  and  O9_37 
REMARK   16  A    between atoms: C29_39  and  O10_40 
ROOT
HETATM    1  C9  UNL     1       6.192   1.994  12.437  1.00  0.00    -0.031 C 
HETATM    2  C10 UNL     1       5.911   3.159  11.884  1.00  0.00     0.019 C 
ENDROOT
BRANCH   1   3
HETATM    3  C8  UNL     1       5.753   1.782  13.875  1.00  0.00     0.215 C 
BRANCH   3   4
HETATM    4  O3  UNL     1       6.904   1.775  14.682  1.00  0.00    -0.314 OA
BRANCH   4   5
HETATM    5  C7  UNL     1       7.295   0.506  15.241  1.00  0.00     0.283 C 
HETATM    6  O2  UNL     1       8.432   0.178  14.893  1.00  0.00    -0.260 OA
BRANCH   5   7
HETATM    7  C6  UNL     1       6.366  -0.180  16.084  1.00  0.00     0.083 C 
HETATM    8  C5  UNL     1       6.124  -0.203  17.329  1.00  0.00     0.017 C 
BRANCH   8   9
HETATM    9  C4  UNL     1       6.646   0.421  18.502  1.00  0.00    -0.031 A 
HETATM   10  C3  UNL     1       5.952   0.936  19.553  1.00  0.00     0.051 A 
HETATM   11  C2  UNL     1       6.539   1.458  20.715  1.00  0.00     0.105 A 
HETATM   12  C29 UNL     1       7.896   1.473  20.845  1.00  0.00     0.135 A 
HETATM   13  C27 UNL     1       8.634   0.964  19.803  1.00  0.00     0.105 A 
HETATM   14  C26 UNL     1       8.061   0.458  18.677  1.00  0.00     0.051 A 
BRANCH  11  15
HETATM   15  O1  UNL     1       5.757   1.962  21.746  1.00  0.00    -0.353 OA
HETATM   16  C1  UNL     1       5.206   1.096  22.709  1.00  0.00     0.210 C 
ENDBRANCH  11  15
BRANCH  12  17
HETATM   17  O10 UNL     1       8.536   1.977  21.974  1.00  0.00    -0.351 OA
HETATM   18  C30 UNL     1       8.792   1.083  23.058  1.00  0.00     0.210 C 
ENDBRANCH  12  17
BRANCH  13  19
HETATM   19  O9  UNL     1      10.037   0.984  19.940  1.00  0.00    -0.353 OA
HETATM   20  C28 UNL     1      10.723   2.179  19.642  1.00  0.00     0.210 C 
ENDBRANCH  13  19
ENDBRANCH   8   9
ENDBRANCH   5   7
ENDBRANCH   4   5
ENDBRANCH   3   4
ENDBRANCH   1   3
BRANCH   1  21
HETATM   21  C23 UNL     1       6.861   0.860  11.783  1.00  0.00     0.215 C 
BRANCH  21  22
HETATM   22  O7  UNL     1       5.971  -0.240  11.549  1.00  0.00    -0.317 OA
BRANCH  22  23
HETATM   23  C24 UNL     1       6.190  -0.996  10.415  1.00  0.00     0.255 C 
HETATM   24  C25 UNL     1       7.520  -1.047   9.767  1.00  0.00     0.126 C 
HETATM   25  O8  UNL     1       5.254  -1.658   9.910  1.00  0.00    -0.266 OA
ENDBRANCH  22  23
ENDBRANCH  21  22
ENDBRANCH   1  21
BRANCH   2  26
HETATM   26  C11 UNL     1       6.234   3.574  10.544  1.00  0.00    -0.023 A 
HETATM   27  C12 UNL     1       5.942   2.632   9.558  1.00  0.00     0.048 A 
HETATM   28  C13 UNL     1       6.140   2.834   8.229  1.00  0.00     0.069 A 
HETATM   29  C14 UNL     1       6.652   4.028   7.838  1.00  0.00     0.074 A 
HETATM   30  C15 UNL     1       6.956   4.998   8.807  1.00  0.00     0.089 A 
HETATM   31  C18 UNL     1       6.761   4.799  10.151  1.00  0.00    -0.006 A 
BRANCH  28  32
HETATM   32  O4  UNL     1       5.814   1.819   7.306  1.00  0.00    -0.361 OA
ATOM     33  H4  UNL     1       6.315   1.012   7.292  1.00  0.00     0.217 HD
ENDBRANCH  28  32
BRANCH  30  34
HETATM   34  O5  UNL     1       7.476   6.193   8.346  1.00  0.00    -0.279 OA
BRANCH  34  35
HETATM   35  C16 UNL     1       6.699   7.008   7.536  1.00  0.00     0.260 C 
HETATM   36  C17 UNL     1       7.234   7.501   6.246  1.00  0.00     0.126 C 
HETATM   37  O6  UNL     1       5.549   7.300   7.942  1.00  0.00    -0.265 OA
ENDBRANCH  34  35
ENDBRANCH  30  34
BRANCH  31  38
HETATM   38  C19 UNL     1       7.099   5.764  11.193  1.00  0.00    -0.021 C 
HETATM   39  C20 UNL     1       7.453   5.098  12.534  1.00  0.00     0.019 C 
HETATM   40  C21 UNL     1       5.826   6.590  11.473  1.00  0.00     0.019 C 
HETATM   41  C22 UNL     1       8.172   6.751  10.942  1.00  0.00     0.019 C 
ENDBRANCH  31  38
ENDBRANCH   2  26
TORSDOF 16
ENDMDL
