MODEL 1
REMARK VINA RESULT: -7.433789516      0.000      0.000
REMARK  3 active torsions:
REMARK  status: ('A' for Active; 'I' for Inactive)
REMARK    1  A    between atoms: C10_10  and  O1_11 
REMARK    2  A    between atoms: N1_14  and  O2_16 
REMARK    3  A    between atoms: O2_16  and  C12_17 
ROOT
HETATM    1  C1  UNL     1      21.089  22.558  30.081  1.00  0.00     0.010 C 
HETATM    2  C2  UNL     1      22.187  23.179  30.901  1.00  0.00    -0.018 C 
HETATM    3  C3  UNL     1      23.281  22.116  31.041  1.00  0.00     0.005 C 
HETATM    4  C4  UNL     1      24.582  22.831  31.200  1.00  0.00     0.010 C 
HETATM    5  C5  UNL     1      25.013  23.460  29.869  1.00  0.00    -0.040 C 
HETATM    6  C6  UNL     1      25.545  22.296  29.023  1.00  0.00     0.015 C 
HETATM    7  C7  UNL     1      26.084  24.438  30.167  1.00  0.00     0.010 C 
HETATM    8  C8  UNL     1      26.131  25.646  29.307  1.00  0.00     0.009 C 
HETATM    9  C9  UNL     1      25.503  25.361  27.974  1.00  0.00     0.025 C 
HETATM   10  C10 UNL     1      25.403  26.691  27.213  1.00  0.00     0.170 C 
HETATM   11  C11 UNL     1      24.471  27.429  28.099  1.00  0.00     0.039 C 
HETATM   12  N1  UNL     1      24.539  28.671  28.359  1.00  0.00    -0.272 N 
ATOM     13  H1  UNL     1      23.832  29.051  28.988  1.00  0.00     0.193 HD
HETATM   14  C17 UNL     1      23.493  26.424  28.587  1.00  0.00     0.062 C 
HETATM   15  C18 UNL     1      24.034  25.078  28.215  1.00  0.00     0.003 C 
HETATM   16  C19 UNL     1      23.792  24.008  29.222  1.00  0.00    -0.001 C 
HETATM   17  C20 UNL     1      22.743  24.425  30.263  1.00  0.00     0.010 C 
ENDROOT
BRANCH  10  18
HETATM   18  O1  UNL     1      24.849  26.466  25.955  1.00  0.00    -0.389 OA
ATOM     19  H1  UNL     1      23.903  26.408  26.030  1.00  0.00     0.210 HD
ENDBRANCH  10  18
BRANCH  12  20
HETATM   20  O2  UNL     1      25.461  29.533  27.879  1.00  0.00    -0.275 OA
BRANCH  20  21
HETATM   21  C12 UNL     1      25.245  30.406  26.770  1.00  0.00     0.155 C 
HETATM   22  C13 UNL     1      25.671  31.778  27.188  1.00  0.00     0.062 C 
HETATM   23  C14 UNL     1      26.721  32.367  26.275  1.00  0.00     0.235 C 
HETATM   24  N2  UNL     1      26.233  32.207  24.915  1.00  0.00    -0.075 N 
HETATM   25  C15 UNL     1      26.355  30.833  24.555  1.00  0.00     0.235 C 
ATOM     26  H22 UNL     1      25.283  32.561  24.794  1.00  0.00     0.277 HD
ATOM     27  H21 UNL     1      26.699  32.829  24.255  1.00  0.00     0.277 HD
HETATM   28  C16 UNL     1      26.037  29.855  25.620  1.00  0.00     0.062 C 
ENDBRANCH  20  21
ENDBRANCH  12  20
TORSDOF 3
ENDMDL
MODEL 2
REMARK VINA RESULT: -7.404343780      1.368      2.764
REMARK  3 active torsions:
REMARK  status: ('A' for Active; 'I' for Inactive)
REMARK    1  A    between atoms: C10_10  and  O1_11 
REMARK    2  A    between atoms: N1_14  and  O2_16 
REMARK    3  A    between atoms: O2_16  and  C12_17 
ROOT
HETATM    1  C1  UNL     1      26.567  21.529  29.717  1.00  0.00     0.010 C 
HETATM    2  C2  UNL     1      25.267  21.833  29.021  1.00  0.00    -0.018 C 
HETATM    3  C3  UNL     1      24.156  21.584  30.046  1.00  0.00     0.005 C 
HETATM    4  C4  UNL     1      23.012  22.476  29.690  1.00  0.00     0.010 C 
HETATM    5  C5  UNL     1      23.345  23.934  30.031  1.00  0.00    -0.040 C 
HETATM    6  C6  UNL     1      23.195  24.040  31.554  1.00  0.00     0.015 C 
HETATM    7  C7  UNL     1      22.356  24.788  29.334  1.00  0.00     0.010 C 
HETATM    8  C8  UNL     1      22.843  26.108  28.863  1.00  0.00     0.009 C 
HETATM    9  C9  UNL     1      24.015  26.556  29.685  1.00  0.00     0.025 C 
HETATM   10  C10 UNL     1      24.591  27.817  29.026  1.00  0.00     0.170 C 
HETATM   11  C11 UNL     1      25.031  27.254  27.726  1.00  0.00     0.039 C 
HETATM   12  N1  UNL     1      24.955  27.852  26.608  1.00  0.00    -0.272 N 
ATOM     13  H1  UNL     1      25.294  27.346  25.789  1.00  0.00     0.193 HD
HETATM   14  C17 UNL     1      25.552  25.897  28.028  1.00  0.00     0.062 C 
HETATM   15  C18 UNL     1      25.147  25.581  29.434  1.00  0.00     0.003 C 
HETATM   16  C19 UNL     1      24.769  24.159  29.670  1.00  0.00    -0.001 C 
HETATM   17  C20 UNL     1      25.207  23.249  28.513  1.00  0.00     0.010 C 
ENDROOT
BRANCH  10  18
HETATM   18  O1  UNL     1      25.668  28.284  29.776  1.00  0.00    -0.389 OA
ATOM     19  H1  UNL     1      25.950  29.125  29.436  1.00  0.00     0.210 HD
ENDBRANCH  10  18
BRANCH  12  20
HETATM   20  O2  UNL     1      24.465  29.094  26.403  1.00  0.00    -0.275 OA
BRANCH  20  21
HETATM   21  C12 UNL     1      25.260  30.219  26.030  1.00  0.00     0.155 C 
HETATM   22  C13 UNL     1      24.466  31.028  25.053  1.00  0.00     0.062 C 
HETATM   23  C14 UNL     1      24.279  32.461  25.497  1.00  0.00     0.235 C 
HETATM   24  N2  UNL     1      25.595  32.961  25.861  1.00  0.00    -0.075 N 
HETATM   25  C15 UNL     1      25.966  32.378  27.108  1.00  0.00     0.235 C 
ATOM     26  H22 UNL     1      26.291  32.805  25.132  1.00  0.00     0.277 HD
ATOM     27  H21 UNL     1      25.637  33.980  25.877  1.00  0.00     0.277 HD
HETATM   28  C16 UNL     1      25.591  30.958  27.294  1.00  0.00     0.062 C 
ENDBRANCH  20  21
ENDBRANCH  12  20
TORSDOF 3
ENDMDL
MODEL 3
REMARK VINA RESULT: -7.265650380      1.428      2.092
REMARK  3 active torsions:
REMARK  status: ('A' for Active; 'I' for Inactive)
REMARK    1  A    between atoms: C10_10  and  O1_11 
REMARK    2  A    between atoms: N1_14  and  O2_16 
REMARK    3  A    between atoms: O2_16  and  C12_17 
ROOT
HETATM    1  C1  UNL     1      21.219  21.768  29.453  1.00  0.00     0.010 C 
HETATM    2  C2  UNL     1      20.964  23.213  29.787  1.00  0.00    -0.018 C 
HETATM    3  C3  UNL     1      21.132  23.345  31.304  1.00  0.00     0.005 C 
HETATM    4  C4  UNL     1      21.570  24.745  31.585  1.00  0.00     0.010 C 
HETATM    5  C5  UNL     1      23.029  24.945  31.153  1.00  0.00    -0.040 C 
HETATM    6  C6  UNL     1      23.871  24.266  32.241  1.00  0.00     0.015 C 
HETATM    7  C7  UNL     1      23.282  26.403  31.112  1.00  0.00     0.010 C 
HETATM    8  C8  UNL     1      24.230  26.877  30.073  1.00  0.00     0.009 C 
HETATM    9  C9  UNL     1      25.176  25.777  29.688  1.00  0.00     0.025 C 
HETATM   10  C10 UNL     1      25.990  26.264  28.482  1.00  0.00     0.170 C 
HETATM   11  C11 UNL     1      24.907  26.416  27.481  1.00  0.00     0.039 C 
HETATM   12  N1  UNL     1      24.841  27.339  26.610  1.00  0.00    -0.272 N 
ATOM     13  H1  UNL     1      24.038  27.326  25.981  1.00  0.00     0.193 HD
HETATM   14  C17 UNL     1      23.966  25.294  27.727  1.00  0.00     0.062 C 
HETATM   15  C18 UNL     1      24.357  24.682  29.036  1.00  0.00     0.003 C 
HETATM   16  C19 UNL     1      23.216  24.215  29.872  1.00  0.00    -0.001 C 
HETATM   17  C20 UNL     1      21.908  24.142  29.070  1.00  0.00     0.010 C 
ENDROOT
BRANCH  10  18
HETATM   18  O1  UNL     1      26.902  25.280  28.109  1.00  0.00    -0.389 OA
ATOM     19  H1  UNL     1      26.462  24.439  28.067  1.00  0.00     0.210 HD
ENDBRANCH  10  18
BRANCH  12  20
HETATM   20  O2  UNL     1      25.737  28.336  26.440  1.00  0.00    -0.275 OA
BRANCH  20  21
HETATM   21  C12 UNL     1      25.415  29.623  25.914  1.00  0.00     0.155 C 
HETATM   22  C13 UNL     1      25.100  30.516  27.072  1.00  0.00     0.062 C 
HETATM   23  C14 UNL     1      25.965  31.755  27.107  1.00  0.00     0.235 C 
HETATM   24  N2  UNL     1      25.910  32.343  25.778  1.00  0.00    -0.075 N 
HETATM   25  C15 UNL     1      26.691  31.537  24.900  1.00  0.00     0.235 C 
ATOM     26  H22 UNL     1      24.954  32.473  25.445  1.00  0.00     0.277 HD
ATOM     27  H21 UNL     1      26.194  33.322  25.770  1.00  0.00     0.277 HD
HETATM   28  C16 UNL     1      26.602  30.075  25.112  1.00  0.00     0.062 C 
ENDBRANCH  20  21
ENDBRANCH  12  20
TORSDOF 3
ENDMDL
MODEL 4
REMARK VINA RESULT: -7.090002199      1.158      1.595
REMARK  3 active torsions:
REMARK  status: ('A' for Active; 'I' for Inactive)
REMARK    1  A    between atoms: C10_10  and  O1_11 
REMARK    2  A    between atoms: N1_14  and  O2_16 
REMARK    3  A    between atoms: O2_16  and  C12_17 
ROOT
HETATM    1  C1  UNL     1      20.258  24.120  30.359  1.00  0.00     0.010 C 
HETATM    2  C2  UNL     1      21.407  24.695  31.142  1.00  0.00    -0.018 C 
HETATM    3  C3  UNL     1      22.278  23.510  31.572  1.00  0.00     0.005 C 
HETATM    4  C4  UNL     1      23.678  24.011  31.710  1.00  0.00     0.010 C 
HETATM    5  C5  UNL     1      24.287  24.283  30.328  1.00  0.00    -0.040 C 
HETATM    6  C6  UNL     1      24.641  22.902  29.762  1.00  0.00     0.015 C 
HETATM    7  C7  UNL     1      25.502  25.104  30.534  1.00  0.00     0.010 C 
HETATM    8  C8  UNL     1      25.815  26.092  29.473  1.00  0.00     0.009 C 
HETATM    9  C9  UNL     1      25.218  25.662  28.165  1.00  0.00     0.025 C 
HETATM   10  C10 UNL     1      25.404  26.812  27.167  1.00  0.00     0.170 C 
HETATM   11  C11 UNL     1      24.578  27.858  27.816  1.00  0.00     0.039 C 
HETATM   12  N1  UNL     1      24.859  29.097  27.847  1.00  0.00    -0.272 N 
ATOM     13  H1  UNL     1      24.201  29.709  28.331  1.00  0.00     0.193 HD
HETATM   14  C17 UNL     1      23.408  27.150  28.393  1.00  0.00     0.062 C 
HETATM   15  C18 UNL     1      23.711  25.686  28.325  1.00  0.00     0.003 C 
HETATM   16  C19 UNL     1      23.224  24.891  29.487  1.00  0.00    -0.001 C 
HETATM   17  C20 UNL     1      22.215  25.678  30.337  1.00  0.00     0.010 C 
ENDROOT
BRANCH  10  18
HETATM   18  O1  UNL     1      24.886  26.442  25.928  1.00  0.00    -0.389 OA
ATOM     19  H1  UNL     1      23.945  26.569  25.927  1.00  0.00     0.210 HD
ENDBRANCH  10  18
BRANCH  12  20
HETATM   20  O2  UNL     1      25.948  29.678  27.299  1.00  0.00    -0.275 OA
BRANCH  20  21
HETATM   21  C12 UNL     1      25.903  30.812  26.433  1.00  0.00     0.155 C 
HETATM   22  C13 UNL     1      25.043  30.450  25.263  1.00  0.00     0.062 C 
HETATM   23  C14 UNL     1      23.886  31.402  25.071  1.00  0.00     0.235 C 
HETATM   24  N2  UNL     1      24.439  32.746  25.100  1.00  0.00    -0.075 N 
HETATM   25  C15 UNL     1      24.779  33.061  26.448  1.00  0.00     0.235 C 
ATOM     26  H22 UNL     1      25.226  32.862  24.460  1.00  0.00     0.277 HD
ATOM     27  H21 UNL     1      23.816  33.437  24.680  1.00  0.00     0.277 HD
HETATM   28  C16 UNL     1      25.365  31.957  27.242  1.00  0.00     0.062 C 
ENDBRANCH  20  21
ENDBRANCH  12  20
TORSDOF 3
ENDMDL
MODEL 5
REMARK VINA RESULT: -7.015188347      5.085      8.262
REMARK  3 active torsions:
REMARK  status: ('A' for Active; 'I' for Inactive)
REMARK    1  A    between atoms: C10_10  and  O1_11 
REMARK    2  A    between atoms: N1_14  and  O2_16 
REMARK    3  A    between atoms: O2_16  and  C12_17 
ROOT
HETATM    1  C1  UNL     1      23.924  28.728  27.474  1.00  0.00     0.010 C 
HETATM    2  C2  UNL     1      25.365  28.986  27.124  1.00  0.00    -0.018 C 
HETATM    3  C3  UNL     1      25.507  28.696  25.627  1.00  0.00     0.005 C 
HETATM    4  C4  UNL     1      26.621  29.547  25.111  1.00  0.00     0.010 C 
HETATM    5  C5  UNL     1      26.184  31.017  25.043  1.00  0.00    -0.040 C 
HETATM    6  C6  UNL     1      25.287  31.115  23.802  1.00  0.00     0.015 C 
HETATM    7  C7  UNL     1      27.408  31.836  24.886  1.00  0.00     0.010 C 
HETATM    8  C8  UNL     1      27.392  33.172  25.530  1.00  0.00     0.009 C 
HETATM    9  C9  UNL     1      25.981  33.661  25.683  1.00  0.00     0.025 C 
HETATM   10  C10 UNL     1      26.022  34.942  26.527  1.00  0.00     0.170 C 
HETATM   11  C11 UNL     1      26.542  34.396  27.804  1.00  0.00     0.039 C 
HETATM   12  N1  UNL     1      27.358  34.991  28.575  1.00  0.00    -0.272 N 
ATOM     13  H1  UNL     1      27.636  34.499  29.424  1.00  0.00     0.193 HD
HETATM   14  C17 UNL     1      25.918  33.058  27.958  1.00  0.00     0.062 C 
HETATM   15  C18 UNL     1      25.278  32.727  26.645  1.00  0.00     0.003 C 
HETATM   16  C19 UNL     1      25.366  31.292  26.253  1.00  0.00    -0.001 C 
HETATM   17  C20 UNL     1      25.784  30.399  27.430  1.00  0.00     0.010 C 
ENDROOT
BRANCH  10  18
HETATM   18  O1  UNL     1      24.732  35.446  26.670  1.00  0.00    -0.389 OA
ATOM     19  H1  UNL     1      24.775  36.354  26.947  1.00  0.00     0.210 HD
ENDBRANCH  10  18
BRANCH  12  20
HETATM   20  O2  UNL     1      27.892  36.216  28.373  1.00  0.00    -0.275 OA
BRANCH  20  21
HETATM   21  C12 UNL     1      28.672  36.920  29.338  1.00  0.00     0.155 C 
HETATM   22  C13 UNL     1      29.429  35.903  30.134  1.00  0.00     0.062 C 
HETATM   23  C14 UNL     1      30.923  36.132  30.105  1.00  0.00     0.235 C 
HETATM   24  N2  UNL     1      31.139  37.532  30.435  1.00  0.00    -0.075 N 
HETATM   25  C15 UNL     1      30.760  38.321  29.310  1.00  0.00     0.235 C 
ATOM     26  H22 UNL     1      30.659  37.813  31.291  1.00  0.00     0.277 HD
ATOM     27  H21 UNL     1      32.093  37.720  30.743  1.00  0.00     0.277 HD
HETATM   28  C16 UNL     1      29.555  37.867  28.578  1.00  0.00     0.062 C 
ENDBRANCH  20  21
ENDBRANCH  12  20
TORSDOF 3
ENDMDL
