MODEL 1
REMARK VINA RESULT: -7.427639746      0.000      0.000
REMARK  9 active torsions:
REMARK  status: ('A' for Active; 'I' for Inactive)
REMARK       I    between atoms: C2_2  and  N1_4 
REMARK    1  A    between atoms: N1_4  and  C3_6 
REMARK    2  A    between atoms: C3_6  and  C4_7 
REMARK    3  A    between atoms: C4_7  and  C5_8 
REMARK    4  A    between atoms: C5_8  and  C6_9 
REMARK    5  A    between atoms: C6_9  and  C7_10 
REMARK    6  A    between atoms: C7_10  and  N2_11 
REMARK       I    between atoms: N2_11  and  C8_13 
REMARK    7  A    between atoms: C8_13  and  C9_15 
REMARK    8  A    between atoms: C9_15  and  N3_16 
REMARK    9  A    between atoms: C9_15  and  C10_20 
ROOT
HETATM    1  C10 UNL     1       9.070  22.938  20.782  1.00  0.00     0.127 C 
HETATM    2  C11 UNL     1       7.741  23.614  21.080  1.00  0.00     0.214 C 
HETATM    3  O3  UNL     1       7.348  24.668  20.562  1.00  0.00    -0.288 OA
HETATM    4  C12 UNL     1       6.840  22.992  22.052  1.00  0.00     0.255 C 
HETATM    5  O4  UNL     1       5.602  23.027  21.993  1.00  0.00    -0.277 OA
HETATM    6  S1  UNL     1       7.622  22.137  23.393  1.00  0.00    -0.083 SA
HETATM    7  C13 UNL     1       9.292  21.677  22.818  1.00  0.00     0.107 C 
HETATM    8  C14 UNL     1       9.922  22.730  21.942  1.00  0.00     0.089 C 
HETATM    9  C15 UNL     1       9.867  23.927  22.880  1.00  0.00     0.236 C 
HETATM   10  O5  UNL     1       8.943  24.812  22.950  1.00  0.00    -0.272 OA
HETATM   11  N4  UNL     1      11.030  23.894  23.666  1.00  0.00    -0.319 N 
HETATM   12  C16 UNL     1      12.050  24.126  24.650  1.00  0.00     0.206 C 
HETATM   13  C17 UNL     1      12.090  25.467  25.216  1.00  0.00     0.085 C 
HETATM   14  N5  UNL     1      12.102  26.534  25.680  1.00  0.00    -0.195 NA
HETATM   15  C18 UNL     1      12.994  23.948  23.400  1.00  0.00     0.015 C 
HETATM   16  C19 UNL     1      14.336  23.494  23.951  1.00  0.00     0.021 C 
HETATM   17  C20 UNL     1      13.134  25.283  22.851  1.00  0.00     0.021 C 
HETATM   18  C21 UNL     1      11.980  22.937  23.115  1.00  0.00     0.068 C 
HETATM   19  C22 UNL     1      12.345  21.725  23.975  1.00  0.00     0.045 C 
HETATM   20  C23 UNL     1      11.369  22.581  21.788  1.00  0.00    -0.030 C 
HETATM   21  C24 UNL     1      12.170  22.843  20.613  1.00  0.00    -0.082 C 
HETATM   22  C25 UNL     1      12.233  24.103  19.881  1.00  0.00     0.043 C 
HETATM   23  C26 UNL     1      12.370  21.729  19.607  1.00  0.00     0.043 C 
ENDROOT
BRANCH   1  24
HETATM   24  C9  UNL     1       8.680  21.775  19.887  1.00  0.00     0.287 C 
BRANCH  24  25
HETATM   25  C8  UNL     1       8.997  22.145  18.466  1.00  0.00     0.249 C 
HETATM   26  N2  UNL     1       8.531  23.225  17.738  1.00  0.00    -0.359 N 
ATOM     27  H2  UNL     1       7.879  23.874  18.181  1.00  0.00     0.162 HD
HETATM   28  O2  UNL     1       9.810  21.345  17.881  1.00  0.00    -0.271 OA
BRANCH  26  29
HETATM   29  C7  UNL     1       8.940  23.467  16.356  1.00  0.00     0.122 C 
BRANCH  29  30
HETATM   30  C6  UNL     1       7.933  23.128  15.338  1.00  0.00     0.021 C 
BRANCH  30  31
HETATM   31  C5  UNL     1       8.334  22.078  14.336  1.00  0.00     0.014 C 
BRANCH  31  32
HETATM   32  C4  UNL     1       8.257  20.694  15.038  1.00  0.00     0.104 C 
BRANCH  32  33
HETATM   33  C3  UNL     1       7.010  20.369  15.571  1.00  0.00    -0.068 C 
BRANCH  33  34
HETATM   34  N1  UNL     1       5.816  20.009  16.096  1.00  0.00    -0.297 N 
HETATM   35  C2  UNL     1       5.111  20.822  17.079  1.00  0.00     0.224 C 
HETATM   36  C1  UNL     1       3.818  20.377  17.637  1.00  0.00     0.118 C 
HETATM   37  O1  UNL     1       5.654  21.899  17.418  1.00  0.00    -0.273 OA
ATOM     38  H1  UNL     1       5.391  19.134  15.790  1.00  0.00     0.178 HD
ENDBRANCH  33  34
ENDBRANCH  32  33
ENDBRANCH  31  32
ENDBRANCH  30  31
ENDBRANCH  29  30
ENDBRANCH  26  29
ENDBRANCH  24  25
BRANCH  24  39
HETATM   39  N3  UNL     1       7.220  21.592  19.871  1.00  0.00    -0.066 N 
ATOM     40  H33 UNL     1       6.857  21.156  19.023  1.00  0.00     0.275 HD
ATOM     41  H32 UNL     1       6.874  20.877  20.512  1.00  0.00     0.275 HD
ATOM     42  H31 UNL     1       6.864  22.531  20.050  1.00  0.00     0.275 HD
ENDBRANCH  24  39
ENDBRANCH   1  24
TORSDOF 9
ENDMDL
MODEL 2
REMARK VINA RESULT: -7.116724966      1.118      1.404
REMARK  9 active torsions:
REMARK  status: ('A' for Active; 'I' for Inactive)
REMARK       I    between atoms: C2_2  and  N1_4 
REMARK    1  A    between atoms: N1_4  and  C3_6 
REMARK    2  A    between atoms: C3_6  and  C4_7 
REMARK    3  A    between atoms: C4_7  and  C5_8 
REMARK    4  A    between atoms: C5_8  and  C6_9 
REMARK    5  A    between atoms: C6_9  and  C7_10 
REMARK    6  A    between atoms: C7_10  and  N2_11 
REMARK       I    between atoms: N2_11  and  C8_13 
REMARK    7  A    between atoms: C8_13  and  C9_15 
REMARK    8  A    between atoms: C9_15  and  N3_16 
REMARK    9  A    between atoms: C9_15  and  C10_20 
ROOT
HETATM    1  C10 UNL     1       9.278  22.825  21.216  1.00  0.00     0.127 C 
HETATM    2  C11 UNL     1       8.033  23.508  21.759  1.00  0.00     0.214 C 
HETATM    3  O3  UNL     1       7.549  24.560  21.318  1.00  0.00    -0.288 OA
HETATM    4  C12 UNL     1       7.336  22.896  22.892  1.00  0.00     0.255 C 
HETATM    5  O4  UNL     1       6.109  22.934  23.073  1.00  0.00    -0.277 OA
HETATM    6  S1  UNL     1       8.361  22.048  24.063  1.00  0.00    -0.083 SA
HETATM    7  C13 UNL     1       9.887  21.579  23.180  1.00  0.00     0.107 C 
HETATM    8  C14 UNL     1      10.338  22.623  22.191  1.00  0.00     0.089 C 
HETATM    9  C15 UNL     1      10.468  23.828  23.111  1.00  0.00     0.236 C 
HETATM   10  O5  UNL     1       9.576  24.716  23.352  1.00  0.00    -0.272 OA
HETATM   11  N4  UNL     1      11.760  23.797  23.658  1.00  0.00    -0.319 N 
HETATM   12  C16 UNL     1      12.951  24.033  24.425  1.00  0.00     0.206 C 
HETATM   13  C17 UNL     1      13.102  25.379  24.963  1.00  0.00     0.085 C 
HETATM   14  N5  UNL     1      13.205  26.448  25.407  1.00  0.00    -0.195 NA
HETATM   15  C18 UNL     1      13.635  23.843  23.018  1.00  0.00     0.015 C 
HETATM   16  C19 UNL     1      15.059  23.389  23.303  1.00  0.00     0.021 C 
HETATM   17  C20 UNL     1      13.669  25.174  22.442  1.00  0.00     0.021 C 
HETATM   18  C21 UNL     1      12.585  22.833  22.942  1.00  0.00     0.068 C 
HETATM   19  C22 UNL     1      13.106  21.626  23.725  1.00  0.00     0.045 C 
HETATM   20  C23 UNL     1      11.728  22.469  21.761  1.00  0.00    -0.030 C 
HETATM   21  C24 UNL     1      12.287  22.719  20.452  1.00  0.00    -0.082 C 
HETATM   22  C25 UNL     1      12.210  23.974  19.711  1.00  0.00     0.043 C 
HETATM   23  C26 UNL     1      12.287  21.597  19.434  1.00  0.00     0.043 C 
ENDROOT
BRANCH   1  24
HETATM   24  C9  UNL     1       8.721  21.657  20.422  1.00  0.00     0.287 C 
BRANCH  24  25
HETATM   25  C8  UNL     1       8.699  22.040  18.969  1.00  0.00     0.249 C 
HETATM   26  N2  UNL     1       8.211  21.310  17.899  1.00  0.00    -0.359 N 
ATOM     27  H2  UNL     1       7.816  20.386  18.072  1.00  0.00     0.162 HD
HETATM   28  O2  UNL     1       9.193  23.195  18.719  1.00  0.00    -0.271 OA
BRANCH  26  29
HETATM   29  C7  UNL     1       8.244  21.821  16.530  1.00  0.00     0.122 C 
BRANCH  29  30
HETATM   30  C6  UNL     1       8.041  20.810  15.481  1.00  0.00     0.021 C 
BRANCH  30  31
HETATM   31  C5  UNL     1       7.159  19.646  15.846  1.00  0.00     0.014 C 
BRANCH  31  32
HETATM   32  C4  UNL     1       5.693  20.033  15.505  1.00  0.00     0.104 C 
BRANCH  32  33
HETATM   33  C3  UNL     1       4.810  20.017  16.585  1.00  0.00    -0.068 C 
BRANCH  33  34
HETATM   34  N1  UNL     1       3.983  19.972  17.654  1.00  0.00    -0.297 N 
HETATM   35  C2  UNL     1       4.193  20.782  18.847  1.00  0.00     0.224 C 
HETATM   36  C1  UNL     1       3.272  20.683  19.998  1.00  0.00     0.118 C 
HETATM   37  O1  UNL     1       5.180  21.553  18.841  1.00  0.00    -0.273 OA
ATOM     38  H1  UNL     1       3.178  19.345  17.624  1.00  0.00     0.178 HD
ENDBRANCH  33  34
ENDBRANCH  32  33
ENDBRANCH  31  32
ENDBRANCH  30  31
ENDBRANCH  29  30
ENDBRANCH  26  29
ENDBRANCH  24  25
BRANCH  24  39
HETATM   39  N3  UNL     1       7.300  21.440  20.736  1.00  0.00    -0.066 N 
ATOM     40  H33 UNL     1       6.791  20.892  20.041  1.00  0.00     0.275 HD
ATOM     41  H32 UNL     1       7.130  20.804  21.516  1.00  0.00     0.275 HD
ATOM     42  H31 UNL     1       6.943  22.385  20.874  1.00  0.00     0.275 HD
ENDBRANCH  24  39
ENDBRANCH   1  24
TORSDOF 9
ENDMDL
MODEL 3
REMARK VINA RESULT: -7.068382399      1.575      1.994
REMARK  9 active torsions:
REMARK  status: ('A' for Active; 'I' for Inactive)
REMARK       I    between atoms: C2_2  and  N1_4 
REMARK    1  A    between atoms: N1_4  and  C3_6 
REMARK    2  A    between atoms: C3_6  and  C4_7 
REMARK    3  A    between atoms: C4_7  and  C5_8 
REMARK    4  A    between atoms: C5_8  and  C6_9 
REMARK    5  A    between atoms: C6_9  and  C7_10 
REMARK    6  A    between atoms: C7_10  and  N2_11 
REMARK       I    between atoms: N2_11  and  C8_13 
REMARK    7  A    between atoms: C8_13  and  C9_15 
REMARK    8  A    between atoms: C9_15  and  N3_16 
REMARK    9  A    between atoms: C9_15  and  C10_20 
ROOT
HETATM    1  C10 UNL     1       9.361  22.662  21.632  1.00  0.00     0.127 C 
HETATM    2  C11 UNL     1       8.107  23.232  22.277  1.00  0.00     0.214 C 
HETATM    3  O3  UNL     1       7.452  24.187  21.836  1.00  0.00    -0.288 OA
HETATM    4  C12 UNL     1       7.617  22.625  23.516  1.00  0.00     0.255 C 
HETATM    5  O4  UNL     1       6.423  22.533  23.836  1.00  0.00    -0.277 OA
HETATM    6  S1  UNL     1       8.860  21.987  24.607  1.00  0.00    -0.083 SA
HETATM    7  C13 UNL     1      10.328  21.637  23.581  1.00  0.00     0.107 C 
HETATM    8  C14 UNL     1      10.537  22.654  22.488  1.00  0.00     0.089 C 
HETATM    9  C15 UNL     1      10.616  23.927  23.317  1.00  0.00     0.236 C 
HETATM   10  O5  UNL     1       9.653  24.721  23.609  1.00  0.00    -0.272 OA
HETATM   11  N4  UNL     1      11.953  24.086  23.711  1.00  0.00    -0.319 N 
HETATM   12  C16 UNL     1      13.182  24.512  24.320  1.00  0.00     0.206 C 
HETATM   13  C17 UNL     1      13.224  25.900  24.758  1.00  0.00     0.085 C 
HETATM   14  N5  UNL     1      13.241  27.003  25.126  1.00  0.00    -0.195 NA
HETATM   15  C18 UNL     1      13.728  24.303  22.855  1.00  0.00     0.015 C 
HETATM   16  C19 UNL     1      15.219  24.039  22.999  1.00  0.00     0.021 C 
HETATM   17  C20 UNL     1      13.535  25.585  22.205  1.00  0.00     0.021 C 
HETATM   18  C21 UNL     1      12.808  23.175  22.960  1.00  0.00     0.068 C 
HETATM   19  C22 UNL     1      13.557  22.095  23.745  1.00  0.00     0.045 C 
HETATM   20  C23 UNL     1      11.880  22.632  21.909  1.00  0.00    -0.030 C 
HETATM   21  C24 UNL     1      12.259  22.853  20.532  1.00  0.00    -0.082 C 
HETATM   22  C25 UNL     1      11.948  24.034  19.735  1.00  0.00     0.043 C 
HETATM   23  C26 UNL     1      12.287  21.669  19.587  1.00  0.00     0.043 C 
ENDROOT
BRANCH   1  24
HETATM   24  C9  UNL     1       8.869  21.384  20.976  1.00  0.00     0.287 C 
BRANCH  24  25
HETATM   25  C8  UNL     1       8.579  21.675  19.531  1.00  0.00     0.249 C 
HETATM   26  N2  UNL     1       7.624  22.526  19.004  1.00  0.00    -0.359 N 
ATOM     27  H2  UNL     1       7.012  23.035  19.642  1.00  0.00     0.162 HD
HETATM   28  O2  UNL     1       9.330  21.047  18.705  1.00  0.00    -0.271 OA
BRANCH  26  29
HETATM   29  C7  UNL     1       7.465  22.720  17.564  1.00  0.00     0.122 C 
BRANCH  29  30
HETATM   30  C6  UNL     1       6.181  22.264  17.010  1.00  0.00     0.021 C 
BRANCH  30  31
HETATM   31  C5  UNL     1       6.089  20.798  16.675  1.00  0.00     0.014 C 
BRANCH  31  32
HETATM   32  C4  UNL     1       4.588  20.398  16.696  1.00  0.00     0.104 C 
BRANCH  32  33
HETATM   33  C3  UNL     1       4.003  20.357  17.962  1.00  0.00    -0.068 C 
BRANCH  33  34
HETATM   34  N1  UNL     1       3.396  20.334  19.170  1.00  0.00    -0.297 N 
HETATM   35  C2  UNL     1       3.909  21.063  20.323  1.00  0.00     0.224 C 
HETATM   36  C1  UNL     1       3.220  20.991  21.628  1.00  0.00     0.118 C 
HETATM   37  O1  UNL     1       4.946  21.743  20.148  1.00  0.00    -0.273 OA
ATOM     38  H1  UNL     1       2.544  19.783  19.279  1.00  0.00     0.178 HD
ENDBRANCH  33  34
ENDBRANCH  32  33
ENDBRANCH  31  32
ENDBRANCH  30  31
ENDBRANCH  29  30
ENDBRANCH  26  29
ENDBRANCH  24  25
BRANCH  24  39
HETATM   39  N3  UNL     1       7.555  20.991  21.512  1.00  0.00    -0.066 N 
ATOM     40  H33 UNL     1       7.005  21.762  21.892  1.00  0.00     0.275 HD
ATOM     41  H32 UNL     1       6.874  20.714  20.804  1.00  0.00     0.275 HD
ATOM     42  H31 UNL     1       7.786  20.262  22.187  1.00  0.00     0.275 HD
ENDBRANCH  24  39
ENDBRANCH   1  24
TORSDOF 9
ENDMDL
MODEL 4
REMARK VINA RESULT: -6.997929387      1.092      1.243
REMARK  9 active torsions:
REMARK  status: ('A' for Active; 'I' for Inactive)
REMARK       I    between atoms: C2_2  and  N1_4 
REMARK    1  A    between atoms: N1_4  and  C3_6 
REMARK    2  A    between atoms: C3_6  and  C4_7 
REMARK    3  A    between atoms: C4_7  and  C5_8 
REMARK    4  A    between atoms: C5_8  and  C6_9 
REMARK    5  A    between atoms: C6_9  and  C7_10 
REMARK    6  A    between atoms: C7_10  and  N2_11 
REMARK       I    between atoms: N2_11  and  C8_13 
REMARK    7  A    between atoms: C8_13  and  C9_15 
REMARK    8  A    between atoms: C9_15  and  N3_16 
REMARK    9  A    between atoms: C9_15  and  C10_20 
ROOT
HETATM    1  C10 UNL     1       9.333  22.741  21.110  1.00  0.00     0.127 C 
HETATM    2  C11 UNL     1       8.075  23.455  21.578  1.00  0.00     0.214 C 
HETATM    3  O3  UNL     1       7.619  24.492  21.078  1.00  0.00    -0.288 OA
HETATM    4  C12 UNL     1       7.328  22.894  22.705  1.00  0.00     0.255 C 
HETATM    5  O4  UNL     1       6.097  22.949  22.837  1.00  0.00    -0.277 OA
HETATM    6  S1  UNL     1       8.299  22.084  23.948  1.00  0.00    -0.083 SA
HETATM    7  C13 UNL     1       9.854  21.568  23.144  1.00  0.00     0.107 C 
HETATM    8  C14 UNL     1      10.353  22.568  22.132  1.00  0.00     0.089 C 
HETATM    9  C15 UNL     1      10.459  23.807  23.009  1.00  0.00     0.236 C 
HETATM   10  O5  UNL     1       9.568  24.712  23.181  1.00  0.00    -0.272 OA
HETATM   11  N4  UNL     1      11.729  23.787  23.607  1.00  0.00    -0.319 N 
HETATM   12  C16 UNL     1      12.892  24.043  24.409  1.00  0.00     0.206 C 
HETATM   13  C17 UNL     1      13.036  25.407  24.899  1.00  0.00     0.085 C 
HETATM   14  N5  UNL     1      13.132  26.492  25.305  1.00  0.00    -0.195 NA
HETATM   15  C18 UNL     1      13.628  23.792  23.038  1.00  0.00     0.015 C 
HETATM   16  C19 UNL     1      15.035  23.337  23.396  1.00  0.00     0.021 C 
HETATM   17  C20 UNL     1      13.697  25.098  22.412  1.00  0.00     0.021 C 
HETATM   18  C21 UNL     1      12.571  22.788  22.961  1.00  0.00     0.068 C 
HETATM   19  C22 UNL     1      13.050  21.609  23.811  1.00  0.00     0.045 C 
HETATM   20  C23 UNL     1      11.756  22.385  21.763  1.00  0.00    -0.030 C 
HETATM   21  C24 UNL     1      12.368  22.579  20.468  1.00  0.00    -0.082 C 
HETATM   22  C25 UNL     1      12.332  23.804  19.676  1.00  0.00     0.043 C 
HETATM   23  C26 UNL     1      12.396  21.418  19.496  1.00  0.00     0.043 C 
ENDROOT
BRANCH   1  24
HETATM   24  C9  UNL     1       8.795  21.547  20.341  1.00  0.00     0.287 C 
BRANCH  24  25
HETATM   25  C8  UNL     1       9.162  21.712  18.893  1.00  0.00     0.249 C 
HETATM   26  N2  UNL     1       9.446  20.726  17.965  1.00  0.00    -0.359 N 
ATOM     27  H2  UNL     1       9.424  19.750  18.260  1.00  0.00     0.162 HD
HETATM   28  O2  UNL     1       9.203  22.928  18.494  1.00  0.00    -0.271 OA
BRANCH  26  29
HETATM   29  C7  UNL     1       9.777  21.038  16.576  1.00  0.00     0.122 C 
BRANCH  29  30
HETATM   30  C6  UNL     1       8.886  20.438  15.571  1.00  0.00     0.021 C 
BRANCH  30  31
HETATM   31  C5  UNL     1       8.288  21.386  14.566  1.00  0.00     0.014 C 
BRANCH  31  32
HETATM   32  C4  UNL     1       7.602  22.540  15.348  1.00  0.00     0.104 C 
BRANCH  32  33
HETATM   33  C3  UNL     1       6.622  22.139  16.256  1.00  0.00    -0.068 C 
BRANCH  33  34
HETATM   34  N1  UNL     1       5.682  21.788  17.163  1.00  0.00    -0.297 N 
HETATM   35  C2  UNL     1       4.818  20.627  16.993  1.00  0.00     0.224 C 
HETATM   36  C1  UNL     1       3.792  20.296  18.003  1.00  0.00     0.118 C 
HETATM   37  O1  UNL     1       4.992  19.938  15.962  1.00  0.00    -0.273 OA
ATOM     38  H1  UNL     1       5.573  22.360  18.001  1.00  0.00     0.178 HD
ENDBRANCH  33  34
ENDBRANCH  32  33
ENDBRANCH  31  32
ENDBRANCH  30  31
ENDBRANCH  29  30
ENDBRANCH  26  29
ENDBRANCH  24  25
BRANCH  24  39
HETATM   39  N3  UNL     1       7.324  21.556  20.320  1.00  0.00    -0.066 N 
ATOM     40  H33 UNL     1       6.900  22.412  20.678  1.00  0.00     0.275 HD
ATOM     41  H32 UNL     1       6.913  21.619  19.387  1.00  0.00     0.275 HD
ATOM     42  H31 UNL     1       7.076  20.712  20.836  1.00  0.00     0.275 HD
ENDBRANCH  24  39
ENDBRANCH   1  24
TORSDOF 9
ENDMDL
MODEL 5
REMARK VINA RESULT: -6.977591664      2.416      7.457
REMARK  9 active torsions:
REMARK  status: ('A' for Active; 'I' for Inactive)
REMARK       I    between atoms: C2_2  and  N1_4 
REMARK    1  A    between atoms: N1_4  and  C3_6 
REMARK    2  A    between atoms: C3_6  and  C4_7 
REMARK    3  A    between atoms: C4_7  and  C5_8 
REMARK    4  A    between atoms: C5_8  and  C6_9 
REMARK    5  A    between atoms: C6_9  and  C7_10 
REMARK    6  A    between atoms: C7_10  and  N2_11 
REMARK       I    between atoms: N2_11  and  C8_13 
REMARK    7  A    between atoms: C8_13  and  C9_15 
REMARK    8  A    between atoms: C9_15  and  N3_16 
REMARK    9  A    between atoms: C9_15  and  C10_20 
ROOT
HETATM    1  C10 UNL     1       9.151  22.571  21.014  1.00  0.00     0.127 C 
HETATM    2  C11 UNL     1       7.942  22.371  21.914  1.00  0.00     0.214 C 
HETATM    3  O3  UNL     1       7.711  21.351  22.578  1.00  0.00    -0.288 OA
HETATM    4  C12 UNL     1       6.959  23.452  22.019  1.00  0.00     0.255 C 
HETATM    5  O4  UNL     1       6.309  23.721  23.040  1.00  0.00    -0.277 OA
HETATM    6  S1  UNL     1       6.716  24.420  20.554  1.00  0.00    -0.083 SA
HETATM    7  C13 UNL     1       8.237  24.254  19.559  1.00  0.00     0.107 C 
HETATM    8  C14 UNL     1       8.836  22.872  19.626  1.00  0.00     0.089 C 
HETATM    9  C15 UNL     1       7.653  22.043  19.145  1.00  0.00     0.236 C 
HETATM   10  O5  UNL     1       6.757  21.482  19.869  1.00  0.00    -0.272 OA
HETATM   11  N4  UNL     1       7.720  21.996  17.744  1.00  0.00    -0.319 N 
HETATM   12  C16 UNL     1       7.461  21.798  16.345  1.00  0.00     0.206 C 
HETATM   13  C17 UNL     1       6.552  20.707  16.018  1.00  0.00     0.085 C 
HETATM   14  N5  UNL     1       5.808  19.850  15.767  1.00  0.00    -0.195 NA
HETATM   15  C18 UNL     1       8.977  21.367  16.346  1.00  0.00     0.015 C 
HETATM   16  C19 UNL     1       9.478  21.598  14.928  1.00  0.00     0.021 C 
HETATM   17  C20 UNL     1       8.955  19.942  16.615  1.00  0.00     0.021 C 
HETATM   18  C21 UNL     1       9.016  22.482  17.287  1.00  0.00     0.068 C 
HETATM   19  C22 UNL     1       9.037  23.752  16.433  1.00  0.00     0.045 C 
HETATM   20  C23 UNL     1       9.802  22.594  18.564  1.00  0.00    -0.030 C 
HETATM   21  C24 UNL     1      11.017  21.815  18.649  1.00  0.00    -0.082 C 
HETATM   22  C25 UNL     1      11.118  20.427  19.088  1.00  0.00     0.043 C 
HETATM   23  C26 UNL     1      12.299  22.509  19.060  1.00  0.00     0.043 C 
ENDROOT
BRANCH   1  24
HETATM   24  C9  UNL     1      10.044  23.494  21.824  1.00  0.00     0.287 C 
BRANCH  24  25
HETATM   25  C8  UNL     1      10.956  22.648  22.668  1.00  0.00     0.249 C 
HETATM   26  N2  UNL     1      11.542  22.969  23.879  1.00  0.00    -0.359 N 
ATOM     27  H2  UNL     1      11.367  23.889  24.284  1.00  0.00     0.162 HD
HETATM   28  O2  UNL     1      11.199  21.488  22.183  1.00  0.00    -0.271 OA
BRANCH  26  29
HETATM   29  C7  UNL     1      12.404  22.032  24.598  1.00  0.00     0.122 C 
BRANCH  29  30
HETATM   30  C6  UNL     1      11.922  21.635  25.930  1.00  0.00     0.021 C 
BRANCH  30  31
HETATM   31  C5  UNL     1      10.598  20.917  25.967  1.00  0.00     0.014 C 
BRANCH  31  32
HETATM   32  C4  UNL     1       9.587  21.821  26.725  1.00  0.00     0.104 C 
BRANCH  32  33
HETATM   33  C3  UNL     1       8.354  21.988  26.094  1.00  0.00    -0.068 C 
BRANCH  33  34
HETATM   34  N1  UNL     1       7.143  22.113  25.506  1.00  0.00    -0.297 N 
HETATM   35  C2  UNL     1       5.901  21.741  26.173  1.00  0.00     0.224 C 
HETATM   36  C1  UNL     1       4.603  21.878  25.481  1.00  0.00     0.118 C 
HETATM   37  O1  UNL     1       5.995  21.308  27.344  1.00  0.00    -0.273 OA
ATOM     38  H1  UNL     1       7.096  22.484  24.556  1.00  0.00     0.178 HD
ENDBRANCH  33  34
ENDBRANCH  32  33
ENDBRANCH  31  32
ENDBRANCH  30  31
ENDBRANCH  29  30
ENDBRANCH  26  29
ENDBRANCH  24  25
BRANCH  24  39
HETATM   39  N3  UNL     1       9.260  24.242  22.820  1.00  0.00    -0.066 N 
ATOM     40  H33 UNL     1       9.694  24.305  23.741  1.00  0.00     0.275 HD
ATOM     41  H32 UNL     1       9.215  25.248  22.656  1.00  0.00     0.275 HD
ATOM     42  H31 UNL     1       8.356  23.770  22.809  1.00  0.00     0.275 HD
ENDBRANCH  24  39
ENDBRANCH   1  24
TORSDOF 9
ENDMDL
