MODEL 1
REMARK VINA RESULT: -7.078263863      0.000      0.000
REMARK  1 active torsions:
REMARK  status: ('A' for Active; 'I' for Inactive)
REMARK    1  A    between atoms: C4_5  and  C5_6 
ROOT
HETATM    1  C1  UNL     1      -1.329   2.090  10.827  1.00  0.00     0.148 C 
HETATM    2  N1  UNL     1      -2.253   3.095  11.249  1.00  0.00    -0.395 N 
HETATM    3  C2  UNL     1      -2.742   3.749  10.113  1.00  0.00     0.148 C 
HETATM    4  C3  UNL     1      -2.858   3.075  12.466  1.00  0.00     0.007 C 
HETATM    5  C4  UNL     1      -3.890   2.102  12.893  1.00  0.00     0.138 C 
HETATM    6  C6  UNL     1      -4.868   2.909  13.769  1.00  0.00     0.015 C 
HETATM    7  C7  UNL     1      -5.353   2.109  14.931  1.00  0.00     0.007 C 
HETATM    8  C8  UNL     1      -4.194   2.114  15.901  1.00  0.00     0.001 C 
HETATM    9  C9  UNL     1      -3.208   3.155  15.423  1.00  0.00     0.011 C 
HETATM   10  C10 UNL     1      -3.945   3.904  14.375  1.00  0.00    -0.027 C 
HETATM   11  C11 UNL     1      -4.751   5.041  14.971  1.00  0.00     0.016 C 
HETATM   12  C12 UNL     1      -3.111   4.364  13.200  1.00  0.00    -0.001 C 
HETATM   13  C13 UNL     1      -1.847   4.970  13.804  1.00  0.00     0.022 C 
HETATM   14  C14 UNL     1      -3.833   5.438  12.517  1.00  0.00     0.022 C 
ENDROOT
BRANCH   5  15
HETATM   15  C5  UNL     1      -4.642   1.302  11.907  1.00  0.00     0.183 C 
HETATM   16  O1  UNL     1      -4.718  -0.058  12.123  1.00  0.00    -0.647 OA
HETATM   17  O2  UNL     1      -5.727   1.920  11.390  1.00  0.00    -0.647 OA
ENDBRANCH   5  15
TORSDOF 1
ENDMDL
MODEL 2
REMARK VINA RESULT: -7.075362007      2.086      4.091
REMARK  1 active torsions:
REMARK  status: ('A' for Active; 'I' for Inactive)
REMARK    1  A    between atoms: C4_5  and  C5_6 
ROOT
HETATM    1  C1  UNL     1      -6.210   4.133  14.773  1.00  0.00     0.148 C 
HETATM    2  N1  UNL     1      -4.922   3.945  14.184  1.00  0.00    -0.395 N 
HETATM    3  C2  UNL     1      -3.973   4.596  14.980  1.00  0.00     0.148 C 
HETATM    4  C3  UNL     1      -4.655   2.947  13.300  1.00  0.00     0.007 C 
HETATM    5  C4  UNL     1      -4.594   1.505  13.631  1.00  0.00     0.138 C 
HETATM    6  C6  UNL     1      -3.459   0.937  12.756  1.00  0.00     0.015 C 
HETATM    7  C7  UNL     1      -3.788  -0.425  12.243  1.00  0.00     0.007 C 
HETATM    8  C8  UNL     1      -4.774  -0.177  11.125  1.00  0.00     0.001 C 
HETATM    9  C9  UNL     1      -4.750   1.303  10.818  1.00  0.00     0.011 C 
HETATM   10  C10 UNL     1      -3.566   1.810  11.558  1.00  0.00    -0.027 C 
HETATM   11  C11 UNL     1      -2.303   1.689  10.730  1.00  0.00     0.016 C 
HETATM   12  C12 UNL     1      -3.718   3.194  12.149  1.00  0.00    -0.001 C 
HETATM   13  C13 UNL     1      -4.334   4.050  11.045  1.00  0.00     0.022 C 
HETATM   14  C14 UNL     1      -2.382   3.724  12.424  1.00  0.00     0.022 C 
ENDROOT
BRANCH   5  15
HETATM   15  C5  UNL     1      -4.431   1.045  15.023  1.00  0.00     0.183 C 
HETATM   16  O1  UNL     1      -5.058  -0.132  15.378  1.00  0.00    -0.647 OA
HETATM   17  O2  UNL     1      -3.219   1.301  15.564  1.00  0.00    -0.647 OA
ENDBRANCH   5  15
TORSDOF 1
ENDMDL
MODEL 3
REMARK VINA RESULT: -6.407070122      1.598      1.888
REMARK  1 active torsions:
REMARK  status: ('A' for Active; 'I' for Inactive)
REMARK    1  A    between atoms: C4_5  and  C5_6 
ROOT
HETATM    1  C1  UNL     1      -0.621   5.197  11.932  1.00  0.00     0.148 C 
HETATM    2  N1  UNL     1      -2.046   5.228  12.032  1.00  0.00    -0.395 N 
HETATM    3  C2  UNL     1      -2.558   5.805  10.865  1.00  0.00     0.148 C 
HETATM    4  C3  UNL     1      -2.741   4.430  12.886  1.00  0.00     0.007 C 
HETATM    5  C4  UNL     1      -2.891   2.962  12.755  1.00  0.00     0.138 C 
HETATM    6  C6  UNL     1      -4.327   2.659  13.225  1.00  0.00     0.015 C 
HETATM    7  C7  UNL     1      -4.394   1.388  14.003  1.00  0.00     0.007 C 
HETATM    8  C8  UNL     1      -3.830   1.746  15.358  1.00  0.00     0.001 C 
HETATM    9  C9  UNL     1      -3.746   3.253  15.431  1.00  0.00     0.011 C 
HETATM   10  C10 UNL     1      -4.515   3.720  14.250  1.00  0.00    -0.027 C 
HETATM   11  C11 UNL     1      -5.990   3.856  14.569  1.00  0.00     0.016 C 
HETATM   12  C12 UNL     1      -3.972   4.958  13.571  1.00  0.00    -0.001 C 
HETATM   13  C13 UNL     1      -3.659   5.941  14.697  1.00  0.00     0.022 C 
HETATM   14  C14 UNL     1      -5.040   5.542  12.760  1.00  0.00     0.022 C 
ENDROOT
BRANCH   5  15
HETATM   15  C5  UNL     1      -2.628   2.277  11.475  1.00  0.00     0.183 C 
HETATM   16  O1  UNL     1      -1.837   1.147  11.513  1.00  0.00    -0.647 OA
HETATM   17  O2  UNL     1      -3.661   2.294  10.603  1.00  0.00    -0.647 OA
ENDBRANCH   5  15
TORSDOF 1
ENDMDL
MODEL 4
REMARK VINA RESULT: -6.301275164      1.008      1.165
REMARK  1 active torsions:
REMARK  status: ('A' for Active; 'I' for Inactive)
REMARK    1  A    between atoms: C4_5  and  C5_6 
ROOT
HETATM    1  C1  UNL     1      -1.317   1.844  11.160  1.00  0.00     0.148 C 
HETATM    2  N1  UNL     1      -1.816   3.125  11.550  1.00  0.00    -0.395 N 
HETATM    3  C2  UNL     1      -1.638   4.011  10.482  1.00  0.00     0.148 C 
HETATM    4  C3  UNL     1      -2.695   3.293  12.573  1.00  0.00     0.007 C 
HETATM    5  C4  UNL     1      -4.113   2.866  12.560  1.00  0.00     0.138 C 
HETATM    6  C6  UNL     1      -4.873   3.962  13.333  1.00  0.00     0.015 C 
HETATM    7  C7  UNL     1      -5.958   3.387  14.179  1.00  0.00     0.007 C 
HETATM    8  C8  UNL     1      -5.235   2.794  15.367  1.00  0.00     0.001 C 
HETATM    9  C9  UNL     1      -3.813   3.306  15.333  1.00  0.00     0.011 C 
HETATM   10  C10 UNL     1      -3.836   4.383  14.311  1.00  0.00    -0.027 C 
HETATM   11  C11 UNL     1      -4.227   5.714  14.920  1.00  0.00     0.016 C 
HETATM   12  C12 UNL     1      -2.587   4.499  13.466  1.00  0.00    -0.001 C 
HETATM   13  C13 UNL     1      -1.417   4.419  14.444  1.00  0.00     0.022 C 
HETATM   14  C14 UNL     1      -2.565   5.830  12.860  1.00  0.00     0.022 C 
ENDROOT
BRANCH   5  15
HETATM   15  C5  UNL     1      -4.812   2.569  11.295  1.00  0.00     0.183 C 
HETATM   16  O1  UNL     1      -5.694   1.508  11.293  1.00  0.00    -0.647 OA
HETATM   17  O2  UNL     1      -5.134   3.656  10.560  1.00  0.00    -0.647 OA
ENDBRANCH   5  15
TORSDOF 1
ENDMDL
MODEL 5
REMARK VINA RESULT: -6.134600444      2.165      3.996
REMARK  1 active torsions:
REMARK  status: ('A' for Active; 'I' for Inactive)
REMARK    1  A    between atoms: C4_5  and  C5_6 
ROOT
HETATM    1  C1  UNL     1      -5.836   4.925  14.743  1.00  0.00     0.148 C 
HETATM    2  N1  UNL     1      -4.595   4.612  14.110  1.00  0.00    -0.395 N 
HETATM    3  C2  UNL     1      -3.564   5.224  14.833  1.00  0.00     0.148 C 
HETATM    4  C3  UNL     1      -4.444   3.557  13.266  1.00  0.00     0.007 C 
HETATM    5  C4  UNL     1      -4.476   2.131  13.665  1.00  0.00     0.138 C 
HETATM    6  C6  UNL     1      -3.428   1.438  12.773  1.00  0.00     0.015 C 
HETATM    7  C7  UNL     1      -3.880   0.083  12.343  1.00  0.00     0.007 C 
HETATM    8  C8  UNL     1      -4.895   0.354  11.256  1.00  0.00     0.001 C 
HETATM    9  C9  UNL     1      -4.774   1.812  10.876  1.00  0.00     0.011 C 
HETATM   10  C10 UNL     1      -3.524   2.261  11.539  1.00  0.00    -0.027 C 
HETATM   11  C11 UNL     1      -2.312   2.004  10.666  1.00  0.00     0.016 C 
HETATM   12  C12 UNL     1      -3.544   3.678  12.067  1.00  0.00    -0.001 C 
HETATM   13  C13 UNL     1      -4.145   4.526  10.948  1.00  0.00     0.022 C 
HETATM   14  C14 UNL     1      -2.162   4.116  12.258  1.00  0.00     0.022 C 
ENDROOT
BRANCH   5  15
HETATM   15  C5  UNL     1      -4.284   1.725  15.071  1.00  0.00     0.183 C 
HETATM   16  O1  UNL     1      -3.012   1.831  15.593  1.00  0.00    -0.647 OA
HETATM   17  O2  UNL     1      -5.325   2.008  15.887  1.00  0.00    -0.647 OA
ENDBRANCH   5  15
TORSDOF 1
ENDMDL
