MODEL 1
REMARK VINA RESULT: -7.221900412      0.000      0.000
REMARK  2 active torsions:
REMARK  status: ('A' for Active; 'I' for Inactive)
REMARK    1  A    between atoms: C5_6  and  N2_7 
REMARK    2  A    between atoms: N2_7  and  C6_9 
ROOT
HETATM    1  N1  UNL     1      -3.986   3.686   9.836  1.00  0.00    -0.196 NA
HETATM    2  C1  UNL     1      -4.063   3.651  10.989  1.00  0.00     0.069 C 
HETATM    3  C2  UNL     1      -4.164   3.595  12.465  1.00  0.00     0.050 C 
HETATM    4  C3  UNL     1      -4.933   2.373  12.825  1.00  0.00     0.027 C 
HETATM    5  C4  UNL     1      -4.582   1.722  14.097  1.00  0.00     0.033 C 
HETATM    6  C5  UNL     1      -4.481   2.675  15.287  1.00  0.00     0.033 C 
HETATM    7  C7  UNL     1      -5.401   3.834  15.136  1.00  0.00     0.035 C 
HETATM    8  C8  UNL     1      -4.857   5.001  14.367  1.00  0.00    -0.010 C 
HETATM    9  C9  UNL     1      -3.446   5.352  14.681  1.00  0.00     0.009 C 
HETATM   10  C10 UNL     1      -2.617   4.115  14.381  1.00  0.00    -0.010 C 
HETATM   11  C11 UNL     1      -2.760   3.615  12.992  1.00  0.00     0.029 C 
HETATM   12  C12 UNL     1      -3.046   3.092  15.409  1.00  0.00     0.035 C 
HETATM   13  C13 UNL     1      -4.967   4.805  12.873  1.00  0.00     0.029 C 
ENDROOT
BRANCH   6  14
HETATM   14  N2  UNL     1      -4.825   1.913  16.460  1.00  0.00    -0.360 N 
ATOM     15  H2  UNL     1      -4.171   2.014  17.238  1.00  0.00     0.162 HD
BRANCH  14  16
HETATM   16  C6  UNL     1      -5.890   1.069  16.712  1.00  0.00     0.181 C 
HETATM   17  N3  UNL     1      -5.649  -0.359  16.762  1.00  0.00    -0.070 NA
HETATM   18  S1  UNL     1      -7.410   1.548  16.963  1.00  0.00    -0.044 SA
ENDBRANCH  14  16
ENDBRANCH   6  14
TORSDOF 2
ENDMDL
MODEL 2
REMARK VINA RESULT: -6.744916805      2.580      5.023
REMARK  2 active torsions:
REMARK  status: ('A' for Active; 'I' for Inactive)
REMARK    1  A    between atoms: C5_6  and  N2_7 
REMARK    2  A    between atoms: N2_7  and  C6_9 
ROOT
HETATM    1  N1  UNL     1      -5.729   0.037  16.860  1.00  0.00    -0.196 NA
HETATM    2  C1  UNL     1      -5.309   0.794  16.095  1.00  0.00     0.069 C 
HETATM    3  C2  UNL     1      -4.774   1.756  15.104  1.00  0.00     0.050 C 
HETATM    4  C3  UNL     1      -4.398   0.994  13.883  1.00  0.00     0.027 C 
HETATM    5  C4  UNL     1      -4.530   1.699  12.598  1.00  0.00     0.033 C 
HETATM    6  C5  UNL     1      -3.917   3.098  12.579  1.00  0.00     0.033 C 
HETATM    7  C7  UNL     1      -2.755   3.195  13.500  1.00  0.00     0.035 C 
HETATM    8  C8  UNL     1      -3.079   3.536  14.924  1.00  0.00    -0.010 C 
HETATM    9  C9  UNL     1      -4.108   4.597  15.093  1.00  0.00     0.009 C 
HETATM   10  C10 UNL     1      -5.361   4.098  14.393  1.00  0.00    -0.010 C 
HETATM   11  C11 UNL     1      -5.843   2.783  14.883  1.00  0.00     0.029 C 
HETATM   12  C12 UNL     1      -5.007   4.070  12.922  1.00  0.00     0.035 C 
HETATM   13  C13 UNL     1      -3.519   2.329  15.717  1.00  0.00     0.029 C 
ENDROOT
BRANCH   6  14
HETATM   14  N2  UNL     1      -3.504   3.353  11.223  1.00  0.00    -0.360 N 
ATOM     15  H2  UNL     1      -4.206   3.817  10.646  1.00  0.00     0.162 HD
BRANCH  14  16
HETATM   16  C6  UNL     1      -2.317   3.076  10.571  1.00  0.00     0.181 C 
HETATM   17  N3  UNL     1      -2.074   1.722  10.113  1.00  0.00    -0.070 NA
HETATM   18  S1  UNL     1      -1.157   4.154  10.266  1.00  0.00    -0.044 SA
ENDBRANCH  14  16
ENDBRANCH   6  14
TORSDOF 2
ENDMDL
MODEL 3
REMARK VINA RESULT: -6.666752461      2.693      5.122
REMARK  2 active torsions:
REMARK  status: ('A' for Active; 'I' for Inactive)
REMARK    1  A    between atoms: C5_6  and  N2_7 
REMARK    2  A    between atoms: N2_7  and  C6_9 
ROOT
HETATM    1  N1  UNL     1      -3.705   0.709  16.213  1.00  0.00    -0.196 NA
HETATM    2  C1  UNL     1      -3.771   1.636  15.526  1.00  0.00     0.069 C 
HETATM    3  C2  UNL     1      -3.861   2.817  14.637  1.00  0.00     0.050 C 
HETATM    4  C3  UNL     1      -3.729   2.343  13.233  1.00  0.00     0.027 C 
HETATM    5  C4  UNL     1      -4.457   3.107  12.206  1.00  0.00     0.033 C 
HETATM    6  C5  UNL     1      -4.265   4.620  12.293  1.00  0.00     0.033 C 
HETATM    7  C7  UNL     1      -2.929   4.970  12.843  1.00  0.00     0.035 C 
HETATM    8  C8  UNL     1      -2.839   5.039  14.338  1.00  0.00    -0.010 C 
HETATM    9  C9  UNL     1      -3.989   5.709  15.003  1.00  0.00     0.009 C 
HETATM   10  C10 UNL     1      -5.230   4.929  14.605  1.00  0.00    -0.010 C 
HETATM   11  C11 UNL     1      -5.168   3.485  14.941  1.00  0.00     0.029 C 
HETATM   12  C12 UNL     1      -5.390   5.169  13.120  1.00  0.00     0.035 C 
HETATM   13  C13 UNL     1      -2.665   3.677  14.966  1.00  0.00     0.029 C 
ENDROOT
BRANCH   6  14
HETATM   14  N2  UNL     1      -4.406   5.134  10.954  1.00  0.00    -0.360 N 
ATOM     15  H2  UNL     1      -3.963   4.565  10.232  1.00  0.00     0.162 HD
BRANCH  14  16
HETATM   16  C6  UNL     1      -5.040   6.269  10.482  1.00  0.00     0.181 C 
HETATM   17  N3  UNL     1      -6.330   6.128   9.838  1.00  0.00    -0.070 NA
HETATM   18  S1  UNL     1      -4.455   7.768  10.594  1.00  0.00    -0.044 SA
ENDBRANCH  14  16
ENDBRANCH   6  14
TORSDOF 2
ENDMDL
MODEL 4
REMARK VINA RESULT: -6.521983504      1.330      1.541
REMARK  2 active torsions:
REMARK  status: ('A' for Active; 'I' for Inactive)
REMARK    1  A    between atoms: C5_6  and  N2_7 
REMARK    2  A    between atoms: N2_7  and  C6_9 
ROOT
HETATM    1  N1  UNL     1      -3.839   4.489   9.050  1.00  0.00    -0.196 NA
HETATM    2  C1  UNL     1      -3.740   4.491  10.202  1.00  0.00     0.069 C 
HETATM    3  C2  UNL     1      -3.615   4.481  11.677  1.00  0.00     0.050 C 
HETATM    4  C3  UNL     1      -4.254   3.236  12.182  1.00  0.00     0.027 C 
HETATM    5  C4  UNL     1      -3.681   2.648  13.404  1.00  0.00     0.033 C 
HETATM    6  C5  UNL     1      -3.455   3.645  14.538  1.00  0.00     0.033 C 
HETATM    7  C7  UNL     1      -4.447   4.751  14.497  1.00  0.00     0.035 C 
HETATM    8  C8  UNL     1      -4.088   5.916  13.624  1.00  0.00    -0.010 C 
HETATM    9  C9  UNL     1      -2.667   6.347  13.710  1.00  0.00     0.009 C 
HETATM   10  C10 UNL     1      -1.827   5.143  13.321  1.00  0.00    -0.010 C 
HETATM   11  C11 UNL     1      -2.151   4.588  11.984  1.00  0.00     0.029 C 
HETATM   12  C12 UNL     1      -2.042   4.136  14.430  1.00  0.00     0.035 C 
HETATM   13  C13 UNL     1      -4.412   5.664  12.170  1.00  0.00     0.029 C 
ENDROOT
BRANCH   6  14
HETATM   14  N2  UNL     1      -3.577   2.909  15.770  1.00  0.00    -0.360 N 
ATOM     15  H2  UNL     1      -2.955   3.224  16.516  1.00  0.00     0.162 HD
BRANCH  14  16
HETATM   16  C6  UNL     1      -4.393   1.847  16.114  1.00  0.00     0.181 C 
HETATM   17  N3  UNL     1      -3.803   0.530  16.246  1.00  0.00    -0.070 NA
HETATM   18  S1  UNL     1      -5.979   1.952  16.388  1.00  0.00    -0.044 SA
ENDBRANCH  14  16
ENDBRANCH   6  14
TORSDOF 2
ENDMDL
MODEL 5
REMARK VINA RESULT: -6.510003987      2.673      5.173
REMARK  2 active torsions:
REMARK  status: ('A' for Active; 'I' for Inactive)
REMARK    1  A    between atoms: C5_6  and  N2_7 
REMARK    2  A    between atoms: N2_7  and  C6_9 
ROOT
HETATM    1  N1  UNL     1      -4.931  -0.193  15.419  1.00  0.00    -0.196 NA
HETATM    2  C1  UNL     1      -4.644   0.809  14.919  1.00  0.00     0.069 C 
HETATM    3  C2  UNL     1      -4.278   2.087  14.267  1.00  0.00     0.050 C 
HETATM    4  C3  UNL     1      -3.683   1.770  12.941  1.00  0.00     0.027 C 
HETATM    5  C4  UNL     1      -3.897   2.755  11.868  1.00  0.00     0.033 C 
HETATM    6  C5  UNL     1      -3.599   4.199  12.270  1.00  0.00     0.033 C 
HETATM    7  C7  UNL     1      -2.535   4.268  13.305  1.00  0.00     0.035 C 
HETATM    8  C8  UNL     1      -2.999   4.143  14.726  1.00  0.00    -0.010 C 
HETATM    9  C9  UNL     1      -4.240   4.899  15.046  1.00  0.00     0.009 C 
HETATM   10  C10 UNL     1      -5.317   4.374  14.111  1.00  0.00    -0.010 C 
HETATM   11  C11 UNL     1      -5.530   2.909  14.199  1.00  0.00     0.029 C 
HETATM   12  C12 UNL     1      -4.889   4.812  12.728  1.00  0.00     0.035 C 
HETATM   13  C13 UNL     1      -3.210   2.705  15.136  1.00  0.00     0.029 C 
ENDROOT
BRANCH   6  14
HETATM   14  N2  UNL     1      -3.180   4.885  11.074  1.00  0.00    -0.360 N 
ATOM     15  H2  UNL     1      -3.250   5.902  11.123  1.00  0.00     0.162 HD
BRANCH  14  16
HETATM   16  C6  UNL     1      -2.700   4.399   9.872  1.00  0.00     0.181 C 
HETATM   17  N3  UNL     1      -3.564   4.439   8.710  1.00  0.00    -0.070 NA
HETATM   18  S1  UNL     1      -1.227   3.782   9.649  1.00  0.00    -0.044 SA
ENDBRANCH  14  16
ENDBRANCH   6  14
TORSDOF 2
ENDMDL
