MODEL 1
REMARK VINA RESULT: -6.922567699      0.000      0.000
REMARK  4 active torsions:
REMARK  status: ('A' for Active; 'I' for Inactive)
REMARK    1  A    between atoms: C7_8  and  O2_9 
REMARK    2  A    between atoms: C8_11  and  O3_12 
REMARK    3  A    between atoms: C10_15  and  C11_16 
REMARK    4  A    between atoms: C11_16  and  C12_17 
ROOT
HETATM    1  C1  UNL     1      -5.945   1.678  16.168  1.00  0.00     0.012 C 
HETATM    2  C2  UNL     1      -4.621   2.244  15.666  1.00  0.00     0.009 C 
HETATM    3  C3  UNL     1      -4.005   1.227  14.759  1.00  0.00     0.173 C 
HETATM    4  O1  UNL     1      -3.385   1.790  13.665  1.00  0.00    -0.377 OA
HETATM    5  C4  UNL     1      -4.291   2.432  12.839  1.00  0.00     0.089 C 
HETATM    6  C5  UNL     1      -3.546   3.207  11.764  1.00  0.00     0.043 C 
HETATM    7  C6  UNL     1      -3.124   2.157  10.744  1.00  0.00     0.037 C 
HETATM    8  C7  UNL     1      -3.761   0.860  11.196  1.00  0.00     0.150 C 
HETATM    9  C8  UNL     1      -4.950   1.348  11.975  1.00  0.00     0.181 C 
HETATM   10  C9  UNL     1      -5.304   3.255  13.557  1.00  0.00     0.045 C 
HETATM   11  C10 UNL     1      -4.867   3.556  14.965  1.00  0.00    -0.006 C 
ENDROOT
BRANCH   9  12
HETATM   12  O3  UNL     1      -5.806   2.024  11.091  1.00  0.00    -0.390 OA
ATOM     13  H3  UNL     1      -6.078   1.381  10.446  1.00  0.00     0.210 HD
ENDBRANCH   9  12
BRANCH   8  14
HETATM   14  O2  UNL     1      -4.107   0.047  10.125  1.00  0.00    -0.393 OA
ATOM     15  H2  UNL     1      -4.961  -0.352  10.241  1.00  0.00     0.210 HD
ENDBRANCH   8  14
BRANCH  11  16
HETATM   16  C11 UNL     1      -3.665   4.472  15.003  1.00  0.00     0.010 C 
BRANCH  16  17
HETATM   17  C12 UNL     1      -4.031   5.891  14.628  1.00  0.00    -0.014 A 
HETATM   18  C13 UNL     1      -3.175   6.473  13.525  1.00  0.00     0.005 A 
HETATM   19  C14 UNL     1      -3.083   7.005  14.906  1.00  0.00     0.005 A 
ENDBRANCH  16  17
ENDBRANCH  11  16
TORSDOF 4
ENDMDL
MODEL 2
REMARK VINA RESULT: -6.885386798      1.545      3.782
REMARK  4 active torsions:
REMARK  status: ('A' for Active; 'I' for Inactive)
REMARK    1  A    between atoms: C7_8  and  O2_9 
REMARK    2  A    between atoms: C8_11  and  O3_12 
REMARK    3  A    between atoms: C10_15  and  C11_16 
REMARK    4  A    between atoms: C11_16  and  C12_17 
ROOT
HETATM    1  C1  UNL     1      -4.049   6.281  15.258  1.00  0.00     0.012 C 
HETATM    2  C2  UNL     1      -5.118   5.319  14.750  1.00  0.00     0.009 C 
HETATM    3  C3  UNL     1      -5.036   5.294  13.257  1.00  0.00     0.173 C 
HETATM    4  O1  UNL     1      -5.234   4.038  12.730  1.00  0.00    -0.377 OA
HETATM    5  C4  UNL     1      -4.231   3.161  13.108  1.00  0.00     0.089 C 
HETATM    6  C5  UNL     1      -4.595   1.749  12.679  1.00  0.00     0.043 C 
HETATM    7  C6  UNL     1      -4.288   1.701  11.187  1.00  0.00     0.037 C 
HETATM    8  C7  UNL     1      -3.633   3.025  10.856  1.00  0.00     0.150 C 
HETATM    9  C8  UNL     1      -3.039   3.423  12.178  1.00  0.00     0.181 C 
HETATM   10  C9  UNL     1      -3.841   3.254  14.544  1.00  0.00     0.045 C 
HETATM   11  C10 UNL     1      -4.897   3.955  15.355  1.00  0.00    -0.006 C 
ENDROOT
BRANCH   9  12
HETATM   12  O3  UNL     1      -2.063   2.474  12.524  1.00  0.00    -0.390 OA
ATOM     13  H3  UNL     1      -2.074   2.419  13.472  1.00  0.00     0.210 HD
ENDBRANCH   9  12
BRANCH   8  14
HETATM   14  O2  UNL     1      -2.686   2.900   9.848  1.00  0.00    -0.393 OA
ATOM     15  H2  UNL     1      -3.072   2.613   9.029  1.00  0.00     0.210 HD
ENDBRANCH   8  14
BRANCH  11  16
HETATM   16  C11 UNL     1      -6.170   3.146  15.448  1.00  0.00     0.010 C 
BRANCH  16  17
HETATM   17  C12 UNL     1      -5.974   1.888  16.263  1.00  0.00    -0.014 A 
HETATM   18  C13 UNL     1      -7.253   1.331  16.848  1.00  0.00     0.005 A 
HETATM   19  C14 UNL     1      -6.213   1.905  17.734  1.00  0.00     0.005 A 
ENDBRANCH  16  17
ENDBRANCH  11  16
TORSDOF 4
ENDMDL
MODEL 3
REMARK VINA RESULT: -6.799557589      1.394      3.552
REMARK  4 active torsions:
REMARK  status: ('A' for Active; 'I' for Inactive)
REMARK    1  A    between atoms: C7_8  and  O2_9 
REMARK    2  A    between atoms: C8_11  and  O3_12 
REMARK    3  A    between atoms: C10_15  and  C11_16 
REMARK    4  A    between atoms: C11_16  and  C12_17 
ROOT
HETATM    1  C1  UNL     1      -4.528   5.505  14.877  1.00  0.00     0.012 C 
HETATM    2  C2  UNL     1      -5.107   4.115  15.121  1.00  0.00     0.009 C 
HETATM    3  C3  UNL     1      -5.815   3.691  13.873  1.00  0.00     0.173 C 
HETATM    4  O1  UNL     1      -5.644   2.355  13.588  1.00  0.00    -0.377 OA
HETATM    5  C4  UNL     1      -4.322   2.057  13.308  1.00  0.00     0.089 C 
HETATM    6  C5  UNL     1      -4.145   0.550  13.202  1.00  0.00     0.043 C 
HETATM    7  C6  UNL     1      -4.680   0.189  11.822  1.00  0.00     0.037 C 
HETATM    8  C7  UNL     1      -5.004   1.504  11.145  1.00  0.00     0.150 C 
HETATM    9  C8  UNL     1      -4.076   2.457  11.847  1.00  0.00     0.181 C 
HETATM   10  C9  UNL     1      -3.338   2.698  14.227  1.00  0.00     0.045 C 
HETATM   11  C10 UNL     1      -3.998   3.165  15.496  1.00  0.00    -0.006 C 
ENDROOT
BRANCH   9  12
HETATM   12  O3  UNL     1      -2.756   2.076  11.558  1.00  0.00    -0.390 OA
ATOM     13  H3  UNL     1      -2.578   2.391  10.679  1.00  0.00     0.210 HD
ENDBRANCH   9  12
BRANCH   8  14
HETATM   14  O2  UNL     1      -4.794   1.450   9.774  1.00  0.00    -0.393 OA
ATOM     15  H2  UNL     1      -4.668   0.559   9.466  1.00  0.00     0.210 HD
ENDBRANCH   8  14
BRANCH  11  16
HETATM   16  C11 UNL     1      -4.481   2.010  16.343  1.00  0.00     0.010 C 
BRANCH  16  17
HETATM   17  C12 UNL     1      -5.830   2.297  16.962  1.00  0.00    -0.014 A 
HETATM   18  C13 UNL     1      -6.067   1.581  18.274  1.00  0.00     0.005 A 
HETATM   19  C14 UNL     1      -6.849   1.215  17.070  1.00  0.00     0.005 A 
ENDBRANCH  16  17
ENDBRANCH  11  16
TORSDOF 4
ENDMDL
MODEL 4
REMARK VINA RESULT: -6.434854647      1.753      4.163
REMARK  4 active torsions:
REMARK  status: ('A' for Active; 'I' for Inactive)
REMARK    1  A    between atoms: C7_8  and  O2_9 
REMARK    2  A    between atoms: C8_11  and  O3_12 
REMARK    3  A    between atoms: C10_15  and  C11_16 
REMARK    4  A    between atoms: C11_16  and  C12_17 
ROOT
HETATM    1  C1  UNL     1      -2.207   0.580  11.271  1.00  0.00     0.012 C 
HETATM    2  C2  UNL     1      -3.517   1.338  11.464  1.00  0.00     0.009 C 
HETATM    3  C3  UNL     1      -4.365   0.548  12.410  1.00  0.00     0.173 C 
HETATM    4  O1  UNL     1      -5.066   1.341  13.291  1.00  0.00    -0.377 OA
HETATM    5  C4  UNL     1      -4.219   2.032  14.140  1.00  0.00     0.089 C 
HETATM    6  C5  UNL     1      -5.017   3.042  14.951  1.00  0.00     0.043 C 
HETATM    7  C6  UNL     1      -5.694   2.222  16.042  1.00  0.00     0.037 C 
HETATM    8  C7  UNL     1      -5.149   0.816  15.903  1.00  0.00     0.150 C 
HETATM    9  C8  UNL     1      -3.814   1.058  15.254  1.00  0.00     0.181 C 
HETATM   10  C9  UNL     1      -3.029   2.630  13.471  1.00  0.00     0.045 C 
HETATM   11  C10 UNL     1      -3.226   2.723  11.982  1.00  0.00    -0.006 C 
ENDROOT
BRANCH   9  12
HETATM   12  O3  UNL     1      -3.021   1.798  16.147  1.00  0.00    -0.390 OA
ATOM     13  H3  UNL     1      -3.002   1.299  16.956  1.00  0.00     0.210 HD
ENDBRANCH   9  12
BRANCH   8  14
HETATM   14  O2  UNL     1      -5.051   0.171  17.127  1.00  0.00    -0.393 OA
ATOM     15  H2  UNL     1      -5.883   0.146  17.586  1.00  0.00     0.210 HD
ENDBRANCH   8  14
BRANCH  11  16
HETATM   16  C11 UNL     1      -4.301   3.721  11.614  1.00  0.00     0.010 C 
BRANCH  16  17
HETATM   17  C12 UNL     1      -3.857   5.143  11.879  1.00  0.00    -0.014 A 
HETATM   18  C13 UNL     1      -4.830   5.940  12.720  1.00  0.00     0.005 A 
HETATM   19  C14 UNL     1      -4.616   6.283  11.294  1.00  0.00     0.005 A 
ENDBRANCH  16  17
ENDBRANCH  11  16
TORSDOF 4
ENDMDL
MODEL 5
REMARK VINA RESULT: -6.307444452      1.679      3.961
REMARK  4 active torsions:
REMARK  status: ('A' for Active; 'I' for Inactive)
REMARK    1  A    between atoms: C7_8  and  O2_9 
REMARK    2  A    between atoms: C8_11  and  O3_12 
REMARK    3  A    between atoms: C10_15  and  C11_16 
REMARK    4  A    between atoms: C11_16  and  C12_17 
ROOT
HETATM    1  C1  UNL     1      -2.718   1.594  11.341  1.00  0.00     0.012 C 
HETATM    2  C2  UNL     1      -3.700   2.588  11.952  1.00  0.00     0.009 C 
HETATM    3  C3  UNL     1      -4.802   1.806  12.591  1.00  0.00     0.173 C 
HETATM    4  O1  UNL     1      -5.228   2.352  13.781  1.00  0.00    -0.377 OA
HETATM    5  C4  UNL     1      -4.232   2.322  14.742  1.00  0.00     0.089 C 
HETATM    6  C5  UNL     1      -4.672   3.115  15.963  1.00  0.00     0.043 C 
HETATM    7  C6  UNL     1      -5.630   2.191  16.705  1.00  0.00     0.037 C 
HETATM    8  C7  UNL     1      -5.589   0.870  15.967  1.00  0.00     0.150 C 
HETATM    9  C8  UNL     1      -4.226   0.906  15.332  1.00  0.00     0.181 C 
HETATM   10  C9  UNL     1      -2.884   2.717  14.244  1.00  0.00     0.045 C 
HETATM   11  C10 UNL     1      -2.977   3.466  12.942  1.00  0.00    -0.006 C 
ENDROOT
BRANCH   9  12
HETATM   12  O3  UNL     1      -3.266   0.917  16.357  1.00  0.00    -0.390 OA
ATOM     13  H3  UNL     1      -3.613   1.485  17.035  1.00  0.00     0.210 HD
ENDBRANCH   9  12
BRANCH   8  14
HETATM   14  O2  UNL     1      -5.765  -0.210  16.820  1.00  0.00    -0.393 OA
ATOM     15  H2  UNL     1      -6.621  -0.610  16.719  1.00  0.00     0.210 HD
ENDBRANCH   8  14
BRANCH  11  16
HETATM   16  C11 UNL     1      -3.635   4.817  13.112  1.00  0.00     0.010 C 
BRANCH  16  17
HETATM   17  C12 UNL     1      -2.829   5.721  14.018  1.00  0.00    -0.014 A 
HETATM   18  C13 UNL     1      -3.672   6.548  14.964  1.00  0.00     0.005 A 
HETATM   19  C14 UNL     1      -2.917   7.200  13.868  1.00  0.00     0.005 A 
ENDBRANCH  16  17
ENDBRANCH  11  16
TORSDOF 4
ENDMDL
