MODEL 1
REMARK VINA RESULT: -7.829760254      0.000      0.000
REMARK  12 active torsions:
REMARK  status: ('A' for Active; 'I' for Inactive)
REMARK    1  A    between atoms: C2_2  and  C5_5 
REMARK    2  A    between atoms: C5_5  and  C6_6 
REMARK    3  A    between atoms: C6_6  and  C7_7 
REMARK    4  A    between atoms: C7_7  and  C8_8 
REMARK    5  A    between atoms: C8_8  and  C9_9 
REMARK    6  A    between atoms: C9_9  and  C10_10 
REMARK       I    between atoms: C10_10  and  N1_12 
REMARK    7  A    between atoms: N2_15  and  C13_16 
REMARK    8  A    between atoms: C15_21  and  C16_22 
REMARK    9  A    between atoms: C21_30  and  O3_31 
REMARK   10  A    between atoms: O3_31  and  C22_32 
REMARK   11  A    between atoms: C22_32  and  C23_33 
REMARK   12  A    between atoms: C23_33  and  N5_34 
ROOT
HETATM    1  C13 UNL     1      42.428 -21.253  29.069  1.00  0.00     0.683 A 
HETATM    2  N3  UNL     1      41.100 -21.354  29.305  1.00  0.00    -0.155 N 
ATOM      3  H3  UNL     1      40.806 -21.726  30.208  1.00  0.00     0.187 HD
HETATM    4  C14 UNL     1      40.148 -21.001  28.439  1.00  0.00     0.272 A 
HETATM    5  O2  UNL     1      38.919 -21.125  28.729  1.00  0.00    -0.267 OA
HETATM    6  C15 UNL     1      40.527 -20.495  27.207  1.00  0.00     0.061 A 
HETATM    7  C26 UNL     1      41.863 -20.380  26.937  1.00  0.00     0.124 A 
HETATM    8  N6  UNL     1      42.760 -20.754  27.855  1.00  0.00    -0.201 N 
ATOM      9  H6  UNL     1      43.750 -20.657  27.628  1.00  0.00     0.183 HD
ENDROOT
BRANCH   6  10
HETATM   10  C16 UNL     1      39.487 -20.118  26.259  1.00  0.00     0.009 A 
HETATM   11  C17 UNL     1      38.965 -20.888  25.238  1.00  0.00     0.102 A 
HETATM   12  N4  UNL     1      38.037 -20.155  24.600  1.00  0.00    -0.362 N 
HETATM   13  C18 UNL     1      37.923 -18.929  25.161  1.00  0.00     0.082 A 
ATOM     14  H4  UNL     1      37.491 -20.479  23.801  1.00  0.00     0.165 HD
HETATM   15  C19 UNL     1      37.149 -17.820  24.909  1.00  0.00     0.146 A 
HETATM   16  C25 UNL     1      38.835 -18.912  26.200  1.00  0.00     0.009 A 
HETATM   17  F1  UNL     1      36.277 -17.905  23.875  1.00  0.00    -0.204 F 
HETATM   18  C20 UNL     1      37.275 -16.704  25.680  1.00  0.00     0.081 A 
HETATM   19  C21 UNL     1      38.186 -16.640  26.744  1.00  0.00     0.072 A 
HETATM   20  C24 UNL     1      38.936 -17.763  26.962  1.00  0.00     0.051 A 
BRANCH  19  21
HETATM   21  O3  UNL     1      38.295 -15.526  27.500  1.00  0.00    -0.349 OA
BRANCH  21  22
HETATM   22  C22 UNL     1      37.452 -15.004  28.441  1.00  0.00     0.203 C 
BRANCH  22  23
HETATM   23  C23 UNL     1      36.456 -14.038  27.884  1.00  0.00     0.256 C 
BRANCH  23  24
HETATM   24  N5  UNL     1      37.205 -13.038  27.115  1.00  0.00    -0.077 N 
ATOM     25  H53 UNL     1      36.924 -12.080  27.325  1.00  0.00     0.274 HD
ATOM     26  H52 UNL     1      38.179 -12.956  27.407  1.00  0.00     0.274 HD
ATOM     27  H51 UNL     1      37.102 -13.276  26.129  1.00  0.00     0.274 HD
ENDBRANCH  23  24
ENDBRANCH  22  23
ENDBRANCH  21  22
ENDBRANCH  19  21
ENDBRANCH   6  10
BRANCH   1  28
HETATM   28  N2  UNL     1      43.395 -21.645  30.023  1.00  0.00    -0.214 N 
HETATM   29  C12 UNL     1      44.294 -20.652  30.563  1.00  0.00     0.161 C 
HETATM   30  C11 UNL     1      45.478 -21.315  31.253  1.00  0.00     0.146 C 
HETATM   31  N1  UNL     1      45.873 -22.490  30.530  1.00  0.00    -0.349 N 
HETATM   32  C10 UNL     1      47.187 -22.586  30.015  1.00  0.00     0.219 C 
HETATM   33  C28 UNL     1      44.892 -23.551  30.355  1.00  0.00     0.146 C 
HETATM   34  O1  UNL     1      47.494 -23.616  29.378  1.00  0.00    -0.273 OA
HETATM   35  C27 UNL     1      43.494 -23.005  30.454  1.00  0.00     0.161 C 
BRANCH  32  36
HETATM   36  C9  UNL     1      48.152 -21.512  30.228  1.00  0.00     0.103 C 
BRANCH  36  37
HETATM   37  C8  UNL     1      49.213 -21.756  31.226  1.00  0.00     0.009 C 
BRANCH  37  38
HETATM   38  C7  UNL     1      48.915 -22.293  32.552  1.00  0.00     0.000 C 
BRANCH  38  39
HETATM   39  C6  UNL     1      49.939 -22.290  33.608  1.00  0.00     0.001 C 
BRANCH  39  40
HETATM   40  C5  UNL     1      49.541 -22.024  35.004  1.00  0.00     0.008 C 
BRANCH  40  41
HETATM   41  C2  UNL     1      50.777 -21.584  35.803  1.00  0.00    -0.051 C 
HETATM   42  C1  UNL     1      50.300 -21.282  37.211  1.00  0.00     0.014 C 
HETATM   43  C3  UNL     1      51.354 -20.324  35.211  1.00  0.00     0.014 C 
HETATM   44  C4  UNL     1      51.816 -22.665  35.827  1.00  0.00     0.014 C 
ENDBRANCH  40  41
ENDBRANCH  39  40
ENDBRANCH  38  39
ENDBRANCH  37  38
ENDBRANCH  36  37
ENDBRANCH  32  36
ENDBRANCH   1  28
TORSDOF 12
ENDMDL
MODEL 2
REMARK VINA RESULT: -7.650733855      1.593      1.880
REMARK  12 active torsions:
REMARK  status: ('A' for Active; 'I' for Inactive)
REMARK    1  A    between atoms: C2_2  and  C5_5 
REMARK    2  A    between atoms: C5_5  and  C6_6 
REMARK    3  A    between atoms: C6_6  and  C7_7 
REMARK    4  A    between atoms: C7_7  and  C8_8 
REMARK    5  A    between atoms: C8_8  and  C9_9 
REMARK    6  A    between atoms: C9_9  and  C10_10 
REMARK       I    between atoms: C10_10  and  N1_12 
REMARK    7  A    between atoms: N2_15  and  C13_16 
REMARK    8  A    between atoms: C15_21  and  C16_22 
REMARK    9  A    between atoms: C21_30  and  O3_31 
REMARK   10  A    between atoms: O3_31  and  C22_32 
REMARK   11  A    between atoms: C22_32  and  C23_33 
REMARK   12  A    between atoms: C23_33  and  N5_34 
ROOT
HETATM    1  C13 UNL     1      43.060 -21.102  29.487  1.00  0.00     0.683 A 
HETATM    2  N3  UNL     1      41.872 -21.543  29.962  1.00  0.00    -0.155 N 
ATOM      3  H3  UNL     1      41.820 -21.793  30.949  1.00  0.00     0.187 HD
HETATM    4  C14 UNL     1      40.765 -21.673  29.228  1.00  0.00     0.272 A 
HETATM    5  O2  UNL     1      39.684 -22.094  29.741  1.00  0.00    -0.267 OA
HETATM    6  C15 UNL     1      40.816 -21.339  27.885  1.00  0.00     0.061 A 
HETATM    7  C26 UNL     1      42.003 -20.890  27.373  1.00  0.00     0.124 A 
HETATM    8  N6  UNL     1      43.072 -20.786  28.170  1.00  0.00    -0.201 N 
ATOM      9  H6  UNL     1      43.944 -20.448  27.763  1.00  0.00     0.183 HD
ENDROOT
BRANCH   6  10
HETATM   10  C16 UNL     1      39.609 -21.490  27.084  1.00  0.00     0.009 A 
HETATM   11  C17 UNL     1      39.156 -22.635  26.458  1.00  0.00     0.102 A 
HETATM   12  N4  UNL     1      38.013 -22.332  25.819  1.00  0.00    -0.362 N 
HETATM   13  C18 UNL     1      37.692 -21.031  25.998  1.00  0.00     0.082 A 
ATOM     14  H4  UNL     1      37.462 -22.994  25.273  1.00  0.00     0.165 HD
HETATM   15  C19 UNL     1      36.660 -20.224  25.577  1.00  0.00     0.146 A 
HETATM   16  C25 UNL     1      38.696 -20.508  26.791  1.00  0.00     0.009 A 
HETATM   17  F1  UNL     1      35.710 -20.801  24.801  1.00  0.00    -0.204 F 
HETATM   18  C20 UNL     1      36.621 -18.911  25.939  1.00  0.00     0.081 A 
HETATM   19  C21 UNL     1      37.617 -18.336  26.742  1.00  0.00     0.072 A 
HETATM   20  C24 UNL     1      38.625 -19.172  27.139  1.00  0.00     0.051 A 
BRANCH  19  21
HETATM   21  O3  UNL     1      37.561 -17.034  27.094  1.00  0.00    -0.349 OA
BRANCH  21  22
HETATM   22  C22 UNL     1      36.729 -16.382  27.960  1.00  0.00     0.203 C 
BRANCH  22  23
HETATM   23  C23 UNL     1      37.438 -15.762  29.121  1.00  0.00     0.256 C 
BRANCH  23  24
HETATM   24  N5  UNL     1      37.857 -16.854  30.006  1.00  0.00    -0.077 N 
ATOM     25  H53 UNL     1      38.843 -16.806  30.260  1.00  0.00     0.274 HD
ATOM     26  H52 UNL     1      37.474 -16.774  30.948  1.00  0.00     0.274 HD
ATOM     27  H51 UNL     1      37.606 -17.728  29.545  1.00  0.00     0.274 HD
ENDBRANCH  23  24
ENDBRANCH  22  23
ENDBRANCH  21  22
ENDBRANCH  19  21
ENDBRANCH   6  10
BRANCH   1  28
HETATM   28  N2  UNL     1      44.205 -20.987  30.309  1.00  0.00    -0.214 N 
HETATM   29  C12 UNL     1      45.232 -20.036  29.955  1.00  0.00     0.161 C 
HETATM   30  C11 UNL     1      46.520 -20.327  30.713  1.00  0.00     0.146 C 
HETATM   31  N1  UNL     1      46.706 -21.744  30.840  1.00  0.00    -0.349 N 
HETATM   32  C10 UNL     1      47.866 -22.349  30.303  1.00  0.00     0.219 C 
HETATM   33  C28 UNL     1      45.678 -22.513  31.527  1.00  0.00     0.146 C 
HETATM   34  O1  UNL     1      47.990 -23.586  30.418  1.00  0.00    -0.273 OA
HETATM   35  C27 UNL     1      44.356 -21.797  31.478  1.00  0.00     0.161 C 
BRANCH  32  36
HETATM   36  C9  UNL     1      48.887 -21.544  29.639  1.00  0.00     0.103 C 
BRANCH  36  37
HETATM   37  C8  UNL     1      50.128 -21.282  30.397  1.00  0.00     0.009 C 
BRANCH  37  38
HETATM   38  C7  UNL     1      50.101 -20.866  31.797  1.00  0.00     0.000 C 
BRANCH  38  39
HETATM   39  C6  UNL     1      50.712 -21.705  32.839  1.00  0.00     0.001 C 
BRANCH  39  40
HETATM   40  C5  UNL     1      49.952 -22.002  34.069  1.00  0.00     0.008 C 
BRANCH  40  41
HETATM   41  C2  UNL     1      50.815 -21.647  35.289  1.00  0.00    -0.051 C 
HETATM   42  C1  UNL     1      51.903 -22.702  35.373  1.00  0.00     0.014 C 
HETATM   43  C3  UNL     1      49.986 -21.712  36.546  1.00  0.00     0.014 C 
HETATM   44  C4  UNL     1      51.424 -20.285  35.141  1.00  0.00     0.014 C 
ENDBRANCH  40  41
ENDBRANCH  39  40
ENDBRANCH  38  39
ENDBRANCH  37  38
ENDBRANCH  36  37
ENDBRANCH  32  36
ENDBRANCH   1  28
TORSDOF 12
ENDMDL
MODEL 3
REMARK VINA RESULT: -7.638805814      5.897      8.694
REMARK  12 active torsions:
REMARK  status: ('A' for Active; 'I' for Inactive)
REMARK    1  A    between atoms: C2_2  and  C5_5 
REMARK    2  A    between atoms: C5_5  and  C6_6 
REMARK    3  A    between atoms: C6_6  and  C7_7 
REMARK    4  A    between atoms: C7_7  and  C8_8 
REMARK    5  A    between atoms: C8_8  and  C9_9 
REMARK    6  A    between atoms: C9_9  and  C10_10 
REMARK       I    between atoms: C10_10  and  N1_12 
REMARK    7  A    between atoms: N2_15  and  C13_16 
REMARK    8  A    between atoms: C15_21  and  C16_22 
REMARK    9  A    between atoms: C21_30  and  O3_31 
REMARK   10  A    between atoms: O3_31  and  C22_32 
REMARK   11  A    between atoms: C22_32  and  C23_33 
REMARK   12  A    between atoms: C23_33  and  N5_34 
ROOT
HETATM    1  C13 UNL     1      40.407 -22.690  27.496  1.00  0.00     0.683 A 
HETATM    2  N3  UNL     1      39.369 -21.944  27.939  1.00  0.00    -0.155 N 
ATOM      3  H3  UNL     1      39.085 -22.058  28.912  1.00  0.00     0.187 HD
HETATM    4  C14 UNL     1      38.691 -21.071  27.192  1.00  0.00     0.272 A 
HETATM    5  O2  UNL     1      37.726 -20.405  27.675  1.00  0.00    -0.267 OA
HETATM    6  C15 UNL     1      39.062 -20.903  25.868  1.00  0.00     0.061 A 
HETATM    7  C26 UNL     1      40.108 -21.642  25.389  1.00  0.00     0.124 A 
HETATM    8  N6  UNL     1      40.740 -22.499  26.198  1.00  0.00    -0.201 N 
ATOM      9  H6  UNL     1      41.517 -23.038  25.815  1.00  0.00     0.183 HD
ENDROOT
BRANCH   6  10
HETATM   10  C16 UNL     1      38.315 -19.955  25.051  1.00  0.00     0.009 A 
HETATM   11  C17 UNL     1      38.577 -18.610  24.877  1.00  0.00     0.102 A 
HETATM   12  N4  UNL     1      37.639 -18.109  24.055  1.00  0.00    -0.362 N 
HETATM   13  C18 UNL     1      36.767 -19.071  23.678  1.00  0.00     0.082 A 
ATOM     14  H4  UNL     1      37.591 -17.135  23.755  1.00  0.00     0.165 HD
HETATM   15  C19 UNL     1      35.652 -19.102  22.871  1.00  0.00     0.146 A 
HETATM   16  C25 UNL     1      37.195 -20.226  24.306  1.00  0.00     0.009 A 
HETATM   17  F1  UNL     1      35.288 -17.935  22.287  1.00  0.00    -0.204 F 
HETATM   18  C20 UNL     1      34.969 -20.266  22.686  1.00  0.00     0.081 A 
HETATM   19  C21 UNL     1      35.365 -21.462  23.302  1.00  0.00     0.072 A 
HETATM   20  C24 UNL     1      36.478 -21.389  24.096  1.00  0.00     0.051 A 
BRANCH  19  21
HETATM   21  O3  UNL     1      34.677 -22.607  23.105  1.00  0.00    -0.349 OA
BRANCH  21  22
HETATM   22  C22 UNL     1      35.106 -23.904  23.052  1.00  0.00     0.203 C 
BRANCH  22  23
HETATM   23  C23 UNL     1      34.681 -24.725  24.228  1.00  0.00     0.256 C 
BRANCH  23  24
HETATM   24  N5  UNL     1      34.404 -26.078  23.734  1.00  0.00    -0.077 N 
ATOM     25  H53 UNL     1      33.990 -26.684  24.441  1.00  0.00     0.274 HD
ATOM     26  H52 UNL     1      33.634 -26.110  23.066  1.00  0.00     0.274 HD
ATOM     27  H51 UNL     1      35.277 -26.445  23.355  1.00  0.00     0.274 HD
ENDBRANCH  23  24
ENDBRANCH  22  23
ENDBRANCH  21  22
ENDBRANCH  19  21
ENDBRANCH   6  10
BRANCH   1  28
HETATM   28  N2  UNL     1      41.088 -23.605  28.332  1.00  0.00    -0.214 N 
HETATM   29  C12 UNL     1      42.346 -24.159  27.889  1.00  0.00     0.161 C 
HETATM   30  C11 UNL     1      42.719 -25.381  28.718  1.00  0.00     0.146 C 
HETATM   31  N1  UNL     1      41.541 -26.137  29.034  1.00  0.00    -0.349 N 
HETATM   32  C10 UNL     1      41.443 -27.485  28.616  1.00  0.00     0.219 C 
HETATM   33  C28 UNL     1      40.481 -25.479  29.782  1.00  0.00     0.146 C 
HETATM   34  O1  UNL     1      40.398 -28.111  28.895  1.00  0.00    -0.273 OA
HETATM   35  C27 UNL     1      40.549 -23.986  29.600  1.00  0.00     0.161 C 
BRANCH  32  36
HETATM   36  C9  UNL     1      42.534 -28.121  27.885  1.00  0.00     0.103 C 
BRANCH  36  37
HETATM   37  C8  UNL     1      42.331 -28.337  26.438  1.00  0.00     0.009 C 
BRANCH  37  38
HETATM   38  C7  UNL     1      42.151 -27.222  25.511  1.00  0.00     0.000 C 
BRANCH  38  39
HETATM   39  C6  UNL     1      40.823 -26.914  24.960  1.00  0.00     0.001 C 
BRANCH  39  40
HETATM   40  C5  UNL     1      39.906 -26.043  25.720  1.00  0.00     0.008 C 
BRANCH  40  41
HETATM   41  C2  UNL     1      38.790 -25.552  24.785  1.00  0.00    -0.051 C 
HETATM   42  C1  UNL     1      37.880 -24.671  25.620  1.00  0.00     0.014 C 
HETATM   43  C3  UNL     1      37.989 -26.723  24.276  1.00  0.00     0.014 C 
HETATM   44  C4  UNL     1      39.354 -24.773  23.635  1.00  0.00     0.014 C 
ENDBRANCH  40  41
ENDBRANCH  39  40
ENDBRANCH  38  39
ENDBRANCH  37  38
ENDBRANCH  36  37
ENDBRANCH  32  36
ENDBRANCH   1  28
TORSDOF 12
ENDMDL
MODEL 4
REMARK VINA RESULT: -7.613304357      5.409      7.915
REMARK  12 active torsions:
REMARK  status: ('A' for Active; 'I' for Inactive)
REMARK    1  A    between atoms: C2_2  and  C5_5 
REMARK    2  A    between atoms: C5_5  and  C6_6 
REMARK    3  A    between atoms: C6_6  and  C7_7 
REMARK    4  A    between atoms: C7_7  and  C8_8 
REMARK    5  A    between atoms: C8_8  and  C9_9 
REMARK    6  A    between atoms: C9_9  and  C10_10 
REMARK       I    between atoms: C10_10  and  N1_12 
REMARK    7  A    between atoms: N2_15  and  C13_16 
REMARK    8  A    between atoms: C15_21  and  C16_22 
REMARK    9  A    between atoms: C21_30  and  O3_31 
REMARK   10  A    between atoms: O3_31  and  C22_32 
REMARK   11  A    between atoms: C22_32  and  C23_33 
REMARK   12  A    between atoms: C23_33  and  N5_34 
ROOT
HETATM    1  C13 UNL     1      41.445 -22.419  27.952  1.00  0.00     0.683 A 
HETATM    2  N3  UNL     1      40.250 -22.275  27.336  1.00  0.00    -0.155 N 
ATOM      3  H3  UNL     1      39.543 -22.993  27.499  1.00  0.00     0.187 HD
HETATM    4  C14 UNL     1      39.930 -21.261  26.530  1.00  0.00     0.272 A 
HETATM    5  O2  UNL     1      38.787 -21.191  25.985  1.00  0.00    -0.267 OA
HETATM    6  C15 UNL     1      40.876 -20.277  26.296  1.00  0.00     0.061 A 
HETATM    7  C26 UNL     1      42.096 -20.392  26.904  1.00  0.00     0.124 A 
HETATM    8  N6  UNL     1      42.344 -21.438  27.700  1.00  0.00    -0.201 N 
ATOM      9  H6  UNL     1      43.262 -21.500  28.141  1.00  0.00     0.183 HD
ENDROOT
BRANCH   6  10
HETATM   10  C16 UNL     1      40.529 -19.174  25.409  1.00  0.00     0.009 A 
HETATM   11  C17 UNL     1      40.771 -19.082  24.053  1.00  0.00     0.102 A 
HETATM   12  N4  UNL     1      40.299 -17.897  23.628  1.00  0.00    -0.362 N 
HETATM   13  C18 UNL     1      39.754 -17.202  24.652  1.00  0.00     0.082 A 
ATOM     14  H4  UNL     1      40.346 -17.567  22.664  1.00  0.00     0.165 HD
HETATM   15  C19 UNL     1      39.146 -15.973  24.769  1.00  0.00     0.146 A 
HETATM   16  C25 UNL     1      39.901 -18.007  25.766  1.00  0.00     0.009 A 
HETATM   17  F1  UNL     1      39.036 -15.235  23.638  1.00  0.00    -0.204 F 
HETATM   18  C20 UNL     1      38.688 -15.545  25.979  1.00  0.00     0.081 A 
HETATM   19  C21 UNL     1      38.815 -16.326  27.136  1.00  0.00     0.072 A 
HETATM   20  C24 UNL     1      39.424 -17.541  26.977  1.00  0.00     0.051 A 
BRANCH  19  21
HETATM   21  O3  UNL     1      38.352 -15.887  28.326  1.00  0.00    -0.349 OA
BRANCH  21  22
HETATM   22  C22 UNL     1      37.276 -15.099  28.626  1.00  0.00     0.203 C 
BRANCH  22  23
HETATM   23  C23 UNL     1      35.997 -15.860  28.772  1.00  0.00     0.256 C 
BRANCH  23  24
HETATM   24  N5  UNL     1      36.334 -17.167  29.346  1.00  0.00    -0.077 N 
ATOM     25  H53 UNL     1      37.268 -17.196  29.754  1.00  0.00     0.274 HD
ATOM     26  H52 UNL     1      35.812 -17.376  30.197  1.00  0.00     0.274 HD
ATOM     27  H51 UNL     1      36.197 -17.863  28.613  1.00  0.00     0.274 HD
ENDBRANCH  23  24
ENDBRANCH  22  23
ENDBRANCH  21  22
ENDBRANCH  19  21
ENDBRANCH   6  10
BRANCH   1  28
HETATM   28  N2  UNL     1      41.732 -23.518  28.795  1.00  0.00    -0.214 N 
HETATM   29  C12 UNL     1      42.923 -24.297  28.553  1.00  0.00     0.161 C 
HETATM   30  C11 UNL     1      42.855 -25.628  29.290  1.00  0.00     0.146 C 
HETATM   31  N1  UNL     1      41.512 -26.132  29.272  1.00  0.00    -0.349 N 
HETATM   32  C10 UNL     1      41.246 -27.393  28.687  1.00  0.00     0.219 C 
HETATM   33  C28 UNL     1      40.463 -25.316  29.864  1.00  0.00     0.146 C 
HETATM   34  O1  UNL     1      40.064 -27.796  28.674  1.00  0.00    -0.273 OA
HETATM   35  C27 UNL     1      40.861 -23.864  29.875  1.00  0.00     0.161 C 
BRANCH  32  36
HETATM   36  C9  UNL     1      42.326 -28.196  28.121  1.00  0.00     0.103 C 
BRANCH  36  37
HETATM   37  C8  UNL     1      42.405 -28.263  26.648  1.00  0.00     0.009 C 
BRANCH  37  38
HETATM   38  C7  UNL     1      42.125 -27.102  25.807  1.00  0.00     0.000 C 
BRANCH  38  39
HETATM   39  C6  UNL     1      40.945 -27.080  24.929  1.00  0.00     0.001 C 
BRANCH  39  40
HETATM   40  C5  UNL     1      39.709 -26.420  25.391  1.00  0.00     0.008 C 
BRANCH  40  41
HETATM   41  C2  UNL     1      38.709 -26.357  24.227  1.00  0.00    -0.051 C 
HETATM   42  C1  UNL     1      38.608 -24.899  23.819  1.00  0.00     0.014 C 
HETATM   43  C3  UNL     1      37.350 -26.821  24.686  1.00  0.00     0.014 C 
HETATM   44  C4  UNL     1      39.175 -27.189  23.070  1.00  0.00     0.014 C 
ENDBRANCH  40  41
ENDBRANCH  39  40
ENDBRANCH  38  39
ENDBRANCH  37  38
ENDBRANCH  36  37
ENDBRANCH  32  36
ENDBRANCH   1  28
TORSDOF 12
ENDMDL
MODEL 5
REMARK VINA RESULT: -7.601936464      4.665     11.250
REMARK  12 active torsions:
REMARK  status: ('A' for Active; 'I' for Inactive)
REMARK    1  A    between atoms: C2_2  and  C5_5 
REMARK    2  A    between atoms: C5_5  and  C6_6 
REMARK    3  A    between atoms: C6_6  and  C7_7 
REMARK    4  A    between atoms: C7_7  and  C8_8 
REMARK    5  A    between atoms: C8_8  and  C9_9 
REMARK    6  A    between atoms: C9_9  and  C10_10 
REMARK       I    between atoms: C10_10  and  N1_12 
REMARK    7  A    between atoms: N2_15  and  C13_16 
REMARK    8  A    between atoms: C15_21  and  C16_22 
REMARK    9  A    between atoms: C21_30  and  O3_31 
REMARK   10  A    between atoms: O3_31  and  C22_32 
REMARK   11  A    between atoms: C22_32  and  C23_33 
REMARK   12  A    between atoms: C23_33  and  N5_34 
ROOT
HETATM    1  C13 UNL     1      38.848 -20.872  26.702  1.00  0.00     0.683 A 
HETATM    2  N3  UNL     1      38.982 -20.103  27.808  1.00  0.00    -0.155 N 
ATOM      3  H3  UNL     1      38.306 -19.352  27.948  1.00  0.00     0.187 HD
HETATM    4  C14 UNL     1      39.936 -20.260  28.728  1.00  0.00     0.272 A 
HETATM    5  O2  UNL     1      40.000 -19.501  29.742  1.00  0.00    -0.267 OA
HETATM    6  C15 UNL     1      40.862 -21.275  28.556  1.00  0.00     0.061 A 
HETATM    7  C26 UNL     1      40.755 -22.070  27.448  1.00  0.00     0.124 A 
HETATM    8  N6  UNL     1      39.772 -21.853  26.568  1.00  0.00    -0.201 N 
ATOM      9  H6  UNL     1      39.715 -22.460  25.751  1.00  0.00     0.183 HD
ENDROOT
BRANCH   6  10
HETATM   10  C16 UNL     1      41.908 -21.439  29.557  1.00  0.00     0.009 A 
HETATM   11  C17 UNL     1      41.761 -21.879  30.858  1.00  0.00     0.102 A 
HETATM   12  N4  UNL     1      42.974 -21.871  31.437  1.00  0.00    -0.362 N 
HETATM   13  C18 UNL     1      43.918 -21.442  30.569  1.00  0.00     0.082 A 
ATOM     14  H4  UNL     1      43.158 -22.150  32.401  1.00  0.00     0.165 HD
HETATM   15  C19 UNL     1      45.279 -21.247  30.640  1.00  0.00     0.146 A 
HETATM   16  C25 UNL     1      43.244 -21.172  29.393  1.00  0.00     0.009 A 
HETATM   17  F1  UNL     1      45.876 -21.530  31.823  1.00  0.00    -0.204 F 
HETATM   18  C20 UNL     1      45.966 -20.791  29.556  1.00  0.00     0.081 A 
HETATM   19  C21 UNL     1      45.325 -20.504  28.342  1.00  0.00     0.072 A 
HETATM   20  C24 UNL     1      43.973 -20.711  28.312  1.00  0.00     0.051 A 
BRANCH  19  21
HETATM   21  O3  UNL     1      46.023 -20.055  27.276  1.00  0.00    -0.349 OA
BRANCH  21  22
HETATM   22  C22 UNL     1      46.335 -20.668  26.096  1.00  0.00     0.203 C 
BRANCH  22  23
HETATM   23  C23 UNL     1      47.764 -20.495  25.689  1.00  0.00     0.256 C 
BRANCH  23  24
HETATM   24  N5  UNL     1      48.589 -20.811  26.860  1.00  0.00    -0.077 N 
ATOM     25  H53 UNL     1      49.580 -20.616  26.715  1.00  0.00     0.274 HD
ATOM     26  H52 UNL     1      48.442 -20.168  27.638  1.00  0.00     0.274 HD
ATOM     27  H51 UNL     1      48.405 -21.783  27.105  1.00  0.00     0.274 HD
ENDBRANCH  23  24
ENDBRANCH  22  23
ENDBRANCH  21  22
ENDBRANCH  19  21
ENDBRANCH   6  10
BRANCH   1  28
HETATM   28  N2  UNL     1      37.819 -20.658  25.756  1.00  0.00    -0.214 N 
HETATM   29  C12 UNL     1      36.477 -21.087  26.070  1.00  0.00     0.161 C 
HETATM   30  C11 UNL     1      35.617 -21.129  24.814  1.00  0.00     0.146 C 
HETATM   31  N1  UNL     1      36.397 -21.584  23.699  1.00  0.00    -0.349 N 
HETATM   32  C10 UNL     1      36.005 -22.750  23.000  1.00  0.00     0.219 C 
HETATM   33  C28 UNL     1      37.578 -20.818  23.327  1.00  0.00     0.146 C 
HETATM   34  O1  UNL     1      36.715 -23.128  22.044  1.00  0.00    -0.273 OA
HETATM   35  C27 UNL     1      38.092 -20.030  24.501  1.00  0.00     0.161 C 
BRANCH  32  36
HETATM   36  C9  UNL     1      34.803 -23.483  23.386  1.00  0.00     0.103 C 
BRANCH  36  37
HETATM   37  C8  UNL     1      35.000 -24.723  24.164  1.00  0.00     0.009 C 
BRANCH  37  38
HETATM   38  C7  UNL     1      35.312 -25.996  23.519  1.00  0.00     0.000 C 
BRANCH  38  39
HETATM   39  C6  UNL     1      36.420 -26.831  24.008  1.00  0.00     0.001 C 
BRANCH  39  40
HETATM   40  C5  UNL     1      37.136 -26.439  25.237  1.00  0.00     0.008 C 
BRANCH  40  41
HETATM   41  C2  UNL     1      38.587 -26.083  24.879  1.00  0.00    -0.051 C 
HETATM   42  C1  UNL     1      38.974 -26.967  23.708  1.00  0.00     0.014 C 
HETATM   43  C3  UNL     1      39.498 -26.398  26.038  1.00  0.00     0.014 C 
HETATM   44  C4  UNL     1      38.711 -24.638  24.503  1.00  0.00     0.014 C 
ENDBRANCH  40  41
ENDBRANCH  39  40
ENDBRANCH  38  39
ENDBRANCH  37  38
ENDBRANCH  36  37
ENDBRANCH  32  36
ENDBRANCH   1  28
TORSDOF 12
ENDMDL
