MODEL 1
REMARK VINA RESULT: -8.002904182      0.000      0.000
REMARK  11 active torsions:
REMARK  status: ('A' for Active; 'I' for Inactive)
REMARK    1  A    between atoms: O1_2  and  C2_3 
REMARK    2  A    between atoms: C3_4  and  N1_5 
REMARK       I    between atoms: N1_5  and  C4_7 
REMARK    3  A    between atoms: C4_7  and  C5_9 
REMARK    4  A    between atoms: C9_13  and  O3_14 
REMARK    5  A    between atoms: O3_14  and  C10_15 
REMARK    6  A    between atoms: C10_15  and  C11_16 
REMARK    7  A    between atoms: C11_16  and  C12_17 
REMARK    8  A    between atoms: C12_17  and  O4_18 
REMARK    9  A    between atoms: C19_26  and  O5_27 
REMARK   10  A    between atoms: N2_30  and  C22_31 
REMARK   11  A    between atoms: C22_31  and  C23_32 
ROOT
HETATM    1  C2  UNL     1      36.970 -20.295  24.209  1.00  0.00     0.129 A 
HETATM    2  C3  UNL     1      37.128 -21.283  25.200  1.00  0.00     0.072 A 
HETATM    3  C16 UNL     1      37.892 -20.898  26.273  1.00  0.00     0.040 A 
HETATM    4  C17 UNL     1      38.479 -19.653  26.410  1.00  0.00    -0.044 A 
HETATM    5  C18 UNL     1      38.289 -18.736  25.411  1.00  0.00     0.002 A 
HETATM    6  C19 UNL     1      37.525 -19.046  24.285  1.00  0.00     0.112 A 
HETATM    7  C21 UNL     1      38.901 -17.401  25.520  1.00  0.00     0.159 C 
HETATM    8  N2  UNL     1      39.187 -16.974  26.836  1.00  0.00    -0.406 N 
HETATM    9  C27 UNL     1      38.784 -17.833  27.899  1.00  0.00     0.122 C 
HETATM   10  C28 UNL     1      39.300 -19.245  27.579  1.00  0.00     0.058 C 
ENDROOT
BRANCH   2  11
HETATM   11  N1  UNL     1      36.522 -22.543  25.039  1.00  0.00    -0.320 N 
HETATM   12  C4  UNL     1      36.922 -23.600  24.222  1.00  0.00     0.257 C 
HETATM   13  O2  UNL     1      37.950 -23.499  23.475  1.00  0.00    -0.267 OA
ATOM     14  H1  UNL     1      35.680 -22.704  25.593  1.00  0.00     0.169 HD
BRANCH  12  15
HETATM   15  C5  UNL     1      36.227 -24.867  24.140  1.00  0.00     0.044 A 
HETATM   16  C6  UNL     1      35.153 -25.085  23.350  1.00  0.00    -0.043 A 
HETATM   17  C7  UNL     1      34.463 -24.003  22.570  1.00  0.00     0.049 C 
HETATM   18  C8  UNL     1      34.547 -26.341  23.241  1.00  0.00     0.044 A 
HETATM   19  C9  UNL     1      35.065 -27.384  23.965  1.00  0.00     0.069 A 
HETATM   20  C13 UNL     1      36.156 -27.211  24.785  1.00  0.00     0.044 A 
HETATM   21  C14 UNL     1      36.735 -25.938  24.866  1.00  0.00    -0.043 A 
HETATM   22  C15 UNL     1      37.918 -25.772  25.745  1.00  0.00     0.049 C 
BRANCH  19  23
HETATM   23  O3  UNL     1      34.449 -28.626  23.844  1.00  0.00    -0.351 OA
BRANCH  23  24
HETATM   24  C10 UNL     1      34.431 -29.324  22.611  1.00  0.00     0.178 C 
BRANCH  24  25
HETATM   25  C11 UNL     1      34.354 -30.807  22.928  1.00  0.00     0.053 C 
BRANCH  25  26
HETATM   26  C12 UNL     1      33.897 -30.936  24.374  1.00  0.00     0.166 C 
BRANCH  26  27
HETATM   27  O4  UNL     1      32.524 -31.140  24.441  1.00  0.00    -0.401 OA
ATOM     28  H4  UNL     1      32.247 -31.280  25.340  1.00  0.00     0.209 HD
ENDBRANCH  26  27
ENDBRANCH  25  26
ENDBRANCH  24  25
ENDBRANCH  23  24
ENDBRANCH  19  23
ENDBRANCH  12  15
ENDBRANCH   2  11
BRANCH   1  29
HETATM   29  O1  UNL     1      36.203 -20.603  23.077  1.00  0.00    -0.351 OA
HETATM   30  C1  UNL     1      34.794 -20.324  23.075  1.00  0.00     0.210 C 
ENDBRANCH   1  29
BRANCH   6  31
HETATM   31  O5  UNL     1      37.343 -18.095  23.277  1.00  0.00    -0.352 OA
HETATM   32  C20 UNL     1      38.151 -18.070  22.118  1.00  0.00     0.210 C 
ENDBRANCH   6  31
BRANCH   8  33
HETATM   33  C22 UNL     1      39.032 -15.588  27.105  1.00  0.00     0.150 C 
BRANCH  33  34
HETATM   34  C23 UNL     1      37.609 -15.191  27.296  1.00  0.00     0.206 C 
HETATM   35  C24 UNL     1      37.292 -15.156  28.797  1.00  0.00     0.073 C 
HETATM   36  C25 UNL     1      35.954 -14.449  28.789  1.00  0.00     0.197 C 
HETATM   37  F1  UNL     1      34.954 -15.418  28.826  1.00  0.00    -0.248 F 
HETATM   38  C26 UNL     1      35.941 -13.674  27.502  1.00  0.00     0.269 C 
HETATM   39  N3  UNL     1      37.254 -13.874  26.884  1.00  0.00    -0.067 N 
ATOM     40  H32 UNL     1      37.944 -13.158  27.112  1.00  0.00     0.277 HD
ATOM     41  H31 UNL     1      37.277 -13.724  25.875  1.00  0.00     0.277 HD
ENDBRANCH  33  34
ENDBRANCH   8  33
TORSDOF 11
ENDMDL
MODEL 2
REMARK VINA RESULT: -7.944990084      0.683      1.594
REMARK  11 active torsions:
REMARK  status: ('A' for Active; 'I' for Inactive)
REMARK    1  A    between atoms: O1_2  and  C2_3 
REMARK    2  A    between atoms: C3_4  and  N1_5 
REMARK       I    between atoms: N1_5  and  C4_7 
REMARK    3  A    between atoms: C4_7  and  C5_9 
REMARK    4  A    between atoms: C9_13  and  O3_14 
REMARK    5  A    between atoms: O3_14  and  C10_15 
REMARK    6  A    between atoms: C10_15  and  C11_16 
REMARK    7  A    between atoms: C11_16  and  C12_17 
REMARK    8  A    between atoms: C12_17  and  O4_18 
REMARK    9  A    between atoms: C19_26  and  O5_27 
REMARK   10  A    between atoms: N2_30  and  C22_31 
REMARK   11  A    between atoms: C22_31  and  C23_32 
ROOT
HETATM    1  C2  UNL     1      37.015 -20.173  24.218  1.00  0.00     0.129 A 
HETATM    2  C3  UNL     1      37.227 -21.177  25.182  1.00  0.00     0.072 A 
HETATM    3  C16 UNL     1      38.024 -20.799  26.233  1.00  0.00     0.040 A 
HETATM    4  C17 UNL     1      38.592 -19.545  26.374  1.00  0.00    -0.044 A 
HETATM    5  C18 UNL     1      38.348 -18.612  25.401  1.00  0.00     0.002 A 
HETATM    6  C19 UNL     1      37.548 -18.915  24.299  1.00  0.00     0.112 A 
HETATM    7  C21 UNL     1      38.939 -17.269  25.514  1.00  0.00     0.159 C 
HETATM    8  N2  UNL     1      39.266 -16.862  26.827  1.00  0.00    -0.406 N 
HETATM    9  C27 UNL     1      38.919 -17.749  27.887  1.00  0.00     0.122 C 
HETATM   10  C28 UNL     1      39.449 -19.145  27.519  1.00  0.00     0.058 C 
ENDROOT
BRANCH   2  11
HETATM   11  N1  UNL     1      36.639 -22.445  25.018  1.00  0.00    -0.320 N 
HETATM   12  C4  UNL     1      37.046 -23.489  24.188  1.00  0.00     0.257 C 
HETATM   13  O2  UNL     1      38.063 -23.366  23.429  1.00  0.00    -0.267 OA
ATOM     14  H1  UNL     1      35.807 -22.624  25.581  1.00  0.00     0.169 HD
BRANCH  12  15
HETATM   15  C5  UNL     1      36.370 -24.766  24.104  1.00  0.00     0.044 A 
HETATM   16  C6  UNL     1      36.738 -25.858  24.809  1.00  0.00    -0.043 A 
HETATM   17  C7  UNL     1      37.977 -25.922  25.655  1.00  0.00     0.049 C 
HETATM   18  C8  UNL     1      36.021 -27.059  24.759  1.00  0.00     0.044 A 
HETATM   19  C9  UNL     1      34.906 -27.123  23.963  1.00  0.00     0.069 A 
HETATM   20  C13 UNL     1      34.492 -26.038  23.225  1.00  0.00     0.044 A 
HETATM   21  C14 UNL     1      35.237 -24.854  23.303  1.00  0.00    -0.043 A 
HETATM   22  C15 UNL     1      34.770 -23.690  22.511  1.00  0.00     0.049 C 
BRANCH  19  23
HETATM   23  O3  UNL     1      34.206 -28.325  23.925  1.00  0.00    -0.351 OA
BRANCH  23  24
HETATM   24  C10 UNL     1      34.879 -29.572  23.930  1.00  0.00     0.178 C 
BRANCH  24  25
HETATM   25  C11 UNL     1      33.962 -30.583  24.594  1.00  0.00     0.053 C 
BRANCH  25  26
HETATM   26  C12 UNL     1      34.490 -30.812  26.004  1.00  0.00     0.166 C 
BRANCH  26  27
HETATM   27  O4  UNL     1      34.817 -29.606  26.611  1.00  0.00    -0.401 OA
ATOM     28  H4  UNL     1      35.629 -29.683  27.098  1.00  0.00     0.209 HD
ENDBRANCH  26  27
ENDBRANCH  25  26
ENDBRANCH  24  25
ENDBRANCH  23  24
ENDBRANCH  19  23
ENDBRANCH  12  15
ENDBRANCH   2  11
BRANCH   1  29
HETATM   29  O1  UNL     1      36.211 -20.474  23.109  1.00  0.00    -0.351 OA
HETATM   30  C1  UNL     1      34.819 -20.121  23.123  1.00  0.00     0.210 C 
ENDBRANCH   1  29
BRANCH   6  31
HETATM   31  O5  UNL     1      37.311 -17.949  23.317  1.00  0.00    -0.352 OA
HETATM   32  C20 UNL     1      38.078 -17.882  22.132  1.00  0.00     0.210 C 
ENDBRANCH   6  31
BRANCH   8  33
HETATM   33  C22 UNL     1      39.095 -15.485  27.130  1.00  0.00     0.150 C 
BRANCH  33  34
HETATM   34  C23 UNL     1      37.668 -15.108  27.329  1.00  0.00     0.206 C 
HETATM   35  C24 UNL     1      37.336 -15.164  28.826  1.00  0.00     0.073 C 
HETATM   36  C25 UNL     1      35.992 -14.465  28.845  1.00  0.00     0.197 C 
HETATM   37  F1  UNL     1      34.999 -15.441  28.815  1.00  0.00    -0.248 F 
HETATM   38  C26 UNL     1      35.988 -13.616  27.606  1.00  0.00     0.269 C 
HETATM   39  N3  UNL     1      37.309 -13.771  26.991  1.00  0.00    -0.067 N 
ATOM     40  H32 UNL     1      37.992 -13.065  27.268  1.00  0.00     0.277 HD
ATOM     41  H31 UNL     1      37.341 -13.562  25.993  1.00  0.00     0.277 HD
ENDBRANCH  33  34
ENDBRANCH   8  33
TORSDOF 11
ENDMDL
MODEL 3
REMARK VINA RESULT: -7.873614540      1.102      1.119
REMARK  11 active torsions:
REMARK  status: ('A' for Active; 'I' for Inactive)
REMARK    1  A    between atoms: O1_2  and  C2_3 
REMARK    2  A    between atoms: C3_4  and  N1_5 
REMARK       I    between atoms: N1_5  and  C4_7 
REMARK    3  A    between atoms: C4_7  and  C5_9 
REMARK    4  A    between atoms: C9_13  and  O3_14 
REMARK    5  A    between atoms: O3_14  and  C10_15 
REMARK    6  A    between atoms: C10_15  and  C11_16 
REMARK    7  A    between atoms: C11_16  and  C12_17 
REMARK    8  A    between atoms: C12_17  and  O4_18 
REMARK    9  A    between atoms: C19_26  and  O5_27 
REMARK   10  A    between atoms: N2_30  and  C22_31 
REMARK   11  A    between atoms: C22_31  and  C23_32 
ROOT
HETATM    1  C2  UNL     1      37.482 -20.092  23.520  1.00  0.00     0.129 A 
HETATM    2  C3  UNL     1      37.954 -21.158  24.309  1.00  0.00     0.072 A 
HETATM    3  C16 UNL     1      38.845 -20.792  25.287  1.00  0.00     0.040 A 
HETATM    4  C17 UNL     1      39.272 -19.495  25.514  1.00  0.00    -0.044 A 
HETATM    5  C18 UNL     1      38.776 -18.503  24.711  1.00  0.00     0.002 A 
HETATM    6  C19 UNL     1      37.865 -18.789  23.693  1.00  0.00     0.112 A 
HETATM    7  C21 UNL     1      39.209 -17.112  24.919  1.00  0.00     0.159 C 
HETATM    8  N2  UNL     1      39.674 -16.813  26.219  1.00  0.00    -0.406 N 
HETATM    9  C27 UNL     1      39.596 -17.852  27.191  1.00  0.00     0.122 C 
HETATM   10  C28 UNL     1      40.232 -19.111  26.579  1.00  0.00     0.058 C 
ENDROOT
BRANCH   2  11
HETATM   11  N1  UNL     1      37.507 -22.469  24.061  1.00  0.00    -0.320 N 
HETATM   12  C4  UNL     1      36.466 -23.161  24.679  1.00  0.00     0.257 C 
HETATM   13  O2  UNL     1      35.783 -22.625  25.613  1.00  0.00    -0.267 OA
ATOM     14  H1  UNL     1      38.009 -22.978  23.335  1.00  0.00     0.169 HD
BRANCH  12  15
HETATM   15  C5  UNL     1      36.080 -24.513  24.337  1.00  0.00     0.044 A 
HETATM   16  C6  UNL     1      35.094 -24.815  23.464  1.00  0.00    -0.043 A 
HETATM   17  C7  UNL     1      34.184 -23.788  22.852  1.00  0.00     0.049 C 
HETATM   18  C8  UNL     1      34.790 -26.132  23.102  1.00  0.00     0.044 A 
HETATM   19  C9  UNL     1      35.524 -27.149  23.657  1.00  0.00     0.069 A 
HETATM   20  C13 UNL     1      36.537 -26.893  24.552  1.00  0.00     0.044 A 
HETATM   21  C14 UNL     1      36.809 -25.560  24.889  1.00  0.00    -0.043 A 
HETATM   22  C15 UNL     1      37.913 -25.301  25.845  1.00  0.00     0.049 C 
BRANCH  19  23
HETATM   23  O3  UNL     1      35.208 -28.452  23.285  1.00  0.00    -0.351 OA
BRANCH  23  24
HETATM   24  C10 UNL     1      34.034 -29.090  23.755  1.00  0.00     0.178 C 
BRANCH  24  25
HETATM   25  C11 UNL     1      34.398 -30.524  24.095  1.00  0.00     0.053 C 
BRANCH  25  26
HETATM   26  C12 UNL     1      34.409 -30.639  25.613  1.00  0.00     0.166 C 
BRANCH  26  27
HETATM   27  O4  UNL     1      34.784 -29.435  26.196  1.00  0.00    -0.401 OA
ATOM     28  H4  UNL     1      35.675 -29.206  25.955  1.00  0.00     0.209 HD
ENDBRANCH  26  27
ENDBRANCH  25  26
ENDBRANCH  24  25
ENDBRANCH  23  24
ENDBRANCH  19  23
ENDBRANCH  12  15
ENDBRANCH   2  11
BRANCH   1  29
HETATM   29  O1  UNL     1      36.567 -20.375  22.496  1.00  0.00    -0.351 OA
HETATM   30  C1  UNL     1      35.160 -20.218  22.737  1.00  0.00     0.210 C 
ENDBRANCH   1  29
BRANCH   6  31
HETATM   31  O5  UNL     1      37.371 -17.761  22.884  1.00  0.00    -0.352 OA
HETATM   32  C20 UNL     1      37.918 -17.481  21.612  1.00  0.00     0.210 C 
ENDBRANCH   6  31
BRANCH   8  33
HETATM   33  C22 UNL     1      39.383 -15.515  26.717  1.00  0.00     0.150 C 
BRANCH  33  34
HETATM   34  C23 UNL     1      37.949 -15.340  27.077  1.00  0.00     0.206 C 
HETATM   35  C24 UNL     1      37.784 -15.514  28.593  1.00  0.00     0.073 C 
HETATM   36  C25 UNL     1      36.373 -15.001  28.786  1.00  0.00     0.197 C 
HETATM   37  F1  UNL     1      35.512 -16.096  28.790  1.00  0.00    -0.248 F 
HETATM   38  C26 UNL     1      36.132 -14.098  27.610  1.00  0.00     0.269 C 
HETATM   39  N3  UNL     1      37.391 -14.046  26.862  1.00  0.00    -0.067 N 
ATOM     40  H32 UNL     1      38.005 -13.272  27.115  1.00  0.00     0.277 HD
ATOM     41  H31 UNL     1      37.292 -13.785  25.881  1.00  0.00     0.277 HD
ENDBRANCH  33  34
ENDBRANCH   8  33
TORSDOF 11
ENDMDL
MODEL 4
REMARK VINA RESULT: -7.851858940      5.890     11.617
REMARK  11 active torsions:
REMARK  status: ('A' for Active; 'I' for Inactive)
REMARK    1  A    between atoms: O1_2  and  C2_3 
REMARK    2  A    between atoms: C3_4  and  N1_5 
REMARK       I    between atoms: N1_5  and  C4_7 
REMARK    3  A    between atoms: C4_7  and  C5_9 
REMARK    4  A    between atoms: C9_13  and  O3_14 
REMARK    5  A    between atoms: O3_14  and  C10_15 
REMARK    6  A    between atoms: C10_15  and  C11_16 
REMARK    7  A    between atoms: C11_16  and  C12_17 
REMARK    8  A    between atoms: C12_17  and  O4_18 
REMARK    9  A    between atoms: C19_26  and  O5_27 
REMARK   10  A    between atoms: N2_30  and  C22_31 
REMARK   11  A    between atoms: C22_31  and  C23_32 
ROOT
HETATM    1  C2  UNL     1      41.364 -22.080  28.739  1.00  0.00     0.129 A 
HETATM    2  C3  UNL     1      40.777 -21.792  27.493  1.00  0.00     0.072 A 
HETATM    3  C16 UNL     1      40.803 -22.830  26.596  1.00  0.00     0.040 A 
HETATM    4  C17 UNL     1      41.351 -24.075  26.854  1.00  0.00    -0.044 A 
HETATM    5  C18 UNL     1      41.908 -24.292  28.086  1.00  0.00     0.002 A 
HETATM    6  C19 UNL     1      41.923 -23.289  29.056  1.00  0.00     0.112 A 
HETATM    7  C21 UNL     1      42.504 -25.602  28.395  1.00  0.00     0.159 C 
HETATM    8  N2  UNL     1      42.011 -26.684  27.634  1.00  0.00    -0.406 N 
HETATM    9  C27 UNL     1      40.951 -26.407  26.723  1.00  0.00     0.122 C 
HETATM   10  C28 UNL     1      41.368 -25.193  25.877  1.00  0.00     0.058 C 
ENDROOT
BRANCH   2  11
HETATM   11  N1  UNL     1      40.226 -20.519  27.252  1.00  0.00    -0.320 N 
HETATM   12  C4  UNL     1      38.910 -20.096  27.435  1.00  0.00     0.257 C 
HETATM   13  O2  UNL     1      38.014 -20.899  27.858  1.00  0.00    -0.267 OA
ATOM     14  H1  UNL     1      40.873 -19.816  26.897  1.00  0.00     0.169 HD
BRANCH  12  15
HETATM   15  C5  UNL     1      38.448 -18.751  27.165  1.00  0.00     0.044 A 
HETATM   16  C6  UNL     1      37.852 -18.379  26.012  1.00  0.00    -0.043 A 
HETATM   17  C7  UNL     1      37.724 -19.278  24.815  1.00  0.00     0.049 C 
HETATM   18  C8  UNL     1      37.353 -17.088  25.808  1.00  0.00     0.044 A 
HETATM   19  C9  UNL     1      37.479 -16.171  26.820  1.00  0.00     0.069 A 
HETATM   20  C13 UNL     1      38.080 -16.501  28.013  1.00  0.00     0.044 A 
HETATM   21  C14 UNL     1      38.565 -17.805  28.177  1.00  0.00    -0.043 A 
HETATM   22  C15 UNL     1      39.199 -18.148  29.473  1.00  0.00     0.049 C 
BRANCH  19  23
HETATM   23  O3  UNL     1      36.977 -14.891  26.600  1.00  0.00    -0.351 OA
BRANCH  23  24
HETATM   24  C10 UNL     1      36.952 -13.920  27.631  1.00  0.00     0.178 C 
BRANCH  24  25
HETATM   25  C11 UNL     1      35.497 -13.592  27.914  1.00  0.00     0.053 C 
BRANCH  25  26
HETATM   26  C12 UNL     1      35.036 -14.516  29.032  1.00  0.00     0.166 C 
BRANCH  26  27
HETATM   27  O4  UNL     1      33.651 -14.627  29.041  1.00  0.00    -0.401 OA
ATOM     28  H4  UNL     1      33.345 -14.968  29.873  1.00  0.00     0.209 HD
ENDBRANCH  26  27
ENDBRANCH  25  26
ENDBRANCH  24  25
ENDBRANCH  23  24
ENDBRANCH  19  23
ENDBRANCH  12  15
ENDBRANCH   2  11
BRANCH   1  29
HETATM   29  O1  UNL     1      41.381 -21.075  29.716  1.00  0.00    -0.351 OA
HETATM   30  C1  UNL     1      40.505 -21.171  30.850  1.00  0.00     0.210 C 
ENDBRANCH   1  29
BRANCH   6  31
HETATM   31  O5  UNL     1      42.496 -23.532  30.307  1.00  0.00    -0.352 OA
HETATM   32  C20 UNL     1      43.828 -23.166  30.604  1.00  0.00     0.210 C 
ENDBRANCH   6  31
BRANCH   8  33
HETATM   33  C22 UNL     1      41.908 -27.936  28.297  1.00  0.00     0.150 C 
BRANCH  33  34
HETATM   34  C23 UNL     1      43.060 -28.838  28.018  1.00  0.00     0.206 C 
HETATM   35  C24 UNL     1      43.398 -29.632  29.287  1.00  0.00     0.073 C 
HETATM   36  C25 UNL     1      44.342 -30.675  28.726  1.00  0.00     0.197 C 
HETATM   37  F1  UNL     1      45.646 -30.228  28.925  1.00  0.00    -0.248 F 
HETATM   38  C26 UNL     1      43.991 -30.760  27.267  1.00  0.00     0.269 C 
HETATM   39  N3  UNL     1      42.842 -29.874  27.064  1.00  0.00    -0.067 N 
ATOM     40  H32 UNL     1      41.934 -30.333  27.136  1.00  0.00     0.277 HD
ATOM     41  H31 UNL     1      42.720 -29.549  26.105  1.00  0.00     0.277 HD
ENDBRANCH  33  34
ENDBRANCH   8  33
TORSDOF 11
ENDMDL
MODEL 5
REMARK VINA RESULT: -7.603661920      6.137     11.795
REMARK  11 active torsions:
REMARK  status: ('A' for Active; 'I' for Inactive)
REMARK    1  A    between atoms: O1_2  and  C2_3 
REMARK    2  A    between atoms: C3_4  and  N1_5 
REMARK       I    between atoms: N1_5  and  C4_7 
REMARK    3  A    between atoms: C4_7  and  C5_9 
REMARK    4  A    between atoms: C9_13  and  O3_14 
REMARK    5  A    between atoms: O3_14  and  C10_15 
REMARK    6  A    between atoms: C10_15  and  C11_16 
REMARK    7  A    between atoms: C11_16  and  C12_17 
REMARK    8  A    between atoms: C12_17  and  O4_18 
REMARK    9  A    between atoms: C19_26  and  O5_27 
REMARK   10  A    between atoms: N2_30  and  C22_31 
REMARK   11  A    between atoms: C22_31  and  C23_32 
ROOT
HETATM    1  C2  UNL     1      40.977 -22.383  29.306  1.00  0.00     0.129 A 
HETATM    2  C3  UNL     1      40.027 -22.259  28.275  1.00  0.00     0.072 A 
HETATM    3  C16 UNL     1      39.895 -23.374  27.484  1.00  0.00     0.040 A 
HETATM    4  C17 UNL     1      40.617 -24.543  27.652  1.00  0.00    -0.044 A 
HETATM    5  C18 UNL     1      41.527 -24.599  28.673  1.00  0.00     0.002 A 
HETATM    6  C19 UNL     1      41.722 -23.510  29.524  1.00  0.00     0.112 A 
HETATM    7  C21 UNL     1      42.316 -25.824  28.880  1.00  0.00     0.159 C 
HETATM    8  N2  UNL     1      41.734 -27.009  28.376  1.00  0.00    -0.406 N 
HETATM    9  C27 UNL     1      40.433 -26.901  27.806  1.00  0.00     0.122 C 
HETATM   10  C28 UNL     1      40.462 -25.745  26.793  1.00  0.00     0.058 C 
ENDROOT
BRANCH   2  11
HETATM   11  N1  UNL     1      39.304 -21.061  28.123  1.00  0.00    -0.320 N 
HETATM   12  C4  UNL     1      39.691 -19.893  27.467  1.00  0.00     0.257 C 
HETATM   13  O2  UNL     1      40.837 -19.797  26.916  1.00  0.00    -0.267 OA
ATOM     14  H1  UNL     1      38.377 -21.046  28.548  1.00  0.00     0.169 HD
BRANCH  12  15
HETATM   15  C5  UNL     1      38.860 -18.713  27.360  1.00  0.00     0.044 A 
HETATM   16  C6  UNL     1      38.683 -17.824  28.363  1.00  0.00    -0.043 A 
HETATM   17  C7  UNL     1      39.212 -18.027  29.754  1.00  0.00     0.049 C 
HETATM   18  C8  UNL     1      37.929 -16.657  28.205  1.00  0.00     0.044 A 
HETATM   19  C9  UNL     1      37.350 -16.411  26.986  1.00  0.00     0.069 A 
HETATM   20  C13 UNL     1      37.499 -17.286  25.935  1.00  0.00     0.044 A 
HETATM   21  C14 UNL     1      38.262 -18.444  26.134  1.00  0.00    -0.043 A 
HETATM   22  C15 UNL     1      38.424 -19.371  24.987  1.00  0.00     0.049 C 
BRANCH  19  23
HETATM   23  O3  UNL     1      36.603 -15.245  26.848  1.00  0.00    -0.351 OA
BRANCH  23  24
HETATM   24  C10 UNL     1      36.842 -14.114  27.667  1.00  0.00     0.178 C 
BRANCH  24  25
HETATM   25  C11 UNL     1      35.549 -13.323  27.742  1.00  0.00     0.053 C 
BRANCH  25  26
HETATM   26  C12 UNL     1      34.810 -13.785  28.990  1.00  0.00     0.166 C 
BRANCH  26  27
HETATM   27  O4  UNL     1      34.678 -15.168  29.002  1.00  0.00    -0.401 OA
ATOM     28  H4  UNL     1      34.616 -15.493  29.893  1.00  0.00     0.209 HD
ENDBRANCH  26  27
ENDBRANCH  25  26
ENDBRANCH  24  25
ENDBRANCH  23  24
ENDBRANCH  19  23
ENDBRANCH  12  15
ENDBRANCH   2  11
BRANCH   1  29
HETATM   29  O1  UNL     1      41.176 -21.291  30.162  1.00  0.00    -0.351 OA
HETATM   30  C1  UNL     1      40.412 -21.189  31.374  1.00  0.00     0.210 C 
ENDBRANCH   1  29
BRANCH   6  31
HETATM   31  O5  UNL     1      42.656 -23.588  30.561  1.00  0.00    -0.352 OA
HETATM   32  C20 UNL     1      43.970 -23.084  30.424  1.00  0.00     0.210 C 
ENDBRANCH   6  31
BRANCH   8  33
HETATM   33  C22 UNL     1      41.955 -28.196  29.124  1.00  0.00     0.150 C 
BRANCH  33  34
HETATM   34  C23 UNL     1      43.132 -28.973  28.645  1.00  0.00     0.206 C 
HETATM   35  C24 UNL     1      43.479 -30.052  29.681  1.00  0.00     0.073 C 
HETATM   36  C25 UNL     1      44.453 -30.900  28.891  1.00  0.00     0.197 C 
HETATM   37  F1  UNL     1      45.744 -30.489  29.214  1.00  0.00    -0.248 F 
HETATM   38  C26 UNL     1      44.117 -30.626  27.452  1.00  0.00     0.269 C 
HETATM   39  N3  UNL     1      42.948 -29.742  27.460  1.00  0.00    -0.067 N 
ATOM     40  H32 UNL     1      42.051 -30.224  27.402  1.00  0.00     0.277 HD
ATOM     41  H31 UNL     1      42.826 -29.191  26.611  1.00  0.00     0.277 HD
ENDBRANCH  33  34
ENDBRANCH   8  33
TORSDOF 11
ENDMDL
