MODEL 1
REMARK VINA RESULT: -7.511813317      0.000      0.000
REMARK  14 active torsions:
REMARK  status: ('A' for Active; 'I' for Inactive)
REMARK    1  A    between atoms: C5_8  and  C6_9 
REMARK    2  A    between atoms: C6_9  and  O1_10 
REMARK    3  A    between atoms: C6_9  and  C7_12 
REMARK    4  A    between atoms: C7_12  and  N2_13 
REMARK    5  A    between atoms: N2_13  and  C8_15 
REMARK    6  A    between atoms: N3_23  and  C14_24 
REMARK    7  A    between atoms: C14_24  and  C15_25 
REMARK    8  A    between atoms: C15_25  and  O3_26 
REMARK    9  A    between atoms: O3_26  and  C16_27 
REMARK   10  A    between atoms: C16_27  and  N4_28 
REMARK   11  A    between atoms: C16_27  and  C17_32 
REMARK   12  A    between atoms: C17_32  and  N5_34 
REMARK   13  A    between atoms: C19_36  and  N6_37 
REMARK   14  A    between atoms: C19_36  and  C24_43 
ROOT
HETATM    1  C1  UNL     1      35.100 -20.340  22.813  1.00  0.00     0.068 C 
HETATM    2  C2  UNL     1      35.938 -19.741  23.897  1.00  0.00     0.011 A 
HETATM    3  C3  UNL     1      36.416 -18.443  23.703  1.00  0.00     0.054 A 
HETATM    4  C4  UNL     1      37.185 -17.848  24.661  1.00  0.00     0.039 A 
HETATM    5  N1  UNL     1      37.645 -16.644  24.510  1.00  0.00    -0.398 N 
ATOM      6  H11 UNL     1      38.219 -16.198  25.226  1.00  0.00     0.156 HD
ATOM      7  H12 UNL     1      37.395 -16.178  23.638  1.00  0.00     0.156 HD
HETATM    8  C5  UNL     1      37.531 -18.494  25.871  1.00  0.00     0.037 A 
HETATM    9  C13 UNL     1      37.035 -19.753  26.000  1.00  0.00     0.117 A 
HETATM   10 CL1  UNL     1      37.385 -20.703  27.457  1.00  0.00    -0.064 Cl
HETATM   11  N3  UNL     1      36.260 -20.354  25.035  1.00  0.00    -0.339 N 
ENDROOT
BRANCH  11  12
HETATM   12  C14 UNL     1      35.790 -21.689  25.281  1.00  0.00     0.156 C 
BRANCH  12  13
HETATM   13  C15 UNL     1      36.688 -22.773  24.748  1.00  0.00     0.190 C 
BRANCH  13  14
HETATM   14  O3  UNL     1      36.951 -23.797  25.616  1.00  0.00    -0.356 OA
BRANCH  14  15
HETATM   15  C16 UNL     1      38.314 -23.659  26.001  1.00  0.00     0.340 C 
BRANCH  15  16
HETATM   16  N4  UNL     1      39.149 -23.581  24.839  1.00  0.00    -0.051 N 
ATOM     17  H43 UNL     1      38.750 -24.087  24.049  1.00  0.00     0.277 HD
ATOM     18  H42 UNL     1      39.150 -22.646  24.432  1.00  0.00     0.277 HD
ATOM     19  H41 UNL     1      40.091 -23.903  25.062  1.00  0.00     0.277 HD
ENDBRANCH  15  16
BRANCH  15  20
HETATM   20  C17 UNL     1      38.732 -24.873  26.813  1.00  0.00     0.135 C 
HETATM   21  C18 UNL     1      39.049 -26.034  25.849  1.00  0.00     0.036 C 
BRANCH  20  22
HETATM   22  N5  UNL     1      39.745 -24.730  27.708  1.00  0.00    -0.371 N 
HETATM   23  C19 UNL     1      40.568 -24.150  28.373  1.00  0.00     0.083 C 
ATOM     24  H5  UNL     1      39.908 -25.698  27.985  1.00  0.00     0.161 HD
BRANCH  23  25
HETATM   25  N6  UNL     1      40.890 -22.764  28.475  1.00  0.00    -0.366 N 
HETATM   26  C20 UNL     1      41.498 -22.095  27.353  1.00  0.00     0.150 C 
HETATM   27  C21 UNL     1      42.281 -20.922  27.958  1.00  0.00     0.187 C 
HETATM   28  O4  UNL     1      41.315 -20.014  28.387  1.00  0.00    -0.388 OA
HETATM   29  C22 UNL     1      40.419 -20.518  29.293  1.00  0.00     0.187 C 
HETATM   30  C23 UNL     1      40.635 -21.967  29.655  1.00  0.00     0.150 C 
ENDBRANCH  23  25
BRANCH  23  31
HETATM   31  C24 UNL     1      41.455 -25.016  29.272  1.00  0.00     0.007 C 
HETATM   32  C25 UNL     1      41.733 -26.350  28.583  1.00  0.00     0.022 C 
HETATM   33  C26 UNL     1      40.755 -25.254  30.583  1.00  0.00     0.022 C 
HETATM   34  C27 UNL     1      42.769 -24.340  29.537  1.00  0.00     0.022 C 
ENDBRANCH  23  31
ENDBRANCH  20  22
ENDBRANCH  15  20
ENDBRANCH  14  15
ENDBRANCH  13  14
ENDBRANCH  12  13
ENDBRANCH  11  12
BRANCH   8  35
HETATM   35  C6  UNL     1      38.363 -17.728  26.805  1.00  0.00     0.174 C 
BRANCH  35  36
HETATM   36  O1  UNL     1      39.670 -18.260  26.676  1.00  0.00    -0.389 OA
ATOM     37  H1  UNL     1      40.115 -17.697  26.053  1.00  0.00     0.210 HD
ENDBRANCH  35  36
BRANCH  35  38
HETATM   38  C7  UNL     1      37.935 -17.563  28.195  1.00  0.00     0.150 C 
BRANCH  38  39
HETATM   39  N2  UNL     1      36.609 -16.991  28.343  1.00  0.00    -0.414 N 
ATOM     40  H2  UNL     1      35.781 -17.461  27.977  1.00  0.00     0.153 HD
BRANCH  39  41
HETATM   41  C8  UNL     1      36.519 -15.754  29.019  1.00  0.00     0.080 C 
HETATM   42  C9  UNL     1      35.154 -15.105  28.926  1.00  0.00     0.051 C 
HETATM   43  C10 UNL     1      35.366 -13.607  28.873  1.00  0.00     0.169 C 
HETATM   44  O2  UNL     1      35.851 -13.193  27.636  1.00  0.00    -0.391 OA
HETATM   45  C11 UNL     1      36.632 -14.230  27.102  1.00  0.00     0.169 C 
HETATM   46  C12 UNL     1      37.446 -14.788  28.238  1.00  0.00     0.051 C 
ENDBRANCH  39  41
ENDBRANCH  38  39
ENDBRANCH  35  38
ENDBRANCH   8  35
TORSDOF 14
ENDMDL
MODEL 2
REMARK VINA RESULT: -7.507540668      1.036      1.484
REMARK  14 active torsions:
REMARK  status: ('A' for Active; 'I' for Inactive)
REMARK    1  A    between atoms: C5_8  and  C6_9 
REMARK    2  A    between atoms: C6_9  and  O1_10 
REMARK    3  A    between atoms: C6_9  and  C7_12 
REMARK    4  A    between atoms: C7_12  and  N2_13 
REMARK    5  A    between atoms: N2_13  and  C8_15 
REMARK    6  A    between atoms: N3_23  and  C14_24 
REMARK    7  A    between atoms: C14_24  and  C15_25 
REMARK    8  A    between atoms: C15_25  and  O3_26 
REMARK    9  A    between atoms: O3_26  and  C16_27 
REMARK   10  A    between atoms: C16_27  and  N4_28 
REMARK   11  A    between atoms: C16_27  and  C17_32 
REMARK   12  A    between atoms: C17_32  and  N5_34 
REMARK   13  A    between atoms: C19_36  and  N6_37 
REMARK   14  A    between atoms: C19_36  and  C24_43 
ROOT
HETATM    1  C1  UNL     1      35.041 -21.174  23.277  1.00  0.00     0.068 C 
HETATM    2  C2  UNL     1      35.881 -20.337  24.188  1.00  0.00     0.011 A 
HETATM    3  C3  UNL     1      36.268 -19.075  23.733  1.00  0.00     0.054 A 
HETATM    4  C4  UNL     1      37.035 -18.269  24.524  1.00  0.00     0.039 A 
HETATM    5  N1  UNL     1      37.412 -17.091  24.130  1.00  0.00    -0.398 N 
ATOM      6  H11 UNL     1      37.985 -16.488  24.721  1.00  0.00     0.156 HD
ATOM      7  H12 UNL     1      37.099 -16.812  23.201  1.00  0.00     0.156 HD
HETATM    8  C5  UNL     1      37.469 -18.656  25.814  1.00  0.00     0.037 A 
HETATM    9  C13 UNL     1      37.059 -19.894  26.199  1.00  0.00     0.117 A 
HETATM   10 CL1  UNL     1      37.526 -20.533  27.787  1.00  0.00    -0.064 Cl
HETATM   11  N3  UNL     1      36.286 -20.707  25.402  1.00  0.00    -0.339 N 
ENDROOT
BRANCH  11  12
HETATM   12  C14 UNL     1      35.912 -21.996  25.915  1.00  0.00     0.156 C 
BRANCH  12  13
HETATM   13  C15 UNL     1      36.797 -23.126  25.463  1.00  0.00     0.190 C 
BRANCH  13  14
HETATM   14  O3  UNL     1      37.874 -23.385  26.266  1.00  0.00    -0.356 OA
BRANCH  14  15
HETATM   15  C16 UNL     1      38.512 -24.538  25.728  1.00  0.00     0.340 C 
BRANCH  15  16
HETATM   16  N4  UNL     1      38.026 -25.718  26.379  1.00  0.00    -0.051 N 
ATOM     17  H43 UNL     1      37.551 -26.344  25.729  1.00  0.00     0.277 HD
ATOM     18  H42 UNL     1      38.784 -26.340  26.659  1.00  0.00     0.277 HD
ATOM     19  H41 UNL     1      37.430 -25.462  27.168  1.00  0.00     0.277 HD
ENDBRANCH  15  16
BRANCH  15  20
HETATM   20  C17 UNL     1      40.009 -24.440  25.964  1.00  0.00     0.135 C 
HETATM   21  C18 UNL     1      40.497 -23.049  25.512  1.00  0.00     0.036 C 
BRANCH  20  22
HETATM   22  N5  UNL     1      40.482 -24.711  27.209  1.00  0.00    -0.371 N 
HETATM   23  C19 UNL     1      40.910 -24.474  28.313  1.00  0.00     0.083 C 
ATOM     24  H5  UNL     1      40.463 -25.731  27.215  1.00  0.00     0.161 HD
BRANCH  23  25
HETATM   25  N6  UNL     1      41.189 -23.240  28.970  1.00  0.00    -0.366 N 
HETATM   26  C20 UNL     1      40.095 -22.401  29.393  1.00  0.00     0.150 C 
HETATM   27  C21 UNL     1      40.669 -20.977  29.427  1.00  0.00     0.187 C 
HETATM   28  O4  UNL     1      41.532 -20.953  30.520  1.00  0.00    -0.388 OA
HETATM   29  C22 UNL     1      42.539 -21.880  30.474  1.00  0.00     0.187 C 
HETATM   30  C23 UNL     1      42.526 -22.768  29.254  1.00  0.00     0.150 C 
ENDBRANCH  23  25
BRANCH  23  31
HETATM   31  C24 UNL     1      41.238 -25.684  29.193  1.00  0.00     0.007 C 
HETATM   32  C25 UNL     1      40.722 -25.440  30.609  1.00  0.00     0.022 C 
HETATM   33  C26 UNL     1      42.728 -25.890  29.221  1.00  0.00     0.022 C 
HETATM   34  C27 UNL     1      40.583 -26.926  28.660  1.00  0.00     0.022 C 
ENDBRANCH  23  31
ENDBRANCH  20  22
ENDBRANCH  15  20
ENDBRANCH  14  15
ENDBRANCH  13  14
ENDBRANCH  12  13
ENDBRANCH  11  12
BRANCH   8  35
HETATM   35  C6  UNL     1      38.287 -17.684  26.547  1.00  0.00     0.174 C 
BRANCH  35  36
HETATM   36  O1  UNL     1      39.633 -18.040  26.281  1.00  0.00    -0.389 OA
ATOM     37  H1  UNL     1      39.649 -18.315  25.372  1.00  0.00     0.210 HD
ENDBRANCH  35  36
BRANCH  35  38
HETATM   38  C7  UNL     1      38.020 -17.428  27.963  1.00  0.00     0.150 C 
BRANCH  38  39
HETATM   39  N2  UNL     1      36.673 -16.963  28.238  1.00  0.00    -0.414 N 
ATOM     40  H2  UNL     1      35.854 -17.476  27.912  1.00  0.00     0.153 HD
BRANCH  39  41
HETATM   41  C8  UNL     1      36.549 -15.766  28.978  1.00  0.00     0.080 C 
HETATM   42  C9  UNL     1      35.168 -15.149  28.915  1.00  0.00     0.051 C 
HETATM   43  C10 UNL     1      35.341 -13.645  28.942  1.00  0.00     0.169 C 
HETATM   44  O2  UNL     1      35.818 -13.154  27.731  1.00  0.00    -0.391 OA
HETATM   45  C11 UNL     1      36.627 -14.140  27.145  1.00  0.00     0.169 C 
HETATM   46  C12 UNL     1      37.452 -14.736  28.253  1.00  0.00     0.051 C 
ENDBRANCH  39  41
ENDBRANCH  38  39
ENDBRANCH  35  38
ENDBRANCH   8  35
TORSDOF 14
ENDMDL
MODEL 3
REMARK VINA RESULT: -7.436457519      1.017      1.534
REMARK  14 active torsions:
REMARK  status: ('A' for Active; 'I' for Inactive)
REMARK    1  A    between atoms: C5_8  and  C6_9 
REMARK    2  A    between atoms: C6_9  and  O1_10 
REMARK    3  A    between atoms: C6_9  and  C7_12 
REMARK    4  A    between atoms: C7_12  and  N2_13 
REMARK    5  A    between atoms: N2_13  and  C8_15 
REMARK    6  A    between atoms: N3_23  and  C14_24 
REMARK    7  A    between atoms: C14_24  and  C15_25 
REMARK    8  A    between atoms: C15_25  and  O3_26 
REMARK    9  A    between atoms: O3_26  and  C16_27 
REMARK   10  A    between atoms: C16_27  and  N4_28 
REMARK   11  A    between atoms: C16_27  and  C17_32 
REMARK   12  A    between atoms: C17_32  and  N5_34 
REMARK   13  A    between atoms: C19_36  and  N6_37 
REMARK   14  A    between atoms: C19_36  and  C24_43 
ROOT
HETATM    1  C1  UNL     1      35.058 -20.343  22.816  1.00  0.00     0.068 C 
HETATM    2  C2  UNL     1      35.909 -19.764  23.900  1.00  0.00     0.011 A 
HETATM    3  C3  UNL     1      36.376 -18.459  23.728  1.00  0.00     0.054 A 
HETATM    4  C4  UNL     1      37.155 -17.880  24.687  1.00  0.00     0.039 A 
HETATM    5  N1  UNL     1      37.606 -16.669  24.557  1.00  0.00    -0.398 N 
ATOM      6  H11 UNL     1      38.188 -16.237  25.273  1.00  0.00     0.156 HD
ATOM      7  H12 UNL     1      37.340 -16.186  23.699  1.00  0.00     0.156 HD
HETATM    8  C5  UNL     1      37.524 -18.551  25.878  1.00  0.00     0.037 A 
HETATM    9  C13 UNL     1      37.038 -19.816  25.985  1.00  0.00     0.117 A 
HETATM   10 CL1  UNL     1      37.417 -20.796  27.415  1.00  0.00    -0.064 Cl
HETATM   11  N3  UNL     1      36.252 -20.400  25.019  1.00  0.00    -0.339 N 
ENDROOT
BRANCH  11  12
HETATM   12  C14 UNL     1      35.794 -21.743  25.243  1.00  0.00     0.156 C 
BRANCH  12  13
HETATM   13  C15 UNL     1      36.697 -22.809  24.682  1.00  0.00     0.190 C 
BRANCH  13  14
HETATM   14  O3  UNL     1      36.696 -23.996  25.363  1.00  0.00    -0.356 OA
BRANCH  14  15
HETATM   15  C16 UNL     1      37.979 -24.115  25.969  1.00  0.00     0.340 C 
BRANCH  15  16
HETATM   16  N4  UNL     1      38.993 -23.660  25.065  1.00  0.00    -0.051 N 
ATOM     17  H43 UNL     1      38.635 -22.969  24.405  1.00  0.00     0.277 HD
ATOM     18  H42 UNL     1      39.686 -23.074  25.531  1.00  0.00     0.277 HD
ATOM     19  H41 UNL     1      39.421 -24.455  24.590  1.00  0.00     0.277 HD
ENDBRANCH  15  16
BRANCH  15  20
HETATM   20  C17 UNL     1      38.246 -25.574  26.297  1.00  0.00     0.135 C 
HETATM   21  C18 UNL     1      38.169 -26.401  24.997  1.00  0.00     0.036 C 
BRANCH  20  22
HETATM   22  N5  UNL     1      39.385 -25.882  26.971  1.00  0.00    -0.371 N 
HETATM   23  C19 UNL     1      40.322 -25.706  27.710  1.00  0.00     0.083 C 
ATOM     24  H5  UNL     1      39.543 -26.844  26.671  1.00  0.00     0.161 HD
BRANCH  23  25
HETATM   25  N6  UNL     1      40.719 -24.568  28.474  1.00  0.00    -0.366 N 
HETATM   26  C20 UNL     1      40.370 -24.499  29.871  1.00  0.00     0.150 C 
HETATM   27  C21 UNL     1      40.327 -23.000  30.202  1.00  0.00     0.187 C 
HETATM   28  O4  UNL     1      41.655 -22.580  30.182  1.00  0.00    -0.388 OA
HETATM   29  C22 UNL     1      42.306 -22.796  28.996  1.00  0.00     0.187 C 
HETATM   30  C23 UNL     1      41.471 -23.460  27.929  1.00  0.00     0.150 C 
ENDBRANCH  23  25
BRANCH  23  31
HETATM   31  C24 UNL     1      41.292 -26.880  27.877  1.00  0.00     0.007 C 
HETATM   32  C25 UNL     1      41.554 -27.523  26.517  1.00  0.00     0.022 C 
HETATM   33  C26 UNL     1      40.692 -27.892  28.815  1.00  0.00     0.022 C 
HETATM   34  C27 UNL     1      42.604 -26.413  28.438  1.00  0.00     0.022 C 
ENDBRANCH  23  31
ENDBRANCH  20  22
ENDBRANCH  15  20
ENDBRANCH  14  15
ENDBRANCH  13  14
ENDBRANCH  12  13
ENDBRANCH  11  12
BRANCH   8  35
HETATM   35  C6  UNL     1      38.366 -17.801  26.816  1.00  0.00     0.174 C 
BRANCH  35  36
HETATM   36  O1  UNL     1      39.661 -18.365  26.702  1.00  0.00    -0.389 OA
ATOM     37  H1  UNL     1      40.026 -18.009  25.901  1.00  0.00     0.210 HD
ENDBRANCH  35  36
BRANCH  35  38
HETATM   38  C7  UNL     1      37.928 -17.617  28.200  1.00  0.00     0.150 C 
BRANCH  38  39
HETATM   39  N2  UNL     1      36.612 -17.019  28.332  1.00  0.00    -0.414 N 
ATOM     40  H2  UNL     1      35.780 -17.469  27.950  1.00  0.00     0.153 HD
BRANCH  39  41
HETATM   41  C8  UNL     1      36.537 -15.784  29.013  1.00  0.00     0.080 C 
HETATM   42  C9  UNL     1      35.180 -15.117  28.922  1.00  0.00     0.051 C 
HETATM   43  C10 UNL     1      35.412 -13.621  28.877  1.00  0.00     0.169 C 
HETATM   44  O2  UNL     1      35.904 -13.208  27.642  1.00  0.00    -0.391 OA
HETATM   45  C11 UNL     1      36.672 -14.252  27.104  1.00  0.00     0.169 C 
HETATM   46  C12 UNL     1      37.478 -14.826  28.239  1.00  0.00     0.051 C 
ENDBRANCH  39  41
ENDBRANCH  38  39
ENDBRANCH  35  38
ENDBRANCH   8  35
TORSDOF 14
ENDMDL
MODEL 4
REMARK VINA RESULT: -7.308883692      1.426      2.047
REMARK  14 active torsions:
REMARK  status: ('A' for Active; 'I' for Inactive)
REMARK    1  A    between atoms: C5_8  and  C6_9 
REMARK    2  A    between atoms: C6_9  and  O1_10 
REMARK    3  A    between atoms: C6_9  and  C7_12 
REMARK    4  A    between atoms: C7_12  and  N2_13 
REMARK    5  A    between atoms: N2_13  and  C8_15 
REMARK    6  A    between atoms: N3_23  and  C14_24 
REMARK    7  A    between atoms: C14_24  and  C15_25 
REMARK    8  A    between atoms: C15_25  and  O3_26 
REMARK    9  A    between atoms: O3_26  and  C16_27 
REMARK   10  A    between atoms: C16_27  and  N4_28 
REMARK   11  A    between atoms: C16_27  and  C17_32 
REMARK   12  A    between atoms: C17_32  and  N5_34 
REMARK   13  A    between atoms: C19_36  and  N6_37 
REMARK   14  A    between atoms: C19_36  and  C24_43 
ROOT
HETATM    1  C1  UNL     1      35.201 -19.832  22.605  1.00  0.00     0.068 C 
HETATM    2  C2  UNL     1      36.033 -19.371  23.759  1.00  0.00     0.011 A 
HETATM    3  C3  UNL     1      36.647 -18.121  23.656  1.00  0.00     0.054 A 
HETATM    4  C4  UNL     1      37.416 -17.651  24.681  1.00  0.00     0.039 A 
HETATM    5  N1  UNL     1      38.001 -16.494  24.615  1.00  0.00    -0.398 N 
ATOM      6  H11 UNL     1      38.576 -16.142  25.380  1.00  0.00     0.156 HD
ATOM      7  H12 UNL     1      37.848 -15.966  23.756  1.00  0.00     0.156 HD
HETATM    8  C5  UNL     1      37.629 -18.383  25.873  1.00  0.00     0.037 A 
HETATM    9  C13 UNL     1      37.005 -19.590  25.912  1.00  0.00     0.117 A 
HETATM   10 CL1  UNL     1      37.178 -20.636  27.336  1.00  0.00    -0.064 Cl
HETATM   11  N3  UNL     1      36.229 -20.065  24.880  1.00  0.00    -0.339 N 
ENDROOT
BRANCH  11  12
HETATM   12  C14 UNL     1      35.616 -21.355  25.034  1.00  0.00     0.156 C 
BRANCH  12  13
HETATM   13  C15 UNL     1      36.445 -22.502  24.525  1.00  0.00     0.190 C 
BRANCH  13  14
HETATM   14  O3  UNL     1      36.796 -23.435  25.462  1.00  0.00    -0.356 OA
BRANCH  14  15
HETATM   15  C16 UNL     1      36.721 -24.702  24.819  1.00  0.00     0.340 C 
BRANCH  15  16
HETATM   16  N4  UNL     1      35.370 -24.978  24.432  1.00  0.00    -0.051 N 
ATOM     17  H43 UNL     1      35.264 -25.019  23.418  1.00  0.00     0.277 HD
ATOM     18  H42 UNL     1      35.098 -25.937  24.649  1.00  0.00     0.277 HD
ATOM     19  H41 UNL     1      34.739 -24.297  24.854  1.00  0.00     0.277 HD
ENDBRANCH  15  16
BRANCH  15  20
HETATM   20  C17 UNL     1      37.175 -25.784  25.785  1.00  0.00     0.135 C 
HETATM   21  C18 UNL     1      36.685 -27.152  25.269  1.00  0.00     0.036 C 
BRANCH  20  22
HETATM   22  N5  UNL     1      38.496 -25.855  26.095  1.00  0.00    -0.371 N 
HETATM   23  C19 UNL     1      39.513 -25.606  26.694  1.00  0.00     0.083 C 
ATOM     24  H5  UNL     1      38.831 -26.523  25.400  1.00  0.00     0.161 HD
BRANCH  23  25
HETATM   25  N6  UNL     1      39.768 -24.739  27.798  1.00  0.00    -0.366 N 
HETATM   26  C20 UNL     1      39.668 -23.313  27.614  1.00  0.00     0.150 C 
HETATM   27  C21 UNL     1      40.589 -22.703  28.681  1.00  0.00     0.187 C 
HETATM   28  O4  UNL     1      39.939 -22.916  29.895  1.00  0.00    -0.388 OA
HETATM   29  C22 UNL     1      39.672 -24.229  30.178  1.00  0.00     0.187 C 
HETATM   30  C23 UNL     1      40.120 -25.208  29.120  1.00  0.00     0.150 C 
ENDBRANCH  23  25
BRANCH  23  31
HETATM   31  C24 UNL     1      40.784 -26.313  26.211  1.00  0.00     0.007 C 
HETATM   32  C25 UNL     1      40.590 -26.784  24.771  1.00  0.00     0.022 C 
HETATM   33  C26 UNL     1      41.066 -27.493  27.102  1.00  0.00     0.022 C 
HETATM   34  C27 UNL     1      41.960 -25.381  26.248  1.00  0.00     0.022 C 
ENDBRANCH  23  31
ENDBRANCH  20  22
ENDBRANCH  15  20
ENDBRANCH  14  15
ENDBRANCH  13  14
ENDBRANCH  12  13
ENDBRANCH  11  12
BRANCH   8  35
HETATM   35  C6  UNL     1      38.480 -17.749  26.886  1.00  0.00     0.174 C 
BRANCH  35  36
HETATM   36  O1  UNL     1      39.721 -18.430  26.822  1.00  0.00    -0.389 OA
ATOM     37  H1  UNL     1      40.213 -18.001  26.131  1.00  0.00     0.210 HD
ENDBRANCH  35  36
BRANCH  35  38
HETATM   38  C7  UNL     1      37.980 -17.573  28.249  1.00  0.00     0.150 C 
BRANCH  38  39
HETATM   39  N2  UNL     1      36.653 -16.988  28.324  1.00  0.00    -0.414 N 
ATOM     40  H2  UNL     1      35.846 -17.439  27.893  1.00  0.00     0.153 HD
BRANCH  39  41
HETATM   41  C8  UNL     1      36.532 -15.766  29.022  1.00  0.00     0.080 C 
HETATM   42  C9  UNL     1      35.151 -15.150  28.940  1.00  0.00     0.051 C 
HETATM   43  C10 UNL     1      35.325 -13.646  28.914  1.00  0.00     0.169 C 
HETATM   44  O2  UNL     1      35.800 -13.199  27.684  1.00  0.00    -0.391 OA
HETATM   45  C11 UNL     1      36.607 -14.206  27.133  1.00  0.00     0.169 C 
HETATM   46  C12 UNL     1      37.434 -14.763  28.259  1.00  0.00     0.051 C 
ENDBRANCH  39  41
ENDBRANCH  38  39
ENDBRANCH  35  38
ENDBRANCH   8  35
TORSDOF 14
ENDMDL
MODEL 5
REMARK VINA RESULT: -7.144568726      2.481      4.206
REMARK  14 active torsions:
REMARK  status: ('A' for Active; 'I' for Inactive)
REMARK    1  A    between atoms: C5_8  and  C6_9 
REMARK    2  A    between atoms: C6_9  and  O1_10 
REMARK    3  A    between atoms: C6_9  and  C7_12 
REMARK    4  A    between atoms: C7_12  and  N2_13 
REMARK    5  A    between atoms: N2_13  and  C8_15 
REMARK    6  A    between atoms: N3_23  and  C14_24 
REMARK    7  A    between atoms: C14_24  and  C15_25 
REMARK    8  A    between atoms: C15_25  and  O3_26 
REMARK    9  A    between atoms: O3_26  and  C16_27 
REMARK   10  A    between atoms: C16_27  and  N4_28 
REMARK   11  A    between atoms: C16_27  and  C17_32 
REMARK   12  A    between atoms: C17_32  and  N5_34 
REMARK   13  A    between atoms: C19_36  and  N6_37 
REMARK   14  A    between atoms: C19_36  and  C24_43 
ROOT
HETATM    1  C1  UNL     1      38.040 -19.165  22.818  1.00  0.00     0.068 C 
HETATM    2  C2  UNL     1      38.324 -18.915  24.264  1.00  0.00     0.011 A 
HETATM    3  C3  UNL     1      38.945 -17.710  24.602  1.00  0.00     0.054 A 
HETATM    4  C4  UNL     1      39.227 -17.430  25.908  1.00  0.00     0.039 A 
HETATM    5  N1  UNL     1      39.804 -16.320  26.255  1.00  0.00    -0.398 N 
ATOM      6  H11 UNL     1      40.015 -16.110  27.230  1.00  0.00     0.156 HD
ATOM      7  H12 UNL     1      40.029 -15.679  25.494  1.00  0.00     0.156 HD
HETATM    8  C5  UNL     1      38.915 -18.319  26.964  1.00  0.00     0.037 A 
HETATM    9  C13 UNL     1      38.313 -19.472  26.569  1.00  0.00     0.117 A 
HETATM   10 CL1  UNL     1      37.864 -20.698  27.772  1.00  0.00    -0.064 Cl
HETATM   11  N3  UNL     1      38.028 -19.756  25.254  1.00  0.00    -0.339 N 
ENDROOT
BRANCH  11  12
HETATM   12  C14 UNL     1      37.387 -21.006  24.956  1.00  0.00     0.156 C 
BRANCH  12  13
HETATM   13  C15 UNL     1      35.888 -20.987  25.101  1.00  0.00     0.190 C 
BRANCH  13  14
HETATM   14  O3  UNL     1      35.186 -20.949  23.927  1.00  0.00    -0.356 OA
BRANCH  14  15
HETATM   15  C16 UNL     1      35.650 -22.043  23.144  1.00  0.00     0.340 C 
BRANCH  15  16
HETATM   16  N4  UNL     1      35.410 -21.788  21.754  1.00  0.00    -0.051 N 
ATOM     17  H43 UNL     1      35.624 -22.601  21.175  1.00  0.00     0.277 HD
ATOM     18  H42 UNL     1      34.415 -21.714  21.545  1.00  0.00     0.277 HD
ATOM     19  H41 UNL     1      35.927 -20.960  21.456  1.00  0.00     0.277 HD
ENDBRANCH  15  16
BRANCH  15  20
HETATM   20  C17 UNL     1      34.895 -23.300  23.539  1.00  0.00     0.135 C 
HETATM   21  C18 UNL     1      33.789 -23.568  22.498  1.00  0.00     0.036 C 
BRANCH  20  22
HETATM   22  N5  UNL     1      35.608 -24.437  23.755  1.00  0.00    -0.371 N 
HETATM   23  C19 UNL     1      36.538 -25.115  24.118  1.00  0.00     0.083 C 
ATOM     24  H5  UNL     1      34.974 -25.146  23.386  1.00  0.00     0.161 HD
BRANCH  23  25
HETATM   25  N6  UNL     1      37.778 -24.763  24.730  1.00  0.00    -0.366 N 
HETATM   26  C20 UNL     1      38.837 -24.219  23.919  1.00  0.00     0.150 C 
HETATM   27  C21 UNL     1      40.134 -24.568  24.662  1.00  0.00     0.187 C 
HETATM   28  O4  UNL     1      40.144 -23.751  25.791  1.00  0.00    -0.388 OA
HETATM   29  C22 UNL     1      39.059 -23.901  26.614  1.00  0.00     0.187 C 
HETATM   30  C23 UNL     1      38.044 -24.914  26.144  1.00  0.00     0.150 C 
ENDBRANCH  23  25
BRANCH  23  31
HETATM   31  C24 UNL     1      36.415 -26.625  23.890  1.00  0.00     0.007 C 
HETATM   32  C25 UNL     1      35.338 -26.897  22.842  1.00  0.00     0.022 C 
HETATM   33  C26 UNL     1      36.048 -27.296  25.187  1.00  0.00     0.022 C 
HETATM   34  C27 UNL     1      37.711 -27.197  23.394  1.00  0.00     0.022 C 
ENDBRANCH  23  31
ENDBRANCH  20  22
ENDBRANCH  15  20
ENDBRANCH  14  15
ENDBRANCH  13  14
ENDBRANCH  12  13
ENDBRANCH  11  12
BRANCH   8  35
HETATM   35  C6  UNL     1      39.279 -17.881  28.315  1.00  0.00     0.174 C 
BRANCH  35  36
HETATM   36  O1  UNL     1      40.188 -18.854  28.800  1.00  0.00    -0.389 OA
ATOM     37  H1  UNL     1      39.766 -19.245  29.555  1.00  0.00     0.210 HD
ENDBRANCH  35  36
BRANCH  35  38
HETATM   38  C7  UNL     1      38.230 -17.533  29.275  1.00  0.00     0.150 C 
BRANCH  38  39
HETATM   39  N2  UNL     1      37.082 -16.869  28.684  1.00  0.00    -0.414 N 
ATOM     40  H2  UNL     1      36.501 -17.328  27.983  1.00  0.00     0.153 HD
BRANCH  39  41
HETATM   41  C8  UNL     1      36.808 -15.555  29.125  1.00  0.00     0.080 C 
HETATM   42  C9  UNL     1      35.370 -15.128  28.916  1.00  0.00     0.051 C 
HETATM   43  C10 UNL     1      35.378 -13.648  28.595  1.00  0.00     0.169 C 
HETATM   44  O2  UNL     1      35.834 -13.399  27.303  1.00  0.00    -0.391 OA
HETATM   45  C11 UNL     1      36.762 -14.397  26.966  1.00  0.00     0.169 C 
HETATM   46  C12 UNL     1      37.615 -14.625  28.184  1.00  0.00     0.051 C 
ENDBRANCH  39  41
ENDBRANCH  38  39
ENDBRANCH  35  38
ENDBRANCH   8  35
TORSDOF 14
ENDMDL
