MODEL 1
REMARK VINA RESULT: -9.441742638      0.000      0.000
REMARK  9 active torsions:
REMARK  status: ('A' for Active; 'I' for Inactive)
REMARK    1  A    between atoms: C2_2  and  N1_3 
REMARK    2  A    between atoms: C2_2  and  C8_13 
REMARK       I    between atoms: N1_3  and  C3_4 
REMARK    3  A    between atoms: C3_4  and  C4_6 
REMARK    4  A    between atoms: C7_10  and  O2_11 
REMARK    5  A    between atoms: C12_21  and  C13_22 
REMARK    6  A    between atoms: C16_25  and  O3_26 
REMARK    7  A    between atoms: O3_26  and  C17_27 
REMARK    8  A    between atoms: C17_27  and  C18_28 
REMARK    9  A    between atoms: C18_28  and  C19_29 
ROOT
HETATM    1  C8  UNL     1      38.563 -19.614  27.228  1.00  0.00     0.031 A 
HETATM    2  C9  UNL     1      38.254 -20.813  27.779  1.00  0.00     0.102 A 
HETATM    3  N3  UNL     1      39.205 -21.545  28.448  1.00  0.00    -0.363 N 
ATOM      4  H3  UNL     1      38.946 -22.443  28.856  1.00  0.00     0.165 HD
HETATM    5  C10 UNL     1      40.477 -21.101  28.578  1.00  0.00     0.065 A 
HETATM    6  C11 UNL     1      41.463 -21.830  29.341  1.00  0.00     0.103 A 
HETATM    7  N4  UNL     1      42.760 -21.411  29.478  1.00  0.00    -0.353 N 
ATOM      8  H4  UNL     1      43.068 -20.577  28.978  1.00  0.00     0.166 HD
HETATM    9  C12 UNL     1      43.622 -22.062  30.241  1.00  0.00     0.029 A 
HETATM   10  C26 UNL     1      43.189 -23.196  30.914  1.00  0.00     0.115 A 
HETATM   11  N5  UNL     1      41.927 -23.663  30.822  1.00  0.00    -0.349 N 
ATOM     12  H5  UNL     1      41.626 -24.497  31.325  1.00  0.00     0.167 HD
HETATM   13  C27 UNL     1      41.073 -22.957  30.021  1.00  0.00     0.128 A 
HETATM   14  N6  UNL     1      39.828 -23.365  29.878  1.00  0.00    -0.384 N 
ATOM     15  H61 UNL     1      39.538 -24.202  30.383  1.00  0.00     0.157 HD
ATOM     16  H62 UNL     1      39.191 -22.838  29.280  1.00  0.00     0.157 HD
HETATM   17  C28 UNL     1      40.806 -19.889  28.021  1.00  0.00     0.074 A 
HETATM   18  C29 UNL     1      39.852 -19.127  27.337  1.00  0.00     0.129 A 
HETATM   19  F1  UNL     1      40.110 -17.941  26.769  1.00  0.00    -0.205 F 
ENDROOT
BRANCH   9  20
HETATM   20  C13 UNL     1      45.057 -21.691  30.388  1.00  0.00     0.037 C 
HETATM   21  C14 UNL     1      45.844 -22.343  29.257  1.00  0.00     0.013 C 
HETATM   22  C15 UNL     1      47.058 -21.562  28.919  1.00  0.00     0.032 C 
HETATM   23  C16 UNL     1      47.711 -20.956  30.186  1.00  0.00     0.121 C 
HETATM   24  C24 UNL     1      46.733 -19.985  30.824  1.00  0.00     0.032 C 
HETATM   25  C25 UNL     1      45.321 -20.215  30.315  1.00  0.00     0.013 C 
BRANCH  23  26
HETATM   26  O3  UNL     1      47.942 -21.953  31.015  1.00  0.00    -0.386 OA
BRANCH  26  27
HETATM   27  C17 UNL     1      48.372 -21.926  32.271  1.00  0.00     0.168 C 
BRANCH  27  28
HETATM   28  C18 UNL     1      49.552 -22.691  32.732  1.00  0.00     0.031 C 
BRANCH  28  29
HETATM   29  C19 UNL     1      50.216 -22.220  33.950  1.00  0.00    -0.009 C 
HETATM   30  C20 UNL     1      49.269 -21.945  35.131  1.00  0.00     0.031 C 
HETATM   31  C21 UNL     1      50.219 -21.693  36.316  1.00  0.00     0.168 C 
HETATM   32  O4  UNL     1      50.877 -20.491  36.082  1.00  0.00    -0.391 OA
HETATM   33  C22 UNL     1      51.695 -20.563  34.954  1.00  0.00     0.168 C 
HETATM   34  C23 UNL     1      50.861 -20.818  33.716  1.00  0.00     0.031 C 
ENDBRANCH  28  29
ENDBRANCH  27  28
ENDBRANCH  26  27
ENDBRANCH  23  26
ENDBRANCH   9  20
BRANCH   1  35
HETATM   35  C2  UNL     1      37.502 -18.778  26.487  1.00  0.00     0.200 C 
HETATM   36  C1  UNL     1      37.563 -19.206  25.015  1.00  0.00     0.053 C 
BRANCH  35  37
HETATM   37  N1  UNL     1      37.437 -17.507  26.678  1.00  0.00    -0.405 NA
HETATM   38  C3  UNL     1      37.324 -16.040  26.730  1.00  0.00     0.297 C 
HETATM   39  O1  UNL     1      36.999 -15.370  25.781  1.00  0.00    -0.257 OA
BRANCH  38  40
HETATM   40  C4  UNL     1      37.640 -15.352  28.022  1.00  0.00     0.180 C 
HETATM   41  C5  UNL     1      36.912 -14.050  28.169  1.00  0.00     0.295 C 
HETATM   42  N2  UNL     1      36.142 -14.595  29.246  1.00  0.00     0.114 N 
HETATM   43  C6  UNL     1      34.755 -14.833  29.021  1.00  0.00     0.313 C 
HETATM   44  C7  UNL     1      36.934 -15.790  29.239  1.00  0.00     0.372 C 
BRANCH  44  45
HETATM   45  O2  UNL     1      37.751 -15.907  30.387  1.00  0.00    -0.367 OA
ATOM     46  H2  UNL     1      38.679 -16.001  30.207  1.00  0.00     0.212 HD
ENDBRANCH  44  45
ENDBRANCH  38  40
ENDBRANCH  35  37
ENDBRANCH   1  35
TORSDOF 9
ENDMDL
MODEL 2
REMARK VINA RESULT: -9.163798653      2.141      4.129
REMARK  9 active torsions:
REMARK  status: ('A' for Active; 'I' for Inactive)
REMARK    1  A    between atoms: C2_2  and  N1_3 
REMARK    2  A    between atoms: C2_2  and  C8_13 
REMARK       I    between atoms: N1_3  and  C3_4 
REMARK    3  A    between atoms: C3_4  and  C4_6 
REMARK    4  A    between atoms: C7_10  and  O2_11 
REMARK    5  A    between atoms: C12_21  and  C13_22 
REMARK    6  A    between atoms: C16_25  and  O3_26 
REMARK    7  A    between atoms: O3_26  and  C17_27 
REMARK    8  A    between atoms: C17_27  and  C18_28 
REMARK    9  A    between atoms: C18_28  and  C19_29 
ROOT
HETATM    1  C8  UNL     1      38.636 -19.661  27.193  1.00  0.00     0.031 A 
HETATM    2  C9  UNL     1      38.234 -20.817  27.774  1.00  0.00     0.102 A 
HETATM    3  N3  UNL     1      39.119 -21.590  28.488  1.00  0.00    -0.363 N 
ATOM      4  H3  UNL     1      38.791 -22.454  28.918  1.00  0.00     0.165 HD
HETATM    5  C10 UNL     1      40.415 -21.229  28.634  1.00  0.00     0.065 A 
HETATM    6  C11 UNL     1      41.333 -21.996  29.443  1.00  0.00     0.103 A 
HETATM    7  N4  UNL     1      42.652 -21.662  29.597  1.00  0.00    -0.353 N 
ATOM      8  H4  UNL     1      43.027 -20.867  29.079  1.00  0.00     0.166 HD
HETATM    9  C12 UNL     1      43.451 -22.343  30.400  1.00  0.00     0.029 A 
HETATM   10  C26 UNL     1      42.927 -23.423  31.098  1.00  0.00     0.115 A 
HETATM   11  N5  UNL     1      41.639 -23.806  30.992  1.00  0.00    -0.349 N 
ATOM     12  H5  UNL     1      41.270 -24.601  31.513  1.00  0.00     0.167 HD
HETATM   13  C27 UNL     1      40.853 -23.071  30.148  1.00  0.00     0.128 A 
HETATM   14  N6  UNL     1      39.585 -23.399  29.989  1.00  0.00    -0.384 N 
ATOM     15  H61 UNL     1      39.229 -24.197  30.513  1.00  0.00     0.157 HD
ATOM     16  H62 UNL     1      38.998 -22.850  29.359  1.00  0.00     0.157 HD
HETATM   17  C28 UNL     1      40.838 -20.060  28.047  1.00  0.00     0.074 A 
HETATM   18  C29 UNL     1      39.953 -19.259  27.317  1.00  0.00     0.129 A 
HETATM   19  F1  UNL     1      40.303 -18.112  26.717  1.00  0.00    -0.205 F 
ENDROOT
BRANCH   9  20
HETATM   20  C13 UNL     1      44.904 -22.066  30.570  1.00  0.00     0.037 C 
HETATM   21  C14 UNL     1      45.244 -20.785  29.814  1.00  0.00     0.013 C 
HETATM   22  C15 UNL     1      46.404 -20.089  30.420  1.00  0.00     0.032 C 
HETATM   23  C16 UNL     1      47.464 -21.095  30.932  1.00  0.00     0.121 C 
HETATM   24  C24 UNL     1      46.845 -21.943  32.029  1.00  0.00     0.032 C 
HETATM   25  C25 UNL     1      45.329 -21.862  31.995  1.00  0.00     0.013 C 
BRANCH  23  26
HETATM   26  O3  UNL     1      47.787 -21.865  29.913  1.00  0.00    -0.386 OA
BRANCH  26  27
HETATM   27  C17 UNL     1      48.553 -21.597  28.862  1.00  0.00     0.168 C 
BRANCH  27  28
HETATM   28  C18 UNL     1      48.113 -21.831  27.468  1.00  0.00     0.031 C 
BRANCH  28  29
HETATM   29  C19 UNL     1      46.707 -22.186  27.264  1.00  0.00    -0.009 C 
HETATM   30  C20 UNL     1      46.451 -23.687  27.039  1.00  0.00     0.031 C 
HETATM   31  C21 UNL     1      44.918 -23.812  27.082  1.00  0.00     0.168 C 
HETATM   32  O4  UNL     1      44.411 -23.177  25.955  1.00  0.00    -0.391 OA
HETATM   33  C22 UNL     1      44.676 -21.807  25.971  1.00  0.00     0.168 C 
HETATM   34  C23 UNL     1      46.170 -21.562  25.938  1.00  0.00     0.031 C 
ENDBRANCH  28  29
ENDBRANCH  27  28
ENDBRANCH  26  27
ENDBRANCH  23  26
ENDBRANCH   9  20
BRANCH   1  35
HETATM   35  C2  UNL     1      37.651 -18.781  26.400  1.00  0.00     0.200 C 
HETATM   36  C1  UNL     1      37.790 -19.190  24.928  1.00  0.00     0.053 C 
BRANCH  35  37
HETATM   37  N1  UNL     1      37.615 -17.511  26.607  1.00  0.00    -0.405 NA
HETATM   38  C3  UNL     1      37.538 -16.043  26.677  1.00  0.00     0.297 C 
HETATM   39  O1  UNL     1      37.245 -15.352  25.732  1.00  0.00    -0.257 OA
BRANCH  38  40
HETATM   40  C4  UNL     1      37.849 -15.380  27.982  1.00  0.00     0.180 C 
HETATM   41  C5  UNL     1      37.076 -14.111  28.179  1.00  0.00     0.295 C 
HETATM   42  N2  UNL     1      36.346 -14.715  29.253  1.00  0.00     0.114 N 
HETATM   43  C6  UNL     1      34.965 -14.999  29.044  1.00  0.00     0.313 C 
HETATM   44  C7  UNL     1      37.183 -15.878  29.198  1.00  0.00     0.372 C 
BRANCH  44  45
HETATM   45  O2  UNL     1      38.024 -15.995  30.328  1.00  0.00    -0.367 OA
ATOM     46  H2  UNL     1      37.907 -16.794  30.830  1.00  0.00     0.212 HD
ENDBRANCH  44  45
ENDBRANCH  38  40
ENDBRANCH  35  37
ENDBRANCH   1  35
TORSDOF 9
ENDMDL
MODEL 3
REMARK VINA RESULT: -9.149828272      7.001     10.419
REMARK  9 active torsions:
REMARK  status: ('A' for Active; 'I' for Inactive)
REMARK    1  A    between atoms: C2_2  and  N1_3 
REMARK    2  A    between atoms: C2_2  and  C8_13 
REMARK       I    between atoms: N1_3  and  C3_4 
REMARK    3  A    between atoms: C3_4  and  C4_6 
REMARK    4  A    between atoms: C7_10  and  O2_11 
REMARK    5  A    between atoms: C12_21  and  C13_22 
REMARK    6  A    between atoms: C16_25  and  O3_26 
REMARK    7  A    between atoms: O3_26  and  C17_27 
REMARK    8  A    between atoms: C17_27  and  C18_28 
REMARK    9  A    between atoms: C18_28  and  C19_29 
ROOT
HETATM    1  C8  UNL     1      38.647 -18.862  28.072  1.00  0.00     0.031 A 
HETATM    2  C9  UNL     1      39.593 -19.618  28.681  1.00  0.00     0.102 A 
HETATM    3  N3  UNL     1      39.709 -20.959  28.400  1.00  0.00    -0.363 N 
ATOM      4  H3  UNL     1      40.431 -21.505  28.870  1.00  0.00     0.165 HD
HETATM    5  C10 UNL     1      38.889 -21.570  27.513  1.00  0.00     0.065 A 
HETATM    6  C11 UNL     1      39.052 -22.960  27.158  1.00  0.00     0.103 A 
HETATM    7  N4  UNL     1      38.229 -23.606  26.276  1.00  0.00    -0.353 N 
ATOM      8  H4  UNL     1      37.428 -23.108  25.886  1.00  0.00     0.166 HD
HETATM    9  C12 UNL     1      38.445 -24.860  25.916  1.00  0.00     0.029 A 
HETATM   10  C26 UNL     1      39.538 -25.526  26.456  1.00  0.00     0.115 A 
HETATM   11  N5  UNL     1      40.386 -24.950  27.330  1.00  0.00    -0.349 N 
ATOM     12  H5  UNL     1      41.185 -25.454  27.715  1.00  0.00     0.167 HD
HETATM   13  C27 UNL     1      40.120 -23.653  27.671  1.00  0.00     0.128 A 
HETATM   14  N6  UNL     1      40.904 -23.031  28.531  1.00  0.00    -0.384 N 
ATOM     15  H61 UNL     1      41.698 -23.546  28.911  1.00  0.00     0.157 HD
ATOM     16  H62 UNL     1      40.706 -22.064  28.786  1.00  0.00     0.157 HD
HETATM   17  C28 UNL     1      37.922 -20.816  26.891  1.00  0.00     0.074 A 
HETATM   18  C29 UNL     1      37.788 -19.450  27.162  1.00  0.00     0.129 A 
HETATM   19  F1  UNL     1      36.865 -18.662  26.593  1.00  0.00    -0.205 F 
ENDROOT
BRANCH   9  20
HETATM   20  C13 UNL     1      37.559 -25.636  25.006  1.00  0.00     0.037 C 
HETATM   21  C14 UNL     1      38.364 -26.042  23.776  1.00  0.00     0.013 C 
HETATM   22  C15 UNL     1      37.841 -27.292  23.173  1.00  0.00     0.032 C 
HETATM   23  C16 UNL     1      36.296 -27.355  23.252  1.00  0.00     0.121 C 
HETATM   24  C24 UNL     1      35.879 -27.370  24.712  1.00  0.00     0.032 C 
HETATM   25  C25 UNL     1      37.009 -26.897  25.609  1.00  0.00     0.013 C 
BRANCH  23  26
HETATM   26  O3  UNL     1      35.836 -26.262  22.676  1.00  0.00    -0.386 OA
BRANCH  26  27
HETATM   27  C17 UNL     1      34.700 -25.609  22.888  1.00  0.00     0.168 C 
BRANCH  27  28
HETATM   28  C18 UNL     1      34.478 -24.218  22.436  1.00  0.00     0.031 C 
BRANCH  28  29
HETATM   29  C19 UNL     1      35.227 -23.165  23.126  1.00  0.00    -0.009 C 
HETATM   30  C20 UNL     1      34.572 -21.773  23.076  1.00  0.00     0.031 C 
HETATM   31  C21 UNL     1      35.420 -20.929  24.045  1.00  0.00     0.168 C 
HETATM   32  O4  UNL     1      36.677 -20.768  23.473  1.00  0.00    -0.391 OA
HETATM   33  C22 UNL     1      37.348 -21.985  23.350  1.00  0.00     0.168 C 
HETATM   34  C23 UNL     1      36.593 -22.908  22.417  1.00  0.00     0.031 C 
ENDBRANCH  28  29
ENDBRANCH  27  28
ENDBRANCH  26  27
ENDBRANCH  23  26
ENDBRANCH   9  20
BRANCH   1  35
HETATM   35  C2  UNL     1      38.514 -17.357  28.370  1.00  0.00     0.200 C 
HETATM   36  C1  UNL     1      37.541 -17.231  29.549  1.00  0.00     0.053 C 
BRANCH  35  37
HETATM   37  N1  UNL     1      38.306 -16.528  27.407  1.00  0.00    -0.405 NA
HETATM   38  C3  UNL     1      37.910 -15.559  26.372  1.00  0.00     0.297 C 
HETATM   39  O1  UNL     1      36.839 -15.005  26.362  1.00  0.00    -0.257 OA
BRANCH  38  40
HETATM   40  C4  UNL     1      38.885 -15.260  25.275  1.00  0.00     0.180 C 
HETATM   41  C5  UNL     1      40.243 -15.833  25.544  1.00  0.00     0.295 C 
HETATM   42  N2  UNL     1      40.084 -16.742  24.449  1.00  0.00     0.114 N 
HETATM   43  C6  UNL     1      39.931 -18.127  24.749  1.00  0.00     0.313 C 
HETATM   44  C7  UNL     1      38.859 -16.103  24.066  1.00  0.00     0.372 C 
BRANCH  44  45
HETATM   45  O2  UNL     1      38.975 -15.394  22.849  1.00  0.00    -0.367 OA
ATOM     46  H2  UNL     1      38.229 -15.480  22.266  1.00  0.00     0.212 HD
ENDBRANCH  44  45
ENDBRANCH  38  40
ENDBRANCH  35  37
ENDBRANCH   1  35
TORSDOF 9
ENDMDL
MODEL 4
REMARK VINA RESULT: -9.087208886      2.581     11.196
REMARK  9 active torsions:
REMARK  status: ('A' for Active; 'I' for Inactive)
REMARK    1  A    between atoms: C2_2  and  N1_3 
REMARK    2  A    between atoms: C2_2  and  C8_13 
REMARK       I    between atoms: N1_3  and  C3_4 
REMARK    3  A    between atoms: C3_4  and  C4_6 
REMARK    4  A    between atoms: C7_10  and  O2_11 
REMARK    5  A    between atoms: C12_21  and  C13_22 
REMARK    6  A    between atoms: C16_25  and  O3_26 
REMARK    7  A    between atoms: O3_26  and  C17_27 
REMARK    8  A    between atoms: C17_27  and  C18_28 
REMARK    9  A    between atoms: C18_28  and  C19_29 
ROOT
HETATM    1  C8  UNL     1      43.984 -22.086  30.523  1.00  0.00     0.031 A 
HETATM    2  C9  UNL     1      43.058 -23.071  30.420  1.00  0.00     0.102 A 
HETATM    3  N3  UNL     1      41.949 -22.912  29.624  1.00  0.00    -0.363 N 
ATOM      4  H3  UNL     1      41.268 -23.669  29.562  1.00  0.00     0.165 HD
HETATM    5  C10 UNL     1      41.740 -21.775  28.921  1.00  0.00     0.065 A 
HETATM    6  C11 UNL     1      40.615 -21.629  28.027  1.00  0.00     0.103 A 
HETATM    7  N4  UNL     1      40.372 -20.485  27.314  1.00  0.00    -0.353 N 
ATOM      8  H4  UNL     1      40.975 -19.674  27.454  1.00  0.00     0.166 HD
HETATM    9  C12 UNL     1      39.375 -20.405  26.449  1.00  0.00     0.029 A 
HETATM   10  C26 UNL     1      38.562 -21.517  26.270  1.00  0.00     0.115 A 
HETATM   11  N5  UNL     1      38.745 -22.672  26.939  1.00  0.00    -0.349 N 
ATOM     12  H5  UNL     1      38.138 -23.479  26.794  1.00  0.00     0.167 HD
HETATM   13  C27 UNL     1      39.788 -22.705  27.823  1.00  0.00     0.128 A 
HETATM   14  N6  UNL     1      40.017 -23.801  28.520  1.00  0.00    -0.384 N 
ATOM     15  H61 UNL     1      39.402 -24.600  28.368  1.00  0.00     0.157 HD
ATOM     16  H62 UNL     1      40.795 -23.825  29.179  1.00  0.00     0.157 HD
HETATM   17  C28 UNL     1      42.668 -20.766  29.019  1.00  0.00     0.074 A 
HETATM   18  C29 UNL     1      43.805 -20.908  29.823  1.00  0.00     0.129 A 
HETATM   19  F1  UNL     1      44.744 -19.962  29.964  1.00  0.00    -0.205 F 
ENDROOT
BRANCH   9  20
HETATM   20  C13 UNL     1      39.024 -19.177  25.685  1.00  0.00     0.037 C 
HETATM   21  C14 UNL     1      40.022 -19.015  24.544  1.00  0.00     0.013 C 
HETATM   22  C15 UNL     1      39.425 -18.283  23.400  1.00  0.00     0.032 C 
HETATM   23  C16 UNL     1      38.476 -17.159  23.882  1.00  0.00     0.121 C 
HETATM   24  C24 UNL     1      37.323 -17.784  24.646  1.00  0.00     0.032 C 
HETATM   25  C25 UNL     1      37.654 -19.204  25.072  1.00  0.00     0.013 C 
BRANCH  23  26
HETATM   26  O3  UNL     1      39.172 -16.388  24.692  1.00  0.00    -0.386 OA
BRANCH  26  27
HETATM   27  C17 UNL     1      38.750 -15.495  25.579  1.00  0.00     0.168 C 
BRANCH  27  28
HETATM   28  C18 UNL     1      39.108 -15.557  27.014  1.00  0.00     0.031 C 
BRANCH  28  29
HETATM   29  C19 UNL     1      38.003 -15.615  27.974  1.00  0.00    -0.009 C 
HETATM   30  C20 UNL     1      37.384 -17.013  28.156  1.00  0.00     0.031 C 
HETATM   31  C21 UNL     1      36.430 -16.843  29.352  1.00  0.00     0.168 C 
HETATM   32  O4  UNL     1      35.383 -16.025  28.943  1.00  0.00    -0.391 OA
HETATM   33  C22 UNL     1      35.825 -14.739  28.629  1.00  0.00     0.168 C 
HETATM   34  C23 UNL     1      36.785 -14.785  27.459  1.00  0.00     0.031 C 
ENDBRANCH  28  29
ENDBRANCH  27  28
ENDBRANCH  26  27
ENDBRANCH  23  26
ENDBRANCH   9  20
BRANCH   1  35
HETATM   35  C2  UNL     1      45.237 -22.257  31.403  1.00  0.00     0.200 C 
HETATM   36  C1  UNL     1      44.879 -21.693  32.784  1.00  0.00     0.053 C 
BRANCH  35  37
HETATM   37  N1  UNL     1      46.389 -21.899  30.955  1.00  0.00    -0.405 NA
HETATM   38  C3  UNL     1      47.673 -21.586  30.306  1.00  0.00     0.297 C 
HETATM   39  O1  UNL     1      47.972 -21.989  29.209  1.00  0.00    -0.257 OA
BRANCH  38  40
HETATM   40  C4  UNL     1      48.654 -20.736  31.052  1.00  0.00     0.180 C 
HETATM   41  C5  UNL     1      49.444 -21.520  32.056  1.00  0.00     0.295 C 
HETATM   42  N2  UNL     1      50.635 -21.312  31.289  1.00  0.00     0.114 N 
HETATM   43  C6  UNL     1      51.206 -22.437  30.625  1.00  0.00     0.313 C 
HETATM   44  C7  UNL     1      49.940 -20.421  30.407  1.00  0.00     0.372 C 
BRANCH  44  45
HETATM   45  O2  UNL     1      50.361 -19.079  30.550  1.00  0.00    -0.367 OA
ATOM     46  H2  UNL     1      50.606 -18.650  29.738  1.00  0.00     0.212 HD
ENDBRANCH  44  45
ENDBRANCH  38  40
ENDBRANCH  35  37
ENDBRANCH   1  35
TORSDOF 9
ENDMDL
MODEL 5
REMARK VINA RESULT: -9.045337919      2.821     11.838
REMARK  9 active torsions:
REMARK  status: ('A' for Active; 'I' for Inactive)
REMARK    1  A    between atoms: C2_2  and  N1_3 
REMARK    2  A    between atoms: C2_2  and  C8_13 
REMARK       I    between atoms: N1_3  and  C3_4 
REMARK    3  A    between atoms: C3_4  and  C4_6 
REMARK    4  A    between atoms: C7_10  and  O2_11 
REMARK    5  A    between atoms: C12_21  and  C13_22 
REMARK    6  A    between atoms: C16_25  and  O3_26 
REMARK    7  A    between atoms: O3_26  and  C17_27 
REMARK    8  A    between atoms: C17_27  and  C18_28 
REMARK    9  A    between atoms: C18_28  and  C19_29 
ROOT
HETATM    1  C8  UNL     1      47.164 -21.291  28.721  1.00  0.00     0.031 A 
HETATM    2  C9  UNL     1      46.722 -21.811  29.892  1.00  0.00     0.102 A 
HETATM    3  N3  UNL     1      45.387 -21.769  30.219  1.00  0.00    -0.363 N 
ATOM      4  H3  UNL     1      45.079 -22.169  31.105  1.00  0.00     0.165 HD
HETATM    5  C10 UNL     1      44.473 -21.211  29.391  1.00  0.00     0.065 A 
HETATM    6  C11 UNL     1      43.061 -21.229  29.694  1.00  0.00     0.103 A 
HETATM    7  N4  UNL     1      42.116 -20.660  28.883  1.00  0.00    -0.353 N 
ATOM      8  H4  UNL     1      42.417 -20.151  28.051  1.00  0.00     0.166 HD
HETATM    9  C12 UNL     1      40.825 -20.754  29.150  1.00  0.00     0.029 A 
HETATM   10  C26 UNL     1      40.431 -21.449  30.286  1.00  0.00     0.115 A 
HETATM   11  N5  UNL     1      41.308 -22.031  31.127  1.00  0.00    -0.349 N 
ATOM     12  H5  UNL     1      41.001 -22.538  31.957  1.00  0.00     0.167 HD
HETATM   13  C27 UNL     1      42.632 -21.906  30.809  1.00  0.00     0.128 A 
HETATM   14  N6  UNL     1      43.545 -22.442  31.595  1.00  0.00    -0.384 N 
ATOM     15  H61 UNL     1      43.226 -22.945  32.423  1.00  0.00     0.157 HD
ATOM     16  H62 UNL     1      44.532 -22.348  31.358  1.00  0.00     0.157 HD
HETATM   17  C28 UNL     1      44.908 -20.677  28.202  1.00  0.00     0.074 A 
HETATM   18  C29 UNL     1      46.262 -20.710  27.850  1.00  0.00     0.129 A 
HETATM   19  F1  UNL     1      46.750 -20.204  26.708  1.00  0.00    -0.205 F 
ENDROOT
BRANCH   9  20
HETATM   20  C13 UNL     1      39.752 -20.113  28.340  1.00  0.00     0.037 C 
HETATM   21  C14 UNL     1      40.385 -19.507  27.092  1.00  0.00     0.013 C 
HETATM   22  C15 UNL     1      39.420 -19.450  25.967  1.00  0.00     0.032 C 
HETATM   23  C16 UNL     1      37.993 -19.110  26.462  1.00  0.00     0.121 C 
HETATM   24  C24 UNL     1      37.518 -20.218  27.386  1.00  0.00     0.032 C 
HETATM   25  C25 UNL     1      38.683 -21.059  27.877  1.00  0.00     0.013 C 
BRANCH  23  26
HETATM   26  O3  UNL     1      38.079 -17.982  27.138  1.00  0.00    -0.386 OA
BRANCH  26  27
HETATM   27  C17 UNL     1      37.299 -17.516  28.106  1.00  0.00     0.168 C 
BRANCH  27  28
HETATM   28  C18 UNL     1      37.684 -16.376  28.968  1.00  0.00     0.031 C 
BRANCH  28  29
HETATM   29  C19 UNL     1      36.945 -15.124  28.786  1.00  0.00    -0.009 C 
HETATM   30  C20 UNL     1      35.421 -15.249  28.959  1.00  0.00     0.031 C 
HETATM   31  C21 UNL     1      34.926 -13.792  28.946  1.00  0.00     0.168 C 
HETATM   32  O4  UNL     1      35.112 -13.295  27.661  1.00  0.00    -0.391 OA
HETATM   33  C22 UNL     1      36.465 -13.235  27.323  1.00  0.00     0.168 C 
HETATM   34  C23 UNL     1      37.065 -14.625  27.312  1.00  0.00     0.031 C 
ENDBRANCH  28  29
ENDBRANCH  27  28
ENDBRANCH  26  27
ENDBRANCH  23  26
ENDBRANCH   9  20
BRANCH   1  35
HETATM   35  C2  UNL     1      48.655 -21.342  28.338  1.00  0.00     0.200 C 
HETATM   36  C1  UNL     1      48.890 -22.710  27.684  1.00  0.00     0.053 C 
BRANCH  35  37
HETATM   37  N1  UNL     1      49.550 -20.992  29.193  1.00  0.00    -0.405 NA
HETATM   38  C3  UNL     1      50.690 -20.633  30.053  1.00  0.00     0.297 C 
HETATM   39  O1  UNL     1      51.838 -20.689  29.684  1.00  0.00    -0.257 OA
BRANCH  38  40
HETATM   40  C4  UNL     1      50.407 -20.190  31.455  1.00  0.00     0.180 C 
HETATM   41  C5  UNL     1      50.214 -21.343  32.392  1.00  0.00     0.295 C 
HETATM   42  N2  UNL     1      51.421 -20.995  33.079  1.00  0.00     0.114 N 
HETATM   43  C6  UNL     1      52.540 -21.869  32.945  1.00  0.00     0.313 C 
HETATM   44  C7  UNL     1      51.541 -19.793  32.307  1.00  0.00     0.372 C 
BRANCH  44  45
HETATM   45  O2  UNL     1      51.322 -18.629  33.079  1.00  0.00    -0.367 OA
ATOM     46  H2  UNL     1      50.883 -17.923  32.619  1.00  0.00     0.212 HD
ENDBRANCH  44  45
ENDBRANCH  38  40
ENDBRANCH  35  37
ENDBRANCH   1  35
TORSDOF 9
ENDMDL
