MODEL 1
REMARK VINA RESULT: -8.259568754      0.000      0.000
REMARK  5 active torsions:
REMARK  status: ('A' for Active; 'I' for Inactive)
REMARK    1  A    between atoms: C3_3  and  N1_4 
REMARK    2  A    between atoms: N1_4  and  C4_6 
REMARK    3  A    between atoms: C4_6  and  C5_7 
REMARK    4  A    between atoms: C10_17  and  O1_18 
REMARK    5  A    between atoms: O1_18  and  C11_19 
ROOT
HETATM    1  C1  UNL     1      -3.530  -0.265  10.952  1.00  0.00     0.095 A 
HETATM    2  C2  UNL     1      -4.065  -0.543  12.166  1.00  0.00     0.065 A 
HETATM    3  C3  UNL     1      -3.986   0.385  13.157  1.00  0.00     0.105 A 
HETATM    4  N3  UNL     1      -3.376   1.559  12.908  1.00  0.00    -0.308 N 
ATOM      5  H3  UNL     1      -3.321   2.249  13.657  1.00  0.00     0.171 HD
HETATM    6  C10 UNL     1      -2.831   1.865  11.700  1.00  0.00     0.225 A 
HETATM    7  N4  UNL     1      -2.942   0.911  10.766  1.00  0.00    -0.332 N 
ATOM      8  H4  UNL     1      -2.547   1.102   9.845  1.00  0.00     0.168 HD
ENDROOT
BRANCH   6   9
HETATM    9  O1  UNL     1      -2.250   3.073  11.572  1.00  0.00    -0.310 OA
BRANCH   9  10
HETATM   10  C11 UNL     1      -2.561   4.332  12.041  1.00  0.00     0.072 C 
HETATM   11  C12 UNL     1      -2.285   4.409  13.502  1.00  0.00     0.043 C 
HETATM   12  C13 UNL     1      -2.350   5.767  14.114  1.00  0.00    -0.011 C 
HETATM   13  C14 UNL     1      -3.683   6.178  14.627  1.00  0.00     0.005 C 
HETATM   14  C19 UNL     1      -1.794   6.867  13.235  1.00  0.00     0.009 C 
HETATM   15  C15 UNL     1      -4.852   5.856  13.800  1.00  0.00     0.005 C 
HETATM   16  C16 UNL     1      -4.607   5.790  12.319  1.00  0.00    -0.011 C 
HETATM   17  C17 UNL     1      -3.824   6.974  11.796  1.00  0.00     0.009 C 
HETATM   18  C21 UNL     1      -4.080   4.472  11.862  1.00  0.00     0.043 C 
HETATM   19  C18 UNL     1      -2.353   6.768  11.842  1.00  0.00    -0.011 C 
HETATM   20  C20 UNL     1      -1.904   5.451  11.266  1.00  0.00     0.043 C 
ENDBRANCH   9  10
ENDBRANCH   6   9
BRANCH   3  21
HETATM   21  N1  UNL     1      -4.490   0.132  14.315  1.00  0.00    -0.376 N 
ATOM     22  H1  UNL     1      -5.266  -0.524  14.400  1.00  0.00     0.161 HD
BRANCH  21  23
HETATM   23  C4  UNL     1      -3.964   0.766  15.476  1.00  0.00     0.126 C 
BRANCH  23  24
HETATM   24  C5  UNL     1      -4.971   1.571  16.240  1.00  0.00     0.006 C 
HETATM   25  C6  UNL     1      -5.645   2.621  15.413  1.00  0.00     0.034 C 
HETATM   26  C7  UNL     1      -6.439   3.520  16.336  1.00  0.00     0.232 C 
HETATM   27  N2  UNL     1      -7.211   2.804  17.303  1.00  0.00    -0.075 N 
HETATM   28  C8  UNL     1      -7.353   1.398  16.978  1.00  0.00     0.232 C 
ATOM     29  H22 UNL     1      -6.827   2.926  18.240  1.00  0.00     0.277 HD
ATOM     30  H21 UNL     1      -8.123   3.240  17.439  1.00  0.00     0.277 HD
HETATM   31  C9  UNL     1      -6.008   0.710  16.890  1.00  0.00     0.034 C 
ENDBRANCH  23  24
ENDBRANCH  21  23
ENDBRANCH   3  21
TORSDOF 5
ENDMDL
MODEL 2
REMARK VINA RESULT: -8.027599014      0.458      1.735
REMARK  5 active torsions:
REMARK  status: ('A' for Active; 'I' for Inactive)
REMARK    1  A    between atoms: C3_3  and  N1_4 
REMARK    2  A    between atoms: N1_4  and  C4_6 
REMARK    3  A    between atoms: C4_6  and  C5_7 
REMARK    4  A    between atoms: C10_17  and  O1_18 
REMARK    5  A    between atoms: O1_18  and  C11_19 
ROOT
HETATM    1  C1  UNL     1      -3.811   0.063  10.930  1.00  0.00     0.095 A 
HETATM    2  C2  UNL     1      -4.276  -0.275  12.157  1.00  0.00     0.065 A 
HETATM    3  C3  UNL     1      -4.000   0.528  13.219  1.00  0.00     0.105 A 
HETATM    4  N3  UNL     1      -3.270   1.642  13.026  1.00  0.00    -0.308 N 
ATOM      5  H3  UNL     1      -3.067   2.238  13.828  1.00  0.00     0.171 HD
HETATM    6  C10 UNL     1      -2.790   2.006  11.806  1.00  0.00     0.225 A 
HETATM    7  N4  UNL     1      -3.096   1.175  10.801  1.00  0.00    -0.332 N 
ATOM      8  H4  UNL     1      -2.756   1.414   9.869  1.00  0.00     0.168 HD
ENDROOT
BRANCH   6   9
HETATM    9  O1  UNL     1      -2.073   3.144  11.739  1.00  0.00    -0.310 OA
BRANCH   9  10
HETATM   10  C11 UNL     1      -2.292   4.433  12.178  1.00  0.00     0.072 C 
HETATM   11  C12 UNL     1      -3.706   4.821  11.919  1.00  0.00     0.043 C 
HETATM   12  C13 UNL     1      -4.164   6.096  12.541  1.00  0.00    -0.011 C 
HETATM   13  C14 UNL     1      -3.969   7.319  11.721  1.00  0.00     0.005 C 
HETATM   14  C19 UNL     1      -3.613   6.336  13.931  1.00  0.00     0.009 C 
HETATM   15  C15 UNL     1      -2.698   7.450  10.996  1.00  0.00     0.005 C 
HETATM   16  C16 UNL     1      -1.514   6.773  11.626  1.00  0.00    -0.011 C 
HETATM   17  C17 UNL     1      -1.381   7.069  13.103  1.00  0.00     0.009 C 
HETATM   18  C21 UNL     1      -1.410   5.324  11.291  1.00  0.00     0.043 C 
HETATM   19  C18 UNL     1      -2.126   6.110  13.961  1.00  0.00    -0.011 C 
HETATM   20  C20 UNL     1      -1.880   4.666  13.614  1.00  0.00     0.043 C 
ENDBRANCH   9  10
ENDBRANCH   6   9
BRANCH   3  21
HETATM   21  N1  UNL     1      -4.437   0.216  14.390  1.00  0.00    -0.376 N 
ATOM     22  H1  UNL     1      -5.137  -0.518  14.494  1.00  0.00     0.161 HD
BRANCH  21  23
HETATM   23  C4  UNL     1      -3.943   0.896  15.539  1.00  0.00     0.126 C 
BRANCH  23  24
HETATM   24  C5  UNL     1      -4.987   1.671  16.284  1.00  0.00     0.006 C 
HETATM   25  C6  UNL     1      -5.653   2.723  15.454  1.00  0.00     0.034 C 
HETATM   26  C7  UNL     1      -6.490   3.594  16.366  1.00  0.00     0.232 C 
HETATM   27  N2  UNL     1      -7.279   2.849  17.297  1.00  0.00    -0.075 N 
HETATM   28  C8  UNL     1      -7.387   1.447  16.946  1.00  0.00     0.232 C 
ATOM     29  H22 UNL     1      -6.926   2.962  18.247  1.00  0.00     0.277 HD
ATOM     30  H21 UNL     1      -8.202   3.268  17.411  1.00  0.00     0.277 HD
HETATM   31  C9  UNL     1      -6.028   0.782  16.888  1.00  0.00     0.034 C 
ENDBRANCH  23  24
ENDBRANCH  21  23
ENDBRANCH   3  21
TORSDOF 5
ENDMDL
MODEL 3
REMARK VINA RESULT: -7.995088032      2.209      5.409
REMARK  5 active torsions:
REMARK  status: ('A' for Active; 'I' for Inactive)
REMARK    1  A    between atoms: C3_3  and  N1_4 
REMARK    2  A    between atoms: N1_4  and  C4_6 
REMARK    3  A    between atoms: C4_6  and  C5_7 
REMARK    4  A    between atoms: C10_17  and  O1_18 
REMARK    5  A    between atoms: O1_18  and  C11_19 
ROOT
HETATM    1  C1  UNL     1      -4.000  -0.707  11.853  1.00  0.00     0.095 A 
HETATM    2  C2  UNL     1      -3.018  -0.302  11.012  1.00  0.00     0.065 A 
HETATM    3  C3  UNL     1      -2.438   0.914  11.199  1.00  0.00     0.105 A 
HETATM    4  N3  UNL     1      -2.856   1.688  12.219  1.00  0.00    -0.308 N 
ATOM      5  H3  UNL     1      -2.417   2.599  12.352  1.00  0.00     0.171 HD
HETATM    6  C10 UNL     1      -3.840   1.307  13.078  1.00  0.00     0.225 A 
HETATM    7  N4  UNL     1      -4.369   0.100  12.842  1.00  0.00    -0.332 N 
ATOM      8  H4  UNL     1      -5.109  -0.223  13.465  1.00  0.00     0.168 HD
ENDROOT
BRANCH   6   9
HETATM    9  O1  UNL     1      -4.169   2.168  14.060  1.00  0.00    -0.310 OA
BRANCH   9  10
HETATM   10  C11 UNL     1      -4.436   3.521  14.088  1.00  0.00     0.072 C 
HETATM   11  C12 UNL     1      -4.464   4.059  12.700  1.00  0.00     0.043 C 
HETATM   12  C13 UNL     1      -4.966   5.454  12.544  1.00  0.00    -0.011 C 
HETATM   13  C14 UNL     1      -3.938   6.522  12.640  1.00  0.00     0.005 C 
HETATM   14  C19 UNL     1      -6.127   5.797  13.454  1.00  0.00     0.009 C 
HETATM   15  C15 UNL     1      -2.918   6.385  13.688  1.00  0.00     0.005 C 
HETATM   16  C16 UNL     1      -3.346   5.643  14.923  1.00  0.00    -0.011 C 
HETATM   17  C17 UNL     1      -4.682   6.109  15.459  1.00  0.00     0.009 C 
HETATM   18  C21 UNL     1      -3.233   4.162  14.795  1.00  0.00     0.043 C 
HETATM   19  C18 UNL     1      -5.835   5.379  14.869  1.00  0.00    -0.011 C 
HETATM   20  C20 UNL     1      -5.675   3.881  14.876  1.00  0.00     0.043 C 
ENDBRANCH   9  10
ENDBRANCH   6   9
BRANCH   3  21
HETATM   21  N1  UNL     1      -1.505   1.309  10.406  1.00  0.00    -0.376 N 
ATOM     22  H1  UNL     1      -0.861   0.631   9.999  1.00  0.00     0.161 HD
BRANCH  21  23
HETATM   23  C4  UNL     1      -1.370   2.693  10.097  1.00  0.00     0.126 C 
BRANCH  23  24
HETATM   24  C5  UNL     1      -0.199   3.354  10.758  1.00  0.00     0.006 C 
HETATM   25  C6  UNL     1       0.796   3.910   9.789  1.00  0.00     0.034 C 
HETATM   26  C7  UNL     1       2.035   4.318  10.556  1.00  0.00     0.232 C 
HETATM   27  N2  UNL     1       1.749   5.054  11.748  1.00  0.00    -0.075 N 
HETATM   28  C8  UNL     1       0.389   5.555  11.786  1.00  0.00     0.232 C 
ATOM     29  H22 UNL     1       1.958   4.500  12.578  1.00  0.00     0.277 HD
ATOM     30  H21 UNL     1       2.420   5.811  11.880  1.00  0.00     0.277 HD
HETATM   31  C9  UNL     1      -0.620   4.429  11.709  1.00  0.00     0.034 C 
ENDBRANCH  23  24
ENDBRANCH  21  23
ENDBRANCH   3  21
TORSDOF 5
ENDMDL
MODEL 4
REMARK VINA RESULT: -7.921604418      1.577      4.338
REMARK  5 active torsions:
REMARK  status: ('A' for Active; 'I' for Inactive)
REMARK    1  A    between atoms: C3_3  and  N1_4 
REMARK    2  A    between atoms: N1_4  and  C4_6 
REMARK    3  A    between atoms: C4_6  and  C5_7 
REMARK    4  A    between atoms: C10_17  and  O1_18 
REMARK    5  A    between atoms: O1_18  and  C11_19 
ROOT
HETATM    1  C1  UNL     1      -7.160   2.133  17.218  1.00  0.00     0.095 A 
HETATM    2  C2  UNL     1      -6.466   1.052  16.787  1.00  0.00     0.065 A 
HETATM    3  C3  UNL     1      -5.426   1.227  15.929  1.00  0.00     0.105 A 
HETATM    4  N3  UNL     1      -5.111   2.472  15.527  1.00  0.00    -0.308 N 
ATOM      5  H3  UNL     1      -4.329   2.594  14.883  1.00  0.00     0.171 HD
HETATM    6  C10 UNL     1      -5.790   3.576  15.944  1.00  0.00     0.225 A 
HETATM    7  N4  UNL     1      -6.802   3.338  16.788  1.00  0.00    -0.332 N 
ATOM      8  H4  UNL     1      -7.335   4.139  17.125  1.00  0.00     0.168 HD
ENDROOT
BRANCH   6   9
HETATM    9  O1  UNL     1      -5.378   4.768  15.474  1.00  0.00    -0.310 OA
BRANCH   9  10
HETATM   10  C11 UNL     1      -4.336   5.161  14.661  1.00  0.00     0.072 C 
HETATM   11  C12 UNL     1      -3.970   6.574  14.956  1.00  0.00     0.043 C 
HETATM   12  C13 UNL     1      -2.715   7.075  14.327  1.00  0.00    -0.011 C 
HETATM   13  C14 UNL     1      -2.870   7.689  12.983  1.00  0.00     0.005 C 
HETATM   14  C19 UNL     1      -1.597   6.054  14.283  1.00  0.00     0.009 C 
HETATM   15  C15 UNL     1      -3.768   7.018  12.035  1.00  0.00     0.005 C 
HETATM   16  C16 UNL     1      -3.898   5.530  12.198  1.00  0.00    -0.011 C 
HETATM   17  C17 UNL     1      -2.564   4.832  12.339  1.00  0.00     0.009 C 
HETATM   18  C21 UNL     1      -4.898   5.132  13.231  1.00  0.00     0.043 C 
HETATM   19  C18 UNL     1      -2.098   4.740  13.748  1.00  0.00    -0.011 C 
HETATM   20  C20 UNL     1      -3.145   4.232  14.703  1.00  0.00     0.043 C 
ENDBRANCH   9  10
ENDBRANCH   6   9
BRANCH   3  21
HETATM   21  N1  UNL     1      -4.760   0.207  15.512  1.00  0.00    -0.376 N 
ATOM     22  H1  UNL     1      -4.898  -0.704  15.948  1.00  0.00     0.161 HD
BRANCH  21  23
HETATM   23  C4  UNL     1      -3.831   0.351  14.443  1.00  0.00     0.126 C 
BRANCH  23  24
HETATM   24  C5  UNL     1      -4.465   0.386  13.085  1.00  0.00     0.006 C 
HETATM   25  C6  UNL     1      -4.245   1.677  12.359  1.00  0.00     0.034 C 
HETATM   26  C7  UNL     1      -5.130   1.691  11.130  1.00  0.00     0.232 C 
HETATM   27  N2  UNL     1      -5.093   0.469  10.389  1.00  0.00    -0.075 N 
HETATM   28  C8  UNL     1      -3.975  -0.377  10.756  1.00  0.00     0.232 C 
ATOM     29  H22 UNL     1      -5.976  -0.035  10.474  1.00  0.00     0.277 HD
ATOM     30  H21 UNL     1      -5.101   0.650   9.386  1.00  0.00     0.277 HD
HETATM   31  C9  UNL     1      -4.017  -0.751  12.222  1.00  0.00     0.034 C 
ENDBRANCH  23  24
ENDBRANCH  21  23
ENDBRANCH   3  21
TORSDOF 5
ENDMDL
MODEL 5
REMARK VINA RESULT: -7.831363390      1.301      1.981
REMARK  5 active torsions:
REMARK  status: ('A' for Active; 'I' for Inactive)
REMARK    1  A    between atoms: C3_3  and  N1_4 
REMARK    2  A    between atoms: N1_4  and  C4_6 
REMARK    3  A    between atoms: C4_6  and  C5_7 
REMARK    4  A    between atoms: C10_17  and  O1_18 
REMARK    5  A    between atoms: O1_18  and  C11_19 
ROOT
HETATM    1  C1  UNL     1      -4.525   0.088  10.880  1.00  0.00     0.095 A 
HETATM    2  C2  UNL     1      -4.285  -0.130  12.196  1.00  0.00     0.065 A 
HETATM    3  C3  UNL     1      -4.277   0.924  13.056  1.00  0.00     0.105 A 
HETATM    4  N3  UNL     1      -4.509   2.160  12.578  1.00  0.00    -0.308 N 
ATOM      5  H3  UNL     1      -4.501   2.945  13.230  1.00  0.00     0.171 HD
HETATM    6  C10 UNL     1      -4.752   2.409  11.262  1.00  0.00     0.225 A 
HETATM    7  N4  UNL     1      -4.747   1.331  10.468  1.00  0.00    -0.332 N 
ATOM      8  H4  UNL     1      -4.927   1.474   9.474  1.00  0.00     0.168 HD
ENDROOT
BRANCH   6   9
HETATM    9  O1  UNL     1      -4.971   3.688  10.906  1.00  0.00    -0.310 OA
BRANCH   9  10
HETATM   10  C11 UNL     1      -4.177   4.815  10.874  1.00  0.00     0.072 C 
HETATM   11  C12 UNL     1      -2.741   4.422  10.884  1.00  0.00     0.043 C 
HETATM   12  C13 UNL     1      -1.757   5.511  10.622  1.00  0.00    -0.011 C 
HETATM   13  C14 UNL     1      -1.277   6.246  11.819  1.00  0.00     0.005 C 
HETATM   14  C19 UNL     1      -2.206   6.506   9.572  1.00  0.00     0.009 C 
HETATM   15  C15 UNL     1      -2.272   6.596  12.841  1.00  0.00     0.005 C 
HETATM   16  C16 UNL     1      -3.673   6.812  12.341  1.00  0.00    -0.011 C 
HETATM   17  C17 UNL     1      -3.736   7.710  11.126  1.00  0.00     0.009 C 
HETATM   18  C21 UNL     1      -4.452   5.548  12.196  1.00  0.00     0.043 C 
HETATM   19  C18 UNL     1      -3.611   6.968   9.844  1.00  0.00    -0.011 C 
HETATM   20  C20 UNL     1      -4.511   5.765   9.746  1.00  0.00     0.043 C 
ENDBRANCH   9  10
ENDBRANCH   6   9
BRANCH   3  21
HETATM   21  N1  UNL     1      -4.050   0.728  14.308  1.00  0.00    -0.376 N 
ATOM     22  H1  UNL     1      -4.060  -0.219  14.686  1.00  0.00     0.161 HD
BRANCH  21  23
HETATM   23  C4  UNL     1      -3.785   1.834  15.165  1.00  0.00     0.126 C 
BRANCH  23  24
HETATM   24  C5  UNL     1      -4.854   2.083  16.186  1.00  0.00     0.006 C 
HETATM   25  C6  UNL     1      -5.941   2.990  15.700  1.00  0.00     0.034 C 
HETATM   26  C7  UNL     1      -6.813   3.367  16.879  1.00  0.00     0.232 C 
HETATM   27  N2  UNL     1      -7.162   2.254  17.706  1.00  0.00    -0.075 N 
HETATM   28  C8  UNL     1      -6.917   0.978  17.064  1.00  0.00     0.232 C 
ATOM     29  H22 UNL     1      -6.688   2.307  18.608  1.00  0.00     0.277 HD
ATOM     30  H21 UNL     1      -8.129   2.324  18.022  1.00  0.00     0.277 HD
HETATM   31  C9  UNL     1      -5.458   0.813  16.695  1.00  0.00     0.034 C 
ENDBRANCH  23  24
ENDBRANCH  21  23
ENDBRANCH   3  21
TORSDOF 5
ENDMDL
