MODEL 1
REMARK VINA RESULT: -6.682193552      0.000      0.000
REMARK  4 active torsions:
REMARK  status: ('A' for Active; 'I' for Inactive)
REMARK    1  A    between atoms: O1_2  and  C2_3 
REMARK    2  A    between atoms: C6_7  and  O2_8 
REMARK    3  A    between atoms: C8_10  and  O3_11 
REMARK    4  A    between atoms: C15_18  and  O4_19 
ROOT
HETATM    1  C2  UNL     1     -27.610  -9.332  -0.145  1.00  0.00     0.104 A 
HETATM    2  C3  UNL     1     -27.486  -8.051   0.339  1.00  0.00     0.048 A 
HETATM    3  C4  UNL     1     -28.534  -7.150   0.253  1.00  0.00    -0.041 A 
HETATM    4  C5  UNL     1     -29.693  -7.647  -0.351  1.00  0.00    -0.015 A 
HETATM    5  C6  UNL     1     -29.822  -8.923  -0.833  1.00  0.00     0.111 A 
HETATM    6  C8  UNL     1     -28.753  -9.803  -0.733  1.00  0.00     0.135 A 
HETATM    7  C10 UNL     1     -30.931  -6.897  -0.613  1.00  0.00     0.042 C 
HETATM    8  C11 UNL     1     -31.272  -6.107   0.630  1.00  0.00     0.005 C 
HETATM    9  C12 UNL     1     -30.443  -4.811   0.527  1.00  0.00     0.010 C 
HETATM   10  C13 UNL     1     -29.196  -4.935   1.299  1.00  0.00     0.030 C 
HETATM   11  C14 UNL     1     -28.528  -3.653   1.647  1.00  0.00    -0.010 A 
HETATM   12  C15 UNL     1     -28.786  -2.437   1.118  1.00  0.00     0.096 A 
HETATM   13  C16 UNL     1     -28.055  -1.336   1.570  1.00  0.00     0.091 A 
HETATM   14 CL1  UNL     1     -28.370   0.257   0.896  1.00  0.00    -0.079 Cl
HETATM   15  C17 UNL     1     -27.081  -1.464   2.538  1.00  0.00     0.080 A 
HETATM   16 CL2  UNL     1     -26.191  -0.067   3.076  1.00  0.00    -0.081 Cl
HETATM   17  C18 UNL     1     -26.825  -2.696   3.071  1.00  0.00     0.064 A 
HETATM   18 CL3  UNL     1     -25.604  -2.926   4.303  1.00  0.00    -0.082 Cl
HETATM   19  C19 UNL     1     -27.540  -3.782   2.631  1.00  0.00    -0.025 A 
HETATM   20  C20 UNL     1     -27.349  -5.172   3.127  1.00  0.00     0.042 C 
HETATM   21  C21 UNL     1     -27.186  -6.146   1.977  1.00  0.00     0.015 C 
HETATM   22  C22 UNL     1     -28.151  -5.869   0.839  1.00  0.00     0.028 C 
ENDROOT
BRANCH   1  23
HETATM   23  O1  UNL     1     -26.545 -10.251  -0.061  1.00  0.00    -0.353 OA
HETATM   24  C1  UNL     1     -25.719 -10.194   1.062  1.00  0.00     0.210 C 
ENDBRANCH   1  23
BRANCH   6  25
HETATM   25  O3  UNL     1     -28.848 -11.099  -1.208  1.00  0.00    -0.351 OA
HETATM   26  C9  UNL     1     -28.597 -11.373  -2.585  1.00  0.00     0.210 C 
ENDBRANCH   6  25
BRANCH   5  27
HETATM   27  O2  UNL     1     -30.989  -9.398  -1.426  1.00  0.00    -0.352 OA
HETATM   28  C7  UNL     1     -31.947 -10.197  -0.749  1.00  0.00     0.210 C 
ENDBRANCH   5  27
BRANCH  12  29
HETATM   29  O4  UNL     1     -29.746  -2.304   0.158  1.00  0.00    -0.358 OA
ATOM     30  H4  UNL     1     -30.491  -1.736   0.310  1.00  0.00     0.217 HD
ENDBRANCH  12  29
TORSDOF 4
ENDMDL
MODEL 2
REMARK VINA RESULT: -6.528715741      1.868      3.868
REMARK  4 active torsions:
REMARK  status: ('A' for Active; 'I' for Inactive)
REMARK    1  A    between atoms: O1_2  and  C2_3 
REMARK    2  A    between atoms: C6_7  and  O2_8 
REMARK    3  A    between atoms: C8_10  and  O3_11 
REMARK    4  A    between atoms: C15_18  and  O4_19 
ROOT
HETATM    1  C2  UNL     1     -31.426  -7.478  -0.886  1.00  0.00     0.104 A 
HETATM    2  C3  UNL     1     -30.866  -6.521  -0.070  1.00  0.00     0.048 A 
HETATM    3  C4  UNL     1     -29.508  -6.520   0.202  1.00  0.00    -0.041 A 
HETATM    4  C5  UNL     1     -28.782  -7.547  -0.409  1.00  0.00    -0.015 A 
HETATM    5  C6  UNL     1     -29.334  -8.501  -1.222  1.00  0.00     0.111 A 
HETATM    6  C8  UNL     1     -30.698  -8.476  -1.477  1.00  0.00     0.135 A 
HETATM    7  C10 UNL     1     -27.343  -7.808  -0.253  1.00  0.00     0.042 C 
HETATM    8  C11 UNL     1     -26.612  -6.492  -0.372  1.00  0.00     0.005 C 
HETATM    9  C12 UNL     1     -26.669  -5.866   1.036  1.00  0.00     0.010 C 
HETATM   10  C13 UNL     1     -27.781  -4.908   1.129  1.00  0.00     0.030 C 
HETATM   11  C14 UNL     1     -27.694  -3.931   2.246  1.00  0.00    -0.010 A 
HETATM   12  C15 UNL     1     -26.869  -3.995   3.315  1.00  0.00     0.096 A 
HETATM   13  C16 UNL     1     -26.926  -2.980   4.272  1.00  0.00     0.091 A 
HETATM   14 CL1  UNL     1     -25.863  -3.042   5.672  1.00  0.00    -0.079 Cl
HETATM   15  C17 UNL     1     -27.800  -1.921   4.151  1.00  0.00     0.080 A 
HETATM   16 CL2  UNL     1     -27.840  -0.674   5.366  1.00  0.00    -0.081 Cl
HETATM   17  C18 UNL     1     -28.631  -1.860   3.068  1.00  0.00     0.064 A 
HETATM   18 CL3  UNL     1     -29.762  -0.542   2.854  1.00  0.00    -0.082 Cl
HETATM   19  C19 UNL     1     -28.581  -2.855   2.124  1.00  0.00    -0.025 A 
HETATM   20  C20 UNL     1     -29.437  -2.904   0.907  1.00  0.00     0.042 C 
HETATM   21  C21 UNL     1     -30.107  -4.256   0.764  1.00  0.00     0.015 C 
HETATM   22  C22 UNL     1     -29.170  -5.406   1.083  1.00  0.00     0.028 C 
ENDROOT
BRANCH   1  23
HETATM   23  O1  UNL     1     -32.806  -7.483  -1.165  1.00  0.00    -0.353 OA
HETATM   24  C1  UNL     1     -33.318  -6.453  -1.955  1.00  0.00     0.210 C 
ENDBRANCH   1  23
BRANCH   6  25
HETATM   25  O3  UNL     1     -31.290  -9.423  -2.294  1.00  0.00    -0.351 OA
HETATM   26  C9  UNL     1     -31.341  -9.216  -3.703  1.00  0.00     0.210 C 
ENDBRANCH   6  25
BRANCH   5  27
HETATM   27  O2  UNL     1     -28.588  -9.512  -1.823  1.00  0.00    -0.352 OA
HETATM   28  C7  UNL     1     -28.593 -10.861  -1.382  1.00  0.00     0.210 C 
ENDBRANCH   5  27
BRANCH  12  29
HETATM   29  O4  UNL     1     -26.004  -5.042   3.441  1.00  0.00    -0.358 OA
ATOM     30  H4  UNL     1     -25.190  -4.928   3.916  1.00  0.00     0.217 HD
ENDBRANCH  12  29
TORSDOF 4
ENDMDL
MODEL 3
REMARK VINA RESULT: -6.191352787      5.732      8.981
REMARK  4 active torsions:
REMARK  status: ('A' for Active; 'I' for Inactive)
REMARK    1  A    between atoms: O1_2  and  C2_3 
REMARK    2  A    between atoms: C6_7  and  O2_8 
REMARK    3  A    between atoms: C8_10  and  O3_11 
REMARK    4  A    between atoms: C15_18  and  O4_19 
ROOT
HETATM    1  C2  UNL     1     -27.401  -9.849   0.767  1.00  0.00     0.104 A 
HETATM    2  C3  UNL     1     -28.397 -10.617   0.209  1.00  0.00     0.048 A 
HETATM    3  C4  UNL     1     -29.406 -10.040  -0.544  1.00  0.00    -0.041 A 
HETATM    4  C5  UNL     1     -29.321  -8.651  -0.681  1.00  0.00    -0.015 A 
HETATM    5  C6  UNL     1     -28.331  -7.882  -0.128  1.00  0.00     0.111 A 
HETATM    6  C8  UNL     1     -27.333  -8.489   0.622  1.00  0.00     0.135 A 
HETATM    7  C10 UNL     1     -30.280  -7.784  -1.383  1.00  0.00     0.042 C 
HETATM    8  C11 UNL     1     -30.617  -8.433  -2.705  1.00  0.00     0.005 C 
HETATM    9  C12 UNL     1     -31.736  -9.444  -2.388  1.00  0.00     0.010 C 
HETATM   10  C13 UNL     1     -31.174 -10.791  -2.201  1.00  0.00     0.030 C 
HETATM   11  C14 UNL     1     -32.143 -11.913  -2.326  1.00  0.00    -0.010 A 
HETATM   12  C15 UNL     1     -33.491 -11.821  -2.322  1.00  0.00     0.096 A 
HETATM   13  C16 UNL     1     -34.246 -12.989  -2.451  1.00  0.00     0.091 A 
HETATM   14 CL1  UNL     1     -36.003 -12.897  -2.449  1.00  0.00    -0.079 Cl
HETATM   15  C17 UNL     1     -33.649 -14.225  -2.580  1.00  0.00     0.080 A 
HETATM   16 CL2  UNL     1     -34.625 -15.659  -2.738  1.00  0.00    -0.081 Cl
HETATM   17  C18 UNL     1     -32.286 -14.312  -2.583  1.00  0.00     0.064 A 
HETATM   18 CL3  UNL     1     -31.466 -15.849  -2.744  1.00  0.00    -0.082 Cl
HETATM   19  C19 UNL     1     -31.537 -13.168  -2.457  1.00  0.00    -0.025 A 
HETATM   20  C20 UNL     1     -30.049 -13.134  -2.440  1.00  0.00     0.042 C 
HETATM   21  C21 UNL     1     -29.534 -12.336  -1.258  1.00  0.00     0.015 C 
HETATM   22  C22 UNL     1     -30.328 -11.065  -1.024  1.00  0.00     0.028 C 
ENDROOT
BRANCH   1  23
HETATM   23  O1  UNL     1     -26.373 -10.432   1.535  1.00  0.00    -0.353 OA
HETATM   24  C1  UNL     1     -25.289 -10.993   0.858  1.00  0.00     0.210 C 
ENDBRANCH   1  23
BRANCH   6  25
HETATM   25  O3  UNL     1     -26.317  -7.745   1.194  1.00  0.00    -0.351 OA
HETATM   26  C9  UNL     1     -25.161  -7.411   0.430  1.00  0.00     0.210 C 
ENDBRANCH   6  25
BRANCH   5  27
HETATM   27  O2  UNL     1     -28.265  -6.500  -0.282  1.00  0.00    -0.352 OA
HETATM   28  C7  UNL     1     -28.674  -5.577   0.716  1.00  0.00     0.210 C 
ENDBRANCH   5  27
BRANCH  12  29
HETATM   29  O4  UNL     1     -34.088 -10.602  -2.193  1.00  0.00    -0.358 OA
ATOM     30  H4  UNL     1     -34.091 -10.164  -1.350  1.00  0.00     0.217 HD
ENDBRANCH  12  29
TORSDOF 4
ENDMDL
MODEL 4
REMARK VINA RESULT: -6.149277268      3.891      6.877
REMARK  4 active torsions:
REMARK  status: ('A' for Active; 'I' for Inactive)
REMARK    1  A    between atoms: O1_2  and  C2_3 
REMARK    2  A    between atoms: C6_7  and  O2_8 
REMARK    3  A    between atoms: C8_10  and  O3_11 
REMARK    4  A    between atoms: C15_18  and  O4_19 
ROOT
HETATM    1  C2  UNL     1     -33.564 -12.973   0.045  1.00  0.00     0.104 A 
HETATM    2  C3  UNL     1     -32.554 -12.060   0.240  1.00  0.00     0.048 A 
HETATM    3  C4  UNL     1     -31.409 -12.085  -0.538  1.00  0.00    -0.041 A 
HETATM    4  C5  UNL     1     -31.374 -13.091  -1.508  1.00  0.00    -0.015 A 
HETATM    5  C6  UNL     1     -32.378 -14.002  -1.707  1.00  0.00     0.111 A 
HETATM    6  C8  UNL     1     -33.514 -13.952  -0.912  1.00  0.00     0.135 A 
HETATM    7  C10 UNL     1     -30.265 -13.374  -2.431  1.00  0.00     0.042 C 
HETATM    8  C11 UNL     1     -29.786 -12.061  -3.005  1.00  0.00     0.005 C 
HETATM    9  C12 UNL     1     -28.799 -11.498  -1.963  1.00  0.00     0.010 C 
HETATM   10  C13 UNL     1     -29.475 -10.534  -1.081  1.00  0.00     0.030 C 
HETATM   11  C14 UNL     1     -28.580  -9.608  -0.337  1.00  0.00    -0.010 A 
HETATM   12  C15 UNL     1     -27.243  -9.729  -0.178  1.00  0.00     0.096 A 
HETATM   13  C16 UNL     1     -26.562  -8.757   0.557  1.00  0.00     0.091 A 
HETATM   14 CL1  UNL     1     -24.822  -8.892   0.779  1.00  0.00    -0.079 Cl
HETATM   15  C17 UNL     1     -27.219  -7.684   1.121  1.00  0.00     0.080 A 
HETATM   16 CL2  UNL     1     -26.334  -6.492   2.030  1.00  0.00    -0.081 Cl
HETATM   17  C18 UNL     1     -28.570  -7.566   0.956  1.00  0.00     0.064 A 
HETATM   18 CL3  UNL     1     -29.464  -6.229   1.645  1.00  0.00    -0.082 Cl
HETATM   19  C19 UNL     1     -29.247  -8.519   0.235  1.00  0.00    -0.025 A 
HETATM   20  C20 UNL     1     -30.715  -8.505  -0.008  1.00  0.00     0.042 C 
HETATM   21  C21 UNL     1     -31.340  -9.843   0.337  1.00  0.00     0.015 C 
HETATM   22  C22 UNL     1     -30.501 -11.015  -0.135  1.00  0.00     0.028 C 
ENDROOT
BRANCH   1  23
HETATM   23  O1  UNL     1     -34.731 -12.952   0.834  1.00  0.00    -0.353 OA
HETATM   24  C1  UNL     1     -34.611 -12.569   2.170  1.00  0.00     0.210 C 
ENDBRANCH   1  23
BRANCH   6  25
HETATM   25  O3  UNL     1     -34.548 -14.855  -1.085  1.00  0.00    -0.351 OA
HETATM   26  C9  UNL     1     -35.599 -14.568  -2.004  1.00  0.00     0.210 C 
ENDBRANCH   6  25
BRANCH   5  27
HETATM   27  O2  UNL     1     -32.323 -14.993  -2.684  1.00  0.00    -0.352 OA
HETATM   28  C7  UNL     1     -32.071 -16.361  -2.403  1.00  0.00     0.210 C 
ENDBRANCH   5  27
BRANCH  12  29
HETATM   29  O4  UNL     1     -26.588 -10.789  -0.731  1.00  0.00    -0.358 OA
ATOM     30  H4  UNL     1     -27.083 -11.494  -1.133  1.00  0.00     0.217 HD
ENDBRANCH  12  29
TORSDOF 4
ENDMDL
MODEL 5
REMARK VINA RESULT: -6.125937835      5.124      8.597
REMARK  4 active torsions:
REMARK  status: ('A' for Active; 'I' for Inactive)
REMARK    1  A    between atoms: O1_2  and  C2_3 
REMARK    2  A    between atoms: C6_7  and  O2_8 
REMARK    3  A    between atoms: C8_10  and  O3_11 
REMARK    4  A    between atoms: C15_18  and  O4_19 
ROOT
HETATM    1  C2  UNL     1     -28.262  -7.202  -0.079  1.00  0.00     0.104 A 
HETATM    2  C3  UNL     1     -29.195  -7.582  -1.016  1.00  0.00     0.048 A 
HETATM    3  C4  UNL     1     -29.317  -8.905  -1.407  1.00  0.00    -0.041 A 
HETATM    4  C5  UNL     1     -28.434  -9.790  -0.781  1.00  0.00    -0.015 A 
HETATM    5  C6  UNL     1     -27.504  -9.417   0.153  1.00  0.00     0.111 A 
HETATM    6  C8  UNL     1     -27.405  -8.083   0.524  1.00  0.00     0.135 A 
HETATM    7  C10 UNL     1     -28.315 -11.233  -1.042  1.00  0.00     0.042 C 
HETATM    8  C11 UNL     1     -29.708 -11.816  -1.096  1.00  0.00     0.005 C 
HETATM    9  C12 UNL     1     -30.193 -11.577  -2.539  1.00  0.00     0.010 C 
HETATM   10  C13 UNL     1     -31.014 -10.358  -2.611  1.00  0.00     0.030 C 
HETATM   11  C14 UNL     1     -31.889 -10.244  -3.808  1.00  0.00    -0.010 A 
HETATM   12  C15 UNL     1     -31.817 -10.984  -4.936  1.00  0.00     0.096 A 
HETATM   13  C16 UNL     1     -32.729 -10.736  -5.964  1.00  0.00     0.091 A 
HETATM   14 CL1  UNL     1     -32.655 -11.684  -7.444  1.00  0.00    -0.079 Cl
HETATM   15  C17 UNL     1     -33.695  -9.758  -5.853  1.00  0.00     0.080 A 
HETATM   16 CL2  UNL     1     -34.815  -9.480  -7.157  1.00  0.00    -0.081 Cl
HETATM   17  C18 UNL     1     -33.765  -9.014  -4.710  1.00  0.00     0.064 A 
HETATM   18 CL3  UNL     1     -34.967  -7.759  -4.504  1.00  0.00    -0.082 Cl
HETATM   19  C19 UNL     1     -32.871  -9.252  -3.695  1.00  0.00    -0.025 A 
HETATM   20  C20 UNL     1     -32.841  -8.505  -2.408  1.00  0.00     0.042 C 
HETATM   21  C21 UNL     1     -31.443  -8.008  -2.096  1.00  0.00     0.015 C 
HETATM   22  C22 UNL     1     -30.376  -9.043  -2.402  1.00  0.00     0.028 C 
ENDROOT
BRANCH   1  23
HETATM   23  O1  UNL     1     -28.134  -5.858   0.321  1.00  0.00    -0.353 OA
HETATM   24  C1  UNL     1     -29.278  -5.195   0.766  1.00  0.00     0.210 C 
ENDBRANCH   1  23
BRANCH   6  25
HETATM   25  O3  UNL     1     -26.478  -7.671   1.465  1.00  0.00    -0.351 OA
HETATM   26  C9  UNL     1     -25.226  -7.134   1.044  1.00  0.00     0.210 C 
ENDBRANCH   6  25
BRANCH   5  27
HETATM   27  O2  UNL     1     -26.638 -10.319   0.766  1.00  0.00    -0.352 OA
HETATM   28  C7  UNL     1     -25.314 -10.568   0.316  1.00  0.00     0.210 C 
ENDBRANCH   5  27
BRANCH  12  29
HETATM   29  O4  UNL     1     -30.862 -11.950  -5.053  1.00  0.00    -0.358 OA
ATOM     30  H4  UNL     1     -31.013 -12.698  -5.619  1.00  0.00     0.217 HD
ENDBRANCH  12  29
TORSDOF 4
ENDMDL
