MODEL 1
REMARK VINA RESULT: -8.240292989      0.000      0.000
REMARK  8 active torsions:
REMARK  status: ('A' for Active; 'I' for Inactive)
REMARK    1  A    between atoms: C2_7  and  C3_8 
REMARK    2  A    between atoms: C3_8  and  O1_9 
REMARK    3  A    between atoms: O1_9  and  C4_10 
REMARK    4  A    between atoms: C8_18  and  N6_19 
REMARK    5  A    between atoms: C11_29  and  N9_30 
REMARK    6  A    between atoms: N9_30  and  C12_32 
REMARK    7  A    between atoms: C14_34  and  C15_35 
REMARK    8  A    between atoms: C15_35  and  O2_36 
ROOT
HETATM    1  C4  UNL     1      27.757  29.041  27.870  1.00  0.00     0.226 A 
HETATM    2  N4  UNL     1      29.064  28.810  27.872  1.00  0.00    -0.320 N 
ATOM      3  H4  UNL     1      29.612  29.025  27.038  1.00  0.00     0.169 HD
HETATM    4  C5  UNL     1      29.690  28.287  28.974  1.00  0.00     0.068 A 
HETATM    5  C6  UNL     1      31.116  28.071  28.898  1.00  0.00     0.052 A 
HETATM    6  C7  UNL     1      31.982  28.948  29.510  1.00  0.00     0.123 A 
HETATM    7  N5  UNL     1      33.330  28.846  29.337  1.00  0.00    -0.201 N 
ATOM      8  H5  UNL     1      33.953  29.509  29.800  1.00  0.00     0.183 HD
HETATM    9  C8  UNL     1      33.841  27.878  28.561  1.00  0.00     0.677 A 
HETATM   10  N7  UNL     1      33.012  27.015  27.956  1.00  0.00    -0.176 N 
ATOM     11  H7  UNL     1      33.405  26.281  27.365  1.00  0.00     0.186 HD
HETATM   12  C9  UNL     1      31.659  27.091  28.109  1.00  0.00     0.128 A 
HETATM   13  N8  UNL     1      30.895  26.235  27.505  1.00  0.00    -0.384 N 
ATOM     14  H81 UNL     1      31.300  25.506  26.918  1.00  0.00     0.157 HD
ATOM     15  H82 UNL     1      29.884  26.293  27.620  1.00  0.00     0.157 HD
HETATM   16  C10 UNL     1      28.960  27.988  30.093  1.00  0.00     0.080 A 
HETATM   17  C11 UNL     1      29.537  27.408  31.214  1.00  0.00     0.118 A 
HETATM   18  N10 UNL     1      28.742  27.097  32.281  1.00  0.00    -0.338 N 
ATOM     19  H10 UNL     1      29.143  26.670  33.116  1.00  0.00     0.168 HD
HETATM   20  C17 UNL     1      27.433  27.361  32.218  1.00  0.00     0.183 A 
HETATM   21  N11 UNL     1      26.859  27.914  31.152  1.00  0.00    -0.338 N 
ATOM     22  H11 UNL     1      25.855  28.092  31.158  1.00  0.00     0.168 HD
HETATM   23  C18 UNL     1      27.582  28.239  30.074  1.00  0.00     0.125 A 
HETATM   24  N12 UNL     1      27.030  28.754  28.970  1.00  0.00    -0.307 N 
ATOM     25  H12 UNL     1      26.025  28.936  28.959  1.00  0.00     0.171 HD
ENDROOT
BRANCH   1  26
HETATM   26  O1  UNL     1      27.107  29.562  26.783  1.00  0.00    -0.314 OA
BRANCH  26  27
HETATM   27  C3  UNL     1      26.013  30.425  26.848  1.00  0.00     0.258 C 
BRANCH  27  28
HETATM   28  C2  UNL     1      24.841  29.761  26.205  1.00  0.00     0.138 A 
HETATM   29  N3  UNL     1      24.667  28.460  25.969  1.00  0.00    -0.270 N 
HETATM   30  N2  UNL     1      23.477  28.341  25.385  1.00  0.00    -0.225 N 
ATOM     31  H3  UNL     1      25.318  27.706  26.191  1.00  0.00     0.190 HD
HETATM   32  N1  UNL     1      22.916  29.522  25.257  1.00  0.00    -0.223 N 
ATOM     33  H2  UNL     1      23.062  27.460  25.081  1.00  0.00     0.210 HD
HETATM   34  C1  UNL     1      21.634  29.875  24.688  1.00  0.00     0.202 C 
HETATM   35  N13 UNL     1      23.758  30.408  25.763  1.00  0.00    -0.269 N 
ATOM     36  H13 UNL     1      23.606  31.416  25.809  1.00  0.00     0.190 HD
ENDBRANCH  27  28
ENDBRANCH  26  27
ENDBRANCH   1  26
BRANCH  17  37
HETATM   37  N9  UNL     1      30.763  27.100  31.296  1.00  0.00    -0.371 N 
ATOM     38  H9  UNL     1      31.273  26.891  30.438  1.00  0.00     0.161 HD
BRANCH  37  39
HETATM   39  C12 UNL     1      31.456  27.034  32.525  1.00  0.00     0.084 C 
HETATM   40  C13 UNL     1      32.023  28.315  33.117  1.00  0.00     0.032 C 
HETATM   41  C14 UNL     1      33.105  27.390  33.718  1.00  0.00     0.013 C 
HETATM   42  C16 UNL     1      32.933  26.595  32.427  1.00  0.00     0.032 C 
BRANCH  41  43
HETATM   43  C15 UNL     1      34.426  28.009  33.971  1.00  0.00     0.168 C 
BRANCH  43  44
HETATM   44  O2  UNL     1      34.828  27.642  35.278  1.00  0.00    -0.400 OA
ATOM     45  H2  UNL     1      35.778  27.650  35.300  1.00  0.00     0.209 HD
ENDBRANCH  43  44
ENDBRANCH  41  43
ENDBRANCH  37  39
ENDBRANCH  17  37
BRANCH   9  46
HETATM   46  N6  UNL     1      35.141  27.775  28.389  1.00  0.00    -0.234 N 
ATOM     47  H62 UNL     1      35.727  28.610  28.402  1.00  0.00     0.174 HD
ATOM     48  H61 UNL     1      35.574  26.863  28.245  1.00  0.00     0.174 HD
ENDBRANCH   9  46
TORSDOF 8
ENDMDL
MODEL 2
REMARK VINA RESULT: -7.909379831      4.153     10.441
REMARK  8 active torsions:
REMARK  status: ('A' for Active; 'I' for Inactive)
REMARK    1  A    between atoms: C2_7  and  C3_8 
REMARK    2  A    between atoms: C3_8  and  O1_9 
REMARK    3  A    between atoms: O1_9  and  C4_10 
REMARK    4  A    between atoms: C8_18  and  N6_19 
REMARK    5  A    between atoms: C11_29  and  N9_30 
REMARK    6  A    between atoms: N9_30  and  C12_32 
REMARK    7  A    between atoms: C14_34  and  C15_35 
REMARK    8  A    between atoms: C15_35  and  O2_36 
ROOT
HETATM    1  C4  UNL     1      25.503  29.392  26.721  1.00  0.00     0.226 A 
HETATM    2  N4  UNL     1      25.427  30.715  26.643  1.00  0.00    -0.320 N 
ATOM      3  H4  UNL     1      26.163  31.284  27.062  1.00  0.00     0.169 HD
HETATM    4  C5  UNL     1      24.378  31.330  26.010  1.00  0.00     0.068 A 
HETATM    5  C6  UNL     1      24.373  32.773  25.963  1.00  0.00     0.052 A 
HETATM    6  C7  UNL     1      24.732  33.428  24.807  1.00  0.00     0.123 A 
HETATM    7  N5  UNL     1      24.870  34.784  24.777  1.00  0.00    -0.201 N 
ATOM      8  H5  UNL     1      25.138  35.249  23.909  1.00  0.00     0.183 HD
HETATM    9  C8  UNL     1      24.655  35.510  25.886  1.00  0.00     0.677 A 
HETATM   10  N7  UNL     1      24.305  34.888  27.021  1.00  0.00    -0.176 N 
ATOM     11  H7  UNL     1      24.144  35.443  27.862  1.00  0.00     0.186 HD
HETATM   12  C9  UNL     1      24.159  33.533  27.082  1.00  0.00     0.128 A 
HETATM   13  N8  UNL     1      23.820  32.974  28.202  1.00  0.00    -0.384 N 
ATOM     14  H81 UNL     1      23.661  33.540  29.035  1.00  0.00     0.157 HD
ATOM     15  H82 UNL     1      23.711  31.961  28.246  1.00  0.00     0.157 HD
HETATM   16  C10 UNL     1      23.383  30.572  25.452  1.00  0.00     0.080 A 
HETATM   17  C11 UNL     1      22.272  31.147  24.848  1.00  0.00     0.118 A 
HETATM   18  N10 UNL     1      21.296  30.333  24.349  1.00  0.00    -0.338 N 
ATOM     19  H10 UNL     1      20.471  30.731  23.900  1.00  0.00     0.168 HD
HETATM   20  C17 UNL     1      21.435  29.007  24.455  1.00  0.00     0.183 A 
HETATM   21  N11 UNL     1      22.489  28.436  25.033  1.00  0.00    -0.338 N 
ATOM     22  H11 UNL     1      22.543  27.419  25.087  1.00  0.00     0.168 HD
HETATM   23  C18 UNL     1      23.478  29.178  25.544  1.00  0.00     0.125 A 
HETATM   24  N12 UNL     1      24.528  28.637  26.170  1.00  0.00    -0.307 N 
ATOM     25  H12 UNL     1      24.596  27.621  26.234  1.00  0.00     0.171 HD
ENDROOT
BRANCH   1  26
HETATM   26  O1  UNL     1      26.540  28.753  27.347  1.00  0.00    -0.314 OA
BRANCH  26  27
HETATM   27  C3  UNL     1      27.501  29.383  28.137  1.00  0.00     0.258 C 
BRANCH  27  28
HETATM   28  C2  UNL     1      27.277  28.999  29.562  1.00  0.00     0.138 A 
HETATM   29  N3  UNL     1      26.547  29.640  30.475  1.00  0.00    -0.270 N 
HETATM   30  N2  UNL     1      26.639  28.927  31.596  1.00  0.00    -0.225 N 
ATOM     31  H3  UNL     1      26.023  30.505  30.342  1.00  0.00     0.190 HD
HETATM   32  N1  UNL     1      27.399  27.873  31.400  1.00  0.00    -0.223 N 
ATOM     33  H2  UNL     1      26.186  29.166  32.478  1.00  0.00     0.210 HD
HETATM   34  C1  UNL     1      27.775  26.825  32.324  1.00  0.00     0.202 C 
HETATM   35  N13 UNL     1      27.799  27.912  30.140  1.00  0.00    -0.269 N 
ATOM     36  H13 UNL     1      28.404  27.227  29.685  1.00  0.00     0.190 HD
ENDBRANCH  27  28
ENDBRANCH  26  27
ENDBRANCH   1  26
BRANCH  17  37
HETATM   37  N9  UNL     1      22.081  32.397  24.769  1.00  0.00    -0.371 N 
ATOM     38  H9  UNL     1      22.802  32.975  24.336  1.00  0.00     0.161 HD
BRANCH  37  39
HETATM   39  C12 UNL     1      20.913  33.026  25.254  1.00  0.00     0.084 C 
HETATM   40  C13 UNL     1      20.951  34.517  25.547  1.00  0.00     0.032 C 
HETATM   41  C14 UNL     1      19.894  34.187  26.626  1.00  0.00     0.013 C 
HETATM   42  C16 UNL     1      20.667  32.879  26.771  1.00  0.00     0.032 C 
BRANCH  41  43
HETATM   43  C15 UNL     1      19.853  35.092  27.796  1.00  0.00     0.168 C 
BRANCH  43  44
HETATM   44  O2  UNL     1      18.513  35.520  27.961  1.00  0.00    -0.400 OA
ATOM     45  H2  UNL     1      18.226  35.243  28.823  1.00  0.00     0.209 HD
ENDBRANCH  43  44
ENDBRANCH  41  43
ENDBRANCH  37  39
ENDBRANCH  17  37
BRANCH   9  46
HETATM   46  N6  UNL     1      24.787  36.819  25.864  1.00  0.00    -0.234 N 
ATOM     47  H62 UNL     1      23.971  37.413  25.714  1.00  0.00     0.174 HD
ATOM     48  H61 UNL     1      25.701  37.250  25.998  1.00  0.00     0.174 HD
ENDBRANCH   9  46
TORSDOF 8
ENDMDL
MODEL 3
REMARK VINA RESULT: -7.809113884      3.018      8.757
REMARK  8 active torsions:
REMARK  status: ('A' for Active; 'I' for Inactive)
REMARK    1  A    between atoms: C2_7  and  C3_8 
REMARK    2  A    between atoms: C3_8  and  O1_9 
REMARK    3  A    between atoms: O1_9  and  C4_10 
REMARK    4  A    between atoms: C8_18  and  N6_19 
REMARK    5  A    between atoms: C11_29  and  N9_30 
REMARK    6  A    between atoms: N9_30  and  C12_32 
REMARK    7  A    between atoms: C14_34  and  C15_35 
REMARK    8  A    between atoms: C15_35  and  O2_36 
ROOT
HETATM    1  C4  UNL     1      31.474  27.681  32.283  1.00  0.00     0.226 A 
HETATM    2  N4  UNL     1      30.750  28.781  32.115  1.00  0.00    -0.320 N 
ATOM      3  H4  UNL     1      30.571  29.389  32.915  1.00  0.00     0.169 HD
HETATM    4  C5  UNL     1      30.239  29.114  30.887  1.00  0.00     0.068 A 
HETATM    5  C6  UNL     1      29.468  30.330  30.787  1.00  0.00     0.052 A 
HETATM    6  C7  UNL     1      30.030  31.463  30.243  1.00  0.00     0.123 A 
HETATM    7  N5  UNL     1      29.373  32.658  30.264  1.00  0.00    -0.201 N 
ATOM      8  H5  UNL     1      29.810  33.485  29.855  1.00  0.00     0.183 HD
HETATM    9  C8  UNL     1      28.155  32.750  30.820  1.00  0.00     0.677 A 
HETATM   10  N7  UNL     1      27.592  31.657  31.356  1.00  0.00    -0.176 N 
ATOM     11  H7  UNL     1      26.667  31.732  31.779  1.00  0.00     0.186 HD
HETATM   12  C9  UNL     1      28.225  30.448  31.350  1.00  0.00     0.128 A 
HETATM   13  N8  UNL     1      27.643  29.417  31.879  1.00  0.00    -0.384 N 
ATOM     14  H81 UNL     1      26.717  29.505  32.299  1.00  0.00     0.157 HD
ATOM     15  H82 UNL     1      28.116  28.514  31.875  1.00  0.00     0.157 HD
HETATM   16  C10 UNL     1      30.469  28.298  29.812  1.00  0.00     0.080 A 
HETATM   17  C11 UNL     1      29.929  28.563  28.560  1.00  0.00     0.118 A 
HETATM   18  N10 UNL     1      30.164  27.685  27.540  1.00  0.00    -0.338 N 
ATOM     19  H10 UNL     1      29.779  27.857  26.612  1.00  0.00     0.168 HD
HETATM   20  C17 UNL     1      30.906  26.597  27.774  1.00  0.00     0.183 A 
HETATM   21  N11 UNL     1      31.431  26.323  28.966  1.00  0.00    -0.338 N 
ATOM     22  H11 UNL     1      31.989  25.478  29.088  1.00  0.00     0.168 HD
HETATM   23  C18 UNL     1      31.235  27.142  30.006  1.00  0.00     0.125 A 
HETATM   24  N12 UNL     1      31.709  26.873  31.227  1.00  0.00    -0.307 N 
ATOM     25  H12 UNL     1      32.268  26.030  31.366  1.00  0.00     0.171 HD
ENDROOT
BRANCH   1  26
HETATM   26  O1  UNL     1      31.995  27.326  33.498  1.00  0.00    -0.314 OA
BRANCH  26  27
HETATM   27  C3  UNL     1      33.326  27.506  33.876  1.00  0.00     0.258 C 
BRANCH  27  28
HETATM   28  C2  UNL     1      33.491  28.894  34.400  1.00  0.00     0.138 A 
HETATM   29  N3  UNL     1      33.257  29.334  35.636  1.00  0.00    -0.270 N 
HETATM   30  N2  UNL     1      33.547  30.632  35.634  1.00  0.00    -0.225 N 
ATOM     31  H3  UNL     1      32.921  28.784  36.428  1.00  0.00     0.190 HD
HETATM   32  N1  UNL     1      33.952  31.003  34.440  1.00  0.00    -0.223 N 
ATOM     33  H2  UNL     1      33.467  31.250  36.441  1.00  0.00     0.210 HD
HETATM   34  C1  UNL     1      34.371  32.306  33.973  1.00  0.00     0.202 C 
HETATM   35  N13 UNL     1      33.919  29.928  33.668  1.00  0.00    -0.269 N 
ATOM     36  H13 UNL     1      34.177  29.895  32.681  1.00  0.00     0.190 HD
ENDBRANCH  27  28
ENDBRANCH  26  27
ENDBRANCH   1  26
BRANCH  17  37
HETATM   37  N9  UNL     1      29.184  29.556  28.310  1.00  0.00    -0.371 N 
ATOM     38  H9  UNL     1      29.387  30.446  28.765  1.00  0.00     0.161 HD
BRANCH  37  39
HETATM   39  C12 UNL     1      28.083  29.485  27.427  1.00  0.00     0.084 C 
HETATM   40  C13 UNL     1      27.253  30.735  27.188  1.00  0.00     0.032 C 
HETATM   41  C14 UNL     1      26.086  29.746  26.967  1.00  0.00     0.013 C 
HETATM   42  C16 UNL     1      26.786  28.913  28.037  1.00  0.00     0.032 C 
BRANCH  41  43
HETATM   43  C15 UNL     1      24.731  30.257  27.273  1.00  0.00     0.168 C 
BRANCH  43  44
HETATM   44  O2  UNL     1      23.959  30.162  26.089  1.00  0.00    -0.400 OA
ATOM     45  H2  UNL     1      24.101  30.956  25.589  1.00  0.00     0.209 HD
ENDBRANCH  43  44
ENDBRANCH  41  43
ENDBRANCH  37  39
ENDBRANCH  17  37
BRANCH   9  46
HETATM   46  N6  UNL     1      27.517  33.900  30.844  1.00  0.00    -0.234 N 
ATOM     47  H62 UNL     1      27.734  34.591  31.563  1.00  0.00     0.174 HD
ATOM     48  H61 UNL     1      26.803  34.112  30.147  1.00  0.00     0.174 HD
ENDBRANCH   9  46
TORSDOF 8
ENDMDL
MODEL 4
REMARK VINA RESULT: -7.726467856      3.030      9.126
REMARK  8 active torsions:
REMARK  status: ('A' for Active; 'I' for Inactive)
REMARK    1  A    between atoms: C2_7  and  C3_8 
REMARK    2  A    between atoms: C3_8  and  O1_9 
REMARK    3  A    between atoms: O1_9  and  C4_10 
REMARK    4  A    between atoms: C8_18  and  N6_19 
REMARK    5  A    between atoms: C11_29  and  N9_30 
REMARK    6  A    between atoms: N9_30  and  C12_32 
REMARK    7  A    between atoms: C14_34  and  C15_35 
REMARK    8  A    between atoms: C15_35  and  O2_36 
ROOT
HETATM    1  C4  UNL     1      31.572  27.633  32.196  1.00  0.00     0.226 A 
HETATM    2  N4  UNL     1      30.840  28.732  32.058  1.00  0.00    -0.320 N 
ATOM      3  H4  UNL     1      30.679  29.331  32.868  1.00  0.00     0.169 HD
HETATM    4  C5  UNL     1      30.296  29.075  30.847  1.00  0.00     0.068 A 
HETATM    5  C6  UNL     1      29.517  30.289  30.779  1.00  0.00     0.052 A 
HETATM    6  C7  UNL     1      30.060  31.429  30.233  1.00  0.00     0.123 A 
HETATM    7  N5  UNL     1      29.400  32.621  30.283  1.00  0.00    -0.201 N 
ATOM      8  H5  UNL     1      29.822  33.454  29.872  1.00  0.00     0.183 HD
HETATM    9  C8  UNL     1      28.196  32.702  30.871  1.00  0.00     0.677 A 
HETATM   10  N7  UNL     1      27.651  31.601  31.410  1.00  0.00    -0.176 N 
ATOM     11  H7  UNL     1      26.737  31.667  31.857  1.00  0.00     0.186 HD
HETATM   12  C9  UNL     1      28.289  30.395  31.375  1.00  0.00     0.128 A 
HETATM   13  N8  UNL     1      27.725  29.356  31.909  1.00  0.00    -0.384 N 
ATOM     14  H81 UNL     1      26.810  29.436  32.352  1.00  0.00     0.157 HD
ATOM     15  H82 UNL     1      28.201  28.455  31.883  1.00  0.00     0.157 HD
HETATM   16  C10 UNL     1      30.502  28.271  29.758  1.00  0.00     0.080 A 
HETATM   17  C11 UNL     1      29.929  28.546  28.523  1.00  0.00     0.118 A 
HETATM   18  N10 UNL     1      30.142  27.680  27.488  1.00  0.00    -0.338 N 
ATOM     19  H10 UNL     1      29.732  27.860  26.572  1.00  0.00     0.168 HD
HETATM   20  C17 UNL     1      30.894  26.593  27.692  1.00  0.00     0.183 A 
HETATM   21  N11 UNL     1      31.450  26.310  28.867  1.00  0.00    -0.338 N 
ATOM     22  H11 UNL     1      32.014  25.466  28.966  1.00  0.00     0.168 HD
HETATM   23  C18 UNL     1      31.278  27.116  29.921  1.00  0.00     0.125 A 
HETATM   24  N12 UNL     1      31.784  26.838  31.126  1.00  0.00    -0.307 N 
ATOM     25  H12 UNL     1      32.350  25.996  31.242  1.00  0.00     0.171 HD
ENDROOT
BRANCH   1  26
HETATM   26  O1  UNL     1      32.126  27.268  33.394  1.00  0.00    -0.314 OA
BRANCH  26  27
HETATM   27  C3  UNL     1      33.458  27.475  33.750  1.00  0.00     0.258 C 
BRANCH  27  28
HETATM   28  C2  UNL     1      34.143  26.152  33.838  1.00  0.00     0.138 A 
HETATM   29  N3  UNL     1      34.540  25.370  32.834  1.00  0.00    -0.270 N 
HETATM   30  N2  UNL     1      35.100  24.299  33.392  1.00  0.00    -0.225 N 
ATOM     31  H3  UNL     1      34.436  25.555  31.836  1.00  0.00     0.190 HD
HETATM   32  N1  UNL     1      35.060  24.398  34.701  1.00  0.00    -0.223 N 
ATOM     33  H2  UNL     1      35.501  23.515  32.877  1.00  0.00     0.210 HD
HETATM   34  C1  UNL     1      35.546  23.481  35.709  1.00  0.00     0.202 C 
HETATM   35  N13 UNL     1      34.466  25.545  34.986  1.00  0.00    -0.269 N 
ATOM     36  H13 UNL     1      34.285  25.907  35.923  1.00  0.00     0.190 HD
ENDBRANCH  27  28
ENDBRANCH  26  27
ENDBRANCH   1  26
BRANCH  17  37
HETATM   37  N9  UNL     1      29.173  29.538  28.302  1.00  0.00    -0.371 N 
ATOM     38  H9  UNL     1      29.368  30.417  28.782  1.00  0.00     0.161 HD
BRANCH  37  39
HETATM   39  C12 UNL     1      28.072  29.481  27.420  1.00  0.00     0.084 C 
HETATM   40  C13 UNL     1      27.232  30.731  27.213  1.00  0.00     0.032 C 
HETATM   41  C14 UNL     1      26.073  29.739  26.968  1.00  0.00     0.013 C 
HETATM   42  C16 UNL     1      26.780  28.885  28.016  1.00  0.00     0.032 C 
BRANCH  41  43
HETATM   43  C15 UNL     1      24.714  30.232  27.289  1.00  0.00     0.168 C 
BRANCH  43  44
HETATM   44  O2  UNL     1      23.934  30.136  26.111  1.00  0.00    -0.400 OA
ATOM     45  H2  UNL     1      23.075  30.493  26.304  1.00  0.00     0.209 HD
ENDBRANCH  43  44
ENDBRANCH  41  43
ENDBRANCH  37  39
ENDBRANCH  17  37
BRANCH   9  46
HETATM   46  N6  UNL     1      27.553  33.849  30.923  1.00  0.00    -0.234 N 
ATOM     47  H62 UNL     1      27.531  34.383  31.792  1.00  0.00     0.174 HD
ATOM     48  H61 UNL     1      27.075  34.213  30.100  1.00  0.00     0.174 HD
ENDBRANCH   9  46
TORSDOF 8
ENDMDL
MODEL 5
REMARK VINA RESULT: -7.531695102      2.781      4.228
REMARK  8 active torsions:
REMARK  status: ('A' for Active; 'I' for Inactive)
REMARK    1  A    between atoms: C2_7  and  C3_8 
REMARK    2  A    between atoms: C3_8  and  O1_9 
REMARK    3  A    between atoms: O1_9  and  C4_10 
REMARK    4  A    between atoms: C8_18  and  N6_19 
REMARK    5  A    between atoms: C11_29  and  N9_30 
REMARK    6  A    between atoms: N9_30  and  C12_32 
REMARK    7  A    between atoms: C14_34  and  C15_35 
REMARK    8  A    between atoms: C15_35  and  O2_36 
ROOT
HETATM    1  C4  UNL     1      25.530  29.633  28.004  1.00  0.00     0.226 A 
HETATM    2  N4  UNL     1      26.477  29.024  28.707  1.00  0.00    -0.320 N 
ATOM      3  H4  UNL     1      26.496  28.005  28.746  1.00  0.00     0.169 HD
HETATM    4  C5  UNL     1      27.432  29.742  29.382  1.00  0.00     0.068 A 
HETATM    5  C6  UNL     1      28.431  29.006  30.119  1.00  0.00     0.052 A 
HETATM    6  C7  UNL     1      29.700  28.858  29.605  1.00  0.00     0.123 A 
HETATM    7  N5  UNL     1      30.618  28.054  30.211  1.00  0.00    -0.201 N 
ATOM      8  H5  UNL     1      31.553  27.959  29.812  1.00  0.00     0.183 HD
HETATM    9  C8  UNL     1      30.298  27.386  31.331  1.00  0.00     0.677 A 
HETATM   10  N7  UNL     1      29.066  27.517  31.845  1.00  0.00    -0.176 N 
ATOM     11  H7  UNL     1      28.826  27.006  32.695  1.00  0.00     0.186 HD
HETATM   12  C9  UNL     1      28.125  28.314  31.261  1.00  0.00     0.128 A 
HETATM   13  N8  UNL     1      26.947  28.411  31.792  1.00  0.00    -0.384 N 
ATOM     14  H81 UNL     1      26.720  27.896  32.643  1.00  0.00     0.157 HD
ATOM     15  H82 UNL     1      26.244  29.007  31.356  1.00  0.00     0.157 HD
HETATM   16  C10 UNL     1      27.408  31.111  29.339  1.00  0.00     0.080 A 
HETATM   17  C11 UNL     1      28.318  31.883  30.049  1.00  0.00     0.118 A 
HETATM   18  N10 UNL     1      28.213  33.244  29.996  1.00  0.00    -0.338 N 
ATOM     19  H10 UNL     1      28.870  33.833  30.508  1.00  0.00     0.168 HD
HETATM   20  C17 UNL     1      27.238  33.795  29.264  1.00  0.00     0.183 A 
HETATM   21  N11 UNL     1      26.354  33.073  28.580  1.00  0.00    -0.338 N 
ATOM     22  H11 UNL     1      25.631  33.546  28.038  1.00  0.00     0.168 HD
HETATM   23  C18 UNL     1      26.402  31.736  28.592  1.00  0.00     0.125 A 
HETATM   24  N12 UNL     1      25.503  30.981  27.953  1.00  0.00    -0.307 N 
ATOM     25  H12 UNL     1      24.771  31.440  27.409  1.00  0.00     0.171 HD
ENDROOT
BRANCH   1  26
HETATM   26  O1  UNL     1      24.566  28.939  27.321  1.00  0.00    -0.314 OA
BRANCH  26  27
HETATM   27  C3  UNL     1      24.632  28.609  25.968  1.00  0.00     0.258 C 
BRANCH  27  28
HETATM   28  C2  UNL     1      23.398  29.109  25.292  1.00  0.00     0.138 A 
HETATM   29  N3  UNL     1      22.486  28.398  24.628  1.00  0.00    -0.270 N 
HETATM   30  N2  UNL     1      21.569  29.266  24.206  1.00  0.00    -0.225 N 
ATOM     31  H3  UNL     1      22.491  27.390  24.473  1.00  0.00     0.190 HD
HETATM   32  N1  UNL     1      21.887  30.482  24.589  1.00  0.00    -0.223 N 
ATOM     33  H2  UNL     1      20.741  29.022  23.663  1.00  0.00     0.210 HD
HETATM   34  C1  UNL     1      21.191  31.730  24.364  1.00  0.00     0.202 C 
HETATM   35  N13 UNL     1      23.022  30.392  25.264  1.00  0.00    -0.269 N 
ATOM     36  H13 UNL     1      23.525  31.171  25.690  1.00  0.00     0.190 HD
ENDBRANCH  27  28
ENDBRANCH  26  27
ENDBRANCH   1  26
BRANCH  17  37
HETATM   37  N9  UNL     1      29.226  31.401  30.790  1.00  0.00    -0.371 N 
ATOM     38  H9  UNL     1      29.326  30.387  30.842  1.00  0.00     0.161 HD
BRANCH  37  39
HETATM   39  C12 UNL     1      30.106  32.206  31.546  1.00  0.00     0.084 C 
HETATM   40  C13 UNL     1      31.504  32.467  31.010  1.00  0.00     0.032 C 
HETATM   41  C14 UNL     1      31.905  32.554  32.500  1.00  0.00     0.013 C 
HETATM   42  C16 UNL     1      30.838  31.481  32.696  1.00  0.00     0.032 C 
BRANCH  41  43
HETATM   43  C15 UNL     1      33.305  32.194  32.820  1.00  0.00     0.168 C 
BRANCH  43  44
HETATM   44  O2  UNL     1      33.634  32.807  34.054  1.00  0.00    -0.400 OA
ATOM     45  H2  UNL     1      33.382  33.721  33.997  1.00  0.00     0.209 HD
ENDBRANCH  43  44
ENDBRANCH  41  43
ENDBRANCH  37  39
ENDBRANCH  17  37
BRANCH   9  46
HETATM   46  N6  UNL     1      31.179  26.607  31.920  1.00  0.00    -0.234 N 
ATOM     47  H62 UNL     1      31.577  25.813  31.418  1.00  0.00     0.174 HD
ATOM     48  H61 UNL     1      31.473  26.789  32.879  1.00  0.00     0.174 HD
ENDBRANCH   9  46
TORSDOF 8
ENDMDL
