MODEL 1
REMARK VINA RESULT: -6.534064670      0.000      0.000
REMARK  12 active torsions:
REMARK  status: ('A' for Active; 'I' for Inactive)
REMARK    1  A    between atoms: C3_4  and  C4_5 
REMARK    2  A    between atoms: C4_5  and  O2_6 
REMARK    3  A    between atoms: C6_10  and  O3_11 
REMARK    4  A    between atoms: O3_11  and  C7_12 
REMARK    5  A    between atoms: C8_14  and  C9_15 
REMARK    6  A    between atoms: C9_15  and  O5_16 
REMARK    7  A    between atoms: C10_18  and  O6_19 
REMARK    8  A    between atoms: O6_19  and  N1_20 
REMARK    9  A    between atoms: N1_20  and  C11_22 
REMARK   10  A    between atoms: C11_22  and  N2_24 
REMARK   11  A    between atoms: N2_24  and  C12_26 
REMARK   12  A    between atoms: C13_30  and  O8_31 
ROOT
HETATM    1  C7  UNL     1      29.667  28.920  29.269  1.00  0.00     0.316 C 
HETATM    2  O4  UNL     1      28.897  29.626  30.129  1.00  0.00    -0.344 OA
HETATM    3  C8  UNL     1      27.588  29.781  29.854  1.00  0.00     0.206 C 
HETATM    4  C10 UNL     1      26.932  28.711  29.056  1.00  0.00     0.323 C 
HETATM    5  O7  UNL     1      27.781  27.663  28.711  1.00  0.00    -0.322 OA
HETATM    6  C13 UNL     1      28.924  28.209  28.175  1.00  0.00     0.315 C 
ENDROOT
BRANCH   1   7
HETATM    7  O3  UNL     1      30.386  27.963  29.985  1.00  0.00    -0.348 OA
BRANCH   7   8
HETATM    8  C6  UNL     1      31.689  28.328  30.231  1.00  0.00     0.163 C 
HETATM    9  C2  UNL     1      32.354  29.038  29.094  1.00  0.00     0.148 C 
HETATM   10  C1  UNL     1      32.860  30.388  29.560  1.00  0.00     0.042 C 
HETATM   11  O1  UNL     1      33.304  28.307  28.436  1.00  0.00    -0.366 OA
HETATM   12  C3  UNL     1      34.547  28.292  29.061  1.00  0.00     0.206 C 
HETATM   13  S1  UNL     1      34.227  27.648  30.751  1.00  0.00    -0.133 SA
HETATM   14  C5  UNL     1      32.478  27.091  30.671  1.00  0.00     0.111 C 
BRANCH  12  15
HETATM   15  C4  UNL     1      35.369  27.207  28.361  1.00  0.00     0.207 C 
BRANCH  15  16
HETATM   16  O2  UNL     1      34.449  26.532  27.526  1.00  0.00    -0.398 OA
ATOM     17  H2  UNL     1      34.782  25.645  27.459  1.00  0.00     0.209 HD
ENDBRANCH  15  16
ENDBRANCH  12  15
ENDBRANCH   7   8
ENDBRANCH   1   7
BRANCH   6  18
HETATM   18  O8  UNL     1      28.700  29.003  27.067  1.00  0.00    -0.367 OA
ATOM     19  H8  UNL     1      27.983  28.694  26.526  1.00  0.00     0.212 HD
ENDBRANCH   6  18
BRANCH   3  20
HETATM   20  C9  UNL     1      26.847  29.964  31.184  1.00  0.00     0.201 C 
BRANCH  20  21
HETATM   21  O5  UNL     1      27.113  31.230  31.706  1.00  0.00    -0.398 OA
ATOM     22  H5  UNL     1      26.476  31.443  32.379  1.00  0.00     0.209 HD
ENDBRANCH  20  21
ENDBRANCH   3  20
BRANCH   4  23
HETATM   23  O6  UNL     1      26.350  29.165  27.885  1.00  0.00    -0.243 OA
BRANCH  23  24
HETATM   24  N1  UNL     1      25.024  29.454  28.046  1.00  0.00    -0.238 N 
ATOM     25  H1  UNL     1      24.462  28.967  28.745  1.00  0.00     0.197 HD
BRANCH  24  26
HETATM   26  C11 UNL     1      24.457  30.441  27.225  1.00  0.00     0.197 C 
HETATM   27  S2  UNL     1      24.612  32.035  27.747  1.00  0.00    -0.039 SA
BRANCH  26  28
HETATM   28  N2  UNL     1      23.791  30.183  26.035  1.00  0.00    -0.311 N 
ATOM     29  H2  UNL     1      23.485  31.012  25.525  1.00  0.00     0.170 HD
BRANCH  28  30
HETATM   30  C12 UNL     1      23.480  28.989  25.439  1.00  0.00     0.187 C 
HETATM   31  N3  UNL     1      24.351  27.883  25.362  1.00  0.00    -0.070 NA
HETATM   32  S3  UNL     1      21.952  28.841  24.752  1.00  0.00    -0.044 SA
ENDBRANCH  28  30
ENDBRANCH  26  28
ENDBRANCH  24  26
ENDBRANCH  23  24
ENDBRANCH   4  23
TORSDOF 12
ENDMDL
MODEL 2
REMARK VINA RESULT: -6.531620659      2.402      2.933
REMARK  12 active torsions:
REMARK  status: ('A' for Active; 'I' for Inactive)
REMARK    1  A    between atoms: C3_4  and  C4_5 
REMARK    2  A    between atoms: C4_5  and  O2_6 
REMARK    3  A    between atoms: C6_10  and  O3_11 
REMARK    4  A    between atoms: O3_11  and  C7_12 
REMARK    5  A    between atoms: C8_14  and  C9_15 
REMARK    6  A    between atoms: C9_15  and  O5_16 
REMARK    7  A    between atoms: C10_18  and  O6_19 
REMARK    8  A    between atoms: O6_19  and  N1_20 
REMARK    9  A    between atoms: N1_20  and  C11_22 
REMARK   10  A    between atoms: C11_22  and  N2_24 
REMARK   11  A    between atoms: N2_24  and  C12_26 
REMARK   12  A    between atoms: C13_30  and  O8_31 
ROOT
HETATM    1  C7  UNL     1      28.353  30.662  28.353  1.00  0.00     0.316 C 
HETATM    2  O4  UNL     1      28.176  31.996  28.482  1.00  0.00    -0.344 OA
HETATM    3  C8  UNL     1      27.134  32.577  27.857  1.00  0.00     0.206 C 
HETATM    4  C10 UNL     1      25.928  31.738  27.625  1.00  0.00     0.323 C 
HETATM    5  O7  UNL     1      26.042  30.440  28.116  1.00  0.00    -0.322 OA
HETATM    6  C13 UNL     1      27.238  29.927  27.669  1.00  0.00     0.315 C 
ENDROOT
BRANCH   1   7
HETATM    7  O3  UNL     1      28.515  30.102  29.621  1.00  0.00    -0.348 OA
BRANCH   7   8
HETATM    8  C6  UNL     1      29.692  29.402  29.764  1.00  0.00     0.163 C 
HETATM    9  C2  UNL     1      30.622  29.518  28.597  1.00  0.00     0.148 C 
HETATM   10  C1  UNL     1      31.960  30.053  29.062  1.00  0.00     0.042 C 
HETATM   11  O1  UNL     1      30.731  28.388  27.834  1.00  0.00    -0.366 OA
HETATM   12  C3  UNL     1      31.605  27.435  28.346  1.00  0.00     0.206 C 
HETATM   13  S1  UNL     1      30.982  27.071  30.036  1.00  0.00    -0.133 SA
HETATM   14  C5  UNL     1      29.366  27.942  30.091  1.00  0.00     0.111 C 
BRANCH  12  15
HETATM   15  C4  UNL     1      31.369  26.155  27.542  1.00  0.00     0.207 C 
BRANCH  15  16
HETATM   16  O2  UNL     1      31.330  26.574  26.191  1.00  0.00    -0.398 OA
ATOM     17  H2  UNL     1      30.406  26.610  25.972  1.00  0.00     0.209 HD
ENDBRANCH  15  16
ENDBRANCH  12  15
ENDBRANCH   7   8
ENDBRANCH   1   7
BRANCH   6  18
HETATM   18  O8  UNL     1      27.363  29.911  26.293  1.00  0.00    -0.367 OA
ATOM     19  H8  UNL     1      26.669  29.426  25.862  1.00  0.00     0.212 HD
ENDBRANCH   6  18
BRANCH   3  20
HETATM   20  C9  UNL     1      26.747  33.831  28.652  1.00  0.00     0.201 C 
BRANCH  20  21
HETATM   21  O5  UNL     1      25.369  34.034  28.579  1.00  0.00    -0.398 OA
ATOM     22  H5  UNL     1      25.171  34.956  28.694  1.00  0.00     0.209 HD
ENDBRANCH  20  21
ENDBRANCH   3  20
BRANCH   4  23
HETATM   23  O6  UNL     1      25.564  31.638  26.293  1.00  0.00    -0.243 OA
BRANCH  23  24
HETATM   24  N1  UNL     1      24.366  32.244  26.039  1.00  0.00    -0.238 N 
ATOM     25  H1  UNL     1      24.235  33.241  26.211  1.00  0.00     0.197 HD
BRANCH  24  26
HETATM   26  C11 UNL     1      23.319  31.456  25.536  1.00  0.00     0.197 C 
HETATM   27  S2  UNL     1      22.312  32.181  24.396  1.00  0.00    -0.039 SA
BRANCH  26  28
HETATM   28  N2  UNL     1      23.072  30.144  25.916  1.00  0.00    -0.311 N 
ATOM     29  H2  UNL     1      22.595  30.037  26.812  1.00  0.00     0.170 HD
BRANCH  28  30
HETATM   30  C12 UNL     1      23.369  28.969  25.276  1.00  0.00     0.187 C 
HETATM   31  N3  UNL     1      24.623  28.327  25.324  1.00  0.00    -0.070 NA
HETATM   32  S3  UNL     1      22.147  28.251  24.371  1.00  0.00    -0.044 SA
ENDBRANCH  28  30
ENDBRANCH  26  28
ENDBRANCH  24  26
ENDBRANCH  23  24
ENDBRANCH   4  23
TORSDOF 12
ENDMDL
MODEL 3
REMARK VINA RESULT: -6.522888019      2.061      3.135
REMARK  12 active torsions:
REMARK  status: ('A' for Active; 'I' for Inactive)
REMARK    1  A    between atoms: C3_4  and  C4_5 
REMARK    2  A    between atoms: C4_5  and  O2_6 
REMARK    3  A    between atoms: C6_10  and  O3_11 
REMARK    4  A    between atoms: O3_11  and  C7_12 
REMARK    5  A    between atoms: C8_14  and  C9_15 
REMARK    6  A    between atoms: C9_15  and  O5_16 
REMARK    7  A    between atoms: C10_18  and  O6_19 
REMARK    8  A    between atoms: O6_19  and  N1_20 
REMARK    9  A    between atoms: N1_20  and  C11_22 
REMARK   10  A    between atoms: C11_22  and  N2_24 
REMARK   11  A    between atoms: N2_24  and  C12_26 
REMARK   12  A    between atoms: C13_30  and  O8_31 
ROOT
HETATM    1  C7  UNL     1      27.314  28.776  28.376  1.00  0.00     0.316 C 
HETATM    2  O4  UNL     1      27.981  29.652  27.591  1.00  0.00    -0.344 OA
HETATM    3  C8  UNL     1      27.408  30.837  27.306  1.00  0.00     0.206 C 
HETATM    4  C10 UNL     1      26.459  31.390  28.308  1.00  0.00     0.323 C 
HETATM    5  O7  UNL     1      26.305  30.592  29.439  1.00  0.00    -0.322 OA
HETATM    6  C13 UNL     1      26.064  29.306  29.015  1.00  0.00     0.315 C 
ENDROOT
BRANCH   1   7
HETATM    7  O3  UNL     1      28.162  28.346  29.398  1.00  0.00    -0.348 OA
BRANCH   7   8
HETATM    8  C6  UNL     1      29.497  28.427  29.071  1.00  0.00     0.163 C 
HETATM    9  C2  UNL     1      30.152  27.104  28.828  1.00  0.00     0.148 C 
HETATM   10  C1  UNL     1      30.764  27.084  27.442  1.00  0.00     0.042 C 
HETATM   11  O1  UNL     1      31.021  26.704  29.805  1.00  0.00    -0.366 OA
HETATM   12  C3  UNL     1      32.289  27.270  29.709  1.00  0.00     0.206 C 
HETATM   13  S1  UNL     1      32.007  29.085  29.734  1.00  0.00    -0.133 SA
HETATM   14  C5  UNL     1      30.224  29.235  30.151  1.00  0.00     0.111 C 
BRANCH  12  15
HETATM   15  C4  UNL     1      33.006  26.952  31.023  1.00  0.00     0.207 C 
BRANCH  15  16
HETATM   16  O2  UNL     1      32.108  26.127  31.739  1.00  0.00    -0.398 OA
ATOM     17  H2  UNL     1      32.017  25.344  31.210  1.00  0.00     0.209 HD
ENDBRANCH  15  16
ENDBRANCH  12  15
ENDBRANCH   7   8
ENDBRANCH   1   7
BRANCH   6  18
HETATM   18  O8  UNL     1      24.949  29.181  28.209  1.00  0.00    -0.367 OA
ATOM     19  H8  UNL     1      24.183  28.871  28.678  1.00  0.00     0.212 HD
ENDBRANCH   6  18
BRANCH   3  20
HETATM   20  C9  UNL     1      28.529  31.850  27.040  1.00  0.00     0.201 C 
BRANCH  20  21
HETATM   21  O5  UNL     1      28.211  32.629  25.927  1.00  0.00    -0.398 OA
ATOM     22  H5  UNL     1      29.006  32.885  25.473  1.00  0.00     0.209 HD
ENDBRANCH  20  21
ENDBRANCH   3  20
BRANCH   4  23
HETATM   23  O6  UNL     1      25.191  31.630  27.805  1.00  0.00    -0.243 OA
BRANCH  23  24
HETATM   24  N1  UNL     1      25.159  31.569  26.441  1.00  0.00    -0.238 N 
ATOM     25  H1  UNL     1      26.020  31.581  25.895  1.00  0.00     0.197 HD
BRANCH  24  26
HETATM   26  C11 UNL     1      23.907  31.488  25.812  1.00  0.00     0.197 C 
HETATM   27  S2  UNL     1      23.386  32.864  24.991  1.00  0.00    -0.039 SA
BRANCH  26  28
HETATM   28  N2  UNL     1      23.092  30.364  25.827  1.00  0.00    -0.311 N 
ATOM     29  H2  UNL     1      22.208  30.479  26.322  1.00  0.00     0.170 HD
BRANCH  28  30
HETATM   30  C12 UNL     1      23.291  29.123  25.279  1.00  0.00     0.187 C 
HETATM   31  N3  UNL     1      24.493  28.392  25.370  1.00  0.00    -0.070 NA
HETATM   32  S3  UNL     1      22.007  28.432  24.442  1.00  0.00    -0.044 SA
ENDBRANCH  28  30
ENDBRANCH  26  28
ENDBRANCH  24  26
ENDBRANCH  23  24
ENDBRANCH   4  23
TORSDOF 12
ENDMDL
MODEL 4
REMARK VINA RESULT: -6.406484424      3.630      8.019
REMARK  12 active torsions:
REMARK  status: ('A' for Active; 'I' for Inactive)
REMARK    1  A    between atoms: C3_4  and  C4_5 
REMARK    2  A    between atoms: C4_5  and  O2_6 
REMARK    3  A    between atoms: C6_10  and  O3_11 
REMARK    4  A    between atoms: O3_11  and  C7_12 
REMARK    5  A    between atoms: C8_14  and  C9_15 
REMARK    6  A    between atoms: C9_15  and  O5_16 
REMARK    7  A    between atoms: C10_18  and  O6_19 
REMARK    8  A    between atoms: O6_19  and  N1_20 
REMARK    9  A    between atoms: N1_20  and  C11_22 
REMARK   10  A    between atoms: C11_22  and  N2_24 
REMARK   11  A    between atoms: N2_24  and  C12_26 
REMARK   12  A    between atoms: C13_30  and  O8_31 
ROOT
HETATM    1  C7  UNL     1      28.070  28.002  28.248  1.00  0.00     0.316 C 
HETATM    2  O4  UNL     1      27.641  27.952  29.530  1.00  0.00    -0.344 OA
HETATM    3  C8  UNL     1      28.501  27.558  30.489  1.00  0.00     0.206 C 
HETATM    4  C10 UNL     1      29.946  27.817  30.252  1.00  0.00     0.323 C 
HETATM    5  O7  UNL     1      30.213  28.465  29.049  1.00  0.00    -0.322 OA
HETATM    6  C13 UNL     1      29.543  27.791  28.054  1.00  0.00     0.315 C 
ENDROOT
BRANCH   1   7
HETATM    7  O3  UNL     1      27.745  29.247  27.710  1.00  0.00    -0.348 OA
BRANCH   7   8
HETATM    8  C6  UNL     1      26.401  29.537  27.772  1.00  0.00     0.163 C 
HETATM    9  C2  UNL     1      25.734  29.648  26.436  1.00  0.00     0.148 C 
HETATM   10  C1  UNL     1      24.578  28.672  26.361  1.00  0.00     0.042 C 
HETATM   11  O1  UNL     1      25.389  30.919  26.069  1.00  0.00    -0.366 OA
HETATM   12  C3  UNL     1      24.196  31.370  26.625  1.00  0.00     0.206 C 
HETATM   13  S1  UNL     1      24.421  31.211  28.441  1.00  0.00    -0.133 SA
HETATM   14  C5  UNL     1      26.203  30.799  28.615  1.00  0.00     0.111 C 
BRANCH  12  15
HETATM   15  C4  UNL     1      24.134  32.874  26.353  1.00  0.00     0.207 C 
BRANCH  15  16
HETATM   16  O2  UNL     1      25.125  33.111  25.372  1.00  0.00    -0.398 OA
ATOM     17  H2  UNL     1      25.247  34.053  25.367  1.00  0.00     0.209 HD
ENDBRANCH  15  16
ENDBRANCH  12  15
ENDBRANCH   7   8
ENDBRANCH   1   7
BRANCH   6  18
HETATM   18  O8  UNL     1      29.891  26.458  27.946  1.00  0.00    -0.367 OA
ATOM     19  H8  UNL     1      30.555  26.195  28.572  1.00  0.00     0.212 HD
ENDBRANCH   6  18
BRANCH   3  20
HETATM   20  C9  UNL     1      28.067  28.211  31.807  1.00  0.00     0.201 C 
BRANCH  20  21
HETATM   21  O5  UNL     1      26.777  28.726  31.681  1.00  0.00    -0.398 OA
ATOM     22  H5  UNL     1      26.246  28.456  32.421  1.00  0.00     0.209 HD
ENDBRANCH  20  21
ENDBRANCH   3  20
BRANCH   4  23
HETATM   23  O6  UNL     1      30.731  26.677  30.284  1.00  0.00    -0.243 OA
BRANCH  23  24
HETATM   24  N1  UNL     1      31.671  26.726  31.274  1.00  0.00    -0.238 N 
ATOM     25  H1  UNL     1      31.430  26.492  32.238  1.00  0.00     0.197 HD
BRANCH  24  26
HETATM   26  C11 UNL     1      32.977  27.106  30.929  1.00  0.00     0.197 C 
HETATM   27  S2  UNL     1      34.195  26.684  32.014  1.00  0.00    -0.039 SA
BRANCH  26  28
HETATM   28  N2  UNL     1      33.314  27.795  29.772  1.00  0.00    -0.311 N 
ATOM     29  H2  UNL     1      33.216  28.809  29.830  1.00  0.00     0.170 HD
BRANCH  28  30
HETATM   30  C12 UNL     1      33.759  27.325  28.564  1.00  0.00     0.187 C 
HETATM   31  N3  UNL     1      32.919  26.912  27.509  1.00  0.00    -0.070 NA
HETATM   32  S3  UNL     1      35.422  27.237  28.332  1.00  0.00    -0.044 SA
ENDBRANCH  28  30
ENDBRANCH  26  28
ENDBRANCH  24  26
ENDBRANCH  23  24
ENDBRANCH   4  23
TORSDOF 12
ENDMDL
MODEL 5
REMARK VINA RESULT: -6.406418555      2.212      3.524
REMARK  12 active torsions:
REMARK  status: ('A' for Active; 'I' for Inactive)
REMARK    1  A    between atoms: C3_4  and  C4_5 
REMARK    2  A    between atoms: C4_5  and  O2_6 
REMARK    3  A    between atoms: C6_10  and  O3_11 
REMARK    4  A    between atoms: O3_11  and  C7_12 
REMARK    5  A    between atoms: C8_14  and  C9_15 
REMARK    6  A    between atoms: C9_15  and  O5_16 
REMARK    7  A    between atoms: C10_18  and  O6_19 
REMARK    8  A    between atoms: O6_19  and  N1_20 
REMARK    9  A    between atoms: N1_20  and  C11_22 
REMARK   10  A    between atoms: C11_22  and  N2_24 
REMARK   11  A    between atoms: N2_24  and  C12_26 
REMARK   12  A    between atoms: C13_30  and  O8_31 
ROOT
HETATM    1  C7  UNL     1      28.425  27.964  30.987  1.00  0.00     0.316 C 
HETATM    2  O4  UNL     1      29.182  27.447  29.992  1.00  0.00    -0.344 OA
HETATM    3  C8  UNL     1      28.792  27.629  28.716  1.00  0.00     0.206 C 
HETATM    4  C10 UNL     1      27.998  28.850  28.418  1.00  0.00     0.323 C 
HETATM    5  O7  UNL     1      27.778  29.665  29.526  1.00  0.00    -0.322 OA
HETATM    6  C13 UNL     1      27.312  28.867  30.545  1.00  0.00     0.315 C 
ENDROOT
BRANCH   1   7
HETATM    7  O3  UNL     1      29.246  28.693  31.848  1.00  0.00    -0.348 OA
BRANCH   7   8
HETATM    8  C6  UNL     1      30.582  28.612  31.530  1.00  0.00     0.163 C 
HETATM    9  C2  UNL     1      31.427  27.962  32.581  1.00  0.00     0.148 C 
HETATM   10  C1  UNL     1      32.162  26.779  31.985  1.00  0.00     0.042 C 
HETATM   11  O1  UNL     1      32.247  28.813  33.268  1.00  0.00    -0.366 OA
HETATM   12  C3  UNL     1      33.432  29.123  32.607  1.00  0.00     0.206 C 
HETATM   13  S1  UNL     1      32.911  29.819  30.989  1.00  0.00    -0.133 SA
HETATM   14  C5  UNL     1      31.093  30.011  31.172  1.00  0.00     0.111 C 
BRANCH  12  15
HETATM   15  C4  UNL     1      34.060  30.291  33.370  1.00  0.00     0.207 C 
BRANCH  15  16
HETATM   16  O2  UNL     1      33.032  30.772  34.213  1.00  0.00    -0.398 OA
ATOM     17  H2  UNL     1      33.152  30.311  35.035  1.00  0.00     0.209 HD
ENDBRANCH  15  16
ENDBRANCH  12  15
ENDBRANCH   7   8
ENDBRANCH   1   7
BRANCH   6  18
HETATM   18  O8  UNL     1      26.150  28.186  30.238  1.00  0.00    -0.367 OA
ATOM     19  H8  UNL     1      25.966  28.164  29.306  1.00  0.00     0.212 HD
ENDBRANCH   6  18
BRANCH   3  20
HETATM   20  C9  UNL     1      30.045  27.597  27.832  1.00  0.00     0.201 C 
BRANCH  20  21
HETATM   21  O5  UNL     1      30.299  26.291  27.414  1.00  0.00    -0.398 OA
ATOM     22  H5  UNL     1      31.236  26.146  27.355  1.00  0.00     0.209 HD
ENDBRANCH  20  21
ENDBRANCH   3  20
BRANCH   4  23
HETATM   23  O6  UNL     1      26.761  28.589  27.854  1.00  0.00    -0.243 OA
BRANCH  23  24
HETATM   24  N1  UNL     1      26.421  29.512  26.906  1.00  0.00    -0.238 N 
ATOM     25  H1  UNL     1      27.073  29.767  26.164  1.00  0.00     0.197 HD
BRANCH  24  26
HETATM   26  C11 UNL     1      25.149  30.100  26.981  1.00  0.00     0.197 C 
HETATM   27  S2  UNL     1      24.813  30.993  28.371  1.00  0.00    -0.039 SA
BRANCH  26  28
HETATM   28  N2  UNL     1      24.174  29.991  25.999  1.00  0.00    -0.311 N 
ATOM     29  H2  UNL     1      23.799  30.878  25.663  1.00  0.00     0.170 HD
BRANCH  28  30
HETATM   30  C12 UNL     1      23.637  28.876  25.410  1.00  0.00     0.187 C 
HETATM   31  N3  UNL     1      24.302  27.639  25.285  1.00  0.00    -0.070 NA
HETATM   32  S3  UNL     1      22.077  29.001  24.795  1.00  0.00    -0.044 SA
ENDBRANCH  28  30
ENDBRANCH  26  28
ENDBRANCH  24  26
ENDBRANCH  23  24
ENDBRANCH   4  23
TORSDOF 12
ENDMDL
