MODEL 1
REMARK VINA RESULT: -3.899465794      0.000      0.000
REMARK  4 active torsions:
REMARK  status: ('A' for Active; 'I' for Inactive)
REMARK    1  A    between atoms: C2_2  and  C3_3 
REMARK    2  A    between atoms: C3_3  and  C4_4 
REMARK    3  A    between atoms: C5_8  and  N2_9 
REMARK    4  A    between atoms: N2_9  and  N3_10 
ROOT
HETATM    1  C4  UNL     1      25.634   4.606  33.341  1.00  0.00     0.205 C 
HETATM    2  N1  UNL     1      24.956   4.544  34.603  1.00  0.00    -0.041 N 
ATOM      3  H11 UNL     1      24.049   4.082  34.542  1.00  0.00     0.280 HD
ATOM      4  H12 UNL     1      24.624   5.456  34.918  1.00  0.00     0.280 HD
HETATM    5  C5  UNL     1      25.843   3.914  35.551  1.00  0.00     0.360 C 
HETATM    6  S1  UNL     1      26.276   2.423  34.585  1.00  0.00    -0.112 SA
HETATM    7  C6  UNL     1      25.956   3.168  32.934  1.00  0.00     0.077 C 
HETATM    8  C7  UNL     1      27.265   3.119  32.182  1.00  0.00     0.023 C 
ENDROOT
BRANCH   5   9
HETATM    9  N2  UNL     1      25.110   3.562  36.744  1.00  0.00    -0.104 NA
BRANCH   9  10
HETATM   10  N3  UNL     1      23.768   3.884  36.516  1.00  0.00    -0.346 N 
ATOM     11  H32 UNL     1      23.372   4.824  36.526  1.00  0.00     0.172 HD
ATOM     12  H31 UNL     1      23.273   3.009  36.339  1.00  0.00     0.172 HD
ENDBRANCH   9  10
ENDBRANCH   5   9
BRANCH   1  13
HETATM   13  C3  UNL     1      24.624   5.143  32.324  1.00  0.00     0.060 C 
BRANCH  13  14
HETATM   14  C2  UNL     1      24.659   6.620  32.242  1.00  0.00    -0.035 C 
HETATM   15  C1  UNL     1      25.763   7.310  32.449  1.00  0.00     0.007 C 
ENDBRANCH  13  14
ENDBRANCH   1  13
TORSDOF 4
ENDMDL
MODEL 2
REMARK VINA RESULT: -3.898039860      1.611      2.092
REMARK  4 active torsions:
REMARK  status: ('A' for Active; 'I' for Inactive)
REMARK    1  A    between atoms: C2_2  and  C3_3 
REMARK    2  A    between atoms: C3_3  and  C4_4 
REMARK    3  A    between atoms: C5_8  and  N2_9 
REMARK    4  A    between atoms: N2_9  and  N3_10 
ROOT
HETATM    1  C4  UNL     1      24.862   4.755  33.029  1.00  0.00     0.205 C 
HETATM    2  N1  UNL     1      25.498   5.093  34.270  1.00  0.00    -0.041 N 
ATOM      3  H11 UNL     1      24.998   5.818  34.785  1.00  0.00     0.280 HD
ATOM      4  H12 UNL     1      26.375   5.597  34.139  1.00  0.00     0.280 HD
HETATM    5  C5  UNL     1      25.659   3.877  35.030  1.00  0.00     0.360 C 
HETATM    6  S1  UNL     1      23.943   3.254  34.934  1.00  0.00    -0.112 SA
HETATM    7  C6  UNL     1      23.510   4.128  33.374  1.00  0.00     0.077 C 
HETATM    8  C7  UNL     1      23.159   3.059  32.367  1.00  0.00     0.023 C 
ENDROOT
BRANCH   5   9
HETATM    9  N2  UNL     1      26.017   4.197  36.391  1.00  0.00    -0.104 NA
BRANCH   9  10
HETATM   10  N3  UNL     1      27.126   3.412  36.723  1.00  0.00    -0.346 N 
ATOM     11  H32 UNL     1      27.181   2.396  36.642  1.00  0.00     0.172 HD
ATOM     12  H31 UNL     1      27.854   4.043  37.055  1.00  0.00     0.172 HD
ENDBRANCH   9  10
ENDBRANCH   5   9
BRANCH   1  13
HETATM   13  C3  UNL     1      24.572   6.074  32.309  1.00  0.00     0.060 C 
BRANCH  13  14
HETATM   14  C2  UNL     1      25.563   7.117  32.653  1.00  0.00    -0.035 C 
HETATM   15  C1  UNL     1      25.578   8.295  32.059  1.00  0.00     0.007 C 
ENDBRANCH  13  14
ENDBRANCH   1  13
TORSDOF 4
ENDMDL
MODEL 3
REMARK VINA RESULT: -3.798319772      2.100      3.325
REMARK  4 active torsions:
REMARK  status: ('A' for Active; 'I' for Inactive)
REMARK    1  A    between atoms: C2_2  and  C3_3 
REMARK    2  A    between atoms: C3_3  and  C4_4 
REMARK    3  A    between atoms: C5_8  and  N2_9 
REMARK    4  A    between atoms: N2_9  and  N3_10 
ROOT
HETATM    1  C4  UNL     1      25.507   6.933  31.819  1.00  0.00     0.205 C 
HETATM    2  N1  UNL     1      25.680   6.354  33.120  1.00  0.00    -0.041 N 
ATOM      3  H11 UNL     1      24.981   6.675  33.791  1.00  0.00     0.280 HD
ATOM      4  H12 UNL     1      26.506   6.708  33.604  1.00  0.00     0.280 HD
HETATM    5  C5  UNL     1      25.693   4.919  32.968  1.00  0.00     0.360 C 
HETATM    6  S1  UNL     1      24.158   4.725  31.993  1.00  0.00    -0.112 SA
HETATM    7  C6  UNL     1      24.176   6.417  31.272  1.00  0.00     0.077 C 
HETATM    8  C7  UNL     1      24.259   6.243  29.774  1.00  0.00     0.023 C 
ENDROOT
BRANCH   5   9
HETATM    9  N2  UNL     1      25.566   4.291  34.262  1.00  0.00    -0.104 NA
BRANCH   9  10
HETATM   10  N3  UNL     1      24.199   4.149  34.521  1.00  0.00    -0.346 N 
ATOM     11  H32 UNL     1      23.555   3.548  34.006  1.00  0.00     0.172 HD
ATOM     12  H31 UNL     1      23.977   4.754  35.312  1.00  0.00     0.172 HD
ENDBRANCH   9  10
ENDBRANCH   5   9
BRANCH   1  13
HETATM   13  C3  UNL     1      25.352   8.441  32.025  1.00  0.00     0.060 C 
BRANCH  13  14
HETATM   14  C2  UNL     1      26.403   9.205  31.318  1.00  0.00    -0.035 C 
HETATM   15  C1  UNL     1      26.715   8.971  30.058  1.00  0.00     0.007 C 
ENDBRANCH  13  14
ENDBRANCH   1  13
TORSDOF 4
ENDMDL
MODEL 4
REMARK VINA RESULT: -3.786559858      1.481      1.814
REMARK  4 active torsions:
REMARK  status: ('A' for Active; 'I' for Inactive)
REMARK    1  A    between atoms: C2_2  and  C3_3 
REMARK    2  A    between atoms: C3_3  and  C4_4 
REMARK    3  A    between atoms: C5_8  and  N2_9 
REMARK    4  A    between atoms: N2_9  and  N3_10 
ROOT
HETATM    1  C4  UNL     1      25.350   4.519  33.123  1.00  0.00     0.205 C 
HETATM    2  N1  UNL     1      25.477   4.688  34.542  1.00  0.00    -0.041 N 
ATOM      3  H11 UNL     1      25.107   5.581  34.868  1.00  0.00     0.280 HD
ATOM      4  H12 UNL     1      26.443   4.824  34.838  1.00  0.00     0.280 HD
HETATM    5  C5  UNL     1      24.850   3.556  35.181  1.00  0.00     0.360 C 
HETATM    6  S1  UNL     1      23.238   3.602  34.318  1.00  0.00    -0.112 SA
HETATM    7  C6  UNL     1      23.853   4.458  32.811  1.00  0.00     0.077 C 
HETATM    8  C7  UNL     1      23.599   3.523  31.653  1.00  0.00     0.023 C 
ENDROOT
BRANCH   5   9
HETATM    9  N2  UNL     1      24.689   3.820  36.591  1.00  0.00    -0.104 NA
BRANCH   9  10
HETATM   10  N3  UNL     1      23.326   4.040  36.818  1.00  0.00    -0.346 N 
ATOM     11  H32 UNL     1      22.862   4.949  36.818  1.00  0.00     0.172 HD
ATOM     12  H31 UNL     1      22.897   3.129  36.980  1.00  0.00     0.172 HD
ENDBRANCH   9  10
ENDBRANCH   5   9
BRANCH   1  13
HETATM   13  C3  UNL     1      25.890   5.796  32.477  1.00  0.00     0.060 C 
BRANCH  13  14
HETATM   14  C2  UNL     1      24.898   6.892  32.512  1.00  0.00    -0.035 C 
HETATM   15  C1  UNL     1      25.242   8.157  32.360  1.00  0.00     0.007 C 
ENDBRANCH  13  14
ENDBRANCH   1  13
TORSDOF 4
ENDMDL
MODEL 5
REMARK VINA RESULT: -3.754738331      0.959      1.060
REMARK  4 active torsions:
REMARK  status: ('A' for Active; 'I' for Inactive)
REMARK    1  A    between atoms: C2_2  and  C3_3 
REMARK    2  A    between atoms: C3_3  and  C4_4 
REMARK    3  A    between atoms: C5_8  and  N2_9 
REMARK    4  A    between atoms: N2_9  and  N3_10 
ROOT
HETATM    1  C4  UNL     1      25.623   4.781  32.986  1.00  0.00     0.205 C 
HETATM    2  N1  UNL     1      25.415   5.007  34.387  1.00  0.00    -0.041 N 
ATOM      3  H11 UNL     1      24.455   5.272  34.606  1.00  0.00     0.280 HD
ATOM      4  H12 UNL     1      25.871   5.856  34.722  1.00  0.00     0.280 HD
HETATM    5  C5  UNL     1      25.845   3.825  35.095  1.00  0.00     0.360 C 
HETATM    6  S1  UNL     1      24.913   2.572  34.144  1.00  0.00    -0.112 SA
HETATM    7  C6  UNL     1      24.784   3.562  32.599  1.00  0.00     0.077 C 
HETATM    8  C7  UNL     1      25.484   2.767  31.523  1.00  0.00     0.023 C 
ENDROOT
BRANCH   5   9
HETATM    9  N2  UNL     1      25.387   3.883  36.463  1.00  0.00    -0.104 NA
BRANCH   9  10
HETATM   10  N3  UNL     1      23.989   3.885  36.431  1.00  0.00    -0.346 N 
ATOM     11  H32 UNL     1      23.390   4.676  36.671  1.00  0.00     0.172 HD
ATOM     12  H31 UNL     1      23.692   2.958  36.127  1.00  0.00     0.172 HD
ENDBRANCH   9  10
ENDBRANCH   5   9
BRANCH   1  13
HETATM   13  C3  UNL     1      25.027   5.984  32.253  1.00  0.00     0.060 C 
BRANCH  13  14
HETATM   14  C2  UNL     1      25.619   7.259  32.715  1.00  0.00    -0.035 C 
HETATM   15  C1  UNL     1      25.625   8.344  31.965  1.00  0.00     0.007 C 
ENDBRANCH  13  14
ENDBRANCH   1  13
TORSDOF 4
ENDMDL
