MODEL 1
REMARK VINA RESULT: -4.366772733      0.000      0.000
REMARK  4 active torsions:
REMARK  status: ('A' for Active; 'I' for Inactive)
REMARK    1  A    between atoms: C1_2  and  O2_7 
REMARK    2  A    between atoms: N2_3  and  O1_5 
REMARK    3  A    between atoms: O2_7  and  C2_8 
REMARK    4  A    between atoms: C2_8  and  C3_9 
ROOT
HETATM    1  C2  UNL     1      25.783   1.095  38.036  1.00  0.00     0.211 C 
ENDROOT
BRANCH   1   2
HETATM    2  O2  UNL     1      27.038   0.499  37.990  1.00  0.00    -0.321 OA
BRANCH   2   3
HETATM    3  C1  UNL     1      28.168   0.962  38.630  1.00  0.00     0.251 C 
HETATM    4  N1  UNL     1      28.532   0.615  39.960  1.00  0.00    -0.054 NA
HETATM    5  N2  UNL     1      28.939   1.757  37.973  1.00  0.00    -0.235 N 
ATOM      6  H2  UNL     1      28.695   2.016  37.017  1.00  0.00     0.197 HD
BRANCH   5   7
HETATM    7  O1  UNL     1      30.084   2.262  38.538  1.00  0.00    -0.287 OA
ATOM      8  H1  UNL     1      30.618   2.900  38.079  1.00  0.00     0.244 HD
ENDBRANCH   5   7
ENDBRANCH   2   3
ENDBRANCH   1   2
BRANCH   1   9
HETATM    9  C3  UNL     1      25.280   1.588  36.708  1.00  0.00     0.210 C 
HETATM   10  C4  UNL     1      25.071   3.097  36.852  1.00  0.00     0.037 C 
HETATM   11  C5  UNL     1      26.378   3.614  36.255  1.00  0.00     0.029 C 
HETATM   12  C6  UNL     1      26.525   2.670  35.065  1.00  0.00     0.233 C 
HETATM   13  N3  UNL     1      26.231   1.400  35.658  1.00  0.00    -0.069 N 
ATOM     14  H32 UNL     1      27.070   0.914  35.976  1.00  0.00     0.277 HD
ATOM     15  H31 UNL     1      25.921   0.713  34.971  1.00  0.00     0.277 HD
ENDBRANCH   1   9
TORSDOF 4
ENDMDL
MODEL 2
REMARK VINA RESULT: -4.255370342      1.365      1.821
REMARK  4 active torsions:
REMARK  status: ('A' for Active; 'I' for Inactive)
REMARK    1  A    between atoms: C1_2  and  O2_7 
REMARK    2  A    between atoms: N2_3  and  O1_5 
REMARK    3  A    between atoms: O2_7  and  C2_8 
REMARK    4  A    between atoms: C2_8  and  C3_9 
ROOT
HETATM    1  C2  UNL     1      25.892   2.310  37.203  1.00  0.00     0.211 C 
ENDROOT
BRANCH   1   2
HETATM    2  O2  UNL     1      26.890   1.342  37.180  1.00  0.00    -0.321 OA
BRANCH   2   3
HETATM    3  C1  UNL     1      27.981   1.295  38.022  1.00  0.00     0.251 C 
HETATM    4  N1  UNL     1      28.078   0.443  39.157  1.00  0.00    -0.054 NA
HETATM    5  N2  UNL     1      28.970   2.075  37.757  1.00  0.00    -0.235 N 
ATOM      6  H2  UNL     1      28.918   2.692  36.946  1.00  0.00     0.197 HD
BRANCH   5   7
HETATM    7  O1  UNL     1      30.093   2.090  38.547  1.00  0.00    -0.287 OA
ATOM      8  H1  UNL     1      30.854   1.564  38.328  1.00  0.00     0.244 HD
ENDBRANCH   5   7
ENDBRANCH   2   3
ENDBRANCH   1   2
BRANCH   1   9
HETATM    9  C3  UNL     1      26.025   3.363  36.138  1.00  0.00     0.210 C 
HETATM   10  C4  UNL     1      26.615   2.670  34.908  1.00  0.00     0.037 C 
HETATM   11  C5  UNL     1      25.341   2.394  34.111  1.00  0.00     0.029 C 
HETATM   12  C6  UNL     1      24.591   3.704  34.335  1.00  0.00     0.233 C 
HETATM   13  N3  UNL     1      24.762   3.904  35.743  1.00  0.00    -0.069 N 
ATOM     14  H32 UNL     1      23.988   3.523  36.288  1.00  0.00     0.277 HD
ATOM     15  H31 UNL     1      24.657   4.882  36.012  1.00  0.00     0.277 HD
ENDBRANCH   1   9
TORSDOF 4
ENDMDL
MODEL 3
REMARK VINA RESULT: -4.251083907      1.163      1.502
REMARK  4 active torsions:
REMARK  status: ('A' for Active; 'I' for Inactive)
REMARK    1  A    between atoms: C1_2  and  O2_7 
REMARK    2  A    between atoms: N2_3  and  O1_5 
REMARK    3  A    between atoms: O2_7  and  C2_8 
REMARK    4  A    between atoms: C2_8  and  C3_9 
ROOT
HETATM    1  C2  UNL     1      26.354   1.124  36.997  1.00  0.00     0.211 C 
ENDROOT
BRANCH   1   2
HETATM    2  O2  UNL     1      27.068   0.451  37.981  1.00  0.00    -0.321 OA
BRANCH   2   3
HETATM    3  C1  UNL     1      28.191   0.928  38.625  1.00  0.00     0.251 C 
HETATM    4  N1  UNL     1      28.552   0.591  39.958  1.00  0.00    -0.054 NA
HETATM    5  N2  UNL     1      28.956   1.729  37.968  1.00  0.00    -0.235 N 
ATOM      6  H2  UNL     1      28.714   1.981  37.010  1.00  0.00     0.197 HD
BRANCH   5   7
HETATM    7  O1  UNL     1      30.093   2.249  38.537  1.00  0.00    -0.287 OA
ATOM      8  H1  UNL     1      30.043   2.902  39.225  1.00  0.00     0.244 HD
ENDBRANCH   5   7
ENDBRANCH   2   3
ENDBRANCH   1   2
BRANCH   1   9
HETATM    9  C3  UNL     1      25.689   2.388  37.468  1.00  0.00     0.210 C 
HETATM   10  C4  UNL     1      26.121   3.495  36.504  1.00  0.00     0.037 C 
HETATM   11  C5  UNL     1      24.919   3.523  35.561  1.00  0.00     0.029 C 
HETATM   12  C6  UNL     1      23.782   3.373  36.567  1.00  0.00     0.233 C 
HETATM   13  N3  UNL     1      24.263   2.314  37.402  1.00  0.00    -0.069 N 
ATOM     14  H32 UNL     1      23.935   1.397  37.098  1.00  0.00     0.277 HD
ATOM     15  H31 UNL     1      23.830   2.319  38.326  1.00  0.00     0.277 HD
ENDBRANCH   1   9
TORSDOF 4
ENDMDL
MODEL 4
REMARK VINA RESULT: -4.216830493      1.464      2.034
REMARK  4 active torsions:
REMARK  status: ('A' for Active; 'I' for Inactive)
REMARK    1  A    between atoms: C1_2  and  O2_7 
REMARK    2  A    between atoms: N2_3  and  O1_5 
REMARK    3  A    between atoms: O2_7  and  C2_8 
REMARK    4  A    between atoms: C2_8  and  C3_9 
ROOT
HETATM    1  C2  UNL     1      26.987   2.353  35.781  1.00  0.00     0.211 C 
ENDROOT
BRANCH   1   2
HETATM    2  O2  UNL     1      27.123   1.324  36.706  1.00  0.00    -0.321 OA
BRANCH   2   3
HETATM    3  C1  UNL     1      28.056   1.277  37.720  1.00  0.00     0.251 C 
HETATM    4  N1  UNL     1      28.011   0.361  38.807  1.00  0.00    -0.054 NA
HETATM    5  N2  UNL     1      29.029   2.120  37.672  1.00  0.00    -0.235 N 
ATOM      6  H2  UNL     1      29.079   2.784  36.899  1.00  0.00     0.197 HD
BRANCH   5   7
HETATM    7  O1  UNL     1      30.000   2.138  38.643  1.00  0.00    -0.287 OA
ATOM      8  H1  UNL     1      30.308   1.335  39.044  1.00  0.00     0.244 HD
ENDBRANCH   5   7
ENDBRANCH   2   3
ENDBRANCH   1   2
BRANCH   1   9
HETATM    9  C3  UNL     1      26.103   3.482  36.232  1.00  0.00     0.210 C 
HETATM   10  C4  UNL     1      25.414   4.026  34.979  1.00  0.00     0.037 C 
HETATM   11  C5  UNL     1      24.077   3.292  35.059  1.00  0.00     0.029 C 
HETATM   12  C6  UNL     1      23.799   3.397  36.556  1.00  0.00     0.233 C 
HETATM   13  N3  UNL     1      25.069   3.047  37.118  1.00  0.00    -0.069 N 
ATOM     14  H32 UNL     1      25.137   2.053  37.337  1.00  0.00     0.277 HD
ATOM     15  H31 UNL     1      25.189   3.409  38.064  1.00  0.00     0.277 HD
ENDBRANCH   1   9
TORSDOF 4
ENDMDL
MODEL 5
REMARK VINA RESULT: -4.057631714      1.807      2.544
REMARK  4 active torsions:
REMARK  status: ('A' for Active; 'I' for Inactive)
REMARK    1  A    between atoms: C1_2  and  O2_7 
REMARK    2  A    between atoms: N2_3  and  O1_5 
REMARK    3  A    between atoms: O2_7  and  C2_8 
REMARK    4  A    between atoms: C2_8  and  C3_9 
ROOT
HETATM    1  C2  UNL     1      27.171   2.288  35.496  1.00  0.00     0.211 C 
ENDROOT
BRANCH   1   2
HETATM    2  O2  UNL     1      27.124   1.361  36.531  1.00  0.00    -0.321 OA
BRANCH   2   3
HETATM    3  C1  UNL     1      27.966   1.336  37.623  1.00  0.00     0.251 C 
HETATM    4  N1  UNL     1      27.761   0.523  38.772  1.00  0.00    -0.054 NA
HETATM    5  N2  UNL     1      29.002   2.099  37.591  1.00  0.00    -0.235 N 
ATOM      6  H2  UNL     1      29.167   2.688  36.775  1.00  0.00     0.197 HD
BRANCH   5   7
HETATM    7  O1  UNL     1      29.890   2.133  38.638  1.00  0.00    -0.287 OA
ATOM      8  H1  UNL     1      29.607   2.362  39.515  1.00  0.00     0.244 HD
ENDBRANCH   5   7
ENDBRANCH   2   3
ENDBRANCH   1   2
BRANCH   1   9
HETATM    9  C3  UNL     1      26.390   1.893  34.273  1.00  0.00     0.210 C 
HETATM   10  C4  UNL     1      26.453   3.082  33.311  1.00  0.00     0.037 C 
HETATM   11  C5  UNL     1      27.599   2.640  32.403  1.00  0.00     0.029 C 
HETATM   12  C6  UNL     1      27.264   1.160  32.243  1.00  0.00     0.233 C 
HETATM   13  N3  UNL     1      26.967   0.777  33.592  1.00  0.00    -0.069 N 
ATOM     14  H32 UNL     1      27.782   0.403  34.078  1.00  0.00     0.277 HD
ATOM     15  H31 UNL     1      26.379  -0.054  33.639  1.00  0.00     0.277 HD
ENDBRANCH   1   9
TORSDOF 4
ENDMDL
