MODEL 1
REMARK VINA RESULT: -3.870923098      0.000      0.000
REMARK  5 active torsions:
REMARK  status: ('A' for Active; 'I' for Inactive)
REMARK    1  A    between atoms: C2_2  and  O1_3 
REMARK    2  A    between atoms: O1_3  and  C3_4 
REMARK    3  A    between atoms: C3_4  and  O3_6 
REMARK    4  A    between atoms: O3_6  and  N1_7 
REMARK       I    between atoms: N1_7  and  C4_9 
REMARK       I    between atoms: C4_9  and  N3_13 
REMARK    5  A    between atoms: N3_13  and  C5_15 
ROOT
HETATM    1  N1  UNL     1      27.893   2.963  36.759  1.00  0.00    -0.087 N 
ATOM      2  H1  UNL     1      28.777   3.326  36.401  1.00  0.00     0.214 HD
HETATM    3  C4  UNL     1      27.924   1.649  37.209  1.00  0.00     0.692 C 
HETATM    4  N2  UNL     1      27.779   0.675  36.401  1.00  0.00    -0.233 N 
ATOM      5  H21 UNL     1      27.802  -0.290  36.731  1.00  0.00     0.174 HD
ATOM      6  H22 UNL     1      27.638   0.867  35.409  1.00  0.00     0.174 HD
HETATM    7  N3  UNL     1      28.119   1.383  38.582  1.00  0.00    -0.225 N 
ATOM      8  H3  UNL     1      29.038   1.581  38.979  1.00  0.00     0.177 HD
ENDROOT
BRANCH   1   9
HETATM    9  O3  UNL     1      26.861   3.821  36.730  1.00  0.00    -0.160 OA
BRANCH   9  10
HETATM   10  C3  UNL     1      25.659   3.457  36.159  1.00  0.00     0.433 C 
HETATM   11  O2  UNL     1      24.629   3.870  36.736  1.00  0.00    -0.227 OA
BRANCH  10  12
HETATM   12  O1  UNL     1      25.529   2.690  35.031  1.00  0.00    -0.267 OA
BRANCH  12  13
HETATM   13  C2  UNL     1      25.965   3.046  33.771  1.00  0.00     0.137 C 
HETATM   14  C1  UNL     1      27.040   2.482  33.274  1.00  0.00     0.038 C 
ENDBRANCH  12  13
ENDBRANCH  10  12
ENDBRANCH   9  10
ENDBRANCH   1   9
BRANCH   7  15
HETATM   15  C5  UNL     1      27.105   0.851  39.459  1.00  0.00     0.134 C 
HETATM   16  C6  UNL     1      27.454   0.946  40.922  1.00  0.00     0.027 C 
ENDBRANCH   7  15
TORSDOF 5
ENDMDL
MODEL 2
REMARK VINA RESULT: -3.767078687      1.208      2.130
REMARK  5 active torsions:
REMARK  status: ('A' for Active; 'I' for Inactive)
REMARK    1  A    between atoms: C2_2  and  O1_3 
REMARK    2  A    between atoms: O1_3  and  C3_4 
REMARK    3  A    between atoms: C3_4  and  O3_6 
REMARK    4  A    between atoms: O3_6  and  N1_7 
REMARK       I    between atoms: N1_7  and  C4_9 
REMARK       I    between atoms: C4_9  and  N3_13 
REMARK    5  A    between atoms: N3_13  and  C5_15 
ROOT
HETATM    1  N1  UNL     1      27.938   2.956  36.742  1.00  0.00    -0.087 N 
ATOM      2  H1  UNL     1      28.823   3.283  36.353  1.00  0.00     0.214 HD
HETATM    3  C4  UNL     1      27.920   1.632  37.161  1.00  0.00     0.692 C 
HETATM    4  N2  UNL     1      27.689   0.686  36.340  1.00  0.00    -0.233 N 
ATOM      5  H21 UNL     1      27.677  -0.286  36.647  1.00  0.00     0.174 HD
ATOM      6  H22 UNL     1      27.515   0.909  35.359  1.00  0.00     0.174 HD
HETATM    7  N3  UNL     1      28.162   1.323  38.518  1.00  0.00    -0.225 N 
ATOM      8  H3  UNL     1      29.106   1.465  38.877  1.00  0.00     0.177 HD
ENDROOT
BRANCH   1   9
HETATM    9  O3  UNL     1      26.951   3.866  36.778  1.00  0.00    -0.160 OA
BRANCH   9  10
HETATM   10  C3  UNL     1      25.757   3.635  36.128  1.00  0.00     0.433 C 
HETATM   11  O2  UNL     1      25.843   3.163  34.972  1.00  0.00    -0.227 OA
BRANCH  10  12
HETATM   12  O1  UNL     1      24.516   3.885  36.654  1.00  0.00    -0.267 OA
BRANCH  12  13
HETATM   13  C2  UNL     1      23.653   2.928  37.147  1.00  0.00     0.137 C 
HETATM   14  C1  UNL     1      24.130   1.782  37.571  1.00  0.00     0.038 C 
ENDBRANCH  12  13
ENDBRANCH  10  12
ENDBRANCH   9  10
ENDBRANCH   1   9
BRANCH   7  15
HETATM   15  C5  UNL     1      27.161   0.822  39.429  1.00  0.00     0.134 C 
HETATM   16  C6  UNL     1      27.532   0.967  40.882  1.00  0.00     0.027 C 
ENDBRANCH   7  15
TORSDOF 5
ENDMDL
MODEL 3
REMARK VINA RESULT: -3.691658868      4.717      6.177
REMARK  5 active torsions:
REMARK  status: ('A' for Active; 'I' for Inactive)
REMARK    1  A    between atoms: C2_2  and  O1_3 
REMARK    2  A    between atoms: O1_3  and  C3_4 
REMARK    3  A    between atoms: C3_4  and  O3_6 
REMARK    4  A    between atoms: O3_6  and  N1_7 
REMARK       I    between atoms: N1_7  and  C4_9 
REMARK       I    between atoms: C4_9  and  N3_13 
REMARK    5  A    between atoms: N3_13  and  C5_15 
ROOT
HETATM    1  N1  UNL     1      25.141   5.404  33.474  1.00  0.00    -0.087 N 
ATOM      2  H1  UNL     1      24.141   5.586  33.385  1.00  0.00     0.214 HD
HETATM    3  C4  UNL     1      25.480   4.255  34.178  1.00  0.00     0.692 C 
HETATM    4  N2  UNL     1      25.563   4.264  35.448  1.00  0.00    -0.233 N 
ATOM      5  H21 UNL     1      25.812   3.421  35.966  1.00  0.00     0.174 HD
ATOM      6  H22 UNL     1      25.377   5.131  35.954  1.00  0.00     0.174 HD
HETATM    7  N3  UNL     1      25.739   3.056  33.478  1.00  0.00    -0.225 N 
ATOM      8  H3  UNL     1      24.953   2.591  33.024  1.00  0.00     0.177 HD
ENDROOT
BRANCH   1   9
HETATM    9  O3  UNL     1      25.947   6.308  32.893  1.00  0.00    -0.160 OA
BRANCH   9  10
HETATM   10  C3  UNL     1      25.431   7.273  32.054  1.00  0.00     0.433 C 
HETATM   11  O2  UNL     1      24.464   6.923  31.342  1.00  0.00    -0.227 OA
BRANCH  10  12
HETATM   12  O1  UNL     1      25.901   8.557  31.954  1.00  0.00    -0.267 OA
BRANCH  12  13
HETATM   13  C2  UNL     1      26.027   9.269  30.779  1.00  0.00     0.137 C 
HETATM   14  C1  UNL     1      27.033   9.021  29.975  1.00  0.00     0.038 C 
ENDBRANCH  12  13
ENDBRANCH  10  12
ENDBRANCH   9  10
ENDBRANCH   1   9
BRANCH   7  15
HETATM   15  C5  UNL     1      27.042   2.446  33.364  1.00  0.00     0.134 C 
HETATM   16  C6  UNL     1      27.759   2.775  32.080  1.00  0.00     0.027 C 
ENDBRANCH   7  15
TORSDOF 5
ENDMDL
MODEL 4
REMARK VINA RESULT: -3.636767427      1.619      2.411
REMARK  5 active torsions:
REMARK  status: ('A' for Active; 'I' for Inactive)
REMARK    1  A    between atoms: C2_2  and  O1_3 
REMARK    2  A    between atoms: O1_3  and  C3_4 
REMARK    3  A    between atoms: C3_4  and  O3_6 
REMARK    4  A    between atoms: O3_6  and  N1_7 
REMARK       I    between atoms: N1_7  and  C4_9 
REMARK       I    between atoms: C4_9  and  N3_13 
REMARK    5  A    between atoms: N3_13  and  C5_15 
ROOT
HETATM    1  N1  UNL     1      26.523   1.834  38.207  1.00  0.00    -0.087 N 
ATOM      2  H1  UNL     1      26.607   1.988  39.212  1.00  0.00     0.214 HD
HETATM    3  C4  UNL     1      27.668   1.369  37.574  1.00  0.00     0.692 C 
HETATM    4  N2  UNL     1      28.575   2.173  37.182  1.00  0.00    -0.233 N 
ATOM      5  H21 UNL     1      29.417   1.831  36.718  1.00  0.00     0.174 HD
ATOM      6  H22 UNL     1      28.454   3.174  37.337  1.00  0.00     0.174 HD
HETATM    7  N3  UNL     1      27.836  -0.017  37.359  1.00  0.00    -0.225 N 
ATOM      8  H3  UNL     1      27.999  -0.609  38.174  1.00  0.00     0.177 HD
ENDROOT
BRANCH   1   9
HETATM    9  O3  UNL     1      25.319   2.110  37.679  1.00  0.00    -0.160 OA
BRANCH   9  10
HETATM   10  C3  UNL     1      25.161   3.162  36.801  1.00  0.00     0.433 C 
HETATM   11  O2  UNL     1      24.165   3.895  36.995  1.00  0.00    -0.227 OA
BRANCH  10  12
HETATM   12  O1  UNL     1      26.003   3.446  35.758  1.00  0.00    -0.267 OA
BRANCH  12  13
HETATM   13  C2  UNL     1      25.912   2.903  34.492  1.00  0.00     0.137 C 
HETATM   14  C1  UNL     1      26.996   2.466  33.896  1.00  0.00     0.038 C 
ENDBRANCH  12  13
ENDBRANCH  10  12
ENDBRANCH   9  10
ENDBRANCH   1   9
BRANCH   7  15
HETATM   15  C5  UNL     1      27.790  -0.650  36.063  1.00  0.00     0.134 C 
HETATM   16  C6  UNL     1      26.397  -0.812  35.513  1.00  0.00     0.027 C 
ENDBRANCH   7  15
TORSDOF 5
ENDMDL
MODEL 5
REMARK VINA RESULT: -3.623405793      2.162      3.596
REMARK  5 active torsions:
REMARK  status: ('A' for Active; 'I' for Inactive)
REMARK    1  A    between atoms: C2_2  and  O1_3 
REMARK    2  A    between atoms: O1_3  and  C3_4 
REMARK    3  A    between atoms: C3_4  and  O3_6 
REMARK    4  A    between atoms: O3_6  and  N1_7 
REMARK       I    between atoms: N1_7  and  C4_9 
REMARK       I    between atoms: C4_9  and  N3_13 
REMARK    5  A    between atoms: N3_13  and  C5_15 
ROOT
HETATM    1  N1  UNL     1      26.461   1.740  38.170  1.00  0.00    -0.087 N 
ATOM      2  H1  UNL     1      26.454   1.844  39.185  1.00  0.00     0.214 HD
HETATM    3  C4  UNL     1      27.649   1.272  37.624  1.00  0.00     0.692 C 
HETATM    4  N2  UNL     1      28.608   2.067  37.358  1.00  0.00    -0.233 N 
ATOM      5  H21 UNL     1      29.481   1.722  36.957  1.00  0.00     0.174 HD
ATOM      6  H22 UNL     1      28.498   3.063  37.550  1.00  0.00     0.174 HD
HETATM    7  N3  UNL     1      27.801  -0.107  37.357  1.00  0.00    -0.225 N 
ATOM      8  H3  UNL     1      27.873  -0.740  38.153  1.00  0.00     0.177 HD
ENDROOT
BRANCH   1   9
HETATM    9  O3  UNL     1      25.319   2.076  37.546  1.00  0.00    -0.160 OA
BRANCH   9  10
HETATM   10  C3  UNL     1      25.165   3.327  36.988  1.00  0.00     0.433 C 
HETATM   11  O2  UNL     1      26.209   3.874  36.568  1.00  0.00    -0.227 OA
BRANCH  10  12
HETATM   12  O1  UNL     1      23.971   3.991  36.869  1.00  0.00    -0.267 OA
BRANCH  12  13
HETATM   13  C2  UNL     1      22.768   3.565  37.394  1.00  0.00     0.137 C 
HETATM   14  C1  UNL     1      21.884   4.450  37.788  1.00  0.00     0.038 C 
ENDBRANCH  12  13
ENDBRANCH  10  12
ENDBRANCH   9  10
ENDBRANCH   1   9
BRANCH   7  15
HETATM   15  C5  UNL     1      27.862  -0.677  36.033  1.00  0.00     0.134 C 
HETATM   16  C6  UNL     1      26.886  -0.067  35.061  1.00  0.00     0.027 C 
ENDBRANCH   7  15
TORSDOF 5
ENDMDL
