MODEL 1
REMARK VINA RESULT: -7.834012537      0.000      0.000
REMARK  3 active torsions:
REMARK  status: ('A' for Active; 'I' for Inactive)
REMARK    1  A    between atoms: C2_2  and  O1_3 
REMARK    2  A    between atoms: C9_11  and  C10_12 
REMARK    3  A    between atoms: C11_13  and  C12_14 
ROOT
HETATM    1  C1  UNL     1       3.062  10.271  13.746  1.00  0.00     0.046 C 
HETATM    2  C2  UNL     1       3.715  11.328  14.641  1.00  0.00     0.058 C 
HETATM    3  C3  UNL     1       2.902  12.566  14.531  1.00  0.00     0.038 C 
HETATM    4  C4  UNL     1       3.048  13.534  15.649  1.00  0.00     0.004 C 
HETATM    5  C5  UNL     1       3.236  12.912  16.999  1.00  0.00     0.010 C 
HETATM    6  C6  UNL     1       4.271  11.800  16.978  1.00  0.00    -0.037 C 
HETATM    7  C7  UNL     1       5.586  12.421  16.579  1.00  0.00     0.015 C 
HETATM    8  C8  UNL     1       4.413  11.309  18.395  1.00  0.00     0.018 C 
HETATM    9  C9  UNL     1       5.050   9.952  18.486  1.00  0.00     0.009 C 
HETATM   10  C17 UNL     1       4.559   8.986  17.470  1.00  0.00     0.009 C 
HETATM   11  C18 UNL     1       4.710   9.570  16.056  1.00  0.00     0.009 C 
HETATM   12  C19 UNL     1       3.796  10.767  16.016  1.00  0.00     0.028 C 
ENDROOT
BRANCH   9  13
HETATM   13  C10 UNL     1       4.761   9.421  19.862  1.00  0.00    -0.021 C 
HETATM   14  C11 UNL     1       5.147   8.232  20.245  1.00  0.00     0.009 C 
BRANCH  14  15
HETATM   15  C12 UNL     1       4.867   7.727  21.565  1.00  0.00    -0.021 A 
HETATM   16  C13 UNL     1       3.779   6.861  21.744  1.00  0.00     0.017 A 
HETATM   17  C14 UNL     1       3.515   6.384  22.994  1.00  0.00     0.062 A 
HETATM   18  C15 UNL     1       4.302   6.745  24.062  1.00  0.00     0.188 A 
HETATM   19  F1  UNL     1       3.999   6.245  25.281  1.00  0.00    -0.186 F 
HETATM   20  N1  UNL     1       5.337   7.575  23.863  1.00  0.00    -0.342 N 
HETATM   21  C16 UNL     1       5.644   8.081  22.632  1.00  0.00     0.101 A 
ATOM     22  H1  UNL     1       5.916   7.837  24.660  1.00  0.00     0.167 HD
ENDBRANCH  14  15
ENDBRANCH   9  13
BRANCH   2  23
HETATM   23  O1  UNL     1       5.017  11.495  14.118  1.00  0.00    -0.390 OA
ATOM     24  H1  UNL     1       5.598  11.340  14.853  1.00  0.00     0.210 HD
ENDBRANCH   2  23
TORSDOF 3
ENDMDL
MODEL 2
REMARK VINA RESULT: -7.660616642      1.423      1.987
REMARK  3 active torsions:
REMARK  status: ('A' for Active; 'I' for Inactive)
REMARK    1  A    between atoms: C2_2  and  O1_3 
REMARK    2  A    between atoms: C9_11  and  C10_12 
REMARK    3  A    between atoms: C11_13  and  C12_14 
ROOT
HETATM    1  C1  UNL     1       3.794   8.075  13.547  1.00  0.00     0.046 C 
HETATM    2  C2  UNL     1       4.540   9.045  14.469  1.00  0.00     0.058 C 
HETATM    3  C3  UNL     1       3.931  10.387  14.286  1.00  0.00     0.038 C 
HETATM    4  C4  UNL     1       4.148  11.350  15.397  1.00  0.00     0.004 C 
HETATM    5  C5  UNL     1       4.153  10.739  16.766  1.00  0.00     0.010 C 
HETATM    6  C6  UNL     1       5.009   9.486  16.830  1.00  0.00    -0.037 C 
HETATM    7  C7  UNL     1       6.425   9.894  16.512  1.00  0.00     0.015 C 
HETATM    8  C8  UNL     1       4.984   9.014  18.261  1.00  0.00     0.018 C 
HETATM    9  C9  UNL     1       5.403   7.580  18.414  1.00  0.00     0.009 C 
HETATM   10  C17 UNL     1       4.839   6.673  17.382  1.00  0.00     0.009 C 
HETATM   11  C18 UNL     1       5.166   7.193  15.972  1.00  0.00     0.009 C 
HETATM   12  C19 UNL     1       4.447   8.512  15.854  1.00  0.00     0.028 C 
ENDROOT
BRANCH   9  13
HETATM   13  C10 UNL     1       4.949   7.131  19.776  1.00  0.00    -0.021 C 
HETATM   14  C11 UNL     1       5.321   7.742  20.870  1.00  0.00     0.009 C 
BRANCH  14  15
HETATM   15  C12 UNL     1       4.883   7.308  22.172  1.00  0.00    -0.021 A 
HETATM   16  C13 UNL     1       3.596   6.771  22.312  1.00  0.00     0.017 A 
HETATM   17  C14 UNL     1       3.183   6.361  23.546  1.00  0.00     0.062 A 
HETATM   18  C15 UNL     1       4.015   6.472  24.635  1.00  0.00     0.188 A 
HETATM   19  F1  UNL     1       3.559   6.052  25.836  1.00  0.00    -0.186 F 
HETATM   20  N1  UNL     1       5.242   6.990  24.473  1.00  0.00    -0.342 N 
HETATM   21  C16 UNL     1       5.703   7.416  23.260  1.00  0.00     0.101 A 
ATOM     22  H1  UNL     1       5.852   7.068  25.286  1.00  0.00     0.167 HD
ENDBRANCH  14  15
ENDBRANCH   9  13
BRANCH   2  23
HETATM   23  O1  UNL     1       5.883   9.003  14.032  1.00  0.00    -0.390 OA
ATOM     24  H1  UNL     1       6.399   8.984  14.829  1.00  0.00     0.210 HD
ENDBRANCH   2  23
TORSDOF 3
ENDMDL
MODEL 3
REMARK VINA RESULT: -7.587960237      0.637      1.029
REMARK  3 active torsions:
REMARK  status: ('A' for Active; 'I' for Inactive)
REMARK    1  A    between atoms: C2_2  and  O1_3 
REMARK    2  A    between atoms: C9_11  and  C10_12 
REMARK    3  A    between atoms: C11_13  and  C12_14 
ROOT
HETATM    1  C1  UNL     1       3.047  10.364  13.774  1.00  0.00     0.046 C 
HETATM    2  C2  UNL     1       3.735  11.349  14.725  1.00  0.00     0.058 C 
HETATM    3  C3  UNL     1       2.999  12.635  14.640  1.00  0.00     0.038 C 
HETATM    4  C4  UNL     1       3.169  13.552  15.797  1.00  0.00     0.004 C 
HETATM    5  C5  UNL     1       3.283  12.872  17.127  1.00  0.00     0.010 C 
HETATM    6  C6  UNL     1       4.252  11.703  17.091  1.00  0.00    -0.037 C 
HETATM    7  C7  UNL     1       5.611  12.259  16.750  1.00  0.00     0.015 C 
HETATM    8  C8  UNL     1       4.325  11.153  18.492  1.00  0.00     0.018 C 
HETATM    9  C9  UNL     1       4.880   9.758  18.548  1.00  0.00     0.009 C 
HETATM   10  C17 UNL     1       4.362   8.860  17.484  1.00  0.00     0.009 C 
HETATM   11  C18 UNL     1       4.586   9.484  16.097  1.00  0.00     0.009 C 
HETATM   12  C19 UNL     1       3.745  10.734  16.079  1.00  0.00     0.028 C 
ENDROOT
BRANCH   9  13
HETATM   13  C10 UNL     1       4.521   9.196  19.896  1.00  0.00    -0.021 C 
HETATM   14  C11 UNL     1       5.057   8.096  20.356  1.00  0.00     0.009 C 
BRANCH  14  15
HETATM   15  C12 UNL     1       4.710   7.560  21.648  1.00  0.00    -0.021 A 
HETATM   16  C13 UNL     1       5.607   7.721  22.713  1.00  0.00     0.017 A 
HETATM   17  C14 UNL     1       5.277   7.213  23.935  1.00  0.00     0.062 A 
HETATM   18  C15 UNL     1       4.084   6.554  24.120  1.00  0.00     0.188 A 
HETATM   19  F1  UNL     1       3.803   6.069  25.350  1.00  0.00    -0.186 F 
HETATM   20  N1  UNL     1       3.244   6.414  23.084  1.00  0.00    -0.342 N 
HETATM   21  C16 UNL     1       3.527   6.903  21.840  1.00  0.00     0.101 A 
ATOM     22  H1  UNL     1       2.362   5.925  23.230  1.00  0.00     0.167 HD
ENDBRANCH  14  15
ENDBRANCH   9  13
BRANCH   2  23
HETATM   23  O1  UNL     1       5.059  11.456  14.242  1.00  0.00    -0.390 OA
ATOM     24  H1  UNL     1       5.291  10.578  13.967  1.00  0.00     0.210 HD
ENDBRANCH   2  23
TORSDOF 3
ENDMDL
MODEL 4
REMARK VINA RESULT: -7.322354894      1.687      2.754
REMARK  3 active torsions:
REMARK  status: ('A' for Active; 'I' for Inactive)
REMARK    1  A    between atoms: C2_2  and  O1_3 
REMARK    2  A    between atoms: C9_11  and  C10_12 
REMARK    3  A    between atoms: C11_13  and  C12_14 
ROOT
HETATM    1  C1  UNL     1       4.607  12.783  14.697  1.00  0.00     0.046 C 
HETATM    2  C2  UNL     1       4.018  11.411  15.040  1.00  0.00     0.058 C 
HETATM    3  C3  UNL     1       4.445  10.467  13.977  1.00  0.00     0.038 C 
HETATM    4  C4  UNL     1       4.412   9.027  14.343  1.00  0.00     0.004 C 
HETATM    5  C5  UNL     1       4.785   8.731  15.765  1.00  0.00     0.010 C 
HETATM    6  C6  UNL     1       4.083   9.655  16.745  1.00  0.00    -0.037 C 
HETATM    7  C7  UNL     1       2.601   9.413  16.606  1.00  0.00     0.015 C 
HETATM    8  C8  UNL     1       4.488   9.214  18.127  1.00  0.00     0.018 C 
HETATM    9  C9  UNL     1       4.245  10.263  19.174  1.00  0.00     0.009 C 
HETATM   10  C17 UNL     1       4.628  11.635  18.752  1.00  0.00     0.009 C 
HETATM   11  C18 UNL     1       3.932  12.005  17.432  1.00  0.00     0.009 C 
HETATM   12  C19 UNL     1       4.483  11.050  16.406  1.00  0.00     0.028 C 
ENDROOT
BRANCH   9  13
HETATM   13  C10 UNL     1       5.047   9.871  20.385  1.00  0.00    -0.021 C 
HETATM   14  C11 UNL     1       5.112   8.635  20.805  1.00  0.00     0.009 C 
BRANCH  14  15
HETATM   15  C12 UNL     1       5.881   8.264  21.966  1.00  0.00    -0.021 A 
HETATM   16  C13 UNL     1       5.240   7.601  23.022  1.00  0.00     0.017 A 
HETATM   17  C14 UNL     1       5.970   7.251  24.120  1.00  0.00     0.062 A 
HETATM   18  C15 UNL     1       7.311   7.543  24.192  1.00  0.00     0.188 A 
HETATM   19  F1  UNL     1       7.990   7.175  25.301  1.00  0.00    -0.186 F 
HETATM   20  N1  UNL     1       7.900   8.178  23.167  1.00  0.00    -0.342 N 
HETATM   21  C16 UNL     1       7.215   8.551  22.045  1.00  0.00     0.101 A 
ATOM     22  H1  UNL     1       8.895   8.390  23.228  1.00  0.00     0.167 HD
ENDBRANCH  14  15
ENDBRANCH   9  13
BRANCH   2  23
HETATM   23  O1  UNL     1       2.619  11.608  15.051  1.00  0.00    -0.390 OA
ATOM     24  H1  UNL     1       2.492  12.480  14.697  1.00  0.00     0.210 HD
ENDBRANCH   2  23
TORSDOF 3
ENDMDL
MODEL 5
REMARK VINA RESULT: -7.257504124      4.301      8.243
REMARK  3 active torsions:
REMARK  status: ('A' for Active; 'I' for Inactive)
REMARK    1  A    between atoms: C2_2  and  O1_3 
REMARK    2  A    between atoms: C9_11  and  C10_12 
REMARK    3  A    between atoms: C11_13  and  C12_14 
ROOT
HETATM    1  C1  UNL     1       7.540   8.102  24.398  1.00  0.00     0.046 C 
HETATM    2  C2  UNL     1       6.462   7.427  23.544  1.00  0.00     0.058 C 
HETATM    3  C3  UNL     1       5.312   7.130  24.435  1.00  0.00     0.038 C 
HETATM    4  C4  UNL     1       4.005   6.936  23.756  1.00  0.00     0.004 C 
HETATM    5  C5  UNL     1       3.783   7.808  22.558  1.00  0.00     0.010 C 
HETATM    6  C6  UNL     1       4.987   7.825  21.632  1.00  0.00    -0.037 C 
HETATM    7  C7  UNL     1       5.189   6.416  21.135  1.00  0.00     0.015 C 
HETATM    8  C8  UNL     1       4.614   8.676  20.445  1.00  0.00     0.018 C 
HETATM    9  C9  UNL     1       5.805   9.150  19.664  1.00  0.00     0.009 C 
HETATM   10  C17 UNL     1       6.936   9.611  20.510  1.00  0.00     0.009 C 
HETATM   11  C18 UNL     1       7.338   8.516  21.512  1.00  0.00     0.009 C 
HETATM   12  C19 UNL     1       6.144   8.341  22.415  1.00  0.00     0.028 C 
ENDROOT
BRANCH   9  13
HETATM   13  C10 UNL     1       5.337  10.284  18.794  1.00  0.00    -0.021 C 
HETATM   14  C11 UNL     1       4.317  10.166  17.985  1.00  0.00     0.009 C 
BRANCH  14  15
HETATM   15  C12 UNL     1       3.873  11.256  17.153  1.00  0.00    -0.021 A 
HETATM   16  C13 UNL     1       3.911  11.106  15.760  1.00  0.00     0.017 A 
HETATM   17  C14 UNL     1       3.490  12.139  14.974  1.00  0.00     0.062 A 
HETATM   18  C15 UNL     1       3.037  13.308  15.538  1.00  0.00     0.188 A 
HETATM   19  F1  UNL     1       2.632  14.302  14.717  1.00  0.00    -0.186 F 
HETATM   20  N1  UNL     1       3.012  13.425  16.874  1.00  0.00    -0.342 N 
HETATM   21  C16 UNL     1       3.422  12.422  17.706  1.00  0.00     0.101 A 
ATOM     22  H1  UNL     1       2.674  14.296  17.284  1.00  0.00     0.167 HD
ENDBRANCH  14  15
ENDBRANCH   9  13
BRANCH   2  23
HETATM   23  O1  UNL     1       7.073   6.253  23.049  1.00  0.00    -0.390 OA
ATOM     24  H1  UNL     1       6.820   5.570  23.658  1.00  0.00     0.210 HD
ENDBRANCH   2  23
TORSDOF 3
ENDMDL
