MODEL 1
REMARK VINA RESULT: -7.888440639      0.000      0.000
REMARK  13 active torsions:
REMARK  status: ('A' for Active; 'I' for Inactive)
REMARK       I    between atoms: C2_2  and  N1_4 
REMARK    1  A    between atoms: N1_4  and  C3_6 
REMARK    2  A    between atoms: C3_6  and  C4_7 
REMARK    3  A    between atoms: C3_6  and  C15_43 
REMARK    4  A    between atoms: C6_11  and  C7_12 
REMARK    5  A    between atoms: C7_12  and  N3_13 
REMARK    6  A    between atoms: C7_12  and  C10_29 
REMARK    7  A    between atoms: N3_13  and  C8_15 
REMARK    8  A    between atoms: C9_18  and  N5_19 
REMARK    9  A    between atoms: C11_31  and  C12_32 
REMARK   10  A    between atoms: C12_32  and  O3_33 
REMARK   11  A    between atoms: C12_32  and  O4_35 
REMARK   12  A    between atoms: C15_43  and  O5_44 
REMARK   13  A    between atoms: C15_43  and  O6_46 
ROOT
HETATM    1  C10 UNL     1      12.905  -8.019  -1.516  1.00  0.00     0.122 A 
HETATM    2  O2  UNL     1      13.675  -8.817  -0.828  1.00  0.00    -0.291 OA
HETATM    3  C11 UNL     1      13.019  -9.828  -0.335  1.00  0.00     0.180 A 
HETATM    4  N9  UNL     1      11.742  -9.689  -0.724  1.00  0.00    -0.325 N 
ATOM      5  H9  UNL     1      10.978 -10.326  -0.497  1.00  0.00     0.168 HD
HETATM    6  C13 UNL     1      11.636  -8.563  -1.466  1.00  0.00     0.148 A 
HETATM    7  C14 UNL     1      10.432  -8.067  -2.064  1.00  0.00     0.120 C 
HETATM    8  N10 UNL     1       9.460  -7.664  -2.548  1.00  0.00    -0.190 NA
ENDROOT
BRANCH   1   9
HETATM    9  C7  UNL     1      13.287  -6.769  -2.223  1.00  0.00     0.217 C 
BRANCH   9  10
HETATM   10  C6  UNL     1      14.568  -6.274  -1.647  1.00  0.00     0.081 A 
HETATM   11  N2  UNL     1      15.674  -6.056  -2.333  1.00  0.00    -0.360 N 
HETATM   12  C5  UNL     1      16.739  -5.622  -1.735  1.00  0.00     0.105 A 
ATOM     13  H2  UNL     1      15.691  -6.229  -3.338  1.00  0.00     0.165 HD
HETATM   14  C4  UNL     1      16.668  -5.405  -0.384  1.00  0.00     0.027 A 
HETATM   15  S1  UNL     1      15.037  -5.849  -0.063  1.00  0.00    -0.075 SA
BRANCH  14  16
HETATM   16  C3  UNL     1      17.719  -4.913   0.569  1.00  0.00     0.180 C 
BRANCH  16  17
HETATM   17  N1  UNL     1      17.487  -5.660   1.809  1.00  0.00    -0.347 N 
HETATM   18  C2  UNL     1      17.011  -5.009   2.972  1.00  0.00     0.214 C 
HETATM   19  C1  UNL     1      16.778  -5.769   4.225  1.00  0.00     0.117 C 
HETATM   20  O1  UNL     1      16.777  -3.766   2.966  1.00  0.00    -0.274 OA
ATOM     21  H1  UNL     1      17.671  -6.663   1.835  1.00  0.00     0.163 HD
ENDBRANCH  16  17
BRANCH  16  22
HETATM   22  C15 UNL     1      19.096  -5.221   0.087  1.00  0.00     0.281 C 
BRANCH  22  23
HETATM   23  O5  UNL     1      19.725  -5.941   1.130  1.00  0.00    -0.369 OA
ATOM     24  H5  UNL     1      20.550  -6.253   0.776  1.00  0.00     0.212 HD
ENDBRANCH  22  23
BRANCH  22  25
HETATM   25  O6  UNL     1      19.857  -4.059  -0.048  1.00  0.00    -0.369 OA
ATOM     26  H6  UNL     1      20.442  -3.940   0.691  1.00  0.00     0.212 HD
ENDBRANCH  22  25
ENDBRANCH  16  22
ENDBRANCH  14  16
ENDBRANCH   9  10
BRANCH   9  27
HETATM   27  N3  UNL     1      13.539  -7.056  -3.642  1.00  0.00    -0.208 N 
ATOM     28  H3  UNL     1      14.338  -7.637  -3.899  1.00  0.00     0.179 HD
BRANCH  27  29
HETATM   29  C8  UNL     1      12.690  -6.541  -4.670  1.00  0.00     0.693 C 
HETATM   30  N4  UNL     1      11.574  -5.939  -4.433  1.00  0.00    -0.177 N 
HETATM   31  C9  UNL     1      10.815  -5.468  -5.549  1.00  0.00     0.416 C 
ATOM     32  H4  UNL     1      11.243  -5.803  -3.478  1.00  0.00     0.181 HD
HETATM   33  N6  UNL     1      10.888  -6.293  -6.707  1.00  0.00    -0.274 N 
HETATM   34  N7  UNL     1      12.125  -6.802  -7.014  1.00  0.00    -0.230 N 
ATOM     35  H6  UNL     1      10.067  -6.494  -7.277  1.00  0.00     0.185 HD
HETATM   36  N8  UNL     1      13.081  -6.692  -6.029  1.00  0.00    -0.118 N 
ATOM     37  H7  UNL     1      12.324  -7.236  -7.915  1.00  0.00     0.208 HD
ATOM     38  H8  UNL     1      14.070  -6.719  -6.274  1.00  0.00     0.207 HD
BRANCH  31  39
HETATM   39  N5  UNL     1      11.235  -4.091  -5.809  1.00  0.00    -0.039 N 
ATOM     40  H53 UNL     1      12.205  -3.914  -5.550  1.00  0.00     0.279 HD
ATOM     41  H52 UNL     1      11.325  -3.882  -6.803  1.00  0.00     0.279 HD
ATOM     42  H51 UNL     1      10.576  -3.478  -5.330  1.00  0.00     0.279 HD
ENDBRANCH  31  39
ENDBRANCH  27  29
ENDBRANCH   9  27
ENDBRANCH   1   9
BRANCH   3  43
HETATM   43  C12 UNL     1      13.633 -10.914   0.499  1.00  0.00     0.331 C 
BRANCH  43  44
HETATM   44  O3  UNL     1      13.882 -10.383   1.756  1.00  0.00    -0.364 OA
ATOM     45  H3  UNL     1      13.686 -11.058   2.395  1.00  0.00     0.213 HD
ENDBRANCH  43  44
BRANCH  43  46
HETATM   46  O4  UNL     1      12.694 -11.923   0.631  1.00  0.00    -0.364 OA
ATOM     47  H4  UNL     1      12.830 -12.539  -0.080  1.00  0.00     0.213 HD
ENDBRANCH  43  46
ENDBRANCH   3  43
TORSDOF 13
ENDMDL
MODEL 2
REMARK VINA RESULT: -7.795620104      0.903      1.050
REMARK  13 active torsions:
REMARK  status: ('A' for Active; 'I' for Inactive)
REMARK       I    between atoms: C2_2  and  N1_4 
REMARK    1  A    between atoms: N1_4  and  C3_6 
REMARK    2  A    between atoms: C3_6  and  C4_7 
REMARK    3  A    between atoms: C3_6  and  C15_43 
REMARK    4  A    between atoms: C6_11  and  C7_12 
REMARK    5  A    between atoms: C7_12  and  N3_13 
REMARK    6  A    between atoms: C7_12  and  C10_29 
REMARK    7  A    between atoms: N3_13  and  C8_15 
REMARK    8  A    between atoms: C9_18  and  N5_19 
REMARK    9  A    between atoms: C11_31  and  C12_32 
REMARK   10  A    between atoms: C12_32  and  O3_33 
REMARK   11  A    between atoms: C12_32  and  O4_35 
REMARK   12  A    between atoms: C15_43  and  O5_44 
REMARK   13  A    between atoms: C15_43  and  O6_46 
ROOT
HETATM    1  C10 UNL     1      13.031  -8.060  -1.672  1.00  0.00     0.122 A 
HETATM    2  O2  UNL     1      13.787  -8.863  -0.974  1.00  0.00    -0.291 OA
HETATM    3  C11 UNL     1      13.100  -9.807  -0.397  1.00  0.00     0.180 A 
HETATM    4  N9  UNL     1      11.815  -9.615  -0.738  1.00  0.00    -0.325 N 
ATOM      5  H9  UNL     1      11.028 -10.193  -0.443  1.00  0.00     0.168 HD
HETATM    6  C13 UNL     1      11.738  -8.526  -1.537  1.00  0.00     0.148 A 
HETATM    7  C14 UNL     1      10.537  -7.994  -2.110  1.00  0.00     0.120 C 
HETATM    8  N10 UNL     1       9.568  -7.563  -2.574  1.00  0.00    -0.190 NA
ENDROOT
BRANCH   1   9
HETATM    9  C7  UNL     1      13.449  -6.875  -2.465  1.00  0.00     0.217 C 
BRANCH   9  10
HETATM   10  C6  UNL     1      14.824  -6.487  -2.044  1.00  0.00     0.081 A 
HETATM   11  N2  UNL     1      15.831  -6.254  -2.865  1.00  0.00    -0.360 N 
HETATM   12  C5  UNL     1      16.992  -5.920  -2.396  1.00  0.00     0.105 A 
ATOM     13  H2  UNL     1      15.696  -6.338  -3.872  1.00  0.00     0.165 HD
HETATM   14  C4  UNL     1      17.127  -5.821  -1.036  1.00  0.00     0.027 A 
HETATM   15  S1  UNL     1      15.536  -6.223  -0.516  1.00  0.00    -0.075 SA
BRANCH  14  16
HETATM   16  C3  UNL     1      18.327  -5.460  -0.210  1.00  0.00     0.180 C 
BRANCH  16  17
HETATM   17  N1  UNL     1      17.814  -5.286   1.153  1.00  0.00    -0.347 N 
HETATM   18  C2  UNL     1      17.448  -4.007   1.634  1.00  0.00     0.214 C 
HETATM   19  C1  UNL     1      16.929  -3.836   3.014  1.00  0.00     0.117 C 
HETATM   20  O1  UNL     1      17.558  -2.984   0.897  1.00  0.00    -0.274 OA
ATOM     21  H1  UNL     1      17.719  -6.098   1.762  1.00  0.00     0.163 HD
ENDBRANCH  16  17
BRANCH  16  22
HETATM   22  C15 UNL     1      19.341  -6.553  -0.193  1.00  0.00     0.281 C 
BRANCH  22  23
HETATM   23  O5  UNL     1      18.614  -7.765  -0.275  1.00  0.00    -0.369 OA
ATOM     24  H5  UNL     1      18.135  -7.731  -1.096  1.00  0.00     0.212 HD
ENDBRANCH  22  23
BRANCH  22  25
HETATM   25  O6  UNL     1      19.996  -6.618   1.037  1.00  0.00    -0.369 OA
ATOM     26  H6  UNL     1      20.736  -7.215   1.004  1.00  0.00     0.212 HD
ENDBRANCH  22  25
ENDBRANCH  16  22
ENDBRANCH  14  16
ENDBRANCH   9  10
BRANCH   9  27
HETATM   27  N3  UNL     1      13.522  -7.228  -3.889  1.00  0.00    -0.208 N 
ATOM     28  H3  UNL     1      14.220  -7.903  -4.201  1.00  0.00     0.179 HD
BRANCH  27  29
HETATM   29  C8  UNL     1      12.635  -6.646  -4.849  1.00  0.00     0.693 C 
HETATM   30  N4  UNL     1      11.631  -5.903  -4.527  1.00  0.00    -0.177 N 
HETATM   31  C9  UNL     1      10.819  -5.379  -5.581  1.00  0.00     0.416 C 
ATOM     32  H4  UNL     1      11.422  -5.695  -3.551  1.00  0.00     0.181 HD
HETATM   33  N6  UNL     1      10.670  -6.245  -6.701  1.00  0.00    -0.274 N 
HETATM   34  N7  UNL     1      11.797  -6.913  -7.108  1.00  0.00    -0.230 N 
ATOM     35  H6  UNL     1       9.774  -6.362  -7.176  1.00  0.00     0.185 HD
HETATM   36  N8  UNL     1      12.859  -6.889  -6.231  1.00  0.00    -0.118 N 
ATOM     37  H7  UNL     1      11.846  -7.397  -8.004  1.00  0.00     0.208 HD
ATOM     38  H8  UNL     1      13.806  -7.045  -6.574  1.00  0.00     0.207 HD
BRANCH  31  39
HETATM   39  N5  UNL     1      11.370  -4.074  -5.945  1.00  0.00    -0.039 N 
ATOM     40  H53 UNL     1      12.036  -3.717  -5.260  1.00  0.00     0.279 HD
ATOM     41  H52 UNL     1      12.009  -4.117  -6.739  1.00  0.00     0.279 HD
ATOM     42  H51 UNL     1      10.582  -3.445  -6.100  1.00  0.00     0.279 HD
ENDBRANCH  31  39
ENDBRANCH  27  29
ENDBRANCH   9  27
ENDBRANCH   1   9
BRANCH   3  43
HETATM   43  C12 UNL     1      13.690 -10.879   0.470  1.00  0.00     0.331 C 
BRANCH  43  44
HETATM   44  O3  UNL     1      13.877 -10.337   1.733  1.00  0.00    -0.364 OA
ATOM     45  H3  UNL     1      13.980 -11.060   2.341  1.00  0.00     0.213 HD
ENDBRANCH  43  44
BRANCH  43  46
HETATM   46  O4  UNL     1      12.760 -11.900   0.568  1.00  0.00    -0.364 OA
ATOM     47  H4  UNL     1      13.234 -12.710   0.713  1.00  0.00     0.213 HD
ENDBRANCH  43  46
ENDBRANCH   3  43
TORSDOF 13
ENDMDL
MODEL 3
REMARK VINA RESULT: -7.792356130      1.073      1.800
REMARK  13 active torsions:
REMARK  status: ('A' for Active; 'I' for Inactive)
REMARK       I    between atoms: C2_2  and  N1_4 
REMARK    1  A    between atoms: N1_4  and  C3_6 
REMARK    2  A    between atoms: C3_6  and  C4_7 
REMARK    3  A    between atoms: C3_6  and  C15_43 
REMARK    4  A    between atoms: C6_11  and  C7_12 
REMARK    5  A    between atoms: C7_12  and  N3_13 
REMARK    6  A    between atoms: C7_12  and  C10_29 
REMARK    7  A    between atoms: N3_13  and  C8_15 
REMARK    8  A    between atoms: C9_18  and  N5_19 
REMARK    9  A    between atoms: C11_31  and  C12_32 
REMARK   10  A    between atoms: C12_32  and  O3_33 
REMARK   11  A    between atoms: C12_32  and  O4_35 
REMARK   12  A    between atoms: C15_43  and  O5_44 
REMARK   13  A    between atoms: C15_43  and  O6_46 
ROOT
HETATM    1  C10 UNL     1      12.941  -8.013  -1.474  1.00  0.00     0.122 A 
HETATM    2  O2  UNL     1      13.699  -8.825  -0.790  1.00  0.00    -0.291 OA
HETATM    3  C11 UNL     1      13.034  -9.845  -0.328  1.00  0.00     0.180 A 
HETATM    4  N9  UNL     1      11.763  -9.696  -0.733  1.00  0.00    -0.325 N 
ATOM      5  H9  UNL     1      10.994 -10.335  -0.532  1.00  0.00     0.168 HD
HETATM    6  C13 UNL     1      11.671  -8.555  -1.454  1.00  0.00     0.148 A 
HETATM    7  C14 UNL     1      10.477  -8.044  -2.061  1.00  0.00     0.120 C 
HETATM    8  N10 UNL     1       9.514  -7.630  -2.552  1.00  0.00    -0.190 NA
ENDROOT
BRANCH   1   9
HETATM    9  C7  UNL     1      13.337  -6.749  -2.149  1.00  0.00     0.217 C 
BRANCH   9  10
HETATM   10  C6  UNL     1      14.614  -6.273  -1.549  1.00  0.00     0.081 A 
HETATM   11  N2  UNL     1      15.707  -5.980  -2.229  1.00  0.00    -0.360 N 
HETATM   12  C5  UNL     1      16.770  -5.572  -1.610  1.00  0.00     0.105 A 
ATOM     13  H2  UNL     1      15.716  -6.075  -3.244  1.00  0.00     0.165 HD
HETATM   14  C4  UNL     1      16.711  -5.460  -0.246  1.00  0.00     0.027 A 
HETATM   15  S1  UNL     1      15.093  -5.961   0.057  1.00  0.00    -0.075 SA
BRANCH  14  16
HETATM   16  C3  UNL     1      17.763  -5.021   0.732  1.00  0.00     0.180 C 
BRANCH  16  17
HETATM   17  N1  UNL     1      19.036  -5.425   0.127  1.00  0.00    -0.347 N 
HETATM   18  C2  UNL     1      19.892  -6.344   0.780  1.00  0.00     0.214 C 
HETATM   19  C1  UNL     1      21.180  -6.750   0.164  1.00  0.00     0.117 C 
HETATM   20  O1  UNL     1      19.576  -6.837   1.902  1.00  0.00    -0.274 OA
ATOM     21  H1  UNL     1      19.309  -5.039  -0.776  1.00  0.00     0.163 HD
ENDBRANCH  16  17
BRANCH  16  22
HETATM   22  C15 UNL     1      17.777  -3.541   0.908  1.00  0.00     0.281 C 
BRANCH  22  23
HETATM   23  O5  UNL     1      16.423  -3.147   1.028  1.00  0.00    -0.369 OA
ATOM     24  H5  UNL     1      16.188  -2.752   0.196  1.00  0.00     0.212 HD
ENDBRANCH  22  23
BRANCH  22  25
HETATM   25  O6  UNL     1      18.231  -2.897  -0.243  1.00  0.00    -0.369 OA
ATOM     26  H6  UNL     1      18.103  -1.957  -0.187  1.00  0.00     0.212 HD
ENDBRANCH  22  25
ENDBRANCH  16  22
ENDBRANCH  14  16
ENDBRANCH   9  10
BRANCH   9  27
HETATM   27  N3  UNL     1      13.601  -7.007  -3.572  1.00  0.00    -0.208 N 
ATOM     28  H3  UNL     1      14.414  -7.565  -3.835  1.00  0.00     0.179 HD
BRANCH  27  29
HETATM   29  C8  UNL     1      12.746  -6.493  -4.595  1.00  0.00     0.693 C 
HETATM   30  N4  UNL     1      11.637  -5.881  -4.351  1.00  0.00    -0.177 N 
HETATM   31  C9  UNL     1      10.870  -5.413  -5.464  1.00  0.00     0.416 C 
ATOM     32  H4  UNL     1      11.316  -5.735  -3.394  1.00  0.00     0.181 HD
HETATM   33  N6  UNL     1      10.925  -6.246  -6.616  1.00  0.00    -0.274 N 
HETATM   34  N7  UNL     1      12.155  -6.767  -6.931  1.00  0.00    -0.230 N 
ATOM     35  H6  UNL     1      10.097  -6.446  -7.177  1.00  0.00     0.185 HD
HETATM   36  N8  UNL     1      13.122  -6.656  -5.956  1.00  0.00    -0.118 N 
ATOM     37  H7  UNL     1      12.342  -7.208  -7.831  1.00  0.00     0.208 HD
ATOM     38  H8  UNL     1      14.109  -6.692  -6.211  1.00  0.00     0.207 HD
BRANCH  31  39
HETATM   39  N5  UNL     1      11.297  -4.040  -5.738  1.00  0.00    -0.039 N 
ATOM     40  H53 UNL     1      10.688  -3.341  -5.314  1.00  0.00     0.279 HD
ATOM     41  H52 UNL     1      12.154  -3.784  -5.248  1.00  0.00     0.279 HD
ATOM     42  H51 UNL     1      11.371  -3.943  -6.751  1.00  0.00     0.279 HD
ENDBRANCH  31  39
ENDBRANCH  27  29
ENDBRANCH   9  27
ENDBRANCH   1   9
BRANCH   3  43
HETATM   43  C12 UNL     1      13.632 -10.948   0.494  1.00  0.00     0.331 C 
BRANCH  43  44
HETATM   44  O3  UNL     1      13.906 -10.429   1.751  1.00  0.00    -0.364 OA
ATOM     45  H3  UNL     1      14.769 -10.033   1.714  1.00  0.00     0.213 HD
ENDBRANCH  43  44
BRANCH  43  46
HETATM   46  O4  UNL     1      12.674 -11.938   0.631  1.00  0.00    -0.364 OA
ATOM     47  H4  UNL     1      12.922 -12.481   1.370  1.00  0.00     0.213 HD
ENDBRANCH  43  46
ENDBRANCH   3  43
TORSDOF 13
ENDMDL
MODEL 4
REMARK VINA RESULT: -7.559878653      2.340      3.636
REMARK  13 active torsions:
REMARK  status: ('A' for Active; 'I' for Inactive)
REMARK       I    between atoms: C2_2  and  N1_4 
REMARK    1  A    between atoms: N1_4  and  C3_6 
REMARK    2  A    between atoms: C3_6  and  C4_7 
REMARK    3  A    between atoms: C3_6  and  C15_43 
REMARK    4  A    between atoms: C6_11  and  C7_12 
REMARK    5  A    between atoms: C7_12  and  N3_13 
REMARK    6  A    between atoms: C7_12  and  C10_29 
REMARK    7  A    between atoms: N3_13  and  C8_15 
REMARK    8  A    between atoms: C9_18  and  N5_19 
REMARK    9  A    between atoms: C11_31  and  C12_32 
REMARK   10  A    between atoms: C12_32  and  O3_33 
REMARK   11  A    between atoms: C12_32  and  O4_35 
REMARK   12  A    between atoms: C15_43  and  O5_44 
REMARK   13  A    between atoms: C15_43  and  O6_46 
ROOT
HETATM    1  C10 UNL     1      12.429  -8.200  -1.017  1.00  0.00     0.122 A 
HETATM    2  O2  UNL     1      13.010  -9.042  -0.206  1.00  0.00    -0.291 OA
HETATM    3  C11 UNL     1      12.159  -9.866   0.338  1.00  0.00     0.180 A 
HETATM    4  N9  UNL     1      10.947  -9.548  -0.145  1.00  0.00    -0.325 N 
ATOM      5  H9  UNL     1      10.071 -10.013   0.091  1.00  0.00     0.168 HD
HETATM    6  C13 UNL     1      11.082  -8.506  -0.998  1.00  0.00     0.148 A 
HETATM    7  C14 UNL     1      10.017  -7.873  -1.718  1.00  0.00     0.120 C 
HETATM    8  N10 UNL     1       9.158  -7.360  -2.301  1.00  0.00    -0.190 NA
ENDROOT
BRANCH   1   9
HETATM    9  C7  UNL     1      13.064  -7.119  -1.814  1.00  0.00     0.217 C 
BRANCH   9  10
HETATM   10  C6  UNL     1      13.806  -6.222  -0.885  1.00  0.00     0.081 A 
HETATM   11  N2  UNL     1      13.264  -5.249  -0.175  1.00  0.00    -0.360 N 
HETATM   12  C5  UNL     1      14.000  -4.524   0.607  1.00  0.00     0.105 A 
ATOM     13  H2  UNL     1      12.263  -5.068  -0.242  1.00  0.00     0.165 HD
HETATM   14  C4  UNL     1      15.340  -4.804   0.663  1.00  0.00     0.027 A 
HETATM   15  S1  UNL     1      15.449  -6.123  -0.437  1.00  0.00    -0.075 SA
BRANCH  14  16
HETATM   16  C3  UNL     1      16.429  -4.148   1.462  1.00  0.00     0.180 C 
BRANCH  16  17
HETATM   17  N1  UNL     1      16.745  -5.104   2.529  1.00  0.00    -0.347 N 
HETATM   18  C2  UNL     1      16.049  -5.076   3.760  1.00  0.00     0.214 C 
HETATM   19  C1  UNL     1      16.374  -6.045   4.837  1.00  0.00     0.117 C 
HETATM   20  O1  UNL     1      15.137  -4.223   3.968  1.00  0.00    -0.274 OA
ATOM     21  H1  UNL     1      17.478  -5.798   2.381  1.00  0.00     0.163 HD
ENDBRANCH  16  17
BRANCH  16  22
HETATM   22  C15 UNL     1      17.659  -3.926   0.651  1.00  0.00     0.281 C 
BRANCH  22  23
HETATM   23  O5  UNL     1      18.742  -4.356   1.455  1.00  0.00    -0.369 OA
ATOM     24  H5  UNL     1      19.447  -4.572   0.855  1.00  0.00     0.212 HD
ENDBRANCH  22  23
BRANCH  22  25
HETATM   25  O6  UNL     1      17.892  -2.566   0.444  1.00  0.00    -0.369 OA
ATOM     26  H6  UNL     1      18.279  -2.408  -0.410  1.00  0.00     0.212 HD
ENDBRANCH  22  25
ENDBRANCH  16  22
ENDBRANCH  14  16
ENDBRANCH   9  10
BRANCH   9  27
HETATM   27  N3  UNL     1      14.053  -7.694  -2.736  1.00  0.00    -0.208 N 
ATOM     28  H3  UNL     1      14.269  -7.204  -3.604  1.00  0.00     0.179 HD
BRANCH  27  29
HETATM   29  C8  UNL     1      14.720  -8.925  -2.443  1.00  0.00     0.693 C 
HETATM   30  N4  UNL     1      15.801  -8.996  -1.744  1.00  0.00    -0.177 N 
HETATM   31  C9  UNL     1      16.371 -10.288  -1.520  1.00  0.00     0.416 C 
ATOM     32  H4  UNL     1      16.237  -8.157  -1.362  1.00  0.00     0.181 HD
HETATM   33  N6  UNL     1      16.224 -11.199  -2.605  1.00  0.00    -0.274 N 
HETATM   34  N7  UNL     1      15.006 -11.198  -3.237  1.00  0.00    -0.230 N 
ATOM     35  H6  UNL     1      16.980 -11.817  -2.896  1.00  0.00     0.185 HD
HETATM   36  N8  UNL     1      14.175 -10.140  -2.940  1.00  0.00    -0.118 N 
ATOM     37  H7  UNL     1      14.732 -11.935  -3.886  1.00  0.00     0.208 HD
ATOM     38  H8  UNL     1      13.169 -10.228  -3.077  1.00  0.00     0.207 HD
BRANCH  31  39
HETATM   39  N5  UNL     1      15.807 -10.801  -0.271  1.00  0.00    -0.039 N 
ATOM     40  H53 UNL     1      15.487 -10.062   0.355  1.00  0.00     0.279 HD
ATOM     41  H52 UNL     1      14.907 -11.263  -0.400  1.00  0.00     0.279 HD
ATOM     42  H51 UNL     1      16.510 -11.406   0.153  1.00  0.00     0.279 HD
ENDBRANCH  31  39
ENDBRANCH  27  29
ENDBRANCH   9  27
ENDBRANCH   1   9
BRANCH   3  43
HETATM   43  C12 UNL     1      12.526 -10.946   1.311  1.00  0.00     0.331 C 
BRANCH  43  44
HETATM   44  O3  UNL     1      12.885 -12.066   0.575  1.00  0.00    -0.364 OA
ATOM     45  H3  UNL     1      13.627 -12.468   1.011  1.00  0.00     0.213 HD
ENDBRANCH  43  44
BRANCH  43  46
HETATM   46  O4  UNL     1      13.636 -10.516   2.018  1.00  0.00    -0.364 OA
ATOM     47  H4  UNL     1      13.738 -11.085   2.772  1.00  0.00     0.213 HD
ENDBRANCH  43  46
ENDBRANCH   3  43
TORSDOF 13
ENDMDL
MODEL 5
REMARK VINA RESULT: -7.510580956      2.597      4.044
REMARK  13 active torsions:
REMARK  status: ('A' for Active; 'I' for Inactive)
REMARK       I    between atoms: C2_2  and  N1_4 
REMARK    1  A    between atoms: N1_4  and  C3_6 
REMARK    2  A    between atoms: C3_6  and  C4_7 
REMARK    3  A    between atoms: C3_6  and  C15_43 
REMARK    4  A    between atoms: C6_11  and  C7_12 
REMARK    5  A    between atoms: C7_12  and  N3_13 
REMARK    6  A    between atoms: C7_12  and  C10_29 
REMARK    7  A    between atoms: N3_13  and  C8_15 
REMARK    8  A    between atoms: C9_18  and  N5_19 
REMARK    9  A    between atoms: C11_31  and  C12_32 
REMARK   10  A    between atoms: C12_32  and  O3_33 
REMARK   11  A    between atoms: C12_32  and  O4_35 
REMARK   12  A    between atoms: C15_43  and  O5_44 
REMARK   13  A    between atoms: C15_43  and  O6_46 
ROOT
HETATM    1  C10 UNL     1      12.675  -8.102  -0.727  1.00  0.00     0.122 A 
HETATM    2  O2  UNL     1      13.191  -8.957   0.113  1.00  0.00    -0.291 OA
HETATM    3  C11 UNL     1      12.377  -9.940   0.375  1.00  0.00     0.180 A 
HETATM    4  N9  UNL     1      11.260  -9.719  -0.337  1.00  0.00    -0.325 N 
ATOM      5  H9  UNL     1      10.433 -10.316  -0.346  1.00  0.00     0.168 HD
HETATM    6  C13 UNL     1      11.414  -8.573  -1.039  1.00  0.00     0.148 A 
HETATM    7  C14 UNL     1      10.442  -7.996  -1.919  1.00  0.00     0.120 C 
HETATM    8  N10 UNL     1       9.657  -7.528  -2.631  1.00  0.00    -0.190 NA
ENDROOT
BRANCH   1   9
HETATM    9  C7  UNL     1      13.295  -6.861  -1.260  1.00  0.00     0.217 C 
BRANCH   9  10
HETATM   10  C6  UNL     1      13.909  -6.116  -0.127  1.00  0.00     0.081 A 
HETATM   11  N2  UNL     1      13.368  -5.973   1.069  1.00  0.00    -0.360 N 
HETATM   12  C5  UNL     1      13.987  -5.304   1.990  1.00  0.00     0.105 A 
ATOM     13  H2  UNL     1      12.459  -6.390   1.268  1.00  0.00     0.165 HD
HETATM   14  C4  UNL     1      15.205  -4.761   1.675  1.00  0.00     0.027 A 
HETATM   15  S1  UNL     1      15.378  -5.265   0.038  1.00  0.00    -0.075 SA
BRANCH  14  16
HETATM   16  C3  UNL     1      16.144  -3.948   2.517  1.00  0.00     0.180 C 
BRANCH  16  17
HETATM   17  N1  UNL     1      17.442  -4.620   2.397  1.00  0.00    -0.347 N 
HETATM   18  C2  UNL     1      17.836  -5.613   3.324  1.00  0.00     0.214 C 
HETATM   19  C1  UNL     1      19.151  -6.290   3.198  1.00  0.00     0.117 C 
HETATM   20  O1  UNL     1      17.074  -5.943   4.279  1.00  0.00    -0.274 OA
ATOM     21  H1  UNL     1      18.070  -4.367   1.634  1.00  0.00     0.163 HD
ENDBRANCH  16  17
BRANCH  16  22
HETATM   22  C15 UNL     1      16.288  -2.555   2.006  1.00  0.00     0.281 C 
BRANCH  22  23
HETATM   23  O5  UNL     1      15.040  -2.217   1.430  1.00  0.00    -0.369 OA
ATOM     24  H5  UNL     1      14.697  -3.019   1.051  1.00  0.00     0.212 HD
ENDBRANCH  22  23
BRANCH  22  25
HETATM   25  O6  UNL     1      17.193  -2.494   0.946  1.00  0.00    -0.369 OA
ATOM     26  H6  UNL     1      18.085  -2.394   1.257  1.00  0.00     0.212 HD
ENDBRANCH  22  25
ENDBRANCH  16  22
ENDBRANCH  14  16
ENDBRANCH   9  10
BRANCH   9  27
HETATM   27  N3  UNL     1      14.383  -7.206  -2.186  1.00  0.00    -0.208 N 
ATOM     28  H3  UNL     1      14.604  -6.570  -2.953  1.00  0.00     0.179 HD
BRANCH  27  29
HETATM   29  C8  UNL     1      15.138  -8.410  -2.036  1.00  0.00     0.693 C 
HETATM   30  N4  UNL     1      14.679  -9.577  -2.342  1.00  0.00    -0.177 N 
HETATM   31  C9  UNL     1      15.535 -10.706  -2.146  1.00  0.00     0.416 C 
ATOM     32  H4  UNL     1      13.736  -9.691  -2.711  1.00  0.00     0.181 HD
HETATM   33  N6  UNL     1      16.397 -10.609  -1.018  1.00  0.00    -0.274 N 
HETATM   34  N7  UNL     1      16.984  -9.387  -0.805  1.00  0.00    -0.230 N 
ATOM     35  H6  UNL     1      16.570 -11.404  -0.403  1.00  0.00     0.185 HD
HETATM   36  N8  UNL     1      16.462  -8.336  -1.526  1.00  0.00    -0.118 N 
ATOM     37  H7  UNL     1      17.758  -9.264  -0.153  1.00  0.00     0.208 HD
ATOM     38  H8  UNL     1      17.027  -7.504  -1.694  1.00  0.00     0.207 HD
BRANCH  31  39
HETATM   39  N5  UNL     1      16.262 -10.921  -3.397  1.00  0.00    -0.039 N 
ATOM     40  H53 UNL     1      17.117 -10.368  -3.462  1.00  0.00     0.279 HD
ATOM     41  H52 UNL     1      16.697 -11.841  -3.453  1.00  0.00     0.279 HD
ATOM     42  H51 UNL     1      15.611 -10.739  -4.161  1.00  0.00     0.279 HD
ENDBRANCH  31  39
ENDBRANCH  27  29
ENDBRANCH   9  27
ENDBRANCH   1   9
BRANCH   3  43
HETATM   43  C12 UNL     1      12.689 -11.076   1.304  1.00  0.00     0.331 C 
BRANCH  43  44
HETATM   44  O3  UNL     1      12.887 -12.207   0.526  1.00  0.00    -0.364 OA
ATOM     45  H3  UNL     1      13.621 -12.683   0.897  1.00  0.00     0.213 HD
ENDBRANCH  43  44
BRANCH  43  46
HETATM   46  O4  UNL     1      13.877 -10.777   1.949  1.00  0.00    -0.364 OA
ATOM     47  H4  UNL     1      13.715 -10.814   2.884  1.00  0.00     0.213 HD
ENDBRANCH  43  46
ENDBRANCH   3  43
TORSDOF 13
ENDMDL
