MODEL 1
REMARK VINA RESULT: -7.667265537      0.000      0.000
REMARK  7 active torsions:
REMARK  status: ('A' for Active; 'I' for Inactive)
REMARK    1  A    between atoms: C1_4  and  N2_5 
REMARK    2  A    between atoms: C1_4  and  C8_17 
REMARK    3  A    between atoms: N2_5  and  O1_7 
REMARK    4  A    between atoms: O1_7  and  C2_8 
REMARK    5  A    between atoms: C2_8  and  C3_10 
REMARK    6  A    between atoms: C3_10  and  S1_11 
REMARK    7  A    between atoms: S1_11  and  C4_12 
ROOT
HETATM    1  N2  UNL     1      11.355  15.735  57.200  1.00  0.00    -0.241 N 
ATOM      2  H2  UNL     1      11.317  15.278  58.111  1.00  0.00     0.196 HD
ENDROOT
BRANCH   1   3
HETATM    3  C1  UNL     1      10.276  15.551  56.251  1.00  0.00     0.130 C 
HETATM    4  N1  UNL     1      10.370  14.629  55.438  1.00  0.00    -0.383 N 
ATOM      5  H12 UNL     1      11.189  14.021  55.423  1.00  0.00     0.157 HD
ATOM      6  H11 UNL     1       9.610  14.500  54.770  1.00  0.00     0.157 HD
BRANCH   3   7
HETATM    7  C8  UNL     1       9.107  16.419  56.271  1.00  0.00     0.012 A 
HETATM    8  C9  UNL     1       8.147  16.365  57.280  1.00  0.00     0.032 A 
HETATM    9  C10 UNL     1       7.056  17.194  57.263  1.00  0.00     0.088 A 
HETATM   10  N3  UNL     1       6.917  18.075  56.250  1.00  0.00    -0.375 N 
HETATM   11  C11 UNL     1       7.800  18.182  55.248  1.00  0.00     0.088 A 
ATOM     12  H3  UNL     1       6.102  18.687  56.247  1.00  0.00     0.164 HD
HETATM   13  C12 UNL     1       8.890  17.342  55.279  1.00  0.00     0.032 A 
ENDBRANCH   3   7
ENDBRANCH   1   3
BRANCH   1  14
HETATM   14  O1  UNL     1      12.418  16.517  56.875  1.00  0.00    -0.197 OA
BRANCH  14  15
HETATM   15  C2  UNL     1      12.379  17.799  56.317  1.00  0.00     0.290 C 
HETATM   16  O2  UNL     1      12.425  17.896  55.082  1.00  0.00    -0.262 OA
BRANCH  15  17
HETATM   17  C3  UNL     1      12.282  18.996  57.172  1.00  0.00     0.194 C 
BRANCH  17  18
HETATM   18  S1  UNL     1      10.753  19.874  57.182  1.00  0.00    -0.095 SA
BRANCH  18  19
HETATM   19  C4  UNL     1       9.683  19.554  58.562  1.00  0.00     0.112 A 
HETATM   20  C5  UNL     1       9.864  18.606  59.567  1.00  0.00     0.046 A 
HETATM   21  C6  UNL     1       8.792  18.713  60.424  1.00  0.00     0.028 A 
HETATM   22  C7  UNL     1       8.009  19.706  59.916  1.00  0.00     0.143 A 
HETATM   23  O3  UNL     1       8.566  20.182  58.816  1.00  0.00    -0.316 OA
ENDBRANCH  18  19
ENDBRANCH  17  18
ENDBRANCH  15  17
ENDBRANCH  14  15
ENDBRANCH   1  14
TORSDOF 7
ENDMDL
MODEL 2
REMARK VINA RESULT: -7.520584745      1.437      1.811
REMARK  7 active torsions:
REMARK  status: ('A' for Active; 'I' for Inactive)
REMARK    1  A    between atoms: C1_4  and  N2_5 
REMARK    2  A    between atoms: C1_4  and  C8_17 
REMARK    3  A    between atoms: N2_5  and  O1_7 
REMARK    4  A    between atoms: O1_7  and  C2_8 
REMARK    5  A    between atoms: C2_8  and  C3_10 
REMARK    6  A    between atoms: C3_10  and  S1_11 
REMARK    7  A    between atoms: S1_11  and  C4_12 
ROOT
HETATM    1  N2  UNL     1      11.280  16.607  57.346  1.00  0.00    -0.241 N 
ATOM      2  H2  UNL     1      11.082  16.552  58.346  1.00  0.00     0.196 HD
ENDROOT
BRANCH   1   3
HETATM    3  C1  UNL     1      10.594  15.727  56.422  1.00  0.00     0.130 C 
HETATM    4  N1  UNL     1      11.274  14.947  55.752  1.00  0.00    -0.383 N 
ATOM      5  H12 UNL     1      12.290  14.930  55.834  1.00  0.00     0.157 HD
ATOM      6  H11 UNL     1      10.791  14.328  55.101  1.00  0.00     0.157 HD
BRANCH   3   7
HETATM    7  C8  UNL     1       9.143  15.752  56.304  1.00  0.00     0.012 A 
HETATM    8  C9  UNL     1       8.448  14.966  55.385  1.00  0.00     0.032 A 
HETATM    9  C10 UNL     1       7.082  15.021  55.300  1.00  0.00     0.088 A 
HETATM   10  N3  UNL     1       6.405  15.850  56.121  1.00  0.00    -0.375 N 
HETATM   11  C11 UNL     1       7.006  16.633  57.027  1.00  0.00     0.088 A 
ATOM     12  H3  UNL     1       5.389  15.883  56.048  1.00  0.00     0.164 HD
HETATM   13  C12 UNL     1       8.379  16.568  57.101  1.00  0.00     0.032 A 
ENDBRANCH   3   7
ENDBRANCH   1   3
BRANCH   1  14
HETATM   14  O1  UNL     1      12.187  17.506  56.881  1.00  0.00    -0.197 OA
BRANCH  14  15
HETATM   15  C2  UNL     1      12.017  18.889  56.767  1.00  0.00     0.290 C 
HETATM   16  O2  UNL     1      12.958  19.620  57.106  1.00  0.00    -0.262 OA
BRANCH  15  17
HETATM   17  C3  UNL     1      10.756  19.458  56.255  1.00  0.00     0.194 C 
BRANCH  17  18
HETATM   18  S1  UNL     1       9.705  20.286  57.404  1.00  0.00    -0.095 SA
BRANCH  18  19
HETATM   19  C4  UNL     1       9.402  19.434  58.931  1.00  0.00     0.112 A 
HETATM   20  C5  UNL     1       8.288  19.557  59.758  1.00  0.00     0.046 A 
HETATM   21  C6  UNL     1       8.481  18.712  60.828  1.00  0.00     0.028 A 
HETATM   22  C7  UNL     1       9.688  18.116  60.616  1.00  0.00     0.143 A 
HETATM   23  O3  UNL     1      10.204  18.566  59.486  1.00  0.00    -0.316 OA
ENDBRANCH  18  19
ENDBRANCH  17  18
ENDBRANCH  15  17
ENDBRANCH  14  15
ENDBRANCH   1  14
TORSDOF 7
ENDMDL
MODEL 3
REMARK VINA RESULT: -7.519578987      1.421      1.703
REMARK  7 active torsions:
REMARK  status: ('A' for Active; 'I' for Inactive)
REMARK    1  A    between atoms: C1_4  and  N2_5 
REMARK    2  A    between atoms: C1_4  and  C8_17 
REMARK    3  A    between atoms: N2_5  and  O1_7 
REMARK    4  A    between atoms: O1_7  and  C2_8 
REMARK    5  A    between atoms: C2_8  and  C3_10 
REMARK    6  A    between atoms: C3_10  and  S1_11 
REMARK    7  A    between atoms: S1_11  and  C4_12 
ROOT
HETATM    1  N2  UNL     1      11.307  16.536  57.318  1.00  0.00    -0.241 N 
ATOM      2  H2  UNL     1      11.138  16.440  58.320  1.00  0.00     0.196 HD
ENDROOT
BRANCH   1   3
HETATM    3  C1  UNL     1      10.571  15.718  56.376  1.00  0.00     0.130 C 
HETATM    4  N1  UNL     1      11.211  14.968  55.636  1.00  0.00    -0.383 N 
ATOM      5  H12 UNL     1      12.229  14.933  55.674  1.00  0.00     0.157 HD
ATOM      6  H11 UNL     1      10.692  14.392  54.973  1.00  0.00     0.157 HD
BRANCH   3   7
HETATM    7  C8  UNL     1       9.117  15.767  56.321  1.00  0.00     0.012 A 
HETATM    8  C9  UNL     1       8.367  16.695  57.042  1.00  0.00     0.032 A 
HETATM    9  C10 UNL     1       6.999  16.707  56.970  1.00  0.00     0.088 A 
HETATM   10  N3  UNL     1       6.375  15.804  56.187  1.00  0.00    -0.375 N 
HETATM   11  C11 UNL     1       7.030  14.884  55.467  1.00  0.00     0.088 A 
ATOM     12  H3  UNL     1       5.356  15.822  56.141  1.00  0.00     0.164 HD
HETATM   13  C12 UNL     1       8.404  14.883  55.549  1.00  0.00     0.032 A 
ENDBRANCH   3   7
ENDBRANCH   1   3
BRANCH   1  14
HETATM   14  O1  UNL     1      12.225  17.431  56.866  1.00  0.00    -0.197 OA
BRANCH  14  15
HETATM   15  C2  UNL     1      12.082  18.821  56.803  1.00  0.00     0.290 C 
HETATM   16  O2  UNL     1      13.013  19.520  57.228  1.00  0.00    -0.262 OA
BRANCH  15  17
HETATM   17  C3  UNL     1      10.863  19.434  56.244  1.00  0.00     0.194 C 
BRANCH  17  18
HETATM   18  S1  UNL     1       9.793  20.289  57.355  1.00  0.00    -0.095 SA
BRANCH  18  19
HETATM   19  C4  UNL     1       9.444  19.462  58.886  1.00  0.00     0.112 A 
HETATM   20  C5  UNL     1       8.315  19.616  59.689  1.00  0.00     0.046 A 
HETATM   21  C6  UNL     1       8.471  18.781  60.772  1.00  0.00     0.028 A 
HETATM   22  C7  UNL     1       9.671  18.160  60.593  1.00  0.00     0.143 A 
HETATM   23  O3  UNL     1      10.218  18.586  59.468  1.00  0.00    -0.316 OA
ENDBRANCH  18  19
ENDBRANCH  17  18
ENDBRANCH  15  17
ENDBRANCH  14  15
ENDBRANCH   1  14
TORSDOF 7
ENDMDL
MODEL 4
REMARK VINA RESULT: -7.487449490      0.637      1.254
REMARK  7 active torsions:
REMARK  status: ('A' for Active; 'I' for Inactive)
REMARK    1  A    between atoms: C1_4  and  N2_5 
REMARK    2  A    between atoms: C1_4  and  C8_17 
REMARK    3  A    between atoms: N2_5  and  O1_7 
REMARK    4  A    between atoms: O1_7  and  C2_8 
REMARK    5  A    between atoms: C2_8  and  C3_10 
REMARK    6  A    between atoms: C3_10  and  S1_11 
REMARK    7  A    between atoms: S1_11  and  C4_12 
ROOT
HETATM    1  N2  UNL     1      10.939  15.024  56.415  1.00  0.00    -0.241 N 
ATOM      2  H2  UNL     1      11.419  14.129  56.511  1.00  0.00     0.196 HD
ENDROOT
BRANCH   1   3
HETATM    3  C1  UNL     1       9.687  15.102  55.690  1.00  0.00     0.130 C 
HETATM    4  N1  UNL     1       9.426  14.204  54.887  1.00  0.00    -0.383 N 
ATOM      5  H12 UNL     1      10.077  13.435  54.725  1.00  0.00     0.157 HD
ATOM      6  H11 UNL     1       8.544  14.258  54.377  1.00  0.00     0.157 HD
BRANCH   3   7
HETATM    7  C8  UNL     1       8.757  16.199  55.920  1.00  0.00     0.012 A 
HETATM    8  C9  UNL     1       8.646  17.286  55.055  1.00  0.00     0.032 A 
HETATM    9  C10 UNL     1       7.763  18.303  55.308  1.00  0.00     0.088 A 
HETATM   10  N3  UNL     1       6.993  18.243  56.413  1.00  0.00    -0.375 N 
HETATM   11  C11 UNL     1       7.046  17.230  57.288  1.00  0.00     0.088 A 
ATOM     12  H3  UNL     1       6.340  19.006  56.592  1.00  0.00     0.164 HD
HETATM   13  C12 UNL     1       7.938  16.216  57.021  1.00  0.00     0.032 A 
ENDBRANCH   3   7
ENDBRANCH   1   3
BRANCH   1  14
HETATM   14  O1  UNL     1      11.474  16.146  56.967  1.00  0.00    -0.197 OA
BRANCH  14  15
HETATM   15  C2  UNL     1      12.155  17.168  56.298  1.00  0.00     0.290 C 
HETATM   16  O2  UNL     1      12.572  16.936  55.154  1.00  0.00    -0.262 OA
BRANCH  15  17
HETATM   17  C3  UNL     1      12.366  18.481  56.935  1.00  0.00     0.194 C 
BRANCH  17  18
HETATM   18  S1  UNL     1      11.017  19.616  56.940  1.00  0.00    -0.095 SA
BRANCH  18  19
HETATM   19  C4  UNL     1       9.888  19.474  58.302  1.00  0.00     0.112 A 
HETATM   20  C5  UNL     1       9.995  18.624  59.401  1.00  0.00     0.046 A 
HETATM   21  C6  UNL     1       8.899  18.853  60.201  1.00  0.00     0.028 A 
HETATM   22  C7  UNL     1       8.175  19.820  59.569  1.00  0.00     0.143 A 
HETATM   23  O3  UNL     1       8.789  20.164  58.450  1.00  0.00    -0.316 OA
ENDBRANCH  18  19
ENDBRANCH  17  18
ENDBRANCH  15  17
ENDBRANCH  14  15
ENDBRANCH   1  14
TORSDOF 7
ENDMDL
MODEL 5
REMARK VINA RESULT: -7.484228646      2.378      3.810
REMARK  7 active torsions:
REMARK  status: ('A' for Active; 'I' for Inactive)
REMARK    1  A    between atoms: C1_4  and  N2_5 
REMARK    2  A    between atoms: C1_4  and  C8_17 
REMARK    3  A    between atoms: N2_5  and  O1_7 
REMARK    4  A    between atoms: O1_7  and  C2_8 
REMARK    5  A    between atoms: C2_8  and  C3_10 
REMARK    6  A    between atoms: C3_10  and  S1_11 
REMARK    7  A    between atoms: S1_11  and  C4_12 
ROOT
HETATM    1  N2  UNL     1      11.104  15.471  56.823  1.00  0.00    -0.241 N 
ATOM      2  H2  UNL     1      10.681  15.409  57.750  1.00  0.00     0.196 HD
ENDROOT
BRANCH   1   3
HETATM    3  C1  UNL     1      12.285  16.285  56.618  1.00  0.00     0.130 C 
HETATM    4  N1  UNL     1      13.386  15.770  56.824  1.00  0.00    -0.383 N 
ATOM      5  H12 UNL     1      13.465  14.804  57.143  1.00  0.00     0.157 HD
ATOM      6  H11 UNL     1      14.218  16.343  56.680  1.00  0.00     0.157 HD
BRANCH   3   7
HETATM    7  C8  UNL     1      12.173  17.664  56.164  1.00  0.00     0.012 A 
HETATM    8  C9  UNL     1      12.488  18.752  56.975  1.00  0.00     0.032 A 
HETATM    9  C10 UNL     1      12.364  20.037  56.514  1.00  0.00     0.088 A 
HETATM   10  N3  UNL     1      11.931  20.242  55.254  1.00  0.00    -0.375 N 
HETATM   11  C11 UNL     1      11.611  19.245  54.419  1.00  0.00     0.088 A 
ATOM     12  H3  UNL     1      11.842  21.202  54.921  1.00  0.00     0.164 HD
HETATM   13  C12 UNL     1      11.740  17.960  54.895  1.00  0.00     0.032 A 
ENDBRANCH   3   7
ENDBRANCH   1   3
BRANCH   1  14
HETATM   14  O1  UNL     1      10.559  14.792  55.779  1.00  0.00    -0.197 OA
BRANCH  14  15
HETATM   15  C2  UNL     1       9.199  14.664  55.479  1.00  0.00     0.290 C 
HETATM   16  O2  UNL     1       8.879  13.912  54.547  1.00  0.00    -0.262 OA
BRANCH  15  17
HETATM   17  C3  UNL     1       8.179  15.399  56.251  1.00  0.00     0.194 C 
BRANCH  17  18
HETATM   18  S1  UNL     1       8.104  17.149  56.051  1.00  0.00    -0.095 SA
BRANCH  18  19
HETATM   19  C4  UNL     1       8.757  18.112  57.391  1.00  0.00     0.112 A 
HETATM   20  C5  UNL     1       8.711  19.497  57.535  1.00  0.00     0.046 A 
HETATM   21  C6  UNL     1       9.338  19.803  58.722  1.00  0.00     0.028 A 
HETATM   22  C7  UNL     1       9.737  18.611  59.248  1.00  0.00     0.143 A 
HETATM   23  O3  UNL     1       9.377  17.633  58.436  1.00  0.00    -0.316 OA
ENDBRANCH  18  19
ENDBRANCH  17  18
ENDBRANCH  15  17
ENDBRANCH  14  15
ENDBRANCH   1  14
TORSDOF 7
ENDMDL
