MODEL 1
REMARK VINA RESULT: -5.926754863      0.000      0.000
REMARK  9 active torsions:
REMARK  status: ('A' for Active; 'I' for Inactive)
REMARK    1  A    between atoms: C2_2  and  C3_3 
REMARK    2  A    between atoms: N2_7  and  C5_8 
REMARK    3  A    between atoms: C5_8  and  N3_9 
REMARK    4  A    between atoms: N3_9  and  C6_11 
REMARK    5  A    between atoms: C6_11  and  N4_12 
REMARK    6  A    between atoms: C6_11  and  C7_16 
REMARK    7  A    between atoms: C7_16  and  N5_17 
REMARK    8  A    between atoms: N5_17  and  C8_20 
REMARK    9  A    between atoms: C8_20  and  C9_21 
ROOT
HETATM    1  C6  UNL     1      82.680 188.809 135.960  1.00  0.00     0.304 C 
ENDROOT
BRANCH   1   2
HETATM    2  N3  UNL     1      81.983 188.052 135.004  1.00  0.00    -0.378 N 
ATOM      3  H3  UNL     1      82.447 187.368 134.406  1.00  0.00     0.157 HD
BRANCH   2   4
HETATM    4  C5  UNL     1      80.550 188.313 134.928  1.00  0.00     0.251 C 
BRANCH   4   5
HETATM    5  N2  UNL     1      80.038 187.498 133.765  1.00  0.00    -0.301 N 
HETATM    6  C4  UNL     1      79.875 188.055 132.551  1.00  0.00     0.187 A 
HETATM    7  N1  UNL     1      79.473 187.134 131.696  1.00  0.00    -0.348 N 
HETATM    8  C3  UNL     1      79.374 185.948 132.368  1.00  0.00     0.089 A 
ATOM      9  H1  UNL     1      79.272 187.282 130.706  1.00  0.00     0.167 HD
HETATM   10  C10 UNL     1      79.738 186.220 133.672  1.00  0.00     0.219 A 
HETATM   11  F3  UNL     1      79.785 185.300 134.662  1.00  0.00    -0.183 F 
BRANCH   8  12
HETATM   12  C2  UNL     1      79.006 184.673 131.709  1.00  0.00     0.024 C 
HETATM   13  C1  UNL     1      79.459 184.337 130.543  1.00  0.00     0.013 C 
ENDBRANCH   8  12
ENDBRANCH   4   5
ENDBRANCH   2   4
ENDBRANCH   1   2
BRANCH   1  14
HETATM   14  N4  UNL     1      82.852 190.153 135.287  1.00  0.00    -0.057 N 
ATOM     15  H43 UNL     1      83.816 190.484 135.245  1.00  0.00     0.276 HD
ATOM     16  H42 UNL     1      82.698 190.143 134.280  1.00  0.00     0.276 HD
ATOM     17  H41 UNL     1      82.218 190.761 135.806  1.00  0.00     0.276 HD
ENDBRANCH   1  14
BRANCH   1  18
HETATM   18  C7  UNL     1      83.942 188.428 136.604  1.00  0.00     0.286 C 
BRANCH  18  19
HETATM   19  N5  UNL     1      84.067 188.449 138.003  1.00  0.00    -0.067 N 
ATOM     20  H52 UNL     1      83.810 189.362 138.378  1.00  0.00     0.277 HD
ATOM     21  H51 UNL     1      83.343 187.880 138.442  1.00  0.00     0.277 HD
BRANCH  19  22
HETATM   22  C8  UNL     1      85.363 188.060 138.453  1.00  0.00     0.303 C 
BRANCH  22  23
HETATM   23  C9  UNL     1      86.173 189.108 139.181  1.00  0.00     0.378 C 
HETATM   24  F1  UNL     1      86.799 188.500 140.286  1.00  0.00    -0.213 F 
HETATM   25  F2  UNL     1      85.574 190.236 139.550  1.00  0.00    -0.213 F 
ENDBRANCH  22  23
ENDBRANCH  19  22
ENDBRANCH  18  19
ENDBRANCH   1  18
TORSDOF 9
ENDMDL
MODEL 2
REMARK VINA RESULT: -5.799050751      1.693      1.948
REMARK  9 active torsions:
REMARK  status: ('A' for Active; 'I' for Inactive)
REMARK    1  A    between atoms: C2_2  and  C3_3 
REMARK    2  A    between atoms: N2_7  and  C5_8 
REMARK    3  A    between atoms: C5_8  and  N3_9 
REMARK    4  A    between atoms: N3_9  and  C6_11 
REMARK    5  A    between atoms: C6_11  and  N4_12 
REMARK    6  A    between atoms: C6_11  and  C7_16 
REMARK    7  A    between atoms: C7_16  and  N5_17 
REMARK    8  A    between atoms: N5_17  and  C8_20 
REMARK    9  A    between atoms: C8_20  and  C9_21 
ROOT
HETATM    1  C6  UNL     1      82.732 188.859 136.018  1.00  0.00     0.304 C 
ENDROOT
BRANCH   1   2
HETATM    2  N3  UNL     1      81.988 188.201 135.025  1.00  0.00    -0.378 N 
ATOM      3  H3  UNL     1      82.415 187.548 134.367  1.00  0.00     0.157 HD
BRANCH   2   4
HETATM    4  C5  UNL     1      80.564 188.515 135.001  1.00  0.00     0.251 C 
BRANCH   4   5
HETATM    5  N2  UNL     1      80.234 188.856 133.568  1.00  0.00    -0.301 N 
HETATM    6  C4  UNL     1      80.278 190.128 133.133  1.00  0.00     0.187 A 
HETATM    7  N1  UNL     1      80.007 190.161 131.843  1.00  0.00    -0.348 N 
HETATM    8  C3  UNL     1      79.783 188.879 131.425  1.00  0.00     0.089 A 
ATOM      9  H1  UNL     1      79.970 190.998 131.259  1.00  0.00     0.167 HD
HETATM   10  C10 UNL     1      79.936 188.084 132.544  1.00  0.00     0.219 A 
HETATM   11  F3  UNL     1      79.809 186.738 132.551  1.00  0.00    -0.183 F 
BRANCH   8  12
HETATM   12  C2  UNL     1      79.508 188.525 130.013  1.00  0.00     0.024 C 
HETATM   13  C1  UNL     1      80.223 187.663 129.361  1.00  0.00     0.013 C 
ENDBRANCH   8  12
ENDBRANCH   4   5
ENDBRANCH   2   4
ENDBRANCH   1   2
BRANCH   1  14
HETATM   14  N4  UNL     1      83.014 190.213 135.406  1.00  0.00    -0.057 N 
ATOM     15  H43 UNL     1      82.234 190.612 134.883  1.00  0.00     0.276 HD
ATOM     16  H42 UNL     1      83.090 190.973 136.081  1.00  0.00     0.276 HD
ATOM     17  H41 UNL     1      83.856 190.053 134.853  1.00  0.00     0.276 HD
ENDBRANCH   1  14
BRANCH   1  18
HETATM   18  C7  UNL     1      83.953 188.354 136.654  1.00  0.00     0.286 C 
BRANCH  18  19
HETATM   19  N5  UNL     1      84.092 188.370 138.052  1.00  0.00    -0.067 N 
ATOM     20  H52 UNL     1      83.787 189.264 138.438  1.00  0.00     0.277 HD
ATOM     21  H51 UNL     1      83.408 187.755 138.494  1.00  0.00     0.277 HD
BRANCH  19  22
HETATM   22  C8  UNL     1      85.414 188.054 138.484  1.00  0.00     0.303 C 
BRANCH  22  23
HETATM   23  C9  UNL     1      86.180 189.151 139.187  1.00  0.00     0.378 C 
HETATM   24  F1  UNL     1      86.845 188.592 140.295  1.00  0.00    -0.213 F 
HETATM   25  F2  UNL     1      85.532 190.255 139.544  1.00  0.00    -0.213 F 
ENDBRANCH  22  23
ENDBRANCH  19  22
ENDBRANCH  18  19
ENDBRANCH   1  18
TORSDOF 9
ENDMDL
MODEL 3
REMARK VINA RESULT: -5.789725501      1.522      1.661
REMARK  9 active torsions:
REMARK  status: ('A' for Active; 'I' for Inactive)
REMARK    1  A    between atoms: C2_2  and  C3_3 
REMARK    2  A    between atoms: N2_7  and  C5_8 
REMARK    3  A    between atoms: C5_8  and  N3_9 
REMARK    4  A    between atoms: N3_9  and  C6_11 
REMARK    5  A    between atoms: C6_11  and  N4_12 
REMARK    6  A    between atoms: C6_11  and  C7_16 
REMARK    7  A    between atoms: C7_16  and  N5_17 
REMARK    8  A    between atoms: N5_17  and  C8_20 
REMARK    9  A    between atoms: C8_20  and  C9_21 
ROOT
HETATM    1  C6  UNL     1      82.800 188.885 136.081  1.00  0.00     0.304 C 
ENDROOT
BRANCH   1   2
HETATM    2  N3  UNL     1      82.058 188.153 135.141  1.00  0.00    -0.378 N 
ATOM      3  H3  UNL     1      82.136 187.139 135.055  1.00  0.00     0.157 HD
BRANCH   2   4
HETATM    4  C5  UNL     1      81.167 188.943 134.298  1.00  0.00     0.251 C 
BRANCH   4   5
HETATM    5  N2  UNL     1      79.856 188.198 134.261  1.00  0.00    -0.301 N 
HETATM    6  C4  UNL     1      78.704 188.811 134.588  1.00  0.00     0.187 A 
HETATM    7  N1  UNL     1      77.698 187.973 134.425  1.00  0.00    -0.348 N 
HETATM    8  C3  UNL     1      78.205 186.786 133.977  1.00  0.00     0.089 A 
ATOM      9  H1  UNL     1      76.713 188.177 134.602  1.00  0.00     0.167 HD
HETATM   10  C10 UNL     1      79.571 186.968 133.887  1.00  0.00     0.219 A 
HETATM   11  F3  UNL     1      80.444 186.024 133.466  1.00  0.00    -0.183 F 
BRANCH   8  12
HETATM   12  C2  UNL     1      77.355 185.624 133.625  1.00  0.00     0.024 C 
HETATM   13  C1  UNL     1      77.650 184.415 133.984  1.00  0.00     0.013 C 
ENDBRANCH   8  12
ENDBRANCH   4   5
ENDBRANCH   2   4
ENDBRANCH   1   2
BRANCH   1  14
HETATM   14  N4  UNL     1      83.016 190.217 135.399  1.00  0.00    -0.057 N 
ATOM     15  H43 UNL     1      82.300 190.916 135.599  1.00  0.00     0.276 HD
ATOM     16  H42 UNL     1      83.798 190.758 135.766  1.00  0.00     0.276 HD
ATOM     17  H41 UNL     1      83.100 189.968 134.413  1.00  0.00     0.276 HD
ENDBRANCH   1  14
BRANCH   1  18
HETATM   18  C7  UNL     1      84.055 188.456 136.708  1.00  0.00     0.286 C 
BRANCH  18  19
HETATM   19  N5  UNL     1      84.148 188.317 138.103  1.00  0.00    -0.067 N 
ATOM     20  H52 UNL     1      83.788 189.145 138.577  1.00  0.00     0.277 HD
ATOM     21  H51 UNL     1      83.481 187.625 138.445  1.00  0.00     0.277 HD
BRANCH  19  22
HETATM   22  C8  UNL     1      85.469 188.012 138.546  1.00  0.00     0.303 C 
BRANCH  22  23
HETATM   23  C9  UNL     1      86.236 189.129 139.216  1.00  0.00     0.378 C 
HETATM   24  F1  UNL     1      86.916 188.598 140.328  1.00  0.00    -0.213 F 
HETATM   25  F2  UNL     1      85.587 190.237 139.555  1.00  0.00    -0.213 F 
ENDBRANCH  22  23
ENDBRANCH  19  22
ENDBRANCH  18  19
ENDBRANCH   1  18
TORSDOF 9
ENDMDL
MODEL 4
REMARK VINA RESULT: -5.788764545      2.741      3.772
REMARK  9 active torsions:
REMARK  status: ('A' for Active; 'I' for Inactive)
REMARK    1  A    between atoms: C2_2  and  C3_3 
REMARK    2  A    between atoms: N2_7  and  C5_8 
REMARK    3  A    between atoms: C5_8  and  N3_9 
REMARK    4  A    between atoms: N3_9  and  C6_11 
REMARK    5  A    between atoms: C6_11  and  N4_12 
REMARK    6  A    between atoms: C6_11  and  C7_16 
REMARK    7  A    between atoms: C7_16  and  N5_17 
REMARK    8  A    between atoms: N5_17  and  C8_20 
REMARK    9  A    between atoms: C8_20  and  C9_21 
ROOT
HETATM    1  C6  UNL     1      82.906 188.860 136.360  1.00  0.00     0.304 C 
ENDROOT
BRANCH   1   2
HETATM    2  N3  UNL     1      82.442 188.247 135.185  1.00  0.00    -0.378 N 
ATOM      3  H3  UNL     1      83.062 188.015 134.409  1.00  0.00     0.157 HD
BRANCH   2   4
HETATM    4  C5  UNL     1      81.011 187.964 135.152  1.00  0.00     0.251 C 
BRANCH   4   5
HETATM    5  N2  UNL     1      80.354 189.196 134.579  1.00  0.00    -0.301 N 
HETATM    6  C4  UNL     1      80.821 189.766 133.453  1.00  0.00     0.187 A 
HETATM    7  N1  UNL     1      80.052 190.787 133.125  1.00  0.00    -0.348 N 
HETATM    8  C3  UNL     1      79.057 190.882 134.058  1.00  0.00     0.089 A 
ATOM      9  H1  UNL     1      80.177 191.397 132.317  1.00  0.00     0.167 HD
HETATM   10  C10 UNL     1      79.283 189.861 134.959  1.00  0.00     0.219 A 
HETATM   11  F3  UNL     1      78.507 189.602 136.036  1.00  0.00    -0.183 F 
BRANCH   8  12
HETATM   12  C2  UNL     1      77.966 191.882 133.978  1.00  0.00     0.024 C 
HETATM   13  C1  UNL     1      77.911 192.913 134.760  1.00  0.00     0.013 C 
ENDBRANCH   8  12
ENDBRANCH   4   5
ENDBRANCH   2   4
ENDBRANCH   1   2
BRANCH   1  14
HETATM   14  N4  UNL     1      83.548 190.135 135.862  1.00  0.00    -0.057 N 
ATOM     15  H43 UNL     1      83.328 190.369 134.894  1.00  0.00     0.276 HD
ATOM     16  H42 UNL     1      83.164 190.987 136.268  1.00  0.00     0.276 HD
ATOM     17  H41 UNL     1      84.541 189.989 136.047  1.00  0.00     0.276 HD
ENDBRANCH   1  14
BRANCH   1  18
HETATM   18  C7  UNL     1      83.777 188.241 137.365  1.00  0.00     0.286 C 
BRANCH  18  19
HETATM   19  N5  UNL     1      84.722 189.011 138.065  1.00  0.00    -0.067 N 
ATOM     20  H52 UNL     1      85.205 189.654 137.438  1.00  0.00     0.277 HD
ATOM     21  H51 UNL     1      84.261 189.687 138.675  1.00  0.00     0.277 HD
BRANCH  19  22
HETATM   22  C8  UNL     1      85.655 188.217 138.797  1.00  0.00     0.303 C 
BRANCH  22  23
HETATM   23  C9  UNL     1      86.483 188.932 139.840  1.00  0.00     0.378 C 
HETATM   24  F1  UNL     1      87.074 190.061 139.244  1.00  0.00    -0.213 F 
HETATM   25  F2  UNL     1      87.389 188.239 140.521  1.00  0.00    -0.213 F 
ENDBRANCH  22  23
ENDBRANCH  19  22
ENDBRANCH  18  19
ENDBRANCH   1  18
TORSDOF 9
ENDMDL
MODEL 5
REMARK VINA RESULT: -5.633934759      2.319      3.206
REMARK  9 active torsions:
REMARK  status: ('A' for Active; 'I' for Inactive)
REMARK    1  A    between atoms: C2_2  and  C3_3 
REMARK    2  A    between atoms: N2_7  and  C5_8 
REMARK    3  A    between atoms: C5_8  and  N3_9 
REMARK    4  A    between atoms: N3_9  and  C6_11 
REMARK    5  A    between atoms: C6_11  and  N4_12 
REMARK    6  A    between atoms: C6_11  and  C7_16 
REMARK    7  A    between atoms: C7_16  and  N5_17 
REMARK    8  A    between atoms: N5_17  and  C8_20 
REMARK    9  A    between atoms: C8_20  and  C9_21 
ROOT
HETATM    1  C6  UNL     1      82.766 188.868 136.048  1.00  0.00     0.304 C 
ENDROOT
BRANCH   1   2
HETATM    2  N3  UNL     1      82.021 188.217 135.052  1.00  0.00    -0.378 N 
ATOM      3  H3  UNL     1      81.973 187.200 134.984  1.00  0.00     0.157 HD
BRANCH   2   4
HETATM    4  C5  UNL     1      81.322 189.096 134.122  1.00  0.00     0.251 C 
BRANCH   4   5
HETATM    5  N2  UNL     1      79.855 188.771 134.261  1.00  0.00    -0.301 N 
HETATM    6  C4  UNL     1      79.404 187.518 134.068  1.00  0.00     0.187 A 
HETATM    7  N1  UNL     1      78.106 187.477 134.300  1.00  0.00    -0.348 N 
HETATM    8  C3  UNL     1      77.700 188.733 134.656  1.00  0.00     0.089 A 
ATOM      9  H1  UNL     1      77.510 186.652 134.227  1.00  0.00     0.167 HD
HETATM   10  C10 UNL     1      78.834 189.521 134.619  1.00  0.00     0.219 A 
HETATM   11  F3  UNL     1      78.860 190.839 134.920  1.00  0.00    -0.183 F 
BRANCH   8  12
HETATM   12  C2  UNL     1      76.308 189.052 135.049  1.00  0.00     0.024 C 
HETATM   13  C1  UNL     1      76.024 189.698 136.135  1.00  0.00     0.013 C 
ENDBRANCH   8  12
ENDBRANCH   4   5
ENDBRANCH   2   4
ENDBRANCH   1   2
BRANCH   1  14
HETATM   14  N4  UNL     1      83.048 190.226 135.446  1.00  0.00    -0.057 N 
ATOM     15  H43 UNL     1      82.500 190.988 135.846  1.00  0.00     0.276 HD
ATOM     16  H42 UNL     1      83.960 190.613 135.687  1.00  0.00     0.276 HD
ATOM     17  H41 UNL     1      82.902 190.078 134.448  1.00  0.00     0.276 HD
ENDBRANCH   1  14
BRANCH   1  18
HETATM   18  C7  UNL     1      83.988 188.357 136.679  1.00  0.00     0.286 C 
BRANCH  18  19
HETATM   19  N5  UNL     1      84.119 188.339 138.078  1.00  0.00    -0.067 N 
ATOM     20  H52 UNL     1      83.818 189.225 138.483  1.00  0.00     0.277 HD
ATOM     21  H51 UNL     1      83.428 187.719 138.500  1.00  0.00     0.277 HD
BRANCH  19  22
HETATM   22  C8  UNL     1      85.436 188.003 138.510  1.00  0.00     0.303 C 
BRANCH  22  23
HETATM   23  C9  UNL     1      86.220 189.091 139.207  1.00  0.00     0.378 C 
HETATM   24  F1  UNL     1      86.880 188.526 140.315  1.00  0.00    -0.213 F 
HETATM   25  F2  UNL     1      85.591 190.206 139.563  1.00  0.00    -0.213 F 
ENDBRANCH  22  23
ENDBRANCH  19  22
ENDBRANCH  18  19
ENDBRANCH   1  18
TORSDOF 9
ENDMDL
