MODEL 1
REMARK VINA RESULT: -8.623558182      0.000      0.000
REMARK  8 active torsions:
REMARK  status: ('A' for Active; 'I' for Inactive)
REMARK    1  A    between atoms: C10_10  and  O1_11 
REMARK    2  A    between atoms: O1_11  and  C11_12 
REMARK    3  A    between atoms: C11_12  and  C12_14 
REMARK    4  A    between atoms: C16_18  and  O3_19 
REMARK    5  A    between atoms: O3_19  and  C17_20 
REMARK    6  A    between atoms: C17_20  and  C18_22 
REMARK    7  A    between atoms: C20_24  and  S1_25 
REMARK    8  A    between atoms: C22_32  and  O9_33 
ROOT
HETATM    1  C1  UNL     1     -15.865 -37.233 -15.082  1.00  0.00     0.017 C 
HETATM    2  C2  UNL     1     -15.865 -38.340 -14.349  1.00  0.00    -0.055 C 
HETATM    3  C3  UNL     1     -16.444 -39.549 -14.948  1.00  0.00     0.012 C 
HETATM    4  C4  UNL     1     -16.799 -39.287 -16.425  1.00  0.00     0.015 C 
HETATM    5  C5  UNL     1     -17.761 -39.996 -14.343  1.00  0.00     0.009 C 
HETATM    6  C6  UNL     1     -18.166 -41.396 -14.734  1.00  0.00     0.011 C 
HETATM    7  C7  UNL     1     -18.228 -42.389 -13.619  1.00  0.00     0.027 A 
HETATM    8  C8  UNL     1     -17.121 -42.419 -12.702  1.00  0.00    -0.067 A 
HETATM    9  C9  UNL     1     -16.700 -41.714 -11.691  1.00  0.00     0.009 C 
HETATM   10  C10 UNL     1     -15.452 -41.973 -10.882  1.00  0.00     0.155 C 
HETATM   11  C14 UNL     1     -14.649 -40.639 -10.827  1.00  0.00     0.039 C 
HETATM   12  C15 UNL     1     -14.386 -40.317 -12.241  1.00  0.00     0.038 C 
HETATM   13  C16 UNL     1     -14.043 -38.956 -12.675  1.00  0.00     0.165 C 
HETATM   14  C22 UNL     1     -15.274 -38.192 -12.999  1.00  0.00     0.176 C 
HETATM   15  C23 UNL     1     -17.204 -43.502 -13.729  1.00  0.00    -0.017 A 
HETATM   16  C24 UNL     1     -17.619 -44.889 -13.280  1.00  0.00     0.020 C 
HETATM   17  C25 UNL     1     -16.145 -43.491 -14.773  1.00  0.00     0.020 C 
ENDROOT
BRANCH  13  18
HETATM   18  O3  UNL     1     -13.181 -38.268 -11.783  1.00  0.00    -0.309 OA
BRANCH  18  19
HETATM   19  C17 UNL     1     -12.562 -37.073 -12.028  1.00  0.00     0.297 C 
HETATM   20  O4  UNL     1     -12.073 -36.918 -13.176  1.00  0.00    -0.259 OA
BRANCH  19  21
HETATM   21  C18 UNL     1     -12.465 -36.009 -11.005  1.00  0.00     0.088 A 
HETATM   22  C19 UNL     1     -11.543 -35.891  -9.986  1.00  0.00     0.074 A 
HETATM   23  C20 UNL     1     -11.833 -34.744  -9.275  1.00  0.00     0.194 A 
HETATM   24  O8  UNL     1     -12.865 -34.202  -9.832  1.00  0.00    -0.283 OA
HETATM   25  C21 UNL     1     -13.288 -34.905 -10.864  1.00  0.00     0.162 A 
HETATM   26 CL1  UNL     1     -14.642 -34.506 -11.864  1.00  0.00    -0.055 Cl
BRANCH  23  27
HETATM   27  S1  UNL     1     -10.927 -34.174  -7.878  1.00  0.00     0.161 S 
HETATM   28  O5  UNL     1     -11.730 -33.165  -7.118  1.00  0.00    -0.590 OA
HETATM   29  O6  UNL     1     -10.548 -35.319  -6.989  1.00  0.00    -0.590 OA
HETATM   30  O7  UNL     1      -9.538 -33.392  -8.420  1.00  0.00    -0.590 OA
ENDBRANCH  23  27
ENDBRANCH  19  21
ENDBRANCH  18  19
ENDBRANCH  13  18
BRANCH  14  31
HETATM   31  O9  UNL     1     -16.288 -38.227 -12.073  1.00  0.00    -0.389 OA
ATOM     32  H9  UNL     1     -16.054 -37.660 -11.348  1.00  0.00     0.210 HD
ENDBRANCH  14  31
BRANCH  10  33
HETATM   33  O1  UNL     1     -15.650 -42.521  -9.646  1.00  0.00    -0.312 OA
BRANCH  33  34
HETATM   34  C11 UNL     1     -15.611 -43.848  -9.300  1.00  0.00     0.259 C 
HETATM   35  O2  UNL     1     -15.770 -44.678 -10.229  1.00  0.00    -0.265 OA
BRANCH  34  36
HETATM   36  C12 UNL     1     -15.385 -44.220  -7.882  1.00  0.00     0.106 C 
HETATM   37  C13 UNL     1     -15.009 -45.695  -7.863  1.00  0.00     0.015 C 
ENDBRANCH  34  36
ENDBRANCH  33  34
ENDBRANCH  10  33
TORSDOF 8
ENDMDL
MODEL 2
REMARK VINA RESULT: -8.509210485      2.358      3.296
REMARK  8 active torsions:
REMARK  status: ('A' for Active; 'I' for Inactive)
REMARK    1  A    between atoms: C10_10  and  O1_11 
REMARK    2  A    between atoms: O1_11  and  C11_12 
REMARK    3  A    between atoms: C11_12  and  C12_14 
REMARK    4  A    between atoms: C16_18  and  O3_19 
REMARK    5  A    between atoms: O3_19  and  C17_20 
REMARK    6  A    between atoms: C17_20  and  C18_22 
REMARK    7  A    between atoms: C20_24  and  S1_25 
REMARK    8  A    between atoms: C22_32  and  O9_33 
ROOT
HETATM    1  C1  UNL     1     -15.912 -38.407 -14.535  1.00  0.00     0.017 C 
HETATM    2  C2  UNL     1     -15.805 -39.440 -13.709  1.00  0.00    -0.055 C 
HETATM    3  C3  UNL     1     -16.054 -40.778 -14.259  1.00  0.00     0.012 C 
HETATM    4  C4  UNL     1     -16.241 -40.692 -15.787  1.00  0.00     0.015 C 
HETATM    5  C5  UNL     1     -17.334 -41.439 -13.784  1.00  0.00     0.009 C 
HETATM    6  C6  UNL     1     -17.408 -42.914 -14.089  1.00  0.00     0.011 C 
HETATM    7  C7  UNL     1     -17.436 -43.822 -12.903  1.00  0.00     0.027 A 
HETATM    8  C8  UNL     1     -16.483 -43.568 -11.856  1.00  0.00    -0.067 A 
HETATM    9  C9  UNL     1     -16.350 -42.726 -10.871  1.00  0.00     0.009 C 
HETATM   10  C10 UNL     1     -15.201 -42.675  -9.892  1.00  0.00     0.155 C 
HETATM   11  C14 UNL     1     -14.682 -41.207  -9.863  1.00  0.00     0.039 C 
HETATM   12  C15 UNL     1     -14.289 -40.934 -11.257  1.00  0.00     0.038 C 
HETATM   13  C16 UNL     1     -14.153 -39.564 -11.771  1.00  0.00     0.165 C 
HETATM   14  C22 UNL     1     -15.448 -39.086 -12.315  1.00  0.00     0.176 C 
HETATM   15  C23 UNL     1     -16.214 -44.712 -12.780  1.00  0.00    -0.017 A 
HETATM   16  C24 UNL     1     -16.417 -46.121 -12.259  1.00  0.00     0.020 C 
HETATM   17  C25 UNL     1     -15.041 -44.559 -13.681  1.00  0.00     0.020 C 
ENDROOT
BRANCH  13  18
HETATM   18  O3  UNL     1     -13.570 -38.659 -10.846  1.00  0.00    -0.309 OA
BRANCH  18  19
HETATM   19  C17 UNL     1     -12.731 -37.624 -11.158  1.00  0.00     0.297 C 
HETATM   20  O4  UNL     1     -11.498 -37.854 -11.067  1.00  0.00    -0.259 OA
BRANCH  19  21
HETATM   21  C18 UNL     1     -13.234 -36.300 -11.581  1.00  0.00     0.088 A 
HETATM   22  C19 UNL     1     -13.993 -35.994 -12.692  1.00  0.00     0.074 A 
HETATM   23  C20 UNL     1     -14.233 -34.634 -12.687  1.00  0.00     0.194 A 
HETATM   24  O8  UNL     1     -13.655 -34.149 -11.637  1.00  0.00    -0.283 OA
HETATM   25  C21 UNL     1     -13.045 -35.087 -10.940  1.00  0.00     0.162 A 
HETATM   26 CL1  UNL     1     -12.162 -34.834  -9.474  1.00  0.00    -0.055 Cl
BRANCH  23  27
HETATM   27  S1  UNL     1     -15.161 -33.775 -13.911  1.00  0.00     0.161 S 
HETATM   28  O5  UNL     1     -16.626 -33.939 -13.657  1.00  0.00    -0.590 OA
HETATM   29  O6  UNL     1     -14.793 -32.322 -13.932  1.00  0.00    -0.590 OA
HETATM   30  O7  UNL     1     -14.839 -34.464 -15.412  1.00  0.00    -0.590 OA
ENDBRANCH  23  27
ENDBRANCH  19  21
ENDBRANCH  18  19
ENDBRANCH  13  18
BRANCH  14  31
HETATM   31  O9  UNL     1     -16.557 -39.261 -11.524  1.00  0.00    -0.389 OA
ATOM     32  H9  UNL     1     -16.528 -38.624 -10.819  1.00  0.00     0.210 HD
ENDBRANCH  14  31
BRANCH  10  33
HETATM   33  O1  UNL     1     -15.463 -43.167  -8.645  1.00  0.00    -0.312 OA
BRANCH  33  34
HETATM   34  C11 UNL     1     -15.035 -44.352  -8.103  1.00  0.00     0.259 C 
HETATM   35  O2  UNL     1     -14.351 -44.277  -7.052  1.00  0.00    -0.265 OA
BRANCH  34  36
HETATM   36  C12 UNL     1     -15.395 -45.627  -8.770  1.00  0.00     0.106 C 
HETATM   37  C13 UNL     1     -15.765 -46.616  -7.673  1.00  0.00     0.015 C 
ENDBRANCH  34  36
ENDBRANCH  33  34
ENDBRANCH  10  33
TORSDOF 8
ENDMDL
MODEL 3
REMARK VINA RESULT: -8.458211093      3.498      8.198
REMARK  8 active torsions:
REMARK  status: ('A' for Active; 'I' for Inactive)
REMARK    1  A    between atoms: C10_10  and  O1_11 
REMARK    2  A    between atoms: O1_11  and  C11_12 
REMARK    3  A    between atoms: C11_12  and  C12_14 
REMARK    4  A    between atoms: C16_18  and  O3_19 
REMARK    5  A    between atoms: O3_19  and  C17_20 
REMARK    6  A    between atoms: C17_20  and  C18_22 
REMARK    7  A    between atoms: C20_24  and  S1_25 
REMARK    8  A    between atoms: C22_32  and  O9_33 
ROOT
HETATM    1  C1  UNL     1     -16.252 -41.379 -15.597  1.00  0.00     0.017 C 
HETATM    2  C2  UNL     1     -15.699 -40.464 -14.809  1.00  0.00    -0.055 C 
HETATM    3  C3  UNL     1     -15.935 -39.053 -15.139  1.00  0.00     0.012 C 
HETATM    4  C4  UNL     1     -16.951 -38.945 -16.293  1.00  0.00     0.015 C 
HETATM    5  C5  UNL     1     -14.724 -38.307 -15.665  1.00  0.00     0.009 C 
HETATM    6  C6  UNL     1     -14.894 -36.807 -15.682  1.00  0.00     0.011 C 
HETATM    7  C7  UNL     1     -13.983 -36.041 -14.779  1.00  0.00     0.027 A 
HETATM    8  C8  UNL     1     -13.837 -36.519 -13.430  1.00  0.00    -0.067 A 
HETATM    9  C9  UNL     1     -13.196 -37.476 -12.822  1.00  0.00     0.009 C 
HETATM   10  C10 UNL     1     -13.231 -37.769 -11.340  1.00  0.00     0.155 C 
HETATM   11  C14 UNL     1     -13.564 -39.281 -11.174  1.00  0.00     0.039 C 
HETATM   12  C15 UNL     1     -14.868 -39.440 -11.843  1.00  0.00     0.038 C 
HETATM   13  C16 UNL     1     -15.351 -40.750 -12.300  1.00  0.00     0.165 C 
HETATM   14  C22 UNL     1     -14.898 -41.012 -13.689  1.00  0.00     0.176 C 
HETATM   15  C23 UNL     1     -14.698 -35.318 -13.654  1.00  0.00    -0.017 A 
HETATM   16  C24 UNL     1     -14.164 -33.962 -13.235  1.00  0.00     0.020 C 
HETATM   17  C25 UNL     1     -16.153 -35.503 -13.405  1.00  0.00     0.020 C 
ENDROOT
BRANCH  13  18
HETATM   18  O3  UNL     1     -15.055 -41.814 -11.409  1.00  0.00    -0.309 OA
BRANCH  18  19
HETATM   19  C17 UNL     1     -15.848 -42.242 -10.380  1.00  0.00     0.297 C 
HETATM   20  O4  UNL     1     -16.785 -41.477 -10.037  1.00  0.00    -0.259 OA
BRANCH  19  21
HETATM   21  C18 UNL     1     -15.626 -43.535  -9.697  1.00  0.00     0.088 A 
HETATM   22  C19 UNL     1     -15.554 -43.780  -8.342  1.00  0.00     0.074 A 
HETATM   23  C20 UNL     1     -15.337 -45.131  -8.160  1.00  0.00     0.194 A 
HETATM   24  O8  UNL     1     -15.283 -45.669  -9.333  1.00  0.00    -0.283 OA
HETATM   25  C21 UNL     1     -15.447 -44.774 -10.288  1.00  0.00     0.162 A 
HETATM   26 CL1  UNL     1     -15.439 -45.105 -11.986  1.00  0.00    -0.055 Cl
BRANCH  23  27
HETATM   27  S1  UNL     1     -15.173 -45.919  -6.595  1.00  0.00     0.161 S 
HETATM   28  O5  UNL     1     -13.787 -45.729  -6.063  1.00  0.00    -0.590 OA
HETATM   29  O6  UNL     1     -16.183 -45.385  -5.625  1.00  0.00    -0.590 OA
HETATM   30  O7  UNL     1     -15.401 -47.574  -6.800  1.00  0.00    -0.590 OA
ENDBRANCH  23  27
ENDBRANCH  19  21
ENDBRANCH  18  19
ENDBRANCH  13  18
BRANCH  14  31
HETATM   31  O9  UNL     1     -13.569 -40.798 -13.960  1.00  0.00    -0.389 OA
ATOM     32  H9  UNL     1     -13.064 -41.034 -13.190  1.00  0.00     0.210 HD
ENDBRANCH  14  31
BRANCH  10  33
HETATM   33  O1  UNL     1     -12.122 -37.392 -10.636  1.00  0.00    -0.312 OA
BRANCH  33  34
HETATM   34  C11 UNL     1     -11.539 -36.151 -10.588  1.00  0.00     0.259 C 
HETATM   35  O2  UNL     1     -10.364 -36.063 -11.024  1.00  0.00    -0.265 OA
BRANCH  34  36
HETATM   36  C12 UNL     1     -12.309 -35.009 -10.040  1.00  0.00     0.106 C 
HETATM   37  C13 UNL     1     -11.593 -34.553  -8.777  1.00  0.00     0.015 C 
ENDBRANCH  34  36
ENDBRANCH  33  34
ENDBRANCH  10  33
TORSDOF 8
ENDMDL
MODEL 4
REMARK VINA RESULT: -8.396286023      2.578      3.613
REMARK  8 active torsions:
REMARK  status: ('A' for Active; 'I' for Inactive)
REMARK    1  A    between atoms: C10_10  and  O1_11 
REMARK    2  A    between atoms: O1_11  and  C11_12 
REMARK    3  A    between atoms: C11_12  and  C12_14 
REMARK    4  A    between atoms: C16_18  and  O3_19 
REMARK    5  A    between atoms: O3_19  and  C17_20 
REMARK    6  A    between atoms: C17_20  and  C18_22 
REMARK    7  A    between atoms: C20_24  and  S1_25 
REMARK    8  A    between atoms: C22_32  and  O9_33 
ROOT
HETATM    1  C1  UNL     1     -16.826 -37.730 -14.930  1.00  0.00     0.017 C 
HETATM    2  C2  UNL     1     -16.549 -38.783 -14.171  1.00  0.00    -0.055 C 
HETATM    3  C3  UNL     1     -16.893 -40.110 -14.699  1.00  0.00     0.012 C 
HETATM    4  C4  UNL     1     -17.379 -39.986 -16.157  1.00  0.00     0.015 C 
HETATM    5  C5  UNL     1     -18.048 -40.799 -13.999  1.00  0.00     0.009 C 
HETATM    6  C6  UNL     1     -18.170 -42.267 -14.327  1.00  0.00     0.011 C 
HETATM    7  C7  UNL     1     -17.956 -43.206 -13.184  1.00  0.00     0.027 A 
HETATM    8  C8  UNL     1     -16.816 -42.967 -12.340  1.00  0.00    -0.067 A 
HETATM    9  C9  UNL     1     -16.497 -42.151 -11.377  1.00  0.00     0.009 C 
HETATM   10  C10 UNL     1     -15.178 -42.110 -10.644  1.00  0.00     0.155 C 
HETATM   11  C14 UNL     1     -14.674 -40.637 -10.676  1.00  0.00     0.039 C 
HETATM   12  C15 UNL     1     -14.566 -40.322 -12.111  1.00  0.00     0.038 C 
HETATM   13  C16 UNL     1     -14.545 -38.937 -12.602  1.00  0.00     0.165 C 
HETATM   14  C22 UNL     1     -15.926 -38.461 -12.866  1.00  0.00     0.176 C 
HETATM   15  C23 UNL     1     -16.727 -44.083 -13.331  1.00  0.00    -0.017 A 
HETATM   16  C24 UNL     1     -16.813 -45.507 -12.820  1.00  0.00     0.020 C 
HETATM   17  C25 UNL     1     -15.757 -43.891 -14.441  1.00  0.00     0.020 C 
ENDROOT
BRANCH  13  18
HETATM   18  O3  UNL     1     -13.798 -38.050 -11.786  1.00  0.00    -0.309 OA
BRANCH  18  19
HETATM   19  C17 UNL     1     -13.107 -36.951 -12.220  1.00  0.00     0.297 C 
HETATM   20  O4  UNL     1     -11.852 -37.027 -12.184  1.00  0.00    -0.259 OA
BRANCH  19  21
HETATM   21  C18 UNL     1     -13.787 -35.733 -12.708  1.00  0.00     0.088 A 
HETATM   22  C19 UNL     1     -14.253 -35.470 -13.979  1.00  0.00     0.074 A 
HETATM   23  C20 UNL     1     -14.819 -34.211 -13.978  1.00  0.00     0.194 A 
HETATM   24  O8  UNL     1     -14.703 -33.743 -12.779  1.00  0.00    -0.283 OA
HETATM   25  C21 UNL     1     -14.098 -34.598 -11.978  1.00  0.00     0.162 A 
HETATM   26 CL1  UNL     1     -13.758 -34.335 -10.302  1.00  0.00    -0.055 Cl
BRANCH  23  27
HETATM   27  S1  UNL     1     -15.550 -33.438 -15.380  1.00  0.00     0.161 S 
HETATM   28  O5  UNL     1     -14.928 -33.957 -16.639  1.00  0.00    -0.590 OA
HETATM   29  O6  UNL     1     -17.031 -33.663 -15.397  1.00  0.00    -0.590 OA
HETATM   30  O7  UNL     1     -15.227 -31.788 -15.314  1.00  0.00    -0.590 OA
ENDBRANCH  23  27
ENDBRANCH  19  21
ENDBRANCH  18  19
ENDBRANCH  13  18
BRANCH  14  31
HETATM   31  O9  UNL     1     -16.855 -38.672 -11.876  1.00  0.00    -0.389 OA
ATOM     32  H9  UNL     1     -16.406 -38.680 -11.039  1.00  0.00     0.210 HD
ENDBRANCH  14  31
BRANCH  10  33
HETATM   33  O1  UNL     1     -15.184 -42.639  -9.384  1.00  0.00    -0.312 OA
BRANCH  33  34
HETATM   34  C11 UNL     1     -15.283 -43.960  -9.028  1.00  0.00     0.259 C 
HETATM   35  O2  UNL     1     -15.119 -44.805  -9.943  1.00  0.00    -0.265 OA
BRANCH  34  36
HETATM   36  C12 UNL     1     -15.571 -44.310  -7.616  1.00  0.00     0.106 C 
HETATM   37  C13 UNL     1     -14.364 -45.073  -7.090  1.00  0.00     0.015 C 
ENDBRANCH  34  36
ENDBRANCH  33  34
ENDBRANCH  10  33
TORSDOF 8
ENDMDL
MODEL 5
REMARK VINA RESULT: -8.391602505      2.473      3.827
REMARK  8 active torsions:
REMARK  status: ('A' for Active; 'I' for Inactive)
REMARK    1  A    between atoms: C10_10  and  O1_11 
REMARK    2  A    between atoms: O1_11  and  C11_12 
REMARK    3  A    between atoms: C11_12  and  C12_14 
REMARK    4  A    between atoms: C16_18  and  O3_19 
REMARK    5  A    between atoms: O3_19  and  C17_20 
REMARK    6  A    between atoms: C17_20  and  C18_22 
REMARK    7  A    between atoms: C20_24  and  S1_25 
REMARK    8  A    between atoms: C22_32  and  O9_33 
ROOT
HETATM    1  C1  UNL     1     -15.993 -38.426 -14.538  1.00  0.00     0.017 C 
HETATM    2  C2  UNL     1     -15.867 -39.454 -13.708  1.00  0.00    -0.055 C 
HETATM    3  C3  UNL     1     -16.092 -40.798 -14.254  1.00  0.00     0.012 C 
HETATM    4  C4  UNL     1     -16.280 -40.720 -15.782  1.00  0.00     0.015 C 
HETATM    5  C5  UNL     1     -17.360 -41.480 -13.777  1.00  0.00     0.009 C 
HETATM    6  C6  UNL     1     -17.405 -42.958 -14.078  1.00  0.00     0.011 C 
HETATM    7  C7  UNL     1     -17.418 -43.862 -12.889  1.00  0.00     0.027 A 
HETATM    8  C8  UNL     1     -16.470 -43.588 -11.843  1.00  0.00    -0.067 A 
HETATM    9  C9  UNL     1     -16.353 -42.740 -10.860  1.00  0.00     0.009 C 
HETATM   10  C10 UNL     1     -15.205 -42.664  -9.881  1.00  0.00     0.155 C 
HETATM   11  C14 UNL     1     -14.714 -41.187  -9.856  1.00  0.00     0.039 C 
HETATM   12  C15 UNL     1     -14.325 -40.911 -11.251  1.00  0.00     0.038 C 
HETATM   13  C16 UNL     1     -14.214 -39.541 -11.769  1.00  0.00     0.165 C 
HETATM   14  C22 UNL     1     -15.518 -39.088 -12.315  1.00  0.00     0.176 C 
HETATM   15  C23 UNL     1     -16.179 -44.729 -12.763  1.00  0.00    -0.017 A 
HETATM   16  C24 UNL     1     -16.356 -46.140 -12.237  1.00  0.00     0.020 C 
HETATM   17  C25 UNL     1     -15.009 -44.558 -13.664  1.00  0.00     0.020 C 
ENDROOT
BRANCH  13  18
HETATM   18  O3  UNL     1     -13.649 -38.622 -10.847  1.00  0.00    -0.309 OA
BRANCH  18  19
HETATM   19  C17 UNL     1     -12.703 -37.677 -11.136  1.00  0.00     0.297 C 
HETATM   20  O4  UNL     1     -12.437 -36.852 -10.225  1.00  0.00    -0.259 OA
BRANCH  19  21
HETATM   21  C18 UNL     1     -12.021 -37.617 -12.446  1.00  0.00     0.088 A 
HETATM   22  C19 UNL     1     -10.884 -38.288 -12.845  1.00  0.00     0.074 A 
HETATM   23  C20 UNL     1     -10.609 -37.931 -14.150  1.00  0.00     0.194 A 
HETATM   24  O8  UNL     1     -11.524 -37.096 -14.517  1.00  0.00    -0.283 OA
HETATM   25  C21 UNL     1     -12.392 -36.868 -13.550  1.00  0.00     0.162 A 
HETATM   26 CL1  UNL     1     -13.758 -35.811 -13.656  1.00  0.00    -0.055 Cl
BRANCH  23  27
HETATM   27  S1  UNL     1      -9.248 -38.534 -15.090  1.00  0.00     0.161 S 
HETATM   28  O5  UNL     1      -8.555 -37.401 -15.780  1.00  0.00    -0.590 OA
HETATM   29  O6  UNL     1      -8.288 -39.279 -14.214  1.00  0.00    -0.590 OA
HETATM   30  O7  UNL     1      -9.836 -39.558 -16.289  1.00  0.00    -0.590 OA
ENDBRANCH  23  27
ENDBRANCH  19  21
ENDBRANCH  18  19
ENDBRANCH  13  18
BRANCH  14  31
HETATM   31  O9  UNL     1     -16.624 -39.282 -11.524  1.00  0.00    -0.389 OA
ATOM     32  H9  UNL     1     -17.364 -38.845 -11.929  1.00  0.00     0.210 HD
ENDBRANCH  14  31
BRANCH  10  33
HETATM   33  O1  UNL     1     -15.459 -43.158  -8.633  1.00  0.00    -0.312 OA
BRANCH  33  34
HETATM   34  C11 UNL     1     -15.033 -44.347  -8.097  1.00  0.00     0.259 C 
HETATM   35  O2  UNL     1     -14.336 -44.278  -7.054  1.00  0.00    -0.265 OA
BRANCH  34  36
HETATM   36  C12 UNL     1     -15.412 -45.618  -8.760  1.00  0.00     0.106 C 
HETATM   37  C13 UNL     1     -15.803 -46.596  -7.662  1.00  0.00     0.015 C 
ENDBRANCH  34  36
ENDBRANCH  33  34
ENDBRANCH  10  33
TORSDOF 8
ENDMDL
