MODEL 1
REMARK VINA RESULT: -5.438895341      0.000      0.000
REMARK  1 active torsions:
REMARK  status: ('A' for Active; 'I' for Inactive)
REMARK    1  A    between atoms: O1_3  and  C2_4 
ROOT
HETATM    1  N1  UNL     1      15.275   0.284  17.312  1.00  0.00    -0.164 NA
HETATM    2  C1  UNL     1      15.541   1.348  16.909  1.00  0.00     0.229 C 
HETATM    3  O1  UNL     1      15.855   2.598  16.460  1.00  0.00    -0.276 OA
ENDROOT
BRANCH   3   4
HETATM    4  C2  UNL     1      15.500   3.055  15.179  1.00  0.00     0.168 C 
HETATM    5  C3  UNL     1      14.987   4.465  15.173  1.00  0.00     0.066 C 
HETATM    6  C4  UNL     1      15.959   5.481  14.703  1.00  0.00     0.275 C 
HETATM    7  N2  UNL     1      16.716   5.117  13.545  1.00  0.00     0.095 N 
HETATM    8  C5  UNL     1      18.127   5.196  13.884  1.00  0.00     0.316 C 
HETATM    9  C8  UNL     1      16.475   3.782  13.079  1.00  0.00     0.300 C 
HETATM   10  C6  UNL     1      18.475   4.248  14.998  1.00  0.00     0.086 C 
HETATM   11  N3  UNL     1      17.936   2.952  14.878  1.00  0.00    -0.392 N 
HETATM   12  C7  UNL     1      16.663   2.846  14.233  1.00  0.00     0.139 C 
ATOM     13  H3  UNL     1      18.428   2.132  15.233  1.00  0.00     0.159 HD
ENDBRANCH   3   4
TORSDOF 1
ENDMDL
MODEL 2
REMARK VINA RESULT: -5.313320201      2.353      2.761
REMARK  1 active torsions:
REMARK  status: ('A' for Active; 'I' for Inactive)
REMARK    1  A    between atoms: O1_3  and  C2_4 
ROOT
HETATM    1  N1  UNL     1      17.056   1.330  16.602  1.00  0.00    -0.164 NA
HETATM    2  C1  UNL     1      17.284   1.856  15.583  1.00  0.00     0.229 C 
HETATM    3  O1  UNL     1      17.569   2.483  14.404  1.00  0.00    -0.276 OA
ENDROOT
BRANCH   3   4
HETATM    4  C2  UNL     1      16.634   2.595  13.361  1.00  0.00     0.168 C 
HETATM    5  C3  UNL     1      16.108   3.989  13.183  1.00  0.00     0.066 C 
HETATM    6  C4  UNL     1      16.695   4.737  12.047  1.00  0.00     0.275 C 
HETATM    7  N2  UNL     1      16.840   3.996  10.832  1.00  0.00     0.095 N 
HETATM    8  C5  UNL     1      18.240   4.034  10.443  1.00  0.00     0.316 C 
HETATM    9  C8  UNL     1      16.476   2.613  10.939  1.00  0.00     0.300 C 
HETATM   10  C6  UNL     1      19.115   3.406  11.492  1.00  0.00     0.086 C 
HETATM   11  N3  UNL     1      18.648   2.185  12.016  1.00  0.00    -0.392 N 
HETATM   12  C7  UNL     1      17.229   2.023  12.092  1.00  0.00     0.139 C 
ATOM     13  H3  UNL     1      19.289   1.454  12.325  1.00  0.00     0.159 HD
ENDBRANCH   3   4
TORSDOF 1
ENDMDL
MODEL 3
REMARK VINA RESULT: -5.296372344      2.800      3.319
REMARK  1 active torsions:
REMARK  status: ('A' for Active; 'I' for Inactive)
REMARK    1  A    between atoms: O1_3  and  C2_4 
ROOT
HETATM    1  N1  UNL     1      17.135   1.156  16.294  1.00  0.00    -0.164 NA
HETATM    2  C1  UNL     1      16.909   1.129  15.148  1.00  0.00     0.229 C 
HETATM    3  O1  UNL     1      16.655   1.075  13.807  1.00  0.00    -0.276 OA
ENDROOT
BRANCH   3   4
HETATM    4  C2  UNL     1      16.400   2.223  13.038  1.00  0.00     0.168 C 
HETATM    5  C3  UNL     1      17.235   3.404  13.439  1.00  0.00     0.066 C 
HETATM    6  C4  UNL     1      18.383   3.689  12.546  1.00  0.00     0.275 C 
HETATM    7  N2  UNL     1      18.108   3.602  11.145  1.00  0.00     0.095 N 
HETATM    8  C5  UNL     1      19.022   2.632  10.564  1.00  0.00     0.316 C 
HETATM    9  C8  UNL     1      16.780   3.160  10.831  1.00  0.00     0.300 C 
HETATM   10  C6  UNL     1      18.833   1.271  11.173  1.00  0.00     0.086 C 
HETATM   11  N3  UNL     1      17.495   0.855  11.317  1.00  0.00    -0.392 N 
HETATM   12  C7  UNL     1      16.530   1.880  11.569  1.00  0.00     0.139 C 
ATOM     13  H3  UNL     1      17.228  -0.127  11.245  1.00  0.00     0.159 HD
ENDBRANCH   3   4
TORSDOF 1
ENDMDL
MODEL 4
REMARK VINA RESULT: -5.074312752      1.532      1.748
REMARK  1 active torsions:
REMARK  status: ('A' for Active; 'I' for Inactive)
REMARK    1  A    between atoms: O1_3  and  C2_4 
ROOT
HETATM    1  N1  UNL     1      16.348   0.202  15.522  1.00  0.00    -0.164 NA
HETATM    2  C1  UNL     1      16.823   1.158  15.047  1.00  0.00     0.229 C 
HETATM    3  O1  UNL     1      17.396   2.274  14.509  1.00  0.00    -0.276 OA
ENDROOT
BRANCH   3   4
HETATM    4  C2  UNL     1      16.699   3.147  13.656  1.00  0.00     0.168 C 
HETATM    5  C3  UNL     1      15.733   4.038  14.379  1.00  0.00     0.066 C 
HETATM    6  C4  UNL     1      16.199   5.432  14.579  1.00  0.00     0.275 C 
HETATM    7  N2  UNL     1      16.834   6.035  13.448  1.00  0.00     0.095 N 
HETATM    8  C5  UNL     1      18.165   6.460  13.850  1.00  0.00     0.316 C 
HETATM    9  C8  UNL     1      17.001   5.155  12.327  1.00  0.00     0.300 C 
HETATM   10  C6  UNL     1      18.999   5.293  14.300  1.00  0.00     0.086 C 
HETATM   11  N3  UNL     1      18.933   4.152  13.476  1.00  0.00    -0.392 N 
HETATM   12  C7  UNL     1      17.690   3.915  12.808  1.00  0.00     0.139 C 
ATOM     13  H3  UNL     1      19.731   3.527  13.361  1.00  0.00     0.159 HD
ENDBRANCH   3   4
TORSDOF 1
ENDMDL
MODEL 5
REMARK VINA RESULT: -5.011346733      4.194      4.877
REMARK  1 active torsions:
REMARK  status: ('A' for Active; 'I' for Inactive)
REMARK    1  A    between atoms: O1_3  and  C2_4 
ROOT
HETATM    1  N1  UNL     1      18.338  -3.212  11.383  1.00  0.00    -0.164 NA
HETATM    2  C1  UNL     1      18.285  -2.045  11.379  1.00  0.00     0.229 C 
HETATM    3  O1  UNL     1      18.246  -0.680  11.377  1.00  0.00    -0.276 OA
ENDROOT
BRANCH   3   4
HETATM    4  C2  UNL     1      17.060   0.045  11.586  1.00  0.00     0.168 C 
HETATM    5  C3  UNL     1      16.821   0.388  13.026  1.00  0.00     0.066 C 
HETATM    6  C4  UNL     1      17.134   1.790  13.394  1.00  0.00     0.275 C 
HETATM    7  N2  UNL     1      16.692   2.783  12.463  1.00  0.00     0.095 N 
HETATM    8  C5  UNL     1      17.850   3.556  12.045  1.00  0.00     0.316 C 
HETATM    9  C8  UNL     1      16.097   2.250  11.272  1.00  0.00     0.300 C 
HETATM   10  C6  UNL     1      18.871   2.687  11.366  1.00  0.00     0.086 C 
HETATM   11  N3  UNL     1      18.357   1.776  10.422  1.00  0.00    -0.392 N 
HETATM   12  C7  UNL     1      17.049   1.258  10.680  1.00  0.00     0.139 C 
ATOM     13  H3  UNL     1      18.890   1.501   9.596  1.00  0.00     0.159 HD
ENDBRANCH   3   4
TORSDOF 1
ENDMDL
