MODEL 1
REMARK VINA RESULT: -6.870170891      0.000      0.000
REMARK  4 active torsions:
REMARK  status: ('A' for Active; 'I' for Inactive)
REMARK    1  A    between atoms: C3_3  and  N1_4 
REMARK    2  A    between atoms: C3_3  and  C9_16 
REMARK    3  A    between atoms: N1_4  and  N2_6 
REMARK    4  A    between atoms: C4_8  and  C5_9 
ROOT
HETATM    1  N2  UNL     1      17.477   2.348  14.843  1.00  0.00    -0.307 N 
ATOM      2  H2  UNL     1      18.197   2.878  14.351  1.00  0.00     0.186 HD
HETATM    3  C4  UNL     1      16.988   1.289  14.311  1.00  0.00     0.162 C 
ENDROOT
BRANCH   1   4
HETATM    4  N1  UNL     1      17.034   2.773  16.077  1.00  0.00    -0.301 N 
ATOM      5  H1  UNL     1      17.727   3.032  16.780  1.00  0.00     0.186 HD
BRANCH   4   6
HETATM    6  C3  UNL     1      15.656   2.870  16.418  1.00  0.00     0.076 C 
HETATM    7  C2  UNL     1      14.935   3.791  15.842  1.00  0.00     0.000 C 
HETATM    8  C1  UNL     1      15.537   4.708  14.866  1.00  0.00     0.038 C 
BRANCH   6   9
HETATM    9  C9  UNL     1      15.082   1.913  17.420  1.00  0.00     0.218 C 
HETATM   10  C10 UNL     1      15.094   2.478  18.800  1.00  0.00     0.077 C 
HETATM   11  F1  UNL     1      15.845   0.758  17.387  1.00  0.00    -0.219 F 
HETATM   12 CL1  UNL     1      13.437   1.466  16.933  1.00  0.00    -0.076 Cl
ENDBRANCH   6   9
ENDBRANCH   4   6
ENDBRANCH   1   4
BRANCH   3  13
HETATM   13  C5  UNL     1      17.476   0.872  13.016  1.00  0.00     0.155 C 
HETATM   14  N3  UNL     1      17.057  -0.239  12.514  1.00  0.00    -0.370 N 
HETATM   15  C6  UNL     1      17.479  -0.745  11.234  1.00  0.00     0.123 C 
ATOM     16  H3  UNL     1      16.390  -0.790  13.053  1.00  0.00     0.161 HD
HETATM   17  C7  UNL     1      17.944   0.411  10.389  1.00  0.00     0.046 C 
HETATM   18  C8  UNL     1      19.016   1.147  11.183  1.00  0.00     0.179 C 
HETATM   19  O1  UNL     1      18.377   1.664  12.339  1.00  0.00    -0.335 OA
ENDBRANCH   3  13
TORSDOF 4
ENDMDL
MODEL 2
REMARK VINA RESULT: -6.811238229      0.957      1.305
REMARK  4 active torsions:
REMARK  status: ('A' for Active; 'I' for Inactive)
REMARK    1  A    between atoms: C3_3  and  N1_4 
REMARK    2  A    between atoms: C3_3  and  C9_16 
REMARK    3  A    between atoms: N1_4  and  N2_6 
REMARK    4  A    between atoms: C4_8  and  C5_9 
ROOT
HETATM    1  N2  UNL     1      17.380   2.204  14.973  1.00  0.00    -0.307 N 
ATOM      2  H2  UNL     1      18.215   1.648  15.156  1.00  0.00     0.186 HD
HETATM    3  C4  UNL     1      16.787   2.112  13.840  1.00  0.00     0.162 C 
ENDROOT
BRANCH   1   4
HETATM    4  N1  UNL     1      16.893   3.053  15.944  1.00  0.00    -0.301 N 
ATOM      5  H1  UNL     1      17.532   3.727  16.366  1.00  0.00     0.186 HD
BRANCH   4   6
HETATM    6  C3  UNL     1      15.541   3.034  16.387  1.00  0.00     0.076 C 
HETATM    7  C2  UNL     1      14.738   3.976  15.977  1.00  0.00     0.000 C 
HETATM    8  C1  UNL     1      15.223   5.032  15.080  1.00  0.00     0.038 C 
BRANCH   6   9
HETATM    9  C9  UNL     1      15.088   1.936  17.303  1.00  0.00     0.218 C 
HETATM   10  C10 UNL     1      15.208   2.323  18.738  1.00  0.00     0.077 C 
HETATM   11  F1  UNL     1      15.877   0.825  17.056  1.00  0.00    -0.219 F 
HETATM   12 CL1  UNL     1      13.418   1.489  16.906  1.00  0.00    -0.076 Cl
ENDBRANCH   6   9
ENDBRANCH   4   6
ENDBRANCH   1   4
BRANCH   3  13
HETATM   13  C5  UNL     1      17.325   1.211  12.845  1.00  0.00     0.155 C 
HETATM   14  N3  UNL     1      18.357   1.573  12.162  1.00  0.00    -0.370 N 
HETATM   15  C6  UNL     1      18.971   0.754  11.150  1.00  0.00     0.123 C 
ATOM     16  H3  UNL     1      18.761   2.491  12.349  1.00  0.00     0.161 HD
HETATM   17  C7  UNL     1      18.640  -0.688  11.432  1.00  0.00     0.046 C 
HETATM   18  C8  UNL     1      17.124  -0.793  11.523  1.00  0.00     0.179 C 
HETATM   19  O1  UNL     1      16.731  -0.015  12.642  1.00  0.00    -0.335 OA
ENDBRANCH   3  13
TORSDOF 4
ENDMDL
MODEL 3
REMARK VINA RESULT: -6.710913386      3.022      6.010
REMARK  4 active torsions:
REMARK  status: ('A' for Active; 'I' for Inactive)
REMARK    1  A    between atoms: C3_3  and  N1_4 
REMARK    2  A    between atoms: C3_3  and  C9_16 
REMARK    3  A    between atoms: N1_4  and  N2_6 
REMARK    4  A    between atoms: C4_8  and  C5_9 
ROOT
HETATM    1  N2  UNL     1      17.163   2.113  13.770  1.00  0.00    -0.307 N 
ATOM      2  H2  UNL     1      16.229   1.819  13.485  1.00  0.00     0.186 HD
HETATM    3  C4  UNL     1      17.409   2.353  15.005  1.00  0.00     0.162 C 
ENDROOT
BRANCH   1   4
HETATM    4  N1  UNL     1      18.158   2.252  12.825  1.00  0.00    -0.301 N 
ATOM      5  H1  UNL     1      18.756   3.077  12.866  1.00  0.00     0.186 HD
BRANCH   4   6
HETATM    6  C3  UNL     1      18.390   1.298  11.795  1.00  0.00     0.076 C 
HETATM    7  C2  UNL     1      19.403   1.480  10.995  1.00  0.00     0.000 C 
HETATM    8  C1  UNL     1      20.281   2.644  11.155  1.00  0.00     0.038 C 
BRANCH   6   9
HETATM    9  C9  UNL     1      17.467   0.122  11.667  1.00  0.00     0.218 C 
HETATM   10  C10 UNL     1      16.348   0.394  10.720  1.00  0.00     0.077 C 
HETATM   11  F1  UNL     1      16.955  -0.152  12.924  1.00  0.00    -0.219 F 
HETATM   12 CL1  UNL     1      18.394  -1.301  11.159  1.00  0.00    -0.076 Cl
ENDBRANCH   6   9
ENDBRANCH   4   6
ENDBRANCH   1   4
BRANCH   3  13
HETATM   13  C5  UNL     1      16.342   2.198  15.969  1.00  0.00     0.155 C 
HETATM   14  N3  UNL     1      15.366   3.039  15.967  1.00  0.00    -0.370 N 
HETATM   15  C6  UNL     1      14.255   2.975  16.881  1.00  0.00     0.123 C 
ATOM     16  H3  UNL     1      15.380   3.793  15.280  1.00  0.00     0.161 HD
HETATM   17  C7  UNL     1      14.112   1.557  17.365  1.00  0.00     0.046 C 
HETATM   18  C8  UNL     1      15.458   1.140  17.945  1.00  0.00     0.179 C 
HETATM   19  O1  UNL     1      16.383   1.157  16.870  1.00  0.00    -0.335 OA
ENDBRANCH   3  13
TORSDOF 4
ENDMDL
MODEL 4
REMARK VINA RESULT: -6.624154686      2.006      2.735
REMARK  4 active torsions:
REMARK  status: ('A' for Active; 'I' for Inactive)
REMARK    1  A    between atoms: C3_3  and  N1_4 
REMARK    2  A    between atoms: C3_3  and  C9_16 
REMARK    3  A    between atoms: N1_4  and  N2_6 
REMARK    4  A    between atoms: C4_8  and  C5_9 
ROOT
HETATM    1  N2  UNL     1      17.443   2.481  14.657  1.00  0.00    -0.307 N 
ATOM      2  H2  UNL     1      18.384   2.766  14.384  1.00  0.00     0.186 HD
HETATM    3  C4  UNL     1      16.815   1.604  13.963  1.00  0.00     0.162 C 
ENDROOT
BRANCH   1   4
HETATM    4  N1  UNL     1      16.851   3.041  15.769  1.00  0.00    -0.301 N 
ATOM      5  H1  UNL     1      17.292   2.899  16.678  1.00  0.00     0.186 HD
BRANCH   4   6
HETATM    6  C3  UNL     1      15.653   3.806  15.711  1.00  0.00     0.076 C 
HETATM    7  C2  UNL     1      14.606   3.376  16.359  1.00  0.00     0.000 C 
HETATM    8  C1  UNL     1      14.666   2.129  17.129  1.00  0.00     0.038 C 
BRANCH   6   9
HETATM    9  C9  UNL     1      15.636   5.075  14.911  1.00  0.00     0.218 C 
HETATM   10  C10 UNL     1      16.988   5.699  14.828  1.00  0.00     0.077 C 
HETATM   11  F1  UNL     1      14.759   5.952  15.527  1.00  0.00    -0.219 F 
HETATM   12 CL1  UNL     1      14.992   4.743  13.293  1.00  0.00    -0.076 Cl
ENDBRANCH   6   9
ENDBRANCH   4   6
ENDBRANCH   1   4
BRANCH   3  13
HETATM   13  C5  UNL     1      17.466   1.039  12.803  1.00  0.00     0.155 C 
HETATM   14  N3  UNL     1      17.115  -0.131  12.393  1.00  0.00    -0.370 N 
HETATM   15  C6  UNL     1      17.698  -0.784  11.250  1.00  0.00     0.123 C 
ATOM     16  H3  UNL     1      16.383  -0.622  12.906  1.00  0.00     0.161 HD
HETATM   17  C7  UNL     1      18.269   0.266  10.335  1.00  0.00     0.046 C 
HETATM   18  C8  UNL     1      19.230   1.111  11.163  1.00  0.00     0.179 C 
HETATM   19  O1  UNL     1      18.448   1.756  12.155  1.00  0.00    -0.335 OA
ENDBRANCH   3  13
TORSDOF 4
ENDMDL
MODEL 5
REMARK VINA RESULT: -6.610831997      2.730      3.307
REMARK  4 active torsions:
REMARK  status: ('A' for Active; 'I' for Inactive)
REMARK    1  A    between atoms: C3_3  and  N1_4 
REMARK    2  A    between atoms: C3_3  and  C9_16 
REMARK    3  A    between atoms: N1_4  and  N2_6 
REMARK    4  A    between atoms: C4_8  and  C5_9 
ROOT
HETATM    1  N2  UNL     1      17.818   3.404  14.061  1.00  0.00    -0.307 N 
ATOM      2  H2  UNL     1      18.582   3.573  13.406  1.00  0.00     0.186 HD
HETATM    3  C4  UNL     1      17.122   2.331  13.968  1.00  0.00     0.162 C 
ENDROOT
BRANCH   1   4
HETATM    4  N1  UNL     1      17.537   4.331  15.042  1.00  0.00    -0.301 N 
ATOM      5  H1  UNL     1      17.892   4.164  15.984  1.00  0.00     0.186 HD
BRANCH   4   6
HETATM    6  C3  UNL     1      16.776   5.509  14.804  1.00  0.00     0.076 C 
HETATM    7  C2  UNL     1      17.406   6.597  14.457  1.00  0.00     0.000 C 
HETATM    8  C1  UNL     1      18.866   6.602  14.317  1.00  0.00     0.038 C 
BRANCH   6   9
HETATM    9  C9  UNL     1      15.285   5.460  14.959  1.00  0.00     0.218 C 
HETATM   10  C10 UNL     1      14.587   5.509  13.642  1.00  0.00     0.077 C 
HETATM   11  F1  UNL     1      14.903   6.547  15.726  1.00  0.00    -0.219 F 
HETATM   12 CL1  UNL     1      14.835   4.000  15.860  1.00  0.00    -0.076 Cl
ENDBRANCH   6   9
ENDBRANCH   4   6
ENDBRANCH   1   4
BRANCH   3  13
HETATM   13  C5  UNL     1      17.444   1.382  12.927  1.00  0.00     0.155 C 
HETATM   14  N3  UNL     1      18.434   1.626  12.137  1.00  0.00    -0.370 N 
HETATM   15  C6  UNL     1      18.838   0.749  11.070  1.00  0.00     0.123 C 
ATOM     16  H3  UNL     1      18.959   2.490  12.275  1.00  0.00     0.161 HD
HETATM   17  C7  UNL     1      18.375  -0.647  11.393  1.00  0.00     0.046 C 
HETATM   18  C8  UNL     1      16.874  -0.577  11.644  1.00  0.00     0.179 C 
HETATM   19  O1  UNL     1      16.694   0.234  12.794  1.00  0.00    -0.335 OA
ENDBRANCH   3  13
TORSDOF 4
ENDMDL
