MODEL 1
REMARK VINA RESULT: -6.338640439      0.000      0.000
REMARK  3 active torsions:
REMARK  status: ('A' for Active; 'I' for Inactive)
REMARK    1  A    between atoms: C5_5  and  C6_6 
REMARK    2  A    between atoms: C6_6  and  N1_7 
REMARK    3  A    between atoms: N1_7  and  C7_10 
ROOT
HETATM    1  C6  UNL     1      16.675   1.084  14.628  1.00  0.00     0.237 C 
ENDROOT
BRANCH   1   2
HETATM    2  C5  UNL     1      16.581   1.555  16.049  1.00  0.00     0.011 C 
HETATM    3  C4  UNL     1      16.538   3.077  16.128  1.00  0.00     0.006 C 
HETATM    4  C3  UNL     1      15.133   3.511  15.936  1.00  0.00     0.000 C 
HETATM    5  C2  UNL     1      14.334   3.739  17.161  1.00  0.00     0.000 C 
HETATM    6  C1  UNL     1      14.509   2.840  18.300  1.00  0.00     0.000 C 
HETATM    7  C12 UNL     1      15.391   1.664  18.154  1.00  0.00     0.000 C 
HETATM    8  C11 UNL     1      15.401   1.011  16.798  1.00  0.00     0.006 C 
ENDBRANCH   1   2
BRANCH   1   9
HETATM    9  N1  UNL     1      17.391   2.066  13.860  1.00  0.00    -0.068 N 
ATOM     10  H12 UNL     1      17.415   2.971  14.329  1.00  0.00     0.277 HD
ATOM     11  H11 UNL     1      18.393   1.877  13.842  1.00  0.00     0.277 HD
BRANCH   9  12
HETATM   12  C7  UNL     1      16.841   2.165  12.529  1.00  0.00     0.211 C 
HETATM   13  C8  UNL     1      16.945   0.776  11.898  1.00  0.00     0.061 C 
HETATM   14  C9  UNL     1      18.345   0.780  11.354  1.00  0.00     0.169 C 
HETATM   15  O1  UNL     1      18.856   2.044  11.510  1.00  0.00    -0.389 OA
HETATM   16  C10 UNL     1      17.790   2.932  11.624  1.00  0.00     0.200 C 
ENDBRANCH   9  12
ENDBRANCH   1   9
TORSDOF 3
ENDMDL
MODEL 2
REMARK VINA RESULT: -6.211545102      1.181      1.737
REMARK  3 active torsions:
REMARK  status: ('A' for Active; 'I' for Inactive)
REMARK    1  A    between atoms: C5_5  and  C6_6 
REMARK    2  A    between atoms: C6_6  and  N1_7 
REMARK    3  A    between atoms: N1_7  and  C7_10 
ROOT
HETATM    1  C6  UNL     1      16.944   3.113  13.131  1.00  0.00     0.237 C 
ENDROOT
BRANCH   1   2
HETATM    2  C5  UNL     1      17.106   2.990  14.617  1.00  0.00     0.011 C 
HETATM    3  C4  UNL     1      16.446   4.155  15.346  1.00  0.00     0.006 C 
HETATM    4  C3  UNL     1      15.007   3.838  15.519  1.00  0.00     0.000 C 
HETATM    5  C2  UNL     1      14.612   3.220  16.805  1.00  0.00     0.000 C 
HETATM    6  C1  UNL     1      15.498   2.232  17.419  1.00  0.00     0.000 C 
HETATM    7  C12 UNL     1      16.703   1.797  16.684  1.00  0.00     0.000 C 
HETATM    8  C11 UNL     1      16.567   1.711  15.188  1.00  0.00     0.006 C 
ENDBRANCH   1   2
BRANCH   1   9
HETATM    9  N1  UNL     1      18.049   2.457  12.487  1.00  0.00    -0.068 N 
ATOM     10  H12 UNL     1      18.893   3.030  12.503  1.00  0.00     0.277 HD
ATOM     11  H11 UNL     1      18.391   1.666  13.032  1.00  0.00     0.277 HD
BRANCH   9  12
HETATM   12  C7  UNL     1      17.691   2.068  11.144  1.00  0.00     0.211 C 
HETATM   13  C8  UNL     1      16.464   1.162  11.254  1.00  0.00     0.061 C 
HETATM   14  C9  UNL     1      17.085  -0.182  11.512  1.00  0.00     0.169 C 
HETATM   15  O1  UNL     1      18.445  -0.052  11.382  1.00  0.00    -0.389 OA
HETATM   16  C10 UNL     1      18.701   1.071  10.599  1.00  0.00     0.200 C 
ENDBRANCH   9  12
ENDBRANCH   1   9
TORSDOF 3
ENDMDL
MODEL 3
REMARK VINA RESULT: -6.194630252      2.052      5.610
REMARK  3 active torsions:
REMARK  status: ('A' for Active; 'I' for Inactive)
REMARK    1  A    between atoms: C5_5  and  C6_6 
REMARK    2  A    between atoms: C6_6  and  N1_7 
REMARK    3  A    between atoms: N1_7  and  C7_10 
ROOT
HETATM    1  C6  UNL     1      16.693   3.384  13.604  1.00  0.00     0.237 C 
ENDROOT
BRANCH   1   2
HETATM    2  C5  UNL     1      16.570   2.520  12.385  1.00  0.00     0.011 C 
HETATM    3  C4  UNL     1      17.426   3.050  11.240  1.00  0.00     0.006 C 
HETATM    4  C3  UNL     1      18.806   2.534  11.415  1.00  0.00     0.000 C 
HETATM    5  C2  UNL     1      19.151   1.295  10.682  1.00  0.00     0.000 C 
HETATM    6  C1  UNL     1      18.150   0.237  10.567  1.00  0.00     0.000 C 
HETATM    7  C12 UNL     1      16.866   0.385  11.282  1.00  0.00     0.000 C 
HETATM    8  C11 UNL     1      16.930   1.082  12.614  1.00  0.00     0.006 C 
ENDBRANCH   1   2
BRANCH   1   9
HETATM    9  N1  UNL     1      15.523   3.206  14.420  1.00  0.00    -0.068 N 
ATOM     10  H12 UNL     1      14.778   3.853  14.163  1.00  0.00     0.277 HD
ATOM     11  H11 UNL     1      15.043   2.331  14.210  1.00  0.00     0.277 HD
BRANCH   9  12
HETATM   12  C7  UNL     1      15.863   3.309  15.819  1.00  0.00     0.211 C 
HETATM   13  C8  UNL     1      17.076   2.407  16.051  1.00  0.00     0.061 C 
HETATM   14  C9  UNL     1      16.436   1.066  16.273  1.00  0.00     0.169 C 
HETATM   15  O1  UNL     1      15.077   1.250  16.330  1.00  0.00    -0.389 OA
HETATM   16  C10 UNL     1      14.833   2.579  16.665  1.00  0.00     0.200 C 
ENDBRANCH   9  12
ENDBRANCH   1   9
TORSDOF 3
ENDMDL
MODEL 4
REMARK VINA RESULT: -6.176348117      1.028      1.290
REMARK  3 active torsions:
REMARK  status: ('A' for Active; 'I' for Inactive)
REMARK    1  A    between atoms: C5_5  and  C6_6 
REMARK    2  A    between atoms: C6_6  and  N1_7 
REMARK    3  A    between atoms: N1_7  and  C7_10 
ROOT
HETATM    1  C6  UNL     1      16.915   3.003  13.602  1.00  0.00     0.237 C 
ENDROOT
BRANCH   1   2
HETATM    2  C5  UNL     1      16.966   2.872  15.095  1.00  0.00     0.011 C 
HETATM    3  C4  UNL     1      16.362   4.093  15.780  1.00  0.00     0.006 C 
HETATM    4  C3  UNL     1      14.893   3.902  15.856  1.00  0.00     0.000 C 
HETATM    5  C2  UNL     1      14.361   3.326  17.112  1.00  0.00     0.000 C 
HETATM    6  C1  UNL     1      15.115   2.269  17.782  1.00  0.00     0.000 C 
HETATM    7  C12 UNL     1      16.324   1.728  17.129  1.00  0.00     0.000 C 
HETATM    8  C11 UNL     1      16.282   1.648  15.627  1.00  0.00     0.006 C 
ENDBRANCH   1   2
BRANCH   1   9
HETATM    9  N1  UNL     1      17.494   1.827  13.012  1.00  0.00    -0.068 N 
ATOM     10  H12 UNL     1      18.428   2.007  12.644  1.00  0.00     0.277 HD
ATOM     11  H11 UNL     1      17.740   1.131  13.716  1.00  0.00     0.277 HD
BRANCH   9  12
HETATM   12  C7  UNL     1      16.616   1.283  12.004  1.00  0.00     0.211 C 
HETATM   13  C8  UNL     1      17.089  -0.143  11.721  1.00  0.00     0.061 C 
HETATM   14  C9  UNL     1      18.172   0.079  10.703  1.00  0.00     0.169 C 
HETATM   15  O1  UNL     1      18.161   1.407  10.357  1.00  0.00    -0.389 OA
HETATM   16  C10 UNL     1      16.903   1.923  10.657  1.00  0.00     0.200 C 
ENDBRANCH   9  12
ENDBRANCH   1   9
TORSDOF 3
ENDMDL
MODEL 5
REMARK VINA RESULT: -5.871072062      1.951      2.828
REMARK  3 active torsions:
REMARK  status: ('A' for Active; 'I' for Inactive)
REMARK    1  A    between atoms: C5_5  and  C6_6 
REMARK    2  A    between atoms: C6_6  and  N1_7 
REMARK    3  A    between atoms: N1_7  and  C7_10 
ROOT
HETATM    1  C6  UNL     1      16.846   1.744  14.330  1.00  0.00     0.237 C 
ENDROOT
BRANCH   1   2
HETATM    2  C5  UNL     1      16.348   2.855  15.205  1.00  0.00     0.011 C 
HETATM    3  C4  UNL     1      17.501   3.680  15.765  1.00  0.00     0.006 C 
HETATM    4  C3  UNL     1      17.875   4.700  14.755  1.00  0.00     0.000 C 
HETATM    5  C2  UNL     1      17.260   6.038  14.904  1.00  0.00     0.000 C 
HETATM    6  C1  UNL     1      15.866   6.136  15.333  1.00  0.00     0.000 C 
HETATM    7  C12 UNL     1      15.080   4.896  15.496  1.00  0.00     0.000 C 
HETATM    8  C11 UNL     1      15.389   3.787  14.527  1.00  0.00     0.006 C 
ENDBRANCH   1   2
BRANCH   1   9
HETATM    9  N1  UNL     1      16.471   2.021  12.969  1.00  0.00    -0.068 N 
ATOM     10  H12 UNL     1      15.535   1.676  12.756  1.00  0.00     0.277 HD
ATOM     11  H11 UNL     1      16.306   3.015  12.816  1.00  0.00     0.277 HD
BRANCH   9  12
HETATM   12  C7  UNL     1      17.458   1.494  12.057  1.00  0.00     0.211 C 
HETATM   13  C8  UNL     1      18.502   2.591  11.847  1.00  0.00     0.061 C 
HETATM   14  C9  UNL     1      17.882   3.412  10.752  1.00  0.00     0.169 C 
HETATM   15  O1  UNL     1      16.759   2.756  10.315  1.00  0.00    -0.389 OA
HETATM   16  C10 UNL     1      16.883   1.411  10.653  1.00  0.00     0.200 C 
ENDBRANCH   9  12
ENDBRANCH   1   9
TORSDOF 3
ENDMDL
