MODEL 1
REMARK VINA RESULT: -5.349712661      0.000      0.000
REMARK  4 active torsions:
REMARK  status: ('A' for Active; 'I' for Inactive)
REMARK    1  A    between atoms: N1_2  and  C2_4 
REMARK    2  A    between atoms: C2_4  and  C6_15 
REMARK    3  A    between atoms: N2_5  and  C3_7 
REMARK    4  A    between atoms: C6_15  and  O1_18 
ROOT
HETATM    1  C2  UNL     1      26.437  40.602   2.931  1.00  0.00     0.113 C 
HETATM    2  N2  UNL     1      26.860  39.417   2.839  1.00  0.00    -0.324 N 
ATOM      3  H2  UNL     1      26.518  38.778   3.558  1.00  0.00     0.169 HD
ENDROOT
BRANCH   2   4
HETATM    4  C3  UNL     1      27.734  38.842   1.893  1.00  0.00     0.152 A 
HETATM    5  N3  UNL     1      29.055  38.859   1.792  1.00  0.00    -0.329 N 
HETATM    6  C4  UNL     1      29.643  38.249   0.816  1.00  0.00     0.106 A 
ATOM      7  H3  UNL     1      29.611  39.355   2.488  1.00  0.00     0.168 HD
HETATM    8 BR1  UNL     1      31.574  38.235   0.611  1.00  0.00    -0.029 Br
HETATM    9  C5  UNL     1      28.858  37.595  -0.100  1.00  0.00     0.089 A 
HETATM   10 BR2  UNL     1      29.381  36.600  -1.653  1.00  0.00    -0.040 Br
HETATM   11  S1  UNL     1      27.288  37.913   0.529  1.00  0.00    -0.043 SA
ENDBRANCH   2   4
BRANCH   1  12
HETATM   12  N1  UNL     1      25.558  40.908   3.994  1.00  0.00    -0.382 N 
HETATM   13  C1  UNL     1      24.292  40.238   4.081  1.00  0.00     0.147 C 
ATOM     14  H1  UNL     1      25.822  41.601   4.695  1.00  0.00     0.160 HD
ENDBRANCH   1  12
BRANCH   1  15
HETATM   15  C6  UNL     1      26.802  41.667   2.007  1.00  0.00     0.108 C 
HETATM   16  C7  UNL     1      26.213  42.962   2.550  1.00  0.00     0.054 C 
HETATM   17  C8  UNL     1      26.248  41.439   0.606  1.00  0.00     0.054 C 
BRANCH  15  18
HETATM   18  O1  UNL     1      28.179  41.780   1.898  1.00  0.00    -0.383 OA
ATOM     19  H1  UNL     1      28.420  42.247   1.107  1.00  0.00     0.211 HD
ENDBRANCH  15  18
ENDBRANCH   1  15
TORSDOF 4
ENDMDL
MODEL 2
REMARK VINA RESULT: -5.339050648      6.269      7.659
REMARK  4 active torsions:
REMARK  status: ('A' for Active; 'I' for Inactive)
REMARK    1  A    between atoms: N1_2  and  C2_4 
REMARK    2  A    between atoms: C2_4  and  C6_15 
REMARK    3  A    between atoms: N2_5  and  C3_7 
REMARK    4  A    between atoms: C6_15  and  O1_18 
ROOT
HETATM    1  C2  UNL     1      24.304  42.145   3.628  1.00  0.00     0.113 C 
HETATM    2  N2  UNL     1      23.155  42.587   3.899  1.00  0.00    -0.324 N 
ATOM      3  H2  UNL     1      23.054  43.600   3.837  1.00  0.00     0.169 HD
ENDROOT
BRANCH   2   4
HETATM    4  C3  UNL     1      21.987  41.890   4.275  1.00  0.00     0.152 A 
HETATM    5  N3  UNL     1      21.568  41.447   5.451  1.00  0.00    -0.329 N 
HETATM    6  C4  UNL     1      20.441  40.821   5.550  1.00  0.00     0.106 A 
ATOM      7  H3  UNL     1      22.136  41.601   6.284  1.00  0.00     0.168 HD
HETATM    8 BR1  UNL     1      19.770  40.147   7.242  1.00  0.00    -0.029 Br
HETATM    9  C5  UNL     1      19.707  40.634   4.405  1.00  0.00     0.089 A 
HETATM   10 BR2  UNL     1      18.015  39.761   4.180  1.00  0.00    -0.040 Br
HETATM   11  S1  UNL     1      20.720  41.395   3.240  1.00  0.00    -0.043 SA
ENDBRANCH   2   4
BRANCH   1  12
HETATM   12  N1  UNL     1      25.304  43.080   3.277  1.00  0.00    -0.382 N 
HETATM   13  C1  UNL     1      25.571  43.344   1.892  1.00  0.00     0.147 C 
ATOM     14  H1  UNL     1      25.832  43.564   4.004  1.00  0.00     0.160 HD
ENDBRANCH   1  12
BRANCH   1  15
HETATM   15  C6  UNL     1      24.658  40.733   3.655  1.00  0.00     0.108 C 
HETATM   16  C7  UNL     1      26.133  40.640   4.019  1.00  0.00     0.054 C 
HETATM   17  C8  UNL     1      24.454  40.054   2.306  1.00  0.00     0.054 C 
BRANCH  15  18
HETATM   18  O1  UNL     1      23.895  40.047   4.586  1.00  0.00    -0.383 OA
ATOM     19  H1  UNL     1      24.348  39.985   5.419  1.00  0.00     0.211 HD
ENDBRANCH  15  18
ENDBRANCH   1  15
TORSDOF 4
ENDMDL
MODEL 3
REMARK VINA RESULT: -5.336082457      4.732      6.180
REMARK  4 active torsions:
REMARK  status: ('A' for Active; 'I' for Inactive)
REMARK    1  A    between atoms: N1_2  and  C2_4 
REMARK    2  A    between atoms: C2_4  and  C6_15 
REMARK    3  A    between atoms: N2_5  and  C3_7 
REMARK    4  A    between atoms: C6_15  and  O1_18 
ROOT
HETATM    1  C2  UNL     1      27.079  41.002   1.066  1.00  0.00     0.113 C 
HETATM    2  N2  UNL     1      26.464  41.789   1.836  1.00  0.00    -0.324 N 
ATOM      3  H2  UNL     1      27.007  42.589   2.162  1.00  0.00     0.169 HD
ENDROOT
BRANCH   2   4
HETATM    4  C3  UNL     1      25.138  41.729   2.314  1.00  0.00     0.152 A 
HETATM    5  N3  UNL     1      24.003  42.201   1.819  1.00  0.00    -0.329 N 
HETATM    6  C4  UNL     1      22.890  42.020   2.451  1.00  0.00     0.106 A 
ATOM      7  H3  UNL     1      24.007  42.709   0.935  1.00  0.00     0.168 HD
HETATM    8 BR1  UNL     1      21.193  42.684   1.781  1.00  0.00    -0.029 Br
HETATM    9  C5  UNL     1      22.929  41.332   3.638  1.00  0.00     0.089 A 
HETATM   10 BR2  UNL     1      21.493  40.885   4.827  1.00  0.00    -0.040 Br
HETATM   11  S1  UNL     1      24.610  40.986   3.760  1.00  0.00    -0.043 SA
ENDBRANCH   2   4
BRANCH   1  12
HETATM   12  N1  UNL     1      28.422  41.307   0.747  1.00  0.00    -0.382 N 
HETATM   13  C1  UNL     1      28.778  42.651   0.394  1.00  0.00     0.147 C 
ATOM     14  H1  UNL     1      29.133  40.576   0.769  1.00  0.00     0.160 HD
ENDBRANCH   1  12
BRANCH   1  15
HETATM   15  C6  UNL     1      26.487  39.804   0.489  1.00  0.00     0.108 C 
HETATM   16  C7  UNL     1      26.529  38.716   1.554  1.00  0.00     0.054 C 
HETATM   17  C8  UNL     1      27.249  39.307  -0.733  1.00  0.00     0.054 C 
BRANCH  15  18
HETATM   18  O1  UNL     1      25.177  40.035   0.099  1.00  0.00    -0.383 OA
ATOM     19  H1  UNL     1      24.724  39.218  -0.073  1.00  0.00     0.211 HD
ENDBRANCH  15  18
ENDBRANCH   1  15
TORSDOF 4
ENDMDL
MODEL 4
REMARK VINA RESULT: -5.296614435      5.714      7.571
REMARK  4 active torsions:
REMARK  status: ('A' for Active; 'I' for Inactive)
REMARK    1  A    between atoms: N1_2  and  C2_4 
REMARK    2  A    between atoms: C2_4  and  C6_15 
REMARK    3  A    between atoms: N2_5  and  C3_7 
REMARK    4  A    between atoms: C6_15  and  O1_18 
ROOT
HETATM    1  C2  UNL     1      19.822  40.390   5.465  1.00  0.00     0.113 C 
HETATM    2  N2  UNL     1      20.331  40.673   4.347  1.00  0.00    -0.324 N 
ATOM      3  H2  UNL     1      19.688  40.632   3.556  1.00  0.00     0.169 HD
ENDROOT
BRANCH   2   4
HETATM    4  C3  UNL     1      21.655  41.037   4.025  1.00  0.00     0.152 A 
HETATM    5  N3  UNL     1      22.805  40.397   4.180  1.00  0.00    -0.329 N 
HETATM    6  C4  UNL     1      23.913  40.945   3.803  1.00  0.00     0.106 A 
ATOM      7  H3  UNL     1      22.817  39.468   4.599  1.00  0.00     0.168 HD
HETATM    8 BR1  UNL     1      25.631  40.063   4.002  1.00  0.00    -0.029 Br
HETATM    9  C5  UNL     1      23.854  42.198   3.245  1.00  0.00     0.089 A 
HETATM   10 BR2  UNL     1      25.277  43.297   2.582  1.00  0.00    -0.040 Br
HETATM   11  S1  UNL     1      22.161  42.502   3.305  1.00  0.00    -0.043 SA
ENDBRANCH   2   4
BRANCH   1  12
HETATM   12  N1  UNL     1      18.450  40.054   5.500  1.00  0.00    -0.382 N 
HETATM   13  C1  UNL     1      17.772  39.720   4.281  1.00  0.00     0.147 C 
ATOM     14  H1  UNL     1      17.945  40.050   6.387  1.00  0.00     0.160 HD
ENDBRANCH   1  12
BRANCH   1  15
HETATM   15  C6  UNL     1      20.565  40.389   6.718  1.00  0.00     0.108 C 
HETATM   16  C7  UNL     1      19.609  39.942   7.815  1.00  0.00     0.054 C 
HETATM   17  C8  UNL     1      21.099  41.769   7.080  1.00  0.00     0.054 C 
BRANCH  15  18
HETATM   18  O1  UNL     1      21.648  39.527   6.653  1.00  0.00    -0.383 OA
ATOM     19  H1  UNL     1      21.431  38.679   7.021  1.00  0.00     0.211 HD
ENDBRANCH  15  18
ENDBRANCH   1  15
TORSDOF 4
ENDMDL
MODEL 5
REMARK VINA RESULT: -5.252041250      3.028      3.795
REMARK  4 active torsions:
REMARK  status: ('A' for Active; 'I' for Inactive)
REMARK    1  A    between atoms: N1_2  and  C2_4 
REMARK    2  A    between atoms: C2_4  and  C6_15 
REMARK    3  A    between atoms: N2_5  and  C3_7 
REMARK    4  A    between atoms: C6_15  and  O1_18 
ROOT
HETATM    1  C2  UNL     1      24.335  41.687   2.623  1.00  0.00     0.113 C 
HETATM    2  N2  UNL     1      24.869  42.180   1.592  1.00  0.00    -0.324 N 
ATOM      3  H2  UNL     1      24.461  43.058   1.270  1.00  0.00     0.169 HD
ENDROOT
BRANCH   2   4
HETATM    4  C3  UNL     1      25.946  41.699   0.818  1.00  0.00     0.152 A 
HETATM    5  N3  UNL     1      25.992  40.827  -0.179  1.00  0.00    -0.329 N 
HETATM    6  C4  UNL     1      27.119  40.539  -0.743  1.00  0.00     0.106 A 
ATOM      7  H3  UNL     1      25.134  40.381  -0.504  1.00  0.00     0.168 HD
HETATM    8 BR1  UNL     1      27.255  39.271  -2.207  1.00  0.00    -0.029 Br
HETATM    9  C5  UNL     1      28.250  41.161  -0.276  1.00  0.00     0.089 A 
HETATM   10 BR2  UNL     1      30.064  40.976  -0.865  1.00  0.00    -0.040 Br
HETATM   11  S1  UNL     1      27.590  42.142   0.975  1.00  0.00    -0.043 SA
ENDBRANCH   2   4
BRANCH   1  12
HETATM   12  N1  UNL     1      23.255  42.388   3.205  1.00  0.00    -0.382 N 
HETATM   13  C1  UNL     1      22.038  42.553   2.464  1.00  0.00     0.147 C 
ATOM     14  H1  UNL     1      23.340  42.773   4.145  1.00  0.00     0.160 HD
ENDBRANCH   1  12
BRANCH   1  15
HETATM   15  C6  UNL     1      24.767  40.443   3.244  1.00  0.00     0.108 C 
HETATM   16  C7  UNL     1      23.732  40.079   4.300  1.00  0.00     0.054 C 
HETATM   17  C8  UNL     1      26.123  40.571   3.927  1.00  0.00     0.054 C 
BRANCH  15  18
HETATM   18  O1  UNL     1      24.866  39.427   2.307  1.00  0.00    -0.383 OA
ATOM     19  H1  UNL     1      25.267  39.741   1.506  1.00  0.00     0.211 HD
ENDBRANCH  15  18
ENDBRANCH   1  15
TORSDOF 4
ENDMDL
