MODEL 1
REMARK VINA RESULT: -6.414239325      0.000      0.000
REMARK  9 active torsions:
REMARK  status: ('A' for Active; 'I' for Inactive)
REMARK    1  A    between atoms: C2_2  and  C3_3 
REMARK    2  A    between atoms: C3_3  and  C4_4 
REMARK    3  A    between atoms: C3_3  and  C6_6 
REMARK    4  A    between atoms: C6_6  and  C7_7 
REMARK    5  A    between atoms: C6_6  and  N2_12 
REMARK    6  A    between atoms: C7_7  and  N1_8 
REMARK    7  A    between atoms: N2_12  and  C8_14 
REMARK    8  A    between atoms: C8_14  and  C9_15 
REMARK    9  A    between atoms: C9_15  and  C10_16 
ROOT
HETATM    1  N2  UNL     1      17.264   5.906  14.962  1.00  0.00    -0.415 N 
ATOM      2  H2  UNL     1      17.674   5.495  15.801  1.00  0.00     0.153 HD
ENDROOT
BRANCH   1   3
HETATM    3  C6  UNL     1      18.087   6.274  13.876  1.00  0.00     0.105 C 
BRANCH   3   4
HETATM    4  C3  UNL     1      18.249   7.751  13.639  1.00  0.00     0.009 C 
BRANCH   4   5
HETATM    5  C2  UNL     1      19.588   8.196  14.206  1.00  0.00     0.002 C 
HETATM    6  C1  UNL     1      19.336   9.062  15.441  1.00  0.00     0.005 C 
ENDBRANCH   4   5
BRANCH   4   7
HETATM    7  C4  UNL     1      18.146   8.110  12.177  1.00  0.00     0.002 C 
HETATM    8  C5  UNL     1      16.834   7.689  11.560  1.00  0.00     0.005 C 
ENDBRANCH   4   7
ENDBRANCH   3   4
BRANCH   3   9
HETATM    9  C7  UNL     1      19.429   5.558  13.832  1.00  0.00     0.254 C 
BRANCH   9  10
HETATM   10  N1  UNL     1      19.586   4.532  14.805  1.00  0.00    -0.077 N 
ATOM     11  H13 UNL     1      20.169   4.860  15.575  1.00  0.00     0.274 HD
ATOM     12  H12 UNL     1      18.709   4.379  15.303  1.00  0.00     0.274 HD
ATOM     13  H11 UNL     1      19.945   3.650  14.439  1.00  0.00     0.274 HD
ENDBRANCH   9  10
ENDBRANCH   3   9
ENDBRANCH   1   3
BRANCH   1  14
HETATM   14  C8  UNL     1      15.871   6.111  14.879  1.00  0.00     0.119 C 
BRANCH  14  15
HETATM   15  C9  UNL     1      15.163   4.966  14.136  1.00  0.00     0.060 C 
BRANCH  15  16
HETATM   16  C10 UNL     1      15.465   3.650  14.696  1.00  0.00    -0.026 A 
HETATM   17  C11 UNL     1      14.967   3.168  15.878  1.00  0.00    -0.027 A 
HETATM   18  C12 UNL     1      15.500   1.905  16.032  1.00  0.00     0.018 A 
HETATM   19  C19 UNL     1      14.057   3.635  16.956  1.00  0.00     0.041 C 
HETATM   20  N3  UNL     1      16.286   1.659  14.974  1.00  0.00    -0.357 N 
HETATM   21  C16 UNL     1      15.118   1.150  17.243  1.00  0.00     0.058 C 
HETATM   22  C13 UNL     1      17.016   0.397  14.816  1.00  0.00     0.156 C 
HETATM   23  C14 UNL     1      16.290   2.700  14.137  1.00  0.00     0.014 A 
HETATM   24  C15 UNL     1      17.066   2.748  12.864  1.00  0.00     0.069 C 
HETATM   25  C17 UNL     1      15.021   1.978  18.483  1.00  0.00     0.006 C 
HETATM   26  C18 UNL     1      14.796   3.435  18.261  1.00  0.00     0.005 C 
ENDBRANCH  15  16
ENDBRANCH  14  15
ENDBRANCH   1  14
TORSDOF 9
ENDMDL
MODEL 2
REMARK VINA RESULT: -6.367515890      2.390      5.052
REMARK  9 active torsions:
REMARK  status: ('A' for Active; 'I' for Inactive)
REMARK    1  A    between atoms: C2_2  and  C3_3 
REMARK    2  A    between atoms: C3_3  and  C4_4 
REMARK    3  A    between atoms: C3_3  and  C6_6 
REMARK    4  A    between atoms: C6_6  and  C7_7 
REMARK    5  A    between atoms: C6_6  and  N2_12 
REMARK    6  A    between atoms: C7_7  and  N1_8 
REMARK    7  A    between atoms: N2_12  and  C8_14 
REMARK    8  A    between atoms: C8_14  and  C9_15 
REMARK    9  A    between atoms: C9_15  and  C10_16 
ROOT
HETATM    1  N2  UNL     1      19.712   3.487  12.386  1.00  0.00    -0.415 N 
ATOM      2  H2  UNL     1      19.864   2.841  13.160  1.00  0.00     0.153 HD
ENDROOT
BRANCH   1   3
HETATM    3  C6  UNL     1      19.479   2.995  11.085  1.00  0.00     0.105 C 
BRANCH   3   4
HETATM    4  C3  UNL     1      18.390   1.966  10.950  1.00  0.00     0.009 C 
BRANCH   4   5
HETATM    5  C2  UNL     1      19.020   0.583  10.929  1.00  0.00     0.002 C 
HETATM    6  C1  UNL     1      17.940  -0.455  11.236  1.00  0.00     0.005 C 
ENDBRANCH   4   5
BRANCH   4   7
HETATM    7  C4  UNL     1      17.369   2.067  12.057  1.00  0.00     0.002 C 
HETATM    8  C5  UNL     1      16.109   2.781  11.631  1.00  0.00     0.005 C 
ENDBRANCH   4   7
ENDBRANCH   3   4
BRANCH   3   9
HETATM    9  C7  UNL     1      19.354   4.073  10.017  1.00  0.00     0.254 C 
BRANCH   9  10
HETATM   10  N1  UNL     1      20.349   4.019   9.000  1.00  0.00    -0.077 N 
ATOM     11  H13 UNL     1      20.404   3.079   8.609  1.00  0.00     0.274 HD
ATOM     12  H12 UNL     1      20.041   4.534   8.176  1.00  0.00     0.274 HD
ATOM     13  H11 UNL     1      21.273   4.335   9.293  1.00  0.00     0.274 HD
ENDBRANCH   9  10
ENDBRANCH   3   9
ENDBRANCH   1   3
BRANCH   1  14
HETATM   14  C8  UNL     1      19.734   4.880  12.610  1.00  0.00     0.119 C 
BRANCH  14  15
HETATM   15  C9  UNL     1      19.296   5.242  14.039  1.00  0.00     0.060 C 
BRANCH  15  16
HETATM   16  C10 UNL     1      17.852   5.132  14.237  1.00  0.00    -0.026 A 
HETATM   17  C11 UNL     1      17.240   4.220  15.056  1.00  0.00    -0.027 A 
HETATM   18  C12 UNL     1      15.886   4.457  14.949  1.00  0.00     0.018 A 
HETATM   19  C19 UNL     1      17.648   3.118  15.966  1.00  0.00     0.041 C 
HETATM   20  N3  UNL     1      15.712   5.475  14.095  1.00  0.00    -0.357 N 
HETATM   21  C16 UNL     1      14.982   3.599  15.743  1.00  0.00     0.058 C 
HETATM   22  C13 UNL     1      14.384   5.991  13.749  1.00  0.00     0.156 C 
HETATM   23  C14 UNL     1      16.889   5.914  13.639  1.00  0.00     0.014 A 
HETATM   24  C15 UNL     1      17.045   7.037  12.670  1.00  0.00     0.069 C 
HETATM   25  C17 UNL     1      15.395   2.165  15.814  1.00  0.00     0.006 C 
HETATM   26  C18 UNL     1      16.841   1.903  15.561  1.00  0.00     0.005 C 
ENDBRANCH  15  16
ENDBRANCH  14  15
ENDBRANCH   1  14
TORSDOF 9
ENDMDL
MODEL 3
REMARK VINA RESULT: -6.202050671      2.168      6.128
REMARK  9 active torsions:
REMARK  status: ('A' for Active; 'I' for Inactive)
REMARK    1  A    between atoms: C2_2  and  C3_3 
REMARK    2  A    between atoms: C3_3  and  C4_4 
REMARK    3  A    between atoms: C3_3  and  C6_6 
REMARK    4  A    between atoms: C6_6  and  C7_7 
REMARK    5  A    between atoms: C6_6  and  N2_12 
REMARK    6  A    between atoms: C7_7  and  N1_8 
REMARK    7  A    between atoms: N2_12  and  C8_14 
REMARK    8  A    between atoms: C8_14  and  C9_15 
REMARK    9  A    between atoms: C9_15  and  C10_16 
ROOT
HETATM    1  N2  UNL     1      17.363   4.674  14.956  1.00  0.00    -0.415 N 
ATOM      2  H2  UNL     1      18.018   4.046  15.420  1.00  0.00     0.153 HD
ENDROOT
BRANCH   1   3
HETATM    3  C6  UNL     1      16.007   4.308  14.813  1.00  0.00     0.105 C 
BRANCH   3   4
HETATM    4  C3  UNL     1      15.595   3.021  15.475  1.00  0.00     0.009 C 
BRANCH   4   5
HETATM    5  C2  UNL     1      16.838   2.314  15.992  1.00  0.00     0.002 C 
HETATM    6  C1  UNL     1      16.855   0.886  15.444  1.00  0.00     0.005 C 
ENDBRANCH   4   5
BRANCH   4   7
HETATM    7  C4  UNL     1      14.609   3.245  16.595  1.00  0.00     0.002 C 
HETATM    8  C5  UNL     1      13.840   1.999  16.959  1.00  0.00     0.005 C 
ENDBRANCH   4   7
ENDBRANCH   3   4
BRANCH   3   9
HETATM    9  C7  UNL     1      15.018   5.425  15.114  1.00  0.00     0.254 C 
BRANCH   9  10
HETATM   10  N1  UNL     1      14.273   5.876  13.989  1.00  0.00    -0.077 N 
ATOM     11  H13 UNL     1      14.760   5.642  13.125  1.00  0.00     0.274 HD
ATOM     12  H12 UNL     1      13.431   5.313  13.874  1.00  0.00     0.274 HD
ATOM     13  H11 UNL     1      14.037   6.868  14.006  1.00  0.00     0.274 HD
ENDBRANCH   9  10
ENDBRANCH   3   9
ENDBRANCH   1   3
BRANCH   1  14
HETATM   14  C8  UNL     1      17.804   5.915  14.451  1.00  0.00     0.119 C 
BRANCH  14  15
HETATM   15  C9  UNL     1      17.699   5.985  12.919  1.00  0.00     0.060 C 
BRANCH  15  16
HETATM   16  C10 UNL     1      18.712   5.178  12.241  1.00  0.00    -0.026 A 
HETATM   17  C11 UNL     1      18.492   3.941  11.693  1.00  0.00    -0.027 A 
HETATM   18  C12 UNL     1      19.699   3.536  11.163  1.00  0.00     0.018 A 
HETATM   19  C19 UNL     1      17.354   2.998  11.539  1.00  0.00     0.041 C 
HETATM   20  N3  UNL     1      20.596   4.505  11.395  1.00  0.00    -0.357 N 
HETATM   21  C16 UNL     1      19.741   2.215  10.501  1.00  0.00     0.058 C 
HETATM   22  C13 UNL     1      21.993   4.401  10.962  1.00  0.00     0.156 C 
HETATM   23  C14 UNL     1      20.031   5.523  12.050  1.00  0.00     0.014 A 
HETATM   24  C15 UNL     1      20.757   6.759  12.462  1.00  0.00     0.069 C 
HETATM   25  C17 UNL     1      18.933   1.158  11.180  1.00  0.00     0.006 C 
HETATM   26  C18 UNL     1      17.832   1.657  12.053  1.00  0.00     0.005 C 
ENDBRANCH  15  16
ENDBRANCH  14  15
ENDBRANCH   1  14
TORSDOF 9
ENDMDL
MODEL 4
REMARK VINA RESULT: -6.075059634      1.941      6.054
REMARK  9 active torsions:
REMARK  status: ('A' for Active; 'I' for Inactive)
REMARK    1  A    between atoms: C2_2  and  C3_3 
REMARK    2  A    between atoms: C3_3  and  C4_4 
REMARK    3  A    between atoms: C3_3  and  C6_6 
REMARK    4  A    between atoms: C6_6  and  C7_7 
REMARK    5  A    between atoms: C6_6  and  N2_12 
REMARK    6  A    between atoms: C7_7  and  N1_8 
REMARK    7  A    between atoms: N2_12  and  C8_14 
REMARK    8  A    between atoms: C8_14  and  C9_15 
REMARK    9  A    between atoms: C9_15  and  C10_16 
ROOT
HETATM    1  N2  UNL     1      16.294   2.420  13.740  1.00  0.00    -0.415 N 
ATOM      2  H2  UNL     1      15.976   1.459  13.617  1.00  0.00     0.153 HD
ENDROOT
BRANCH   1   3
HETATM    3  C6  UNL     1      16.288   3.011  15.021  1.00  0.00     0.105 C 
BRANCH   3   4
HETATM    4  C3  UNL     1      14.957   3.511  15.515  1.00  0.00     0.009 C 
BRANCH   4   5
HETATM    5  C2  UNL     1      14.722   2.977  16.919  1.00  0.00     0.002 C 
HETATM    6  C1  UNL     1      13.678   1.861  16.853  1.00  0.00     0.005 C 
ENDBRANCH   4   5
BRANCH   4   7
HETATM    7  C4  UNL     1      14.871   5.017  15.498  1.00  0.00     0.002 C 
HETATM    8  C5  UNL     1      14.530   5.571  14.135  1.00  0.00     0.005 C 
ENDBRANCH   4   7
ENDBRANCH   3   4
BRANCH   3   9
HETATM    9  C7  UNL     1      17.004   2.200  16.092  1.00  0.00     0.254 C 
BRANCH   9  10
HETATM   10  N1  UNL     1      17.246   0.842  15.744  1.00  0.00    -0.077 N 
ATOM     11  H13 UNL     1      16.516   0.242  16.126  1.00  0.00     0.274 HD
ATOM     12  H12 UNL     1      17.088   0.698  14.747  1.00  0.00     0.274 HD
ATOM     13  H11 UNL     1      18.167   0.492  16.010  1.00  0.00     0.274 HD
ENDBRANCH   9  10
ENDBRANCH   3   9
ENDBRANCH   1   3
BRANCH   1  14
HETATM   14  C8  UNL     1      16.742   3.168  12.631  1.00  0.00     0.119 C 
BRANCH  14  15
HETATM   15  C9  UNL     1      18.253   3.005  12.398  1.00  0.00     0.060 C 
BRANCH  15  16
HETATM   16  C10 UNL     1      18.933   4.276  12.159  1.00  0.00    -0.026 A 
HETATM   17  C11 UNL     1      19.044   5.290  13.074  1.00  0.00    -0.027 A 
HETATM   18  C12 UNL     1      19.749   6.296  12.447  1.00  0.00     0.018 A 
HETATM   19  C19 UNL     1      18.624   5.553  14.475  1.00  0.00     0.041 C 
HETATM   20  N3  UNL     1      20.040   5.883  11.206  1.00  0.00    -0.357 N 
HETATM   21  C16 UNL     1      20.014   7.525  13.224  1.00  0.00     0.058 C 
HETATM   22  C13 UNL     1      20.788   6.714  10.257  1.00  0.00     0.156 C 
HETATM   23  C14 UNL     1      19.558   4.655  10.992  1.00  0.00     0.014 A 
HETATM   24  C15 UNL     1      19.709   3.908   9.711  1.00  0.00     0.069 C 
HETATM   25  C17 UNL     1      18.882   7.960  14.096  1.00  0.00     0.006 C 
HETATM   26  C18 UNL     1      17.914   6.889  14.469  1.00  0.00     0.005 C 
ENDBRANCH  15  16
ENDBRANCH  14  15
ENDBRANCH   1  14
TORSDOF 9
ENDMDL
MODEL 5
REMARK VINA RESULT: -6.068595904      2.589      5.504
REMARK  9 active torsions:
REMARK  status: ('A' for Active; 'I' for Inactive)
REMARK    1  A    between atoms: C2_2  and  C3_3 
REMARK    2  A    between atoms: C3_3  and  C4_4 
REMARK    3  A    between atoms: C3_3  and  C6_6 
REMARK    4  A    between atoms: C6_6  and  C7_7 
REMARK    5  A    between atoms: C6_6  and  N2_12 
REMARK    6  A    between atoms: C7_7  and  N1_8 
REMARK    7  A    between atoms: N2_12  and  C8_14 
REMARK    8  A    between atoms: C8_14  and  C9_15 
REMARK    9  A    between atoms: C9_15  and  C10_16 
ROOT
HETATM    1  N2  UNL     1      20.075   4.227  12.540  1.00  0.00    -0.415 N 
ATOM      2  H2  UNL     1      19.701   3.845  13.408  1.00  0.00     0.153 HD
ENDROOT
BRANCH   1   3
HETATM    3  C6  UNL     1      20.350   3.375  11.449  1.00  0.00     0.105 C 
BRANCH   3   4
HETATM    4  C3  UNL     1      19.172   2.641  10.868  1.00  0.00     0.009 C 
BRANCH   4   5
HETATM    5  C2  UNL     1      19.379   1.147  11.063  1.00  0.00     0.002 C 
HETATM    6  C1  UNL     1      18.025   0.496  11.350  1.00  0.00     0.005 C 
ENDBRANCH   4   5
BRANCH   4   7
HETATM    7  C4  UNL     1      17.866   3.080  11.483  1.00  0.00     0.002 C 
HETATM    8  C5  UNL     1      17.092   4.030  10.601  1.00  0.00     0.005 C 
ENDBRANCH   4   7
ENDBRANCH   3   4
BRANCH   3   9
HETATM    9  C7  UNL     1      21.200   4.006  10.355  1.00  0.00     0.254 C 
BRANCH   9  10
HETATM   10  N1  UNL     1      20.581   4.050   9.075  1.00  0.00    -0.077 N 
ATOM     11  H13 UNL     1      19.780   4.682   9.090  1.00  0.00     0.274 HD
ATOM     12  H12 UNL     1      21.178   4.540   8.409  1.00  0.00     0.274 HD
ATOM     13  H11 UNL     1      20.307   3.141   8.704  1.00  0.00     0.274 HD
ENDBRANCH   9  10
ENDBRANCH   3   9
ENDBRANCH   1   3
BRANCH   1  14
HETATM   14  C8  UNL     1      20.322   5.611  12.420  1.00  0.00     0.119 C 
BRANCH  14  15
HETATM   15  C9  UNL     1      19.576   6.424  13.491  1.00  0.00     0.060 C 
BRANCH  15  16
HETATM   16  C10 UNL     1      18.139   6.515  13.239  1.00  0.00    -0.026 A 
HETATM   17  C11 UNL     1      17.178   5.829  13.934  1.00  0.00    -0.027 A 
HETATM   18  C12 UNL     1      15.969   6.197  13.380  1.00  0.00     0.018 A 
HETATM   19  C19 UNL     1      17.119   4.858  15.057  1.00  0.00     0.041 C 
HETATM   20  N3  UNL     1      16.218   7.069  12.393  1.00  0.00    -0.357 N 
HETATM   21  C16 UNL     1      14.748   5.594  13.952  1.00  0.00     0.058 C 
HETATM   22  C13 UNL     1      15.149   7.667  11.585  1.00  0.00     0.156 C 
HETATM   23  C14 UNL     1      17.531   7.288  12.276  1.00  0.00     0.014 A 
HETATM   24  C15 UNL     1      18.141   8.206  11.272  1.00  0.00     0.069 C 
HETATM   25  C17 UNL     1      14.887   4.155  14.329  1.00  0.00     0.006 C 
HETATM   26  C18 UNL     1      16.283   3.692  14.577  1.00  0.00     0.005 C 
ENDBRANCH  15  16
ENDBRANCH  14  15
ENDBRANCH   1  14
TORSDOF 9
ENDMDL
