MODEL 1
REMARK VINA RESULT: -7.902965505      0.000      0.000
REMARK  5 active torsions:
REMARK  status: ('A' for Active; 'I' for Inactive)
REMARK    1  A    between atoms: N1_1  and  N2_4 
REMARK    2  A    between atoms: C1_6  and  N3_7 
REMARK    3  A    between atoms: N3_7  and  N4_9 
REMARK    4  A    between atoms: N4_9  and  S1_11 
REMARK    5  A    between atoms: S1_11  and  C2_14 
ROOT
HETATM    1  S1  UNL     1     -40.765 -21.539   9.116  1.00  0.00     0.310 S 
HETATM    2  O1  UNL     1     -41.009 -20.062   9.005  1.00  0.00    -0.196 OA
HETATM    3  O2  UNL     1     -39.320 -21.816   9.031  1.00  0.00    -0.196 OA
ENDROOT
BRANCH   1   4
HETATM    4  N4  UNL     1     -41.691 -22.311   7.900  1.00  0.00    -0.220 N 
ATOM      5  H4  UNL     1     -42.300 -23.109   8.077  1.00  0.00     0.200 HD
BRANCH   4   6
HETATM    6  N3  UNL     1     -41.524 -21.734   6.643  1.00  0.00    -0.285 N 
ATOM      7  H3  UNL     1     -41.327 -20.738   6.542  1.00  0.00     0.188 HD
BRANCH   6   8
HETATM    8  C1  UNL     1     -41.639 -22.579   5.506  1.00  0.00     0.213 C 
HETATM    9  N2  UNL     1     -41.121 -23.740   5.528  1.00  0.00    -0.301 N 
ATOM     10  H2  UNL     1     -40.625 -24.063   6.359  1.00  0.00     0.187 HD
BRANCH   9  11
HETATM   11  N1  UNL     1     -41.233 -24.571   4.412  1.00  0.00    -0.344 N 
ATOM     12  H12 UNL     1     -41.509 -24.166   3.517  1.00  0.00     0.176 HD
ATOM     13  H11 UNL     1     -41.037 -25.568   4.501  1.00  0.00     0.176 HD
ENDBRANCH   9  11
ENDBRANCH   6   8
ENDBRANCH   4   6
ENDBRANCH   1   4
BRANCH   1  14
HETATM   14  C2  UNL     1     -41.349 -22.116  10.668  1.00  0.00     0.248 A 
HETATM   15  N5  UNL     1     -40.681 -22.190  11.830  1.00  0.00    -0.294 N 
HETATM   16  C3  UNL     1     -41.508 -22.691  12.764  1.00  0.00     0.243 A 
ATOM     17  H5  UNL     1     -39.710 -21.913  11.979  1.00  0.00     0.171 HD
HETATM   18  N6  UNL     1     -41.228 -22.914  14.024  1.00  0.00    -0.364 N 
HETATM   19  O3  UNL     1     -42.640 -22.903  12.148  1.00  0.00    -0.199 OA
ATOM     20  H62 UNL     1     -40.344 -22.748  14.504  1.00  0.00     0.159 HD
ATOM     21  H61 UNL     1     -41.856 -23.295  14.733  1.00  0.00     0.159 HD
HETATM   22  N7  UNL     1     -42.589 -22.575  10.898  1.00  0.00    -0.230 N 
ATOM     23  H7  UNL     1     -43.345 -22.651  10.219  1.00  0.00     0.197 HD
ENDBRANCH   1  14
TORSDOF 5
ENDMDL
MODEL 2
REMARK VINA RESULT: -7.523813728      2.015      2.462
REMARK  5 active torsions:
REMARK  status: ('A' for Active; 'I' for Inactive)
REMARK    1  A    between atoms: N1_1  and  N2_4 
REMARK    2  A    between atoms: C1_6  and  N3_7 
REMARK    3  A    between atoms: N3_7  and  N4_9 
REMARK    4  A    between atoms: N4_9  and  S1_11 
REMARK    5  A    between atoms: S1_11  and  C2_14 
ROOT
HETATM    1  S1  UNL     1     -39.499 -20.423   7.487  1.00  0.00     0.310 S 
HETATM    2  O1  UNL     1     -39.669 -18.935   7.577  1.00  0.00    -0.196 OA
HETATM    3  O2  UNL     1     -38.068 -20.760   7.383  1.00  0.00    -0.196 OA
ENDROOT
BRANCH   1   4
HETATM    4  N4  UNL     1     -40.439 -20.973   6.166  1.00  0.00    -0.220 N 
ATOM      5  H4  UNL     1     -41.045 -20.367   5.614  1.00  0.00     0.200 HD
BRANCH   4   6
HETATM    6  N3  UNL     1     -40.289 -22.337   5.924  1.00  0.00    -0.285 N 
ATOM      7  H3  UNL     1     -39.375 -22.738   5.713  1.00  0.00     0.188 HD
BRANCH   6   8
HETATM    8  C1  UNL     1     -41.452 -23.152   5.981  1.00  0.00     0.213 C 
HETATM    9  N2  UNL     1     -42.491 -22.816   5.329  1.00  0.00    -0.301 N 
ATOM     10  H2  UNL     1     -42.488 -21.964   4.766  1.00  0.00     0.187 HD
BRANCH   9  11
HETATM   11  N1  UNL     1     -43.634 -23.615   5.383  1.00  0.00    -0.344 N 
ATOM     12  H12 UNL     1     -43.624 -24.456   5.960  1.00  0.00     0.176 HD
ATOM     13  H11 UNL     1     -44.462 -23.352   4.850  1.00  0.00     0.176 HD
ENDBRANCH   9  11
ENDBRANCH   6   8
ENDBRANCH   4   6
ENDBRANCH   1   4
BRANCH   1  14
HETATM   14  C2  UNL     1     -40.140 -21.176   8.938  1.00  0.00     0.248 A 
HETATM   15  N5  UNL     1     -41.424 -21.304   9.309  1.00  0.00    -0.294 N 
HETATM   16  C3  UNL     1     -41.463 -21.944  10.490  1.00  0.00     0.243 A 
ATOM     17  H5  UNL     1     -42.233 -20.972   8.784  1.00  0.00     0.171 HD
HETATM   18  N6  UNL     1     -42.531 -22.258  11.180  1.00  0.00    -0.364 N 
HETATM   19  O3  UNL     1     -40.216 -22.184  10.798  1.00  0.00    -0.199 OA
ATOM     20  H62 UNL     1     -43.504 -22.072  10.939  1.00  0.00     0.159 HD
ATOM     21  H61 UNL     1     -42.561 -22.744  12.076  1.00  0.00     0.159 HD
HETATM   22  N7  UNL     1     -39.396 -21.742   9.901  1.00  0.00    -0.230 N 
ATOM     23  H7  UNL     1     -38.378 -21.811   9.922  1.00  0.00     0.197 HD
ENDBRANCH   1  14
TORSDOF 5
ENDMDL
MODEL 3
REMARK VINA RESULT: -7.434548450      1.712      5.666
REMARK  5 active torsions:
REMARK  status: ('A' for Active; 'I' for Inactive)
REMARK    1  A    between atoms: N1_1  and  N2_4 
REMARK    2  A    between atoms: C1_6  and  N3_7 
REMARK    3  A    between atoms: N3_7  and  N4_9 
REMARK    4  A    between atoms: N4_9  and  S1_11 
REMARK    5  A    between atoms: S1_11  and  C2_14 
ROOT
HETATM    1  S1  UNL     1     -40.092 -20.915   8.774  1.00  0.00     0.310 S 
HETATM    2  O1  UNL     1     -39.115 -21.931   9.292  1.00  0.00    -0.196 OA
HETATM    3  O2  UNL     1     -39.388 -19.660   8.455  1.00  0.00    -0.196 OA
ENDROOT
BRANCH   1   4
HETATM    4  N4  UNL     1     -41.327 -20.739   9.947  1.00  0.00    -0.220 N 
ATOM      5  H4  UNL     1     -41.528 -19.862  10.426  1.00  0.00     0.200 HD
BRANCH   4   6
HETATM    6  N3  UNL     1     -42.028 -21.920  10.178  1.00  0.00    -0.285 N 
ATOM      7  H3  UNL     1     -42.631 -22.324   9.461  1.00  0.00     0.188 HD
BRANCH   6   8
HETATM    8  C1  UNL     1     -41.876 -22.544  11.446  1.00  0.00     0.213 C 
HETATM    9  N2  UNL     1     -41.355 -21.896  12.409  1.00  0.00    -0.301 N 
ATOM     10  H2  UNL     1     -41.049 -20.933  12.271  1.00  0.00     0.187 HD
BRANCH   9  11
HETATM   11  N1  UNL     1     -41.206 -22.507  13.655  1.00  0.00    -0.344 N 
ATOM     12  H12 UNL     1     -41.544 -22.026  14.488  1.00  0.00     0.176 HD
ATOM     13  H11 UNL     1     -40.762 -23.423  13.720  1.00  0.00     0.176 HD
ENDBRANCH   9  11
ENDBRANCH   6   8
ENDBRANCH   4   6
ENDBRANCH   1   4
BRANCH   1  14
HETATM   14  C2  UNL     1     -40.842 -21.518   7.306  1.00  0.00     0.248 A 
HETATM   15  N5  UNL     1     -41.719 -22.526   7.175  1.00  0.00    -0.294 N 
HETATM   16  C3  UNL     1     -42.035 -22.648   5.875  1.00  0.00     0.243 A 
ATOM     17  H5  UNL     1     -42.083 -23.102   7.934  1.00  0.00     0.171 HD
HETATM   18  N6  UNL     1     -42.858 -23.517   5.344  1.00  0.00    -0.364 N 
HETATM   19  O3  UNL     1     -41.349 -21.721   5.261  1.00  0.00    -0.199 OA
ATOM     20  H62 UNL     1     -43.394 -24.241   5.823  1.00  0.00     0.159 HD
ATOM     21  H61 UNL     1     -43.098 -23.610   4.356  1.00  0.00     0.159 HD
HETATM   22  N7  UNL     1     -40.625 -21.026   6.076  1.00  0.00    -0.230 N 
ATOM     23  H7  UNL     1     -40.008 -20.252   5.831  1.00  0.00     0.197 HD
ENDBRANCH   1  14
TORSDOF 5
ENDMDL
MODEL 4
REMARK VINA RESULT: -7.315250108      1.801      5.732
REMARK  5 active torsions:
REMARK  status: ('A' for Active; 'I' for Inactive)
REMARK    1  A    between atoms: N1_1  and  N2_4 
REMARK    2  A    between atoms: C1_6  and  N3_7 
REMARK    3  A    between atoms: N3_7  and  N4_9 
REMARK    4  A    between atoms: N4_9  and  S1_11 
REMARK    5  A    between atoms: S1_11  and  C2_14 
ROOT
HETATM    1  S1  UNL     1     -40.114 -20.935   8.798  1.00  0.00     0.310 S 
HETATM    2  O1  UNL     1     -39.120 -21.917   9.349  1.00  0.00    -0.196 OA
HETATM    3  O2  UNL     1     -39.422 -19.700   8.387  1.00  0.00    -0.196 OA
ENDROOT
BRANCH   1   4
HETATM    4  N4  UNL     1     -41.318 -20.692   9.990  1.00  0.00    -0.220 N 
ATOM      5  H4  UNL     1     -41.463 -19.805  10.472  1.00  0.00     0.200 HD
BRANCH   4   6
HETATM    6  N3  UNL     1     -42.080 -21.833  10.233  1.00  0.00    -0.285 N 
ATOM      7  H3  UNL     1     -42.741 -22.183   9.538  1.00  0.00     0.188 HD
BRANCH   6   8
HETATM    8  C1  UNL     1     -41.906 -22.493  11.479  1.00  0.00     0.213 C 
HETATM    9  N2  UNL     1     -41.357 -21.878  12.447  1.00  0.00    -0.301 N 
ATOM     10  H2  UNL     1     -41.044 -20.914  12.330  1.00  0.00     0.187 HD
BRANCH   9  11
HETATM   11  N1  UNL     1     -41.186 -22.525  13.673  1.00  0.00    -0.344 N 
ATOM     12  H12 UNL     1     -41.558 -23.466  13.793  1.00  0.00     0.176 HD
ATOM     13  H11 UNL     1     -40.694 -22.052  14.431  1.00  0.00     0.176 HD
ENDBRANCH   9  11
ENDBRANCH   6   8
ENDBRANCH   4   6
ENDBRANCH   1   4
BRANCH   1  14
HETATM   14  C2  UNL     1     -40.900 -21.625   7.388  1.00  0.00     0.248 A 
HETATM   15  N5  UNL     1     -41.063 -21.073   6.175  1.00  0.00    -0.294 N 
HETATM   16  C3  UNL     1     -41.719 -21.948   5.395  1.00  0.00     0.243 A 
ATOM     17  H5  UNL     1     -40.742 -20.146   5.894  1.00  0.00     0.171 HD
HETATM   18  N6  UNL     1     -42.066 -21.779   4.143  1.00  0.00    -0.364 N 
HETATM   19  O3  UNL     1     -41.933 -22.994   6.147  1.00  0.00    -0.199 OA
ATOM     20  H62 UNL     1     -41.899 -20.962   3.556  1.00  0.00     0.159 HD
ATOM     21  H61 UNL     1     -42.564 -22.443   3.550  1.00  0.00     0.159 HD
HETATM   22  N7  UNL     1     -41.462 -22.843   7.342  1.00  0.00    -0.230 N 
ATOM     23  H7  UNL     1     -41.508 -23.520   8.103  1.00  0.00     0.197 HD
ENDBRANCH   1  14
TORSDOF 5
ENDMDL
MODEL 5
REMARK VINA RESULT: -7.264303103      2.653      5.497
REMARK  5 active torsions:
REMARK  status: ('A' for Active; 'I' for Inactive)
REMARK    1  A    between atoms: N1_1  and  N2_4 
REMARK    2  A    between atoms: C1_6  and  N3_7 
REMARK    3  A    between atoms: N3_7  and  N4_9 
REMARK    4  A    between atoms: N4_9  and  S1_11 
REMARK    5  A    between atoms: S1_11  and  C2_14 
ROOT
HETATM    1  S1  UNL     1     -39.344 -20.210   7.454  1.00  0.00     0.310 S 
HETATM    2  O1  UNL     1     -37.913 -20.256   7.002  1.00  0.00    -0.196 OA
HETATM    3  O2  UNL     1     -39.943 -18.914   7.087  1.00  0.00    -0.196 OA
ENDROOT
BRANCH   1   4
HETATM    4  N4  UNL     1     -39.369 -20.535   9.134  1.00  0.00    -0.220 N 
ATOM      5  H4  UNL     1     -38.531 -20.711   9.687  1.00  0.00     0.200 HD
BRANCH   4   6
HETATM    6  N3  UNL     1     -40.656 -20.535   9.667  1.00  0.00    -0.285 N 
ATOM      7  H3  UNL     1     -41.241 -19.699   9.634  1.00  0.00     0.188 HD
BRANCH   6   8
HETATM    8  C1  UNL     1     -41.129 -21.737  10.260  1.00  0.00     0.213 C 
HETATM    9  N2  UNL     1     -42.087 -21.695  11.095  1.00  0.00    -0.301 N 
ATOM     10  H2  UNL     1     -42.515 -20.801  11.338  1.00  0.00     0.187 HD
BRANCH   9  11
HETATM   11  N1  UNL     1     -42.552 -22.875  11.677  1.00  0.00    -0.344 N 
ATOM     12  H12 UNL     1     -41.906 -23.654  11.804  1.00  0.00     0.176 HD
ATOM     13  H11 UNL     1     -43.527 -22.946  11.969  1.00  0.00     0.176 HD
ENDBRANCH   9  11
ENDBRANCH   6   8
ENDBRANCH   4   6
ENDBRANCH   1   4
BRANCH   1  14
HETATM   14  C2  UNL     1     -40.252 -21.483   6.657  1.00  0.00     0.248 A 
HETATM   15  N5  UNL     1     -41.571 -21.533   6.410  1.00  0.00    -0.294 N 
HETATM   16  C3  UNL     1     -41.842 -22.689   5.780  1.00  0.00     0.243 A 
ATOM     17  H5  UNL     1     -42.252 -20.815   6.658  1.00  0.00     0.171 HD
HETATM   18  N6  UNL     1     -43.015 -23.106   5.372  1.00  0.00    -0.364 N 
HETATM   19  O3  UNL     1     -40.694 -23.301   5.664  1.00  0.00    -0.199 OA
ATOM     20  H62 UNL     1     -43.911 -22.628   5.462  1.00  0.00     0.159 HD
ATOM     21  H61 UNL     1     -43.221 -23.983   4.893  1.00  0.00     0.159 HD
HETATM   22  N7  UNL     1     -39.721 -22.618   6.174  1.00  0.00    -0.230 N 
ATOM     23  H7  UNL     1     -38.738 -22.889   6.204  1.00  0.00     0.197 HD
ENDBRANCH   1  14
TORSDOF 5
ENDMDL
