MODEL 1
REMARK VINA RESULT: -7.164758379      0.000      0.000
REMARK  6 active torsions:
REMARK  status: ('A' for Active; 'I' for Inactive)
REMARK    1  A    between atoms: C2_2  and  N1_3 
REMARK    2  A    between atoms: C2_2  and  O4_19 
REMARK    3  A    between atoms: N1_3  and  C3_5 
REMARK    4  A    between atoms: C6_14  and  N4_15 
REMARK    5  A    between atoms: N4_15  and  O3_17 
REMARK    6  A    between atoms: O4_19  and  N5_20 
ROOT
HETATM    1  C3  UNL     1     -41.229 -22.555   9.712  1.00  0.00     0.141 A 
HETATM    2  N2  UNL     1     -40.677 -23.779   9.708  1.00  0.00    -0.292 N 
ATOM      3  H2  UNL     1     -40.445 -24.192   8.805  1.00  0.00     0.172 HD
HETATM    4  C4  UNL     1     -40.409 -24.499  10.815  1.00  0.00     0.328 A 
HETATM    5  O1  UNL     1     -39.882 -25.660  10.730  1.00  0.00    -0.247 OA
HETATM    6  N3  UNL     1     -40.715 -23.952  12.001  1.00  0.00    -0.273 N 
ATOM      7  H3  UNL     1     -40.521 -24.478  12.852  1.00  0.00     0.173 HD
HETATM    8  C5  UNL     1     -41.280 -22.712  12.106  1.00  0.00     0.281 A 
HETATM    9  O2  UNL     1     -41.549 -22.242  13.242  1.00  0.00    -0.265 OA
HETATM   10  C6  UNL     1     -41.537 -22.010  10.949  1.00  0.00     0.166 A 
ENDROOT
BRANCH   1  11
HETATM   11  N1  UNL     1     -41.504 -21.795   8.530  1.00  0.00    -0.346 N 
ATOM     12  H1  UNL     1     -42.474 -21.540   8.343  1.00  0.00     0.163 HD
BRANCH  11  13
HETATM   13  C2  UNL     1     -40.515 -21.369   7.596  1.00  0.00     0.247 C 
HETATM   14  C1  UNL     1     -40.987 -21.671   6.190  1.00  0.00     0.065 C 
BRANCH  13  15
HETATM   15  O4  UNL     1     -40.262 -20.015   7.776  1.00  0.00    -0.262 OA
BRANCH  15  16
HETATM   16  N5  UNL     1     -39.224 -19.895   8.631  1.00  0.00    -0.309 N 
ATOM     17  H52 UNL     1     -39.305 -19.781   9.642  1.00  0.00     0.184 HD
ATOM     18  H51 UNL     1     -38.362 -19.939   8.088  1.00  0.00     0.184 HD
ENDBRANCH  15  16
ENDBRANCH  13  15
ENDBRANCH  11  13
ENDBRANCH   1  11
BRANCH  10  19
HETATM   19  N4  UNL     1     -42.121 -20.723  11.031  1.00  0.00    -0.260 N 
ATOM     20  H4  UNL     1     -42.926 -20.605  11.646  1.00  0.00     0.194 HD
BRANCH  19  21
HETATM   21  O3  UNL     1     -41.718 -19.730  10.406  1.00  0.00    -0.289 OA
ATOM     22  H3  UNL     1     -41.621 -18.863  10.782  1.00  0.00     0.244 HD
ENDBRANCH  19  21
ENDBRANCH  10  19
TORSDOF 6
ENDMDL
MODEL 2
REMARK VINA RESULT: -7.125511813      1.087      1.508
REMARK  6 active torsions:
REMARK  status: ('A' for Active; 'I' for Inactive)
REMARK    1  A    between atoms: C2_2  and  N1_3 
REMARK    2  A    between atoms: C2_2  and  O4_19 
REMARK    3  A    between atoms: N1_3  and  C3_5 
REMARK    4  A    between atoms: C6_14  and  N4_15 
REMARK    5  A    between atoms: N4_15  and  O3_17 
REMARK    6  A    between atoms: O4_19  and  N5_20 
ROOT
HETATM    1  C3  UNL     1     -41.234 -22.467   9.798  1.00  0.00     0.141 A 
HETATM    2  N2  UNL     1     -40.660 -23.678   9.721  1.00  0.00    -0.292 N 
ATOM      3  H2  UNL     1     -40.410 -24.027   8.796  1.00  0.00     0.172 HD
HETATM    4  C4  UNL     1     -40.394 -24.465  10.782  1.00  0.00     0.328 A 
HETATM    5  O1  UNL     1     -39.845 -25.610  10.627  1.00  0.00    -0.247 OA
HETATM    6  N3  UNL     1     -40.725 -24.003  11.997  1.00  0.00    -0.273 N 
ATOM      7  H3  UNL     1     -40.532 -24.582  12.814  1.00  0.00     0.173 HD
HETATM    8  C5  UNL     1     -41.312 -22.783  12.175  1.00  0.00     0.281 A 
HETATM    9  O2  UNL     1     -41.604 -22.394  13.336  1.00  0.00    -0.265 OA
HETATM   10  C6  UNL     1     -41.567 -22.011  11.063  1.00  0.00     0.166 A 
ENDROOT
BRANCH   1  11
HETATM   11  N1  UNL     1     -41.506 -21.634   8.665  1.00  0.00    -0.346 N 
ATOM     12  H1  UNL     1     -42.441 -21.233   8.584  1.00  0.00     0.163 HD
BRANCH  11  13
HETATM   13  C2  UNL     1     -40.562 -21.328   7.643  1.00  0.00     0.247 C 
HETATM   14  C1  UNL     1     -39.262 -20.879   8.276  1.00  0.00     0.065 C 
BRANCH  13  15
HETATM   15  O4  UNL     1     -40.382 -22.442   6.832  1.00  0.00    -0.262 OA
BRANCH  15  16
HETATM   16  N5  UNL     1     -41.534 -22.660   6.162  1.00  0.00    -0.309 N 
ATOM     17  H52 UNL     1     -41.751 -22.302   5.232  1.00  0.00     0.184 HD
ATOM     18  H51 UNL     1     -42.135 -23.238   6.751  1.00  0.00     0.184 HD
ENDBRANCH  15  16
ENDBRANCH  13  15
ENDBRANCH  11  13
ENDBRANCH   1  11
BRANCH  10  19
HETATM   19  N4  UNL     1     -42.174 -20.742  11.223  1.00  0.00    -0.260 N 
ATOM     20  H4  UNL     1     -42.989 -20.677  11.833  1.00  0.00     0.194 HD
BRANCH  19  21
HETATM   21  O3  UNL     1     -41.781 -19.702  10.670  1.00  0.00    -0.289 OA
ATOM     22  H3  UNL     1     -42.010 -18.825  10.953  1.00  0.00     0.244 HD
ENDBRANCH  19  21
ENDBRANCH  10  19
TORSDOF 6
ENDMDL
MODEL 3
REMARK VINA RESULT: -7.042238211      1.909      4.666
REMARK  6 active torsions:
REMARK  status: ('A' for Active; 'I' for Inactive)
REMARK    1  A    between atoms: C2_2  and  N1_3 
REMARK    2  A    between atoms: C2_2  and  O4_19 
REMARK    3  A    between atoms: N1_3  and  C3_5 
REMARK    4  A    between atoms: C6_14  and  N4_15 
REMARK    5  A    between atoms: N4_15  and  O3_17 
REMARK    6  A    between atoms: O4_19  and  N5_20 
ROOT
HETATM    1  C3  UNL     1     -41.152 -21.953   8.455  1.00  0.00     0.141 A 
HETATM    2  N2  UNL     1     -41.683 -22.849   7.608  1.00  0.00    -0.292 N 
ATOM      3  H2  UNL     1     -42.406 -23.472   7.967  1.00  0.00     0.172 HD
HETATM    4  C4  UNL     1     -41.324 -22.982   6.315  1.00  0.00     0.328 A 
HETATM    5  O1  UNL     1     -41.876 -23.862   5.570  1.00  0.00    -0.247 OA
HETATM    6  N3  UNL     1     -40.373 -22.161   5.847  1.00  0.00    -0.273 N 
ATOM      7  H3  UNL     1     -40.086 -22.244   4.872  1.00  0.00     0.173 HD
HETATM    8  C5  UNL     1     -39.775 -21.217   6.633  1.00  0.00     0.281 A 
HETATM    9  O2  UNL     1     -38.887 -20.471   6.146  1.00  0.00    -0.265 OA
HETATM   10  C6  UNL     1     -40.171 -21.116   7.949  1.00  0.00     0.166 A 
ENDROOT
BRANCH   1  11
HETATM   11  N1  UNL     1     -41.545 -21.814   9.825  1.00  0.00    -0.346 N 
ATOM     12  H1  UNL     1     -41.688 -20.871  10.185  1.00  0.00     0.163 HD
BRANCH  11  13
HETATM   13  C2  UNL     1     -41.750 -22.904  10.720  1.00  0.00     0.247 C 
HETATM   14  C1  UNL     1     -40.458 -23.678  10.875  1.00  0.00     0.065 C 
BRANCH  13  15
HETATM   15  O4  UNL     1     -42.210 -22.420  11.939  1.00  0.00    -0.262 OA
BRANCH  15  16
HETATM   16  N5  UNL     1     -41.232 -21.665  12.483  1.00  0.00    -0.309 N 
ATOM     17  H52 UNL     1     -40.964 -20.733  12.168  1.00  0.00     0.184 HD
ATOM     18  H51 UNL     1     -40.819 -22.192  13.253  1.00  0.00     0.184 HD
ENDBRANCH  15  16
ENDBRANCH  13  15
ENDBRANCH  11  13
ENDBRANCH   1  11
BRANCH  10  19
HETATM   19  N4  UNL     1     -39.567 -20.145   8.783  1.00  0.00    -0.260 N 
ATOM     20  H4  UNL     1     -39.424 -20.384   9.765  1.00  0.00     0.194 HD
BRANCH  19  21
HETATM   21  O3  UNL     1     -39.200 -19.022   8.402  1.00  0.00    -0.289 OA
ATOM     22  H3  UNL     1     -38.353 -18.838   8.015  1.00  0.00     0.244 HD
ENDBRANCH  19  21
ENDBRANCH  10  19
TORSDOF 6
ENDMDL
MODEL 4
REMARK VINA RESULT: -6.056915275      2.386      3.519
REMARK  6 active torsions:
REMARK  status: ('A' for Active; 'I' for Inactive)
REMARK    1  A    between atoms: C2_2  and  N1_3 
REMARK    2  A    between atoms: C2_2  and  O4_19 
REMARK    3  A    between atoms: N1_3  and  C3_5 
REMARK    4  A    between atoms: C6_14  and  N4_15 
REMARK    5  A    between atoms: N4_15  and  O3_17 
REMARK    6  A    between atoms: O4_19  and  N5_20 
ROOT
HETATM    1  C3  UNL     1     -41.187 -21.907   8.238  1.00  0.00     0.141 A 
HETATM    2  N2  UNL     1     -42.025 -22.350   9.190  1.00  0.00    -0.292 N 
ATOM      3  H2  UNL     1     -43.004 -22.482   8.937  1.00  0.00     0.172 HD
HETATM    4  C4  UNL     1     -41.660 -22.630  10.457  1.00  0.00     0.328 A 
HETATM    5  O1  UNL     1     -42.518 -23.047  11.308  1.00  0.00    -0.247 OA
HETATM    6  N3  UNL     1     -40.372 -22.454  10.786  1.00  0.00    -0.273 N 
ATOM      7  H3  UNL     1     -40.074 -22.660  11.739  1.00  0.00     0.173 HD
HETATM    8  C5  UNL     1     -39.446 -22.008   9.886  1.00  0.00     0.281 A 
HETATM    9  O2  UNL     1     -38.249 -21.859  10.244  1.00  0.00    -0.265 OA
HETATM   10  C6  UNL     1     -39.861 -21.733   8.602  1.00  0.00     0.166 A 
ENDROOT
BRANCH   1  11
HETATM   11  N1  UNL     1     -41.583 -21.619   6.892  1.00  0.00    -0.346 N 
ATOM     12  H1  UNL     1     -41.623 -20.641   6.608  1.00  0.00     0.163 HD
BRANCH  11  13
HETATM   13  C2  UNL     1     -41.924 -22.606   5.923  1.00  0.00     0.247 C 
HETATM   14  C1  UNL     1     -42.131 -21.941   4.579  1.00  0.00     0.065 C 
BRANCH  13  15
HETATM   15  O4  UNL     1     -40.925 -23.570   5.873  1.00  0.00    -0.262 OA
BRANCH  15  16
HETATM   16  N5  UNL     1     -41.246 -24.452   4.903  1.00  0.00    -0.309 N 
ATOM     17  H52 UNL     1     -40.977 -24.372   3.922  1.00  0.00     0.184 HD
ATOM     18  H51 UNL     1     -41.798 -25.199   5.326  1.00  0.00     0.184 HD
ENDBRANCH  15  16
ENDBRANCH  13  15
ENDBRANCH  11  13
ENDBRANCH   1  11
BRANCH  10  19
HETATM   19  N4  UNL     1     -38.921 -21.271   7.651  1.00  0.00    -0.260 N 
ATOM     20  H4  UNL     1     -38.389 -20.430   7.878  1.00  0.00     0.194 HD
BRANCH  19  21
HETATM   21  O3  UNL     1     -38.699 -21.819   6.560  1.00  0.00    -0.289 OA
ATOM     22  H3  UNL     1     -38.341 -22.693   6.461  1.00  0.00     0.244 HD
ENDBRANCH  19  21
ENDBRANCH  10  19
TORSDOF 6
ENDMDL
MODEL 5
REMARK VINA RESULT: -5.949958696      2.665      4.478
REMARK  6 active torsions:
REMARK  status: ('A' for Active; 'I' for Inactive)
REMARK    1  A    between atoms: C2_2  and  N1_3 
REMARK    2  A    between atoms: C2_2  and  O4_19 
REMARK    3  A    between atoms: N1_3  and  C3_5 
REMARK    4  A    between atoms: C6_14  and  N4_15 
REMARK    5  A    between atoms: N4_15  and  O3_17 
REMARK    6  A    between atoms: O4_19  and  N5_20 
ROOT
HETATM    1  C3  UNL     1     -40.154 -22.142   7.015  1.00  0.00     0.141 A 
HETATM    2  N2  UNL     1     -39.205 -21.315   6.548  1.00  0.00    -0.292 N 
ATOM      3  H2  UNL     1     -38.667 -21.618   5.737  1.00  0.00     0.172 HD
HETATM    4  C4  UNL     1     -38.913 -20.111   7.080  1.00  0.00     0.328 A 
HETATM    5  O1  UNL     1     -37.993 -19.379   6.579  1.00  0.00    -0.247 OA
HETATM    6  N3  UNL     1     -39.622 -19.715   8.148  1.00  0.00    -0.273 N 
ATOM      7  H3  UNL     1     -39.419 -18.808   8.566  1.00  0.00     0.173 HD
HETATM    8  C5  UNL     1     -40.608 -20.488   8.693  1.00  0.00     0.281 A 
HETATM    9  O2  UNL     1     -41.244 -20.073   9.696  1.00  0.00    -0.265 OA
HETATM   10  C6  UNL     1     -40.873 -21.712   8.119  1.00  0.00     0.166 A 
ENDROOT
BRANCH   1  11
HETATM   11  N1  UNL     1     -40.461 -23.416   6.438  1.00  0.00    -0.346 N 
ATOM     12  H1  UNL     1     -40.050 -24.244   6.869  1.00  0.00     0.163 HD
BRANCH  11  13
HETATM   13  C2  UNL     1     -41.303 -23.607   5.305  1.00  0.00     0.247 C 
HETATM   14  C1  UNL     1     -41.345 -25.078   4.950  1.00  0.00     0.065 C 
BRANCH  13  15
HETATM   15  O4  UNL     1     -42.570 -23.106   5.580  1.00  0.00    -0.262 OA
BRANCH  15  16
HETATM   16  N5  UNL     1     -42.753 -22.000   4.828  1.00  0.00    -0.309 N 
ATOM     17  H52 UNL     1     -43.415 -21.252   5.033  1.00  0.00     0.184 HD
ATOM     18  H51 UNL     1     -42.116 -22.052   4.032  1.00  0.00     0.184 HD
ENDBRANCH  15  16
ENDBRANCH  13  15
ENDBRANCH  11  13
ENDBRANCH   1  11
BRANCH  10  19
HETATM   19  N4  UNL     1     -41.890 -22.531   8.665  1.00  0.00    -0.260 N 
ATOM     20  H4  UNL     1     -42.495 -23.035   8.016  1.00  0.00     0.194 HD
BRANCH  19  21
HETATM   21  O3  UNL     1     -42.095 -22.677   9.880  1.00  0.00    -0.289 OA
ATOM     22  H3  UNL     1     -42.519 -22.032  10.434  1.00  0.00     0.244 HD
ENDBRANCH  19  21
ENDBRANCH  10  19
TORSDOF 6
ENDMDL
