MODEL 1
REMARK VINA RESULT: -5.364032880      0.000      0.000
REMARK  3 active torsions:
REMARK  status: ('A' for Active; 'I' for Inactive)
REMARK    1  A    between atoms: C4_10  and  C5_11 
REMARK    2  A    between atoms: N3_12  and  C6_14 
REMARK    3  A    between atoms: C6_14  and  C7_15 
ROOT
HETATM    1  O1  UNL     1     -10.120  -7.931  24.750  1.00  0.00    -0.272 OA
HETATM    2  C1  UNL     1     -10.373  -6.963  24.010  1.00  0.00     0.234 C 
HETATM    3  N1  UNL     1      -9.601  -5.780  24.107  1.00  0.00    -0.303 N 
ATOM      4  H1  UNL     1      -9.118  -5.541  24.972  1.00  0.00     0.171 HD
HETATM    5  C2  UNL     1      -9.517  -4.934  22.972  1.00  0.00     0.174 C 
HETATM    6  S1  UNL     1      -8.647  -3.534  22.960  1.00  0.00    -0.041 SA
HETATM    7  N2  UNL     1     -10.214  -5.328  21.800  1.00  0.00    -0.366 N 
ATOM      8  H2  UNL     1      -9.848  -5.095  20.877  1.00  0.00     0.161 HD
HETATM    9  C3  UNL     1     -11.442  -6.056  21.934  1.00  0.00     0.141 C 
HETATM   10  C4  UNL     1     -11.474  -7.059  23.037  1.00  0.00     0.134 C 
ENDROOT
BRANCH  10  11
HETATM   11  C5  UNL     1     -11.474  -8.467  22.516  1.00  0.00     0.071 C 
HETATM   12  N3  UNL     1     -12.403  -9.255  22.865  1.00  0.00    -0.401 N 
ATOM     13  H3  UNL     1     -12.401 -10.212  22.511  1.00  0.00     0.158 HD
BRANCH  12  14
HETATM   14  C6  UNL     1     -13.446  -8.842  23.735  1.00  0.00     0.123 C 
BRANCH  14  15
HETATM   15  C7  UNL     1     -13.470  -9.664  25.024  1.00  0.00     0.005 C 
HETATM   16  C8  UNL     1     -14.778 -10.395  25.039  1.00  0.00     0.016 C 
HETATM   17  C9  UNL     1     -15.116 -11.094  26.294  1.00  0.00     0.074 C 
HETATM   18  S2  UNL     1     -14.227 -10.598  27.748  1.00  0.00    -0.169 SA
HETATM   19  C10 UNL     1     -12.867  -9.467  27.374  1.00  0.00     0.074 C 
HETATM   20  C11 UNL     1     -13.339  -8.669  26.153  1.00  0.00     0.016 C 
ENDBRANCH  14  15
ENDBRANCH  12  14
ENDBRANCH  10  11
TORSDOF 3
ENDMDL
MODEL 2
REMARK VINA RESULT: -5.306617616      2.147      6.373
REMARK  3 active torsions:
REMARK  status: ('A' for Active; 'I' for Inactive)
REMARK    1  A    between atoms: C4_10  and  C5_11 
REMARK    2  A    between atoms: N3_12  and  C6_14 
REMARK    3  A    between atoms: C6_14  and  C7_15 
ROOT
HETATM    1  O1  UNL     1     -12.282  -7.952  26.588  1.00  0.00    -0.272 OA
HETATM    2  C1  UNL     1     -12.756  -9.101  26.630  1.00  0.00     0.234 C 
HETATM    3  N1  UNL     1     -12.796  -9.804  27.858  1.00  0.00    -0.303 N 
ATOM      4  H1  UNL     1     -12.138  -9.585  28.606  1.00  0.00     0.171 HD
HETATM    5  C2  UNL     1     -13.771 -10.819  28.024  1.00  0.00     0.174 C 
HETATM    6  S1  UNL     1     -13.919 -11.703  29.408  1.00  0.00    -0.041 SA
HETATM    7  N2  UNL     1     -14.655 -11.071  26.942  1.00  0.00    -0.366 N 
ATOM      8  H2  UNL     1     -15.612 -11.379  27.116  1.00  0.00     0.161 HD
HETATM    9  C3  UNL     1     -14.182 -10.885  25.602  1.00  0.00     0.141 C 
HETATM   10  C4  UNL     1     -13.275  -9.720  25.398  1.00  0.00     0.134 C 
ENDROOT
BRANCH  10  11
HETATM   11  C5  UNL     1     -13.932  -8.628  24.605  1.00  0.00     0.071 C 
HETATM   12  N3  UNL     1     -13.367  -8.203  23.553  1.00  0.00    -0.401 N 
ATOM     13  H3  UNL     1     -13.814  -7.460  23.014  1.00  0.00     0.158 HD
BRANCH  12  14
HETATM   14  C6  UNL     1     -12.129  -8.734  23.102  1.00  0.00     0.123 C 
BRANCH  14  15
HETATM   15  C7  UNL     1     -11.116  -7.631  22.795  1.00  0.00     0.005 C 
HETATM   16  C8  UNL     1     -10.418  -7.323  24.085  1.00  0.00     0.016 C 
HETATM   17  C9  UNL     1      -9.539  -6.139  24.080  1.00  0.00     0.074 C 
HETATM   18  S2  UNL     1      -9.782  -4.969  22.767  1.00  0.00    -0.169 SA
HETATM   19  C10 UNL     1     -10.930  -5.574  21.508  1.00  0.00     0.074 C 
HETATM   20  C11 UNL     1     -11.919  -6.466  22.268  1.00  0.00     0.016 C 
ENDBRANCH  14  15
ENDBRANCH  12  14
ENDBRANCH  10  11
TORSDOF 3
ENDMDL
MODEL 3
REMARK VINA RESULT: -5.271733956      5.076      6.548
REMARK  3 active torsions:
REMARK  status: ('A' for Active; 'I' for Inactive)
REMARK    1  A    between atoms: C4_10  and  C5_11 
REMARK    2  A    between atoms: N3_12  and  C6_14 
REMARK    3  A    between atoms: C6_14  and  C7_15 
ROOT
HETATM    1  O1  UNL     1     -16.185  -6.577  22.389  1.00  0.00    -0.272 OA
HETATM    2  C1  UNL     1     -17.395  -6.723  22.642  1.00  0.00     0.234 C 
HETATM    3  N1  UNL     1     -18.246  -5.592  22.698  1.00  0.00    -0.303 N 
ATOM      4  H1  UNL     1     -17.872  -4.668  22.913  1.00  0.00     0.171 HD
HETATM    5  C2  UNL     1     -19.629  -5.776  22.447  1.00  0.00     0.174 C 
HETATM    6  S1  UNL     1     -20.718  -4.538  22.480  1.00  0.00    -0.041 SA
HETATM    7  N2  UNL     1     -20.080  -7.090  22.154  1.00  0.00    -0.366 N 
ATOM      8  H2  UNL     1     -20.868  -7.238  21.524  1.00  0.00     0.161 HD
HETATM    9  C3  UNL     1     -19.411  -8.204  22.757  1.00  0.00     0.141 C 
HETATM   10  C4  UNL     1     -17.930  -8.074  22.879  1.00  0.00     0.134 C 
ENDROOT
BRANCH  10  11
HETATM   11  C5  UNL     1     -17.206  -9.000  21.946  1.00  0.00     0.071 C 
HETATM   12  N3  UNL     1     -16.450  -9.896  22.429  1.00  0.00    -0.401 N 
ATOM     13  H3  UNL     1     -15.958 -10.525  21.794  1.00  0.00     0.158 HD
BRANCH  12  14
HETATM   14  C6  UNL     1     -16.272 -10.049  23.829  1.00  0.00     0.123 C 
BRANCH  14  15
HETATM   15  C7  UNL     1     -14.793 -10.053  24.217  1.00  0.00     0.005 C 
HETATM   16  C8  UNL     1     -14.726 -10.521  25.639  1.00  0.00     0.016 C 
HETATM   17  C9  UNL     1     -13.412 -10.406  26.298  1.00  0.00     0.074 C 
HETATM   18  S2  UNL     1     -12.234  -9.310  25.547  1.00  0.00    -0.169 SA
HETATM   19  C10 UNL     1     -12.788  -8.702  23.937  1.00  0.00     0.074 C 
HETATM   20  C11 UNL     1     -14.316  -8.630  24.043  1.00  0.00     0.016 C 
ENDBRANCH  14  15
ENDBRANCH  12  14
ENDBRANCH  10  11
TORSDOF 3
ENDMDL
MODEL 4
REMARK VINA RESULT: -5.270288242      2.102      2.969
REMARK  3 active torsions:
REMARK  status: ('A' for Active; 'I' for Inactive)
REMARK    1  A    between atoms: C4_10  and  C5_11 
REMARK    2  A    between atoms: N3_12  and  C6_14 
REMARK    3  A    between atoms: C6_14  and  C7_15 
ROOT
HETATM    1  O1  UNL     1     -10.599  -7.945  26.779  1.00  0.00    -0.272 OA
HETATM    2  C1  UNL     1     -10.946  -7.631  25.626  1.00  0.00     0.234 C 
HETATM    3  N1  UNL     1     -10.300  -6.561  24.960  1.00  0.00    -0.303 N 
ATOM      4  H1  UNL     1      -9.846  -5.817  25.489  1.00  0.00     0.171 HD
HETATM    5  C2  UNL     1     -10.298  -6.551  23.543  1.00  0.00     0.174 C 
HETATM    6  S1  UNL     1      -9.576  -5.364  22.656  1.00  0.00    -0.041 SA
HETATM    7  N2  UNL     1     -10.949  -7.620  22.872  1.00  0.00    -0.366 N 
ATOM      8  H2  UNL     1     -10.605  -7.951  21.971  1.00  0.00     0.161 HD
HETATM    9  C3  UNL     1     -12.096  -8.226  23.482  1.00  0.00     0.141 C 
HETATM   10  C4  UNL     1     -12.029  -8.378  24.964  1.00  0.00     0.134 C 
ENDROOT
BRANCH  10  11
HETATM   11  C5  UNL     1     -11.884  -9.814  25.376  1.00  0.00     0.071 C 
HETATM   12  N3  UNL     1     -12.694 -10.300  26.221  1.00  0.00    -0.401 N 
ATOM     13  H3  UNL     1     -12.594 -11.276  26.501  1.00  0.00     0.158 HD
BRANCH  12  14
HETATM   14  C6  UNL     1     -13.738  -9.522  26.787  1.00  0.00     0.123 C 
BRANCH  14  15
HETATM   15  C7  UNL     1     -14.450 -10.264  27.918  1.00  0.00     0.005 C 
HETATM   16  C8  UNL     1     -13.378 -10.805  28.814  1.00  0.00     0.016 C 
HETATM   17  C9  UNL     1     -13.822 -11.740  29.865  1.00  0.00     0.074 C 
HETATM   18  S2  UNL     1     -15.419 -12.485  29.649  1.00  0.00    -0.169 SA
HETATM   19  C10 UNL     1     -16.335 -11.763  28.269  1.00  0.00     0.074 C 
HETATM   20  C11 UNL     1     -15.264 -11.349  27.253  1.00  0.00     0.016 C 
ENDBRANCH  14  15
ENDBRANCH  12  14
ENDBRANCH  10  11
TORSDOF 3
ENDMDL
MODEL 5
REMARK VINA RESULT: -5.140161398      5.319      6.609
REMARK  3 active torsions:
REMARK  status: ('A' for Active; 'I' for Inactive)
REMARK    1  A    between atoms: C4_10  and  C5_11 
REMARK    2  A    between atoms: N3_12  and  C6_14 
REMARK    3  A    between atoms: C6_14  and  C7_15 
ROOT
HETATM    1  O1  UNL     1     -18.380  -6.030  24.075  1.00  0.00    -0.272 OA
HETATM    2  C1  UNL     1     -18.600  -6.602  22.992  1.00  0.00     0.234 C 
HETATM    3  N1  UNL     1     -19.796  -6.334  22.282  1.00  0.00    -0.303 N 
ATOM      4  H1  UNL     1     -20.629  -6.005  22.769  1.00  0.00     0.171 HD
HETATM    5  C2  UNL     1     -19.807  -6.535  20.879  1.00  0.00     0.174 C 
HETATM    6  S1  UNL     1     -21.136  -6.254  19.944  1.00  0.00    -0.041 SA
HETATM    7  N2  UNL     1     -18.612  -6.995  20.266  1.00  0.00    -0.366 N 
ATOM      8  H2  UNL     1     -18.375  -6.712  19.315  1.00  0.00     0.161 HD
HETATM    9  C3  UNL     1     -17.743  -7.863  21.005  1.00  0.00     0.141 C 
HETATM   10  C4  UNL     1     -17.611  -7.553  22.458  1.00  0.00     0.134 C 
ENDROOT
BRANCH  10  11
HETATM   11  C5  UNL     1     -16.254  -7.008  22.796  1.00  0.00     0.071 C 
HETATM   12  N3  UNL     1     -15.330  -7.810  23.124  1.00  0.00    -0.401 N 
ATOM     13  H3  UNL     1     -14.408  -7.439  23.354  1.00  0.00     0.158 HD
BRANCH  12  14
HETATM   14  C6  UNL     1     -15.543  -9.213  23.179  1.00  0.00     0.123 C 
BRANCH  14  15
HETATM   15  C7  UNL     1     -14.594  -9.893  24.167  1.00  0.00     0.005 C 
HETATM   16  C8  UNL     1     -15.441 -10.776  25.033  1.00  0.00     0.016 C 
HETATM   17  C9  UNL     1     -14.769 -11.377  26.200  1.00  0.00     0.074 C 
HETATM   18  S2  UNL     1     -13.246 -10.626  26.719  1.00  0.00    -0.169 SA
HETATM   19  C10 UNL     1     -12.658  -9.379  25.549  1.00  0.00     0.074 C 
HETATM   20  C11 UNL     1     -13.928  -8.778  24.937  1.00  0.00     0.016 C 
ENDBRANCH  14  15
ENDBRANCH  12  14
ENDBRANCH  10  11
TORSDOF 3
ENDMDL
