MODEL 1
REMARK VINA RESULT: -6.412150843      0.000      0.000
REMARK  4 active torsions:
REMARK  status: ('A' for Active; 'I' for Inactive)
REMARK    1  A    between atoms: C5_5  and  C6_6 
REMARK    2  A    between atoms: C6_6  and  O1_7 
REMARK    3  A    between atoms: C6_6  and  C7_9 
REMARK    4  A    between atoms: C7_9  and  N1_10 
ROOT
HETATM    1  C7  UNL     1     -16.120  -7.921  23.164  1.00  0.00     0.173 C 
ENDROOT
BRANCH   1   2
HETATM    2  C6  UNL     1     -15.883  -9.406  23.043  1.00  0.00     0.140 C 
BRANCH   2   3
HETATM    3  C5  UNL     1     -14.540  -9.721  23.669  1.00  0.00     0.016 C 
HETATM    4  C4  UNL     1     -14.722 -10.559  24.920  1.00  0.00     0.007 C 
HETATM    5  C3  UNL     1     -14.173  -9.775  26.088  1.00  0.00     0.005 C 
HETATM    6  C2  UNL     1     -12.718  -9.479  25.887  1.00  0.00    -0.019 C 
HETATM    7  C1  UNL     1     -12.226  -8.484  26.939  1.00  0.00     0.010 C 
HETATM    8  C15 UNL     1     -12.441  -8.848  24.542  1.00  0.00     0.005 C 
HETATM    9  C14 UNL     1     -13.810  -8.436  23.973  1.00  0.00     0.007 C 
ENDBRANCH   2   3
BRANCH   2  10
HETATM   10  O1  UNL     1     -16.891 -10.186  23.575  1.00  0.00    -0.394 OA
ATOM     11  H1  UNL     1     -17.124 -10.903  22.997  1.00  0.00     0.210 HD
ENDBRANCH   2  10
ENDBRANCH   1   2
BRANCH   1  12
HETATM   12  N1  UNL     1     -17.440  -7.662  22.614  1.00  0.00    -0.210 N 
HETATM   13  C8  UNL     1     -17.854  -7.542  21.256  1.00  0.00     0.674 C 
HETATM   14  N2  UNL     1     -17.401  -7.397  20.059  1.00  0.00    -0.225 N 
HETATM   15  N3  UNL     1     -19.289  -7.604  21.216  1.00  0.00    -0.215 N 
HETATM   16  C9  UNL     1     -18.473  -7.349  19.087  1.00  0.00     0.158 C 
ATOM     17  H2  UNL     1     -16.412  -7.325  19.826  1.00  0.00     0.177 HD
HETATM   18  C10 UNL     1     -19.674  -7.035  19.945  1.00  0.00     0.161 C 
HETATM   19  C11 UNL     1     -19.647  -8.214  22.491  1.00  0.00     0.166 C 
HETATM   20  C12 UNL     1     -18.647  -7.475  23.396  1.00  0.00     0.116 C 
HETATM   21  C13 UNL     1     -19.046  -6.004  23.368  1.00  0.00     0.034 C 
ENDBRANCH   1  12
TORSDOF 4
ENDMDL
MODEL 2
REMARK VINA RESULT: -6.236375207      1.022      1.985
REMARK  4 active torsions:
REMARK  status: ('A' for Active; 'I' for Inactive)
REMARK    1  A    between atoms: C5_5  and  C6_6 
REMARK    2  A    between atoms: C6_6  and  O1_7 
REMARK    3  A    between atoms: C6_6  and  C7_9 
REMARK    4  A    between atoms: C7_9  and  N1_10 
ROOT
HETATM    1  C7  UNL     1     -15.985  -7.895  23.154  1.00  0.00     0.173 C 
ENDROOT
BRANCH   1   2
HETATM    2  C6  UNL     1     -15.839  -9.396  23.200  1.00  0.00     0.140 C 
BRANCH   2   3
HETATM    3  C5  UNL     1     -14.481  -9.718  23.791  1.00  0.00     0.016 C 
HETATM    4  C4  UNL     1     -14.636 -10.496  25.083  1.00  0.00     0.007 C 
HETATM    5  C3  UNL     1     -14.023  -9.676  26.193  1.00  0.00     0.005 C 
HETATM    6  C2  UNL     1     -12.570  -9.428  25.926  1.00  0.00    -0.019 C 
HETATM    7  C1  UNL     1     -12.014  -8.400  26.913  1.00  0.00     0.010 C 
HETATM    8  C15 UNL     1     -12.330  -8.864  24.545  1.00  0.00     0.005 C 
HETATM    9  C14 UNL     1     -13.708  -8.441  24.009  1.00  0.00     0.007 C 
ENDBRANCH   2   3
BRANCH   2  10
HETATM   10  O1  UNL     1     -16.856 -10.043  23.874  1.00  0.00    -0.394 OA
ATOM     11  H1  UNL     1     -17.068 -10.878  23.474  1.00  0.00     0.210 HD
ENDBRANCH   2  10
ENDBRANCH   1   2
BRANCH   1  12
HETATM   12  N1  UNL     1     -17.094  -7.610  22.259  1.00  0.00    -0.210 N 
HETATM   13  C8  UNL     1     -18.157  -6.670  22.394  1.00  0.00     0.674 C 
HETATM   14  N2  UNL     1     -18.737  -5.901  23.249  1.00  0.00    -0.225 N 
HETATM   15  N3  UNL     1     -18.809  -6.542  21.121  1.00  0.00    -0.215 N 
HETATM   16  C9  UNL     1     -19.835  -5.172  22.649  1.00  0.00     0.158 C 
ATOM     17  H2  UNL     1     -18.458  -5.816  24.226  1.00  0.00     0.177 HD
HETATM   18  C10 UNL     1     -20.107  -5.970  21.398  1.00  0.00     0.161 C 
HETATM   19  C11 UNL     1     -17.829  -7.061  20.174  1.00  0.00     0.166 C 
HETATM   20  C12 UNL     1     -17.329  -8.266  20.987  1.00  0.00     0.116 C 
HETATM   21  C13 UNL     1     -18.511  -9.218  21.119  1.00  0.00     0.034 C 
ENDBRANCH   1  12
TORSDOF 4
ENDMDL
MODEL 3
REMARK VINA RESULT: -6.106748976      1.562      2.532
REMARK  4 active torsions:
REMARK  status: ('A' for Active; 'I' for Inactive)
REMARK    1  A    between atoms: C5_5  and  C6_6 
REMARK    2  A    between atoms: C6_6  and  O1_7 
REMARK    3  A    between atoms: C6_6  and  C7_9 
REMARK    4  A    between atoms: C7_9  and  N1_10 
ROOT
HETATM    1  C7  UNL     1     -15.175  -7.994  23.599  1.00  0.00     0.173 C 
ENDROOT
BRANCH   1   2
HETATM    2  C6  UNL     1     -14.678  -9.403  23.806  1.00  0.00     0.140 C 
BRANCH   2   3
HETATM    3  C5  UNL     1     -13.163  -9.373  23.806  1.00  0.00     0.016 C 
HETATM    4  C4  UNL     1     -12.629  -9.543  25.215  1.00  0.00     0.007 C 
HETATM    5  C3  UNL     1     -11.846  -8.300  25.567  1.00  0.00     0.005 C 
HETATM    6  C2  UNL     1     -10.705  -8.107  24.616  1.00  0.00    -0.019 C 
HETATM    7  C1  UNL     1     -10.069  -6.732  24.818  1.00  0.00     0.010 C 
HETATM    8  C15 UNL     1     -11.148  -8.163  23.172  1.00  0.00     0.005 C 
HETATM    9  C14 UNL     1     -12.684  -8.081  23.190  1.00  0.00     0.007 C 
ENDBRANCH   2   3
BRANCH   2  10
HETATM   10  O1  UNL     1     -15.177 -10.018  24.938  1.00  0.00    -0.394 OA
ATOM     11  H1  UNL     1     -15.429  -9.386  25.601  1.00  0.00     0.210 HD
ENDBRANCH   2  10
ENDBRANCH   1   2
BRANCH   1  12
HETATM   12  N1  UNL     1     -16.458  -8.098  22.923  1.00  0.00    -0.210 N 
HETATM   13  C8  UNL     1     -17.543  -7.177  22.880  1.00  0.00     0.674 C 
HETATM   14  N2  UNL     1     -18.003  -6.113  23.444  1.00  0.00    -0.225 N 
HETATM   15  N3  UNL     1     -18.441  -7.587  21.837  1.00  0.00    -0.215 N 
HETATM   16  C9  UNL     1     -19.251  -5.691  22.844  1.00  0.00     0.158 C 
ATOM     17  H2  UNL     1     -17.545  -5.630  24.216  1.00  0.00     0.177 HD
HETATM   18  C10 UNL     1     -19.701  -6.937  22.121  1.00  0.00     0.161 C 
HETATM   19  C11 UNL     1     -17.629  -8.465  21.004  1.00  0.00     0.166 C 
HETATM   20  C12 UNL     1     -16.886  -9.224  22.115  1.00  0.00     0.116 C 
HETATM   21  C13 UNL     1     -17.941 -10.020  22.874  1.00  0.00     0.034 C 
ENDBRANCH   1  12
TORSDOF 4
ENDMDL
MODEL 4
REMARK VINA RESULT: -6.075259234      1.176      1.347
REMARK  4 active torsions:
REMARK  status: ('A' for Active; 'I' for Inactive)
REMARK    1  A    between atoms: C5_5  and  C6_6 
REMARK    2  A    between atoms: C6_6  and  O1_7 
REMARK    3  A    between atoms: C6_6  and  C7_9 
REMARK    4  A    between atoms: C7_9  and  N1_10 
ROOT
HETATM    1  C7  UNL     1     -16.552  -9.482  22.515  1.00  0.00     0.173 C 
ENDROOT
BRANCH   1   2
HETATM    2  C6  UNL     1     -15.720  -8.599  23.412  1.00  0.00     0.140 C 
BRANCH   2   3
HETATM    3  C5  UNL     1     -14.645  -9.456  24.050  1.00  0.00     0.016 C 
HETATM    4  C4  UNL     1     -15.240 -10.745  24.581  1.00  0.00     0.007 C 
HETATM    5  C3  UNL     1     -15.015 -10.779  26.074  1.00  0.00     0.005 C 
HETATM    6  C2  UNL     1     -13.551 -10.733  26.388  1.00  0.00    -0.019 C 
HETATM    7  C1  UNL     1     -13.334 -10.519  27.886  1.00  0.00     0.010 C 
HETATM    8  C15 UNL     1     -12.851  -9.591  25.689  1.00  0.00     0.005 C 
HETATM    9  C14 UNL     1     -13.961  -8.676  25.145  1.00  0.00     0.007 C 
ENDBRANCH   2   3
BRANCH   2  10
HETATM   10  O1  UNL     1     -15.186  -7.494  22.780  1.00  0.00    -0.394 OA
ATOM     11  H1  UNL     1     -14.321  -7.672  22.430  1.00  0.00     0.210 HD
ENDBRANCH   2  10
ENDBRANCH   1   2
BRANCH   1  12
HETATM   12  N1  UNL     1     -17.761  -8.739  22.200  1.00  0.00    -0.210 N 
HETATM   13  C8  UNL     1     -18.195  -8.188  20.960  1.00  0.00     0.674 C 
HETATM   14  N2  UNL     1     -17.787  -7.895  19.774  1.00  0.00    -0.225 N 
HETATM   15  N3  UNL     1     -19.581  -7.832  21.087  1.00  0.00    -0.215 N 
HETATM   16  C9  UNL     1     -18.847  -7.317  18.975  1.00  0.00     0.158 C 
ATOM     17  H2  UNL     1     -16.837  -8.051  19.440  1.00  0.00     0.177 HD
HETATM   18  C10 UNL     1     -19.846  -6.892  20.022  1.00  0.00     0.161 C 
HETATM   19  C11 UNL     1     -20.034  -8.602  22.239  1.00  0.00     0.166 C 
HETATM   20  C12 UNL     1     -18.809  -8.412  23.147  1.00  0.00     0.116 C 
HETATM   21  C13 UNL     1     -18.745  -6.926  23.480  1.00  0.00     0.034 C 
ENDBRANCH   1  12
TORSDOF 4
ENDMDL
MODEL 5
REMARK VINA RESULT: -5.987099740      1.242      1.493
REMARK  4 active torsions:
REMARK  status: ('A' for Active; 'I' for Inactive)
REMARK    1  A    between atoms: C5_5  and  C6_6 
REMARK    2  A    between atoms: C6_6  and  O1_7 
REMARK    3  A    between atoms: C6_6  and  C7_9 
REMARK    4  A    between atoms: C7_9  and  N1_10 
ROOT
HETATM    1  C7  UNL     1     -16.587 -10.067  22.378  1.00  0.00     0.173 C 
ENDROOT
BRANCH   1   2
HETATM    2  C6  UNL     1     -16.010  -8.981  23.252  1.00  0.00     0.140 C 
BRANCH   2   3
HETATM    3  C5  UNL     1     -14.657  -9.448  23.750  1.00  0.00     0.016 C 
HETATM    4  C4  UNL     1     -14.818 -10.333  24.971  1.00  0.00     0.007 C 
HETATM    5  C3  UNL     1     -14.108  -9.665  26.125  1.00  0.00     0.005 C 
HETATM    6  C2  UNL     1     -12.652  -9.489  25.819  1.00  0.00    -0.019 C 
HETATM    7  C1  UNL     1     -11.990  -8.600  26.871  1.00  0.00     0.010 C 
HETATM    8  C15 UNL     1     -12.425  -8.814  24.486  1.00  0.00     0.005 C 
HETATM    9  C14 UNL     1     -13.789  -8.251  24.052  1.00  0.00     0.007 C 
ENDBRANCH   2   3
BRANCH   2  10
HETATM   10  O1  UNL     1     -15.931  -7.745  22.641  1.00  0.00    -0.394 OA
ATOM     11  H1  UNL     1     -16.698  -7.214  22.822  1.00  0.00     0.210 HD
ENDBRANCH   2  10
ENDBRANCH   1   2
BRANCH   1  12
HETATM   12  N1  UNL     1     -17.868  -9.578  21.895  1.00  0.00    -0.210 N 
HETATM   13  C8  UNL     1     -18.159  -8.709  20.804  1.00  0.00     0.674 C 
HETATM   14  N2  UNL     1     -17.611  -7.885  19.980  1.00  0.00    -0.225 N 
HETATM   15  N3  UNL     1     -19.569  -8.780  20.537  1.00  0.00    -0.215 N 
HETATM   16  C9  UNL     1     -18.582  -7.317  19.070  1.00  0.00     0.158 C 
ATOM     17  H2  UNL     1     -16.616  -7.661  19.970  1.00  0.00     0.177 HD
HETATM   18  C10 UNL     1     -19.887  -7.593  19.776  1.00  0.00     0.161 C 
HETATM   19  C11 UNL     1     -19.982 -10.025  21.173  1.00  0.00     0.166 C 
HETATM   20  C12 UNL     1     -19.158  -9.914  22.466  1.00  0.00     0.116 C 
HETATM   21  C13 UNL     1     -19.705  -8.711  23.224  1.00  0.00     0.034 C 
ENDBRANCH   1  12
TORSDOF 4
ENDMDL
