MODEL 1
REMARK VINA RESULT: -3.987024609      0.000      0.000
REMARK  0 active torsions:
REMARK  status: ('A' for Active; 'I' for Inactive)
ROOT
HETATM    1  C1  UNL     1       9.561 -13.588   3.571  1.00  0.00     0.049 C 
HETATM    2  C2  UNL     1       8.945 -12.614   4.524  1.00  0.00     0.093 C 
HETATM    3  C3  UNL     1       7.787 -11.928   3.799  1.00  0.00     0.049 C 
HETATM    4  C4  UNL     1       9.920 -11.497   4.919  1.00  0.00     0.105 C 
HETATM    5  C5  UNL     1       9.844 -11.593   6.408  1.00  0.00     0.195 C 
HETATM    6  O1  UNL     1       9.466 -12.906   6.617  1.00  0.00    -0.206 OA
HETATM    7  O2  UNL     1       8.557 -13.158   5.724  1.00  0.00    -0.228 OA
HETATM    8  S1  UNL     1      11.302 -11.081   7.275  1.00  0.00    -0.116 SA
HETATM    9  C6  UNL     1      10.675  -9.767   8.390  1.00  0.00     0.088 C 
HETATM   10  C7  UNL     1       9.316 -10.267   8.772  1.00  0.00     0.088 C 
HETATM   11  S2  UNL     1       8.562 -10.506   7.112  1.00  0.00    -0.116 SA
ENDROOT
TORSDOF 0
ENDMDL
MODEL 2
REMARK VINA RESULT: -3.923678435      1.623      1.838
REMARK  0 active torsions:
REMARK  status: ('A' for Active; 'I' for Inactive)
ROOT
HETATM    1  C1  UNL     1       9.363 -12.338   4.506  1.00  0.00     0.049 C 
HETATM    2  C2  UNL     1       9.139 -11.875   5.909  1.00  0.00     0.093 C 
HETATM    3  C3  UNL     1       7.844 -11.063   5.927  1.00  0.00     0.049 C 
HETATM    4  C4  UNL     1      10.245 -10.924   6.386  1.00  0.00     0.105 C 
HETATM    5  C5  UNL     1      10.651 -11.604   7.653  1.00  0.00     0.195 C 
HETATM    6  O1  UNL     1      10.296 -12.921   7.428  1.00  0.00    -0.206 OA
HETATM    7  O2  UNL     1       9.135 -12.879   6.847  1.00  0.00    -0.228 OA
HETATM    8  S1  UNL     1      12.335 -11.351   8.141  1.00  0.00    -0.116 SA
HETATM    9  C6  UNL     1      12.171 -10.641   9.824  1.00  0.00     0.088 C 
HETATM   10  C7  UNL     1      10.986 -11.366  10.383  1.00  0.00     0.088 C 
HETATM   11  S2  UNL     1       9.723 -10.997   9.099  1.00  0.00    -0.116 SA
ENDROOT
TORSDOF 0
ENDMDL
MODEL 3
REMARK VINA RESULT: -3.870100815      1.892      4.339
REMARK  0 active torsions:
REMARK  status: ('A' for Active; 'I' for Inactive)
ROOT
HETATM    1  C1  UNL     1       9.454 -11.058   8.511  1.00  0.00     0.049 C 
HETATM    2  C2  UNL     1       9.826 -11.402   7.104  1.00  0.00     0.093 C 
HETATM    3  C3  UNL     1      11.242 -10.880   6.860  1.00  0.00     0.049 C 
HETATM    4  C4  UNL     1       8.929 -10.695   6.080  1.00  0.00     0.105 C 
HETATM    5  C5  UNL     1       8.475 -11.867   5.271  1.00  0.00     0.195 C 
HETATM    6  O1  UNL     1       8.583 -12.920   6.161  1.00  0.00    -0.206 OA
HETATM    7  O2  UNL     1       9.703 -12.735   6.793  1.00  0.00    -0.228 OA
HETATM    8  S1  UNL     1       6.888 -11.688   4.505  1.00  0.00    -0.116 SA
HETATM    9  C6  UNL     1       7.259 -11.957   2.729  1.00  0.00     0.088 C 
HETATM   10  C7  UNL     1       8.325 -13.007   2.761  1.00  0.00     0.088 C 
HETATM   11  S2  UNL     1       9.567 -12.198   3.851  1.00  0.00    -0.116 SA
ENDROOT
TORSDOF 0
ENDMDL
MODEL 4
REMARK VINA RESULT: -3.774938122      2.440      3.146
REMARK  0 active torsions:
REMARK  status: ('A' for Active; 'I' for Inactive)
ROOT
HETATM    1  C1  UNL     1       7.784 -11.846   5.918  1.00  0.00     0.049 C 
HETATM    2  C2  UNL     1       9.213 -11.706   6.334  1.00  0.00     0.093 C 
HETATM    3  C3  UNL     1      10.057 -11.608   5.062  1.00  0.00     0.049 C 
HETATM    4  C4  UNL     1       9.719 -12.945   7.085  1.00  0.00     0.105 C 
HETATM    5  C5  UNL     1      10.256 -12.303   8.323  1.00  0.00     0.195 C 
HETATM    6  O1  UNL     1       9.524 -11.134   8.410  1.00  0.00    -0.206 OA
HETATM    7  O2  UNL     1       9.456 -10.668   7.200  1.00  0.00    -0.228 OA
HETATM    8  S1  UNL     1      10.231 -13.318   9.774  1.00  0.00    -0.116 SA
HETATM    9  C6  UNL     1      11.989 -13.331  10.296  1.00  0.00     0.088 C 
HETATM   10  C7  UNL     1      12.451 -11.947   9.959  1.00  0.00     0.088 C 
HETATM   11  S2  UNL     1      12.019 -11.868   8.173  1.00  0.00    -0.116 SA
ENDROOT
TORSDOF 0
ENDMDL
MODEL 5
REMARK VINA RESULT: -3.640831810      2.583      3.145
REMARK  0 active torsions:
REMARK  status: ('A' for Active; 'I' for Inactive)
ROOT
HETATM    1  C1  UNL     1      10.029 -11.626   5.132  1.00  0.00     0.049 C 
HETATM    2  C2  UNL     1       9.818 -11.581   6.612  1.00  0.00     0.093 C 
HETATM    3  C3  UNL     1       9.195 -10.226   6.949  1.00  0.00     0.049 C 
HETATM    4  C4  UNL     1      11.140 -11.646   7.386  1.00  0.00     0.105 C 
HETATM    5  C5  UNL     1      10.853 -12.787   8.307  1.00  0.00     0.195 C 
HETATM    6  O1  UNL     1       9.896 -13.509   7.619  1.00  0.00    -0.206 OA
HETATM    7  O2  UNL     1       9.084 -12.629   7.114  1.00  0.00    -0.228 OA
HETATM    8  S1  UNL     1      12.269 -13.716   8.825  1.00  0.00    -0.116 SA
HETATM    9  C6  UNL     1      12.184 -13.605  10.654  1.00  0.00     0.088 C 
HETATM   10  C7  UNL     1      10.713 -13.646  10.927  1.00  0.00     0.088 C 
HETATM   11  S2  UNL     1      10.135 -12.241   9.890  1.00  0.00    -0.116 SA
ENDROOT
TORSDOF 0
ENDMDL
