MODEL 1
REMARK VINA RESULT: -5.435519645      0.000      0.000
REMARK  0 active torsions:
REMARK  status: ('A' for Active; 'I' for Inactive)
ROOT
HETATM    1  C1  UNL     1       6.350 -14.216   0.599  1.00  0.00     0.084 C 
HETATM    2  C2  UNL     1       7.355 -13.967   1.679  1.00  0.00     0.222 C 
HETATM    3  C3  UNL     1       8.373 -15.114   1.610  1.00  0.00     0.084 C 
HETATM    4  O1  UNL     1       8.056 -12.801   1.560  1.00  0.00    -0.195 OA
HETATM    5  O2  UNL     1       7.421 -11.721   1.843  1.00  0.00    -0.195 OA
HETATM    6  C4  UNL     1       6.676 -11.790   3.027  1.00  0.00     0.229 C 
HETATM    7  C5  UNL     1       7.582 -11.822   4.205  1.00  0.00     0.074 C 
HETATM    8  C6  UNL     1       6.974 -11.411   5.494  1.00  0.00     0.006 C 
HETATM    9  C7  UNL     1       6.009 -10.281   5.416  1.00  0.00     0.000 C 
HETATM   10  C8  UNL     1       5.024 -10.385   4.292  1.00  0.00     0.006 C 
HETATM   11  C9  UNL     1       5.740 -10.611   2.999  1.00  0.00     0.074 C 
HETATM   12  O3  UNL     1       5.885 -12.954   2.924  1.00  0.00    -0.195 OA
HETATM   13  O4  UNL     1       6.737 -13.974   2.933  1.00  0.00    -0.195 OA
ENDROOT
TORSDOF 0
ENDMDL
MODEL 2
REMARK VINA RESULT: -5.377759930      4.153      5.780
REMARK  0 active torsions:
REMARK  status: ('A' for Active; 'I' for Inactive)
ROOT
HETATM    1  C1  UNL     1      11.711 -12.667   8.257  1.00  0.00     0.084 C 
HETATM    2  C2  UNL     1      10.447 -11.867   8.251  1.00  0.00     0.222 C 
HETATM    3  C3  UNL     1      10.138 -11.514   9.713  1.00  0.00     0.084 C 
HETATM    4  O1  UNL     1      10.508 -10.691   7.559  1.00  0.00    -0.195 OA
HETATM    5  O2  UNL     1      10.509 -10.781   6.278  1.00  0.00    -0.195 OA
HETATM    6  C4  UNL     1       9.548 -11.664   5.768  1.00  0.00     0.229 C 
HETATM    7  C5  UNL     1       8.184 -11.099   5.943  1.00  0.00     0.074 C 
HETATM    8  C6  UNL     1       7.139 -11.655   5.049  1.00  0.00     0.006 C 
HETATM    9  C7  UNL     1       7.574 -11.944   3.657  1.00  0.00     0.000 C 
HETATM   10  C8  UNL     1       8.892 -12.651   3.554  1.00  0.00     0.006 C 
HETATM   11  C9  UNL     1       9.933 -11.913   4.334  1.00  0.00     0.074 C 
HETATM   12  O3  UNL     1       9.723 -12.878   6.465  1.00  0.00    -0.195 OA
HETATM   13  O4  UNL     1       9.393 -12.623   7.726  1.00  0.00    -0.195 OA
ENDROOT
TORSDOF 0
ENDMDL
MODEL 3
REMARK VINA RESULT: -5.371067210      3.684      5.354
REMARK  0 active torsions:
REMARK  status: ('A' for Active; 'I' for Inactive)
ROOT
HETATM    1  C1  UNL     1       9.759 -10.776   8.538  1.00  0.00     0.084 C 
HETATM    2  C2  UNL     1      10.432 -11.571   7.465  1.00  0.00     0.222 C 
HETATM    3  C3  UNL     1      11.906 -11.709   7.873  1.00  0.00     0.084 C 
HETATM    4  O1  UNL     1       9.945 -12.834   7.287  1.00  0.00    -0.195 OA
HETATM    5  O2  UNL     1       8.805 -12.931   6.704  1.00  0.00    -0.195 OA
HETATM    6  C4  UNL     1       8.681 -12.133   5.558  1.00  0.00     0.229 C 
HETATM    7  C5  UNL     1       9.529 -12.669   4.462  1.00  0.00     0.074 C 
HETATM    8  C6  UNL     1       9.148 -12.250   3.091  1.00  0.00     0.006 C 
HETATM    9  C7  UNL     1       7.686 -12.165   2.831  1.00  0.00     0.000 C 
HETATM   10  C8  UNL     1       6.905 -11.478   3.909  1.00  0.00     0.006 C 
HETATM   11  C9  UNL     1       7.210 -12.093   5.238  1.00  0.00     0.074 C 
HETATM   12  O3  UNL     1       9.060 -10.830   5.946  1.00  0.00    -0.195 OA
HETATM   13  O4  UNL     1      10.354 -10.901   6.239  1.00  0.00    -0.195 OA
ENDROOT
TORSDOF 0
ENDMDL
MODEL 4
REMARK VINA RESULT: -5.341177824      2.843      4.977
REMARK  0 active torsions:
REMARK  status: ('A' for Active; 'I' for Inactive)
ROOT
HETATM    1  C1  UNL     1      10.339 -12.536   7.370  1.00  0.00     0.084 C 
HETATM    2  C2  UNL     1       9.326 -11.697   6.658  1.00  0.00     0.222 C 
HETATM    3  C3  UNL     1       8.768 -10.705   7.689  1.00  0.00     0.084 C 
HETATM    4  O1  UNL     1       9.814 -10.960   5.616  1.00  0.00    -0.195 OA
HETATM    5  O2  UNL     1      10.098 -11.606   4.543  1.00  0.00    -0.195 OA
HETATM    6  C4  UNL     1       9.111 -12.520   4.149  1.00  0.00     0.229 C 
HETATM    7  C5  UNL     1       7.908 -11.799   3.655  1.00  0.00     0.074 C 
HETATM    8  C6  UNL     1       7.007 -12.583   2.776  1.00  0.00     0.006 C 
HETATM    9  C7  UNL     1       7.683 -13.500   1.819  1.00  0.00     0.000 C 
HETATM   10  C8  UNL     1       8.792 -14.310   2.418  1.00  0.00     0.006 C 
HETATM   11  C9  UNL     1       9.758 -13.415   3.126  1.00  0.00     0.074 C 
HETATM   12  O3  UNL     1       8.837 -13.312   5.284  1.00  0.00    -0.195 OA
HETATM   13  O4  UNL     1       8.285 -12.494   6.173  1.00  0.00    -0.195 OA
ENDROOT
TORSDOF 0
ENDMDL
MODEL 5
REMARK VINA RESULT: -4.995080685      4.649      6.137
REMARK  0 active torsions:
REMARK  status: ('A' for Active; 'I' for Inactive)
ROOT
HETATM    1  C1  UNL     1      12.033 -12.823   8.424  1.00  0.00     0.084 C 
HETATM    2  C2  UNL     1      11.104 -11.665   8.605  1.00  0.00     0.222 C 
HETATM    3  C3  UNL     1      11.357 -11.110  10.014  1.00  0.00     0.084 C 
HETATM    4  O1  UNL     1      11.287 -10.633   7.729  1.00  0.00    -0.195 OA
HETATM    5  O2  UNL     1      10.882 -10.826   6.525  1.00  0.00    -0.195 OA
HETATM    6  C4  UNL     1       9.604 -11.395   6.438  1.00  0.00     0.229 C 
HETATM    7  C5  UNL     1       8.572 -10.410   6.857  1.00  0.00     0.074 C 
HETATM    8  C6  UNL     1       7.196 -10.676   6.371  1.00  0.00     0.006 C 
HETATM    9  C7  UNL     1       7.098 -11.206   4.984  1.00  0.00     0.000 C 
HETATM   10  C8  UNL     1       8.069 -12.303   4.671  1.00  0.00     0.006 C 
HETATM   11  C9  UNL     1       9.459 -11.874   5.018  1.00  0.00     0.074 C 
HETATM   12  O3  UNL     1       9.627 -12.537   7.265  1.00  0.00    -0.195 OA
HETATM   13  O4  UNL     1       9.774 -12.085   8.506  1.00  0.00    -0.195 OA
ENDROOT
TORSDOF 0
ENDMDL
