MODEL 1
REMARK VINA RESULT: -6.508558263      0.000      0.000
REMARK  4 active torsions:
REMARK  status: ('A' for Active; 'I' for Inactive)
REMARK    1  A    between atoms: N2_10  and  C9_12 
REMARK    2  A    between atoms: C9_12  and  N3_14 
REMARK    3  A    between atoms: C9_12  and  C11_18 
REMARK    4  A    between atoms: C11_18  and  N4_19 
ROOT
HETATM    1  C1  UNL     1      17.613  77.791  60.822  1.00  0.00     0.012 C 
HETATM    2  C2  UNL     1      17.361  77.625  59.350  1.00  0.00     0.017 C 
HETATM    3  C3  UNL     1      15.933  77.321  59.015  1.00  0.00     0.242 C 
HETATM    4  N1  UNL     1      15.829  76.093  58.267  1.00  0.00    -0.066 N 
HETATM    5  C4  UNL     1      14.442  75.862  57.946  1.00  0.00     0.272 C 
HETATM    6  C5  UNL     1      16.565  76.221  57.037  1.00  0.00     0.238 C 
HETATM    7  C6  UNL     1      17.988  76.702  57.217  1.00  0.00     0.039 C 
HETATM    8  C7  UNL     1      18.284  76.583  58.725  1.00  0.00     0.040 C 
HETATM    9  C8  UNL     1      17.829  75.200  59.063  1.00  0.00     0.015 C 
HETATM   10  N2  UNL     1      18.668  74.306  59.273  1.00  0.00    -0.362 N 
ATOM     11  H2  UNL     1      19.641  74.600  59.195  1.00  0.00     0.161 HD
HETATM   12  C15 UNL     1      16.375  75.032  59.116  1.00  0.00     0.289 C 
ENDROOT
BRANCH  10  13
HETATM   13  C9  UNL     1      18.474  72.924  59.608  1.00  0.00     0.216 C 
HETATM   14  C10 UNL     1      17.071  72.524  59.234  1.00  0.00     0.072 C 
BRANCH  13  15
HETATM   15  N3  UNL     1      19.346  72.158  58.694  1.00  0.00    -0.051 N 
ATOM     16  H33 UNL     1      18.935  71.277  58.383  1.00  0.00     0.277 HD
ATOM     17  H32 UNL     1      19.441  72.582  57.771  1.00  0.00     0.277 HD
ATOM     18  H31 UNL     1      20.234  72.043  59.183  1.00  0.00     0.277 HD
ENDBRANCH  13  15
BRANCH  13  19
HETATM   19  C11 UNL     1      18.848  72.585  61.009  1.00  0.00     0.297 C 
BRANCH  19  20
HETATM   20  N4  UNL     1      18.425  73.506  62.022  1.00  0.00    -0.064 N 
HETATM   21  C12 UNL     1      19.279  74.617  62.412  1.00  0.00     0.272 C 
HETATM   22  C13 UNL     1      17.864  72.804  63.226  1.00  0.00     0.265 A 
HETATM   23  C14 UNL     1      17.043  73.663  62.389  1.00  0.00     0.265 A 
ENDBRANCH  19  20
ENDBRANCH  13  19
ENDBRANCH  10  13
TORSDOF 4
ENDMDL
MODEL 2
REMARK VINA RESULT: -6.456545776      1.224      2.028
REMARK  4 active torsions:
REMARK  status: ('A' for Active; 'I' for Inactive)
REMARK    1  A    between atoms: N2_10  and  C9_12 
REMARK    2  A    between atoms: C9_12  and  N3_14 
REMARK    3  A    between atoms: C9_12  and  C11_18 
REMARK    4  A    between atoms: C11_18  and  N4_19 
ROOT
HETATM    1  C1  UNL     1      14.906  77.173  58.154  1.00  0.00     0.012 C 
HETATM    2  C2  UNL     1      16.287  77.634  57.787  1.00  0.00     0.017 C 
HETATM    3  C3  UNL     1      16.694  77.264  56.393  1.00  0.00     0.242 C 
HETATM    4  N1  UNL     1      17.915  76.497  56.399  1.00  0.00    -0.066 N 
HETATM    5  C4  UNL     1      18.276  76.192  55.036  1.00  0.00     0.272 C 
HETATM    6  C5  UNL     1      18.968  77.284  56.983  1.00  0.00     0.238 C 
HETATM    7  C6  UNL     1      18.619  77.878  58.331  1.00  0.00     0.039 C 
HETATM    8  C7  UNL     1      17.335  77.158  58.787  1.00  0.00     0.040 C 
HETATM    9  C8  UNL     1      17.652  75.712  58.578  1.00  0.00     0.015 C 
HETATM   10  N2  UNL     1      17.887  74.982  59.556  1.00  0.00    -0.362 N 
ATOM     11  H2  UNL     1      17.844  75.446  60.463  1.00  0.00     0.161 HD
HETATM   12  C15 UNL     1      17.650  75.285  57.176  1.00  0.00     0.289 C 
ENDROOT
BRANCH  10  13
HETATM   13  C9  UNL     1      18.210  73.584  59.602  1.00  0.00     0.216 C 
HETATM   14  C10 UNL     1      16.977  72.787  59.271  1.00  0.00     0.072 C 
BRANCH  13  15
HETATM   15  N3  UNL     1      19.134  73.342  58.475  1.00  0.00    -0.051 N 
ATOM     16  H33 UNL     1      19.220  74.138  57.842  1.00  0.00     0.277 HD
ATOM     17  H32 UNL     1      20.114  73.300  58.753  1.00  0.00     0.277 HD
ATOM     18  H31 UNL     1      18.803  72.492  58.018  1.00  0.00     0.277 HD
ENDBRANCH  13  15
BRANCH  13  19
HETATM   19  C11 UNL     1      18.885  73.162  60.862  1.00  0.00     0.297 C 
BRANCH  19  20
HETATM   20  N4  UNL     1      18.463  73.823  62.061  1.00  0.00    -0.064 N 
HETATM   21  C12 UNL     1      19.291  74.856  62.664  1.00  0.00     0.272 C 
HETATM   22  C13 UNL     1      17.967  72.853  63.096  1.00  0.00     0.265 A 
HETATM   23  C14 UNL     1      17.090  73.840  62.487  1.00  0.00     0.265 A 
ENDBRANCH  19  20
ENDBRANCH  13  19
ENDBRANCH  10  13
TORSDOF 4
ENDMDL
MODEL 3
REMARK VINA RESULT: -6.454753470      1.573      2.925
REMARK  4 active torsions:
REMARK  status: ('A' for Active; 'I' for Inactive)
REMARK    1  A    between atoms: N2_10  and  C9_12 
REMARK    2  A    between atoms: C9_12  and  N3_14 
REMARK    3  A    between atoms: C9_12  and  C11_18 
REMARK    4  A    between atoms: C11_18  and  N4_19 
ROOT
HETATM    1  C1  UNL     1      14.392  75.020  56.318  1.00  0.00     0.012 C 
HETATM    2  C2  UNL     1      15.163  76.206  56.822  1.00  0.00     0.017 C 
HETATM    3  C3  UNL     1      16.548  76.306  56.259  1.00  0.00     0.242 C 
HETATM    4  N1  UNL     1      17.531  76.340  57.313  1.00  0.00    -0.066 N 
HETATM    5  C4  UNL     1      18.841  76.465  56.721  1.00  0.00     0.272 C 
HETATM    6  C5  UNL     1      17.297  77.490  58.145  1.00  0.00     0.238 C 
HETATM    7  C6  UNL     1      15.873  77.613  58.641  1.00  0.00     0.039 C 
HETATM    8  C7  UNL     1      15.207  76.255  58.346  1.00  0.00     0.040 C 
HETATM    9  C8  UNL     1      16.187  75.261  58.882  1.00  0.00     0.015 C 
HETATM   10  N2  UNL     1      15.940  74.658  59.940  1.00  0.00    -0.362 N 
ATOM     11  H2  UNL     1      15.052  74.899  60.379  1.00  0.00     0.161 HD
HETATM   12  C15 UNL     1      17.391  75.092  58.065  1.00  0.00     0.289 C 
ENDROOT
BRANCH  10  13
HETATM   13  C9  UNL     1      16.717  73.674  60.640  1.00  0.00     0.216 C 
HETATM   14  C10 UNL     1      16.001  73.301  61.911  1.00  0.00     0.072 C 
BRANCH  13  15
HETATM   15  N3  UNL     1      16.676  72.455  59.806  1.00  0.00    -0.051 N 
ATOM     16  H33 UNL     1      17.460  72.378  59.158  1.00  0.00     0.277 HD
ATOM     17  H32 UNL     1      16.863  71.599  60.328  1.00  0.00     0.277 HD
ATOM     18  H31 UNL     1      15.765  72.461  59.346  1.00  0.00     0.277 HD
ENDBRANCH  13  15
BRANCH  13  19
HETATM   19  C11 UNL     1      18.142  74.061  60.838  1.00  0.00     0.297 C 
BRANCH  19  20
HETATM   20  N4  UNL     1      18.404  75.018  61.871  1.00  0.00    -0.064 N 
HETATM   21  C12 UNL     1      18.212  76.439  61.626  1.00  0.00     0.272 C 
HETATM   22  C13 UNL     1      19.713  74.760  62.562  1.00  0.00     0.265 A 
HETATM   23  C14 UNL     1      18.444  74.657  63.262  1.00  0.00     0.265 A 
ENDBRANCH  19  20
ENDBRANCH  13  19
ENDBRANCH  10  13
TORSDOF 4
ENDMDL
MODEL 4
REMARK VINA RESULT: -6.433806541      2.086      4.106
REMARK  4 active torsions:
REMARK  status: ('A' for Active; 'I' for Inactive)
REMARK    1  A    between atoms: N2_10  and  C9_12 
REMARK    2  A    between atoms: C9_12  and  N3_14 
REMARK    3  A    between atoms: C9_12  and  C11_18 
REMARK    4  A    between atoms: C11_18  and  N4_19 
ROOT
HETATM    1  C1  UNL     1      14.284  76.896  57.446  1.00  0.00     0.012 C 
HETATM    2  C2  UNL     1      15.468  77.448  58.187  1.00  0.00     0.017 C 
HETATM    3  C3  UNL     1      16.614  77.823  57.297  1.00  0.00     0.242 C 
HETATM    4  N1  UNL     1      17.817  77.131  57.688  1.00  0.00    -0.066 N 
HETATM    5  C4  UNL     1      18.892  77.547  56.821  1.00  0.00     0.272 C 
HETATM    6  C5  UNL     1      18.157  77.491  59.039  1.00  0.00     0.238 C 
HETATM    7  C6  UNL     1      17.019  77.332  60.024  1.00  0.00     0.039 C 
HETATM    8  C7  UNL     1      15.941  76.509  59.292  1.00  0.00     0.040 C 
HETATM    9  C8  UNL     1      16.708  75.359  58.719  1.00  0.00     0.015 C 
HETATM   10  N2  UNL     1      16.602  74.230  59.228  1.00  0.00    -0.362 N 
ATOM     11  H2  UNL     1      15.974  74.174  60.030  1.00  0.00     0.161 HD
HETATM   12  C15 UNL     1      17.541  75.698  57.563  1.00  0.00     0.289 C 
ENDROOT
BRANCH  10  13
HETATM   13  C9  UNL     1      17.229  72.993  58.859  1.00  0.00     0.216 C 
HETATM   14  C10 UNL     1      18.547  72.881  59.580  1.00  0.00     0.072 C 
BRANCH  13  15
HETATM   15  N3  UNL     1      16.388  71.923  59.433  1.00  0.00    -0.051 N 
ATOM     16  H33 UNL     1      15.436  71.913  59.067  1.00  0.00     0.277 HD
ATOM     17  H32 UNL     1      16.650  70.988  59.121  1.00  0.00     0.277 HD
ATOM     18  H31 UNL     1      16.434  72.042  60.445  1.00  0.00     0.277 HD
ENDBRANCH  13  15
BRANCH  13  19
HETATM   19  C11 UNL     1      17.323  72.780  57.388  1.00  0.00     0.297 C 
BRANCH  19  20
HETATM   20  N4  UNL     1      16.164  72.232  56.749  1.00  0.00    -0.064 N 
HETATM   21  C12 UNL     1      15.973  70.792  56.678  1.00  0.00     0.272 C 
HETATM   22  C13 UNL     1      15.889  72.881  55.422  1.00  0.00     0.265 A 
HETATM   23  C14 UNL     1      14.966  73.000  56.539  1.00  0.00     0.265 A 
ENDBRANCH  19  20
ENDBRANCH  13  19
ENDBRANCH  10  13
TORSDOF 4
ENDMDL
MODEL 5
REMARK VINA RESULT: -6.423042987      1.930      3.744
REMARK  4 active torsions:
REMARK  status: ('A' for Active; 'I' for Inactive)
REMARK    1  A    between atoms: N2_10  and  C9_12 
REMARK    2  A    between atoms: C9_12  and  N3_14 
REMARK    3  A    between atoms: C9_12  and  C11_18 
REMARK    4  A    between atoms: C11_18  and  N4_19 
ROOT
HETATM    1  C1  UNL     1      17.518  75.205  55.233  1.00  0.00     0.012 C 
HETATM    2  C2  UNL     1      18.133  73.946  55.774  1.00  0.00     0.017 C 
HETATM    3  C3  UNL     1      17.185  72.787  55.826  1.00  0.00     0.242 C 
HETATM    4  N1  UNL     1      17.090  72.258  57.164  1.00  0.00    -0.066 N 
HETATM    5  C4  UNL     1      16.189  71.132  57.153  1.00  0.00     0.272 C 
HETATM    6  C5  UNL     1      18.386  71.801  57.589  1.00  0.00     0.238 C 
HETATM    7  C6  UNL     1      19.487  72.825  57.419  1.00  0.00     0.039 C 
HETATM    8  C7  UNL     1      18.776  74.164  57.140  1.00  0.00     0.040 C 
HETATM    9  C8  UNL     1      17.736  74.237  58.212  1.00  0.00     0.015 C 
HETATM   10  N2  UNL     1      17.888  75.017  59.168  1.00  0.00    -0.362 N 
ATOM     11  H2  UNL     1      18.745  75.569  59.146  1.00  0.00     0.161 HD
HETATM   12  C15 UNL     1      16.594  73.343  58.014  1.00  0.00     0.289 C 
ENDROOT
BRANCH  10  13
HETATM   13  C9  UNL     1      17.038  75.259  60.300  1.00  0.00     0.216 C 
HETATM   14  C10 UNL     1      17.428  76.569  60.931  1.00  0.00     0.072 C 
BRANCH  13  15
HETATM   15  N3  UNL     1      15.685  75.487  59.751  1.00  0.00    -0.051 N 
ATOM     16  H33 UNL     1      15.019  75.832  60.442  1.00  0.00     0.277 HD
ATOM     17  H32 UNL     1      15.632  76.287  59.120  1.00  0.00     0.277 HD
ATOM     18  H31 UNL     1      15.405  74.607  59.319  1.00  0.00     0.277 HD
ENDBRANCH  13  15
BRANCH  13  19
HETATM   19  C11 UNL     1      16.971  74.120  61.258  1.00  0.00     0.297 C 
BRANCH  19  20
HETATM   20  N4  UNL     1      18.212  73.708  61.844  1.00  0.00    -0.064 N 
HETATM   21  C12 UNL     1      18.985  72.627  61.252  1.00  0.00     0.272 C 
HETATM   22  C13 UNL     1      18.106  73.545  63.334  1.00  0.00     0.265 A 
HETATM   23  C14 UNL     1      18.961  74.555  62.732  1.00  0.00     0.265 A 
ENDBRANCH  19  20
ENDBRANCH  13  19
ENDBRANCH  10  13
TORSDOF 4
ENDMDL
