MODEL 1
REMARK VINA RESULT: -6.504981046      0.000      0.000
REMARK  7 active torsions:
REMARK  status: ('A' for Active; 'I' for Inactive)
REMARK    1  A    between atoms: N1_3  and  C3_4 
REMARK    2  A    between atoms: N1_3  and  C14_18 
REMARK    3  A    between atoms: C3_4  and  C4_5 
REMARK    4  A    between atoms: C5_6  and  N2_7 
REMARK       I    between atoms: N2_7  and  C6_9 
REMARK    5  A    between atoms: C6_9  and  C7_11 
REMARK    6  A    between atoms: C8_12  and  C9_13 
REMARK    7  A    between atoms: C10_14  and  C11_15 
ROOT
HETATM    1  C1  UNL     1      18.834  71.423  59.008  1.00  0.00     0.116 C 
HETATM    2  C2  UNL     1      18.561  72.296  59.815  1.00  0.00    -0.101 C 
HETATM    3  N1  UNL     1      18.245  73.295  60.750  1.00  0.00    -0.239 NA
ENDROOT
BRANCH   3   4
HETATM    4  C3  UNL     1      16.826  73.449  60.822  1.00  0.00     0.200 C 
BRANCH   4   5
HETATM    5  C4  UNL     1      16.434  74.623  60.065  1.00  0.00    -0.068 C 
HETATM    6  C5  UNL     1      16.117  75.602  59.414  1.00  0.00     0.015 C 
BRANCH   6   7
HETATM    7  N2  UNL     1      15.774  76.727  58.654  1.00  0.00    -0.275 N 
HETATM    8  C6  UNL     1      14.679  76.742  57.759  1.00  0.00     0.308 C 
HETATM    9  O1  UNL     1      13.995  75.701  57.648  1.00  0.00    -0.257 OA
ATOM     10  H2  UNL     1      16.337  77.572  58.750  1.00  0.00     0.180 HD
BRANCH   8  11
HETATM   11  C7  UNL     1      14.401  77.933  57.024  1.00  0.00     0.009 C 
HETATM   12  C8  UNL     1      14.154  78.936  56.384  1.00  0.00    -0.005 C 
BRANCH  12  13
HETATM   13  C9  UNL     1      13.846  80.094  55.634  1.00  0.00    -0.014 C 
HETATM   14  C10 UNL     1      13.591  81.081  54.972  1.00  0.00    -0.088 C 
BRANCH  14  15
HETATM   15  C11 UNL     1      13.286  82.259  54.153  1.00  0.00     0.058 C 
HETATM   16  C12 UNL     1      11.789  82.353  54.017  1.00  0.00     0.023 C 
HETATM   17  C13 UNL     1      13.867  82.017  52.776  1.00  0.00     0.023 C 
ENDBRANCH  14  15
ENDBRANCH  12  13
ENDBRANCH   8  11
ENDBRANCH   6   7
ENDBRANCH   4   5
ENDBRANCH   3   4
BRANCH   3  18
HETATM   18  C14 UNL     1      18.844  72.951  62.025  1.00  0.00     0.072 A 
HETATM   19  C15 UNL     1      19.350  74.179  62.809  1.00  0.00     0.022 A 
HETATM   20  C16 UNL     1      18.212  73.378  63.296  1.00  0.00     0.022 A 
ENDBRANCH   3  18
TORSDOF 7
ENDMDL
MODEL 2
REMARK VINA RESULT: -6.477507956      0.757      2.106
REMARK  7 active torsions:
REMARK  status: ('A' for Active; 'I' for Inactive)
REMARK    1  A    between atoms: N1_3  and  C3_4 
REMARK    2  A    between atoms: N1_3  and  C14_18 
REMARK    3  A    between atoms: C3_4  and  C4_5 
REMARK    4  A    between atoms: C5_6  and  N2_7 
REMARK       I    between atoms: N2_7  and  C6_9 
REMARK    5  A    between atoms: C6_9  and  C7_11 
REMARK    6  A    between atoms: C8_12  and  C9_13 
REMARK    7  A    between atoms: C10_14  and  C11_15 
ROOT
HETATM    1  C1  UNL     1      19.197  74.380  63.005  1.00  0.00     0.116 C 
HETATM    2  C2  UNL     1      18.684  73.518  62.310  1.00  0.00    -0.101 C 
HETATM    3  N1  UNL     1      18.093  72.532  61.505  1.00  0.00    -0.239 NA
ENDROOT
BRANCH   3   4
HETATM    4  C3  UNL     1      16.678  72.732  61.467  1.00  0.00     0.200 C 
BRANCH   4   5
HETATM    5  C4  UNL     1      16.383  73.913  60.677  1.00  0.00    -0.068 C 
HETATM    6  C5  UNL     1      16.117  74.904  60.024  1.00  0.00     0.015 C 
BRANCH   6   7
HETATM    7  N2  UNL     1      15.786  76.038  59.270  1.00  0.00    -0.275 N 
HETATM    8  C6  UNL     1      14.912  75.992  58.159  1.00  0.00     0.308 C 
HETATM    9  O1  UNL     1      14.420  74.887  57.843  1.00  0.00    -0.257 OA
ATOM     10  H2  UNL     1      16.193  76.935  59.534  1.00  0.00     0.180 HD
BRANCH   8  11
HETATM   11  C7  UNL     1      14.631  77.197  57.448  1.00  0.00     0.009 C 
HETATM   12  C8  UNL     1      14.395  78.213  56.825  1.00  0.00    -0.005 C 
BRANCH  12  13
HETATM   13  C9  UNL     1      14.111  79.382  56.083  1.00  0.00    -0.014 C 
HETATM   14  C10 UNL     1      13.886  80.394  55.449  1.00  0.00    -0.088 C 
BRANCH  14  15
HETATM   15  C11 UNL     1      13.640  81.618  54.680  1.00  0.00     0.058 C 
HETATM   16  C12 UNL     1      12.194  81.997  54.864  1.00  0.00     0.023 C 
HETATM   17  C13 UNL     1      13.855  81.288  53.218  1.00  0.00     0.023 C 
ENDBRANCH  14  15
ENDBRANCH  12  13
ENDBRANCH   8  11
ENDBRANCH   6   7
ENDBRANCH   4   5
ENDBRANCH   3   4
BRANCH   3  18
HETATM   18  C14 UNL     1      18.706  72.567  60.191  1.00  0.00     0.072 A 
HETATM   19  C15 UNL     1      19.729  71.435  59.968  1.00  0.00     0.022 A 
HETATM   20  C16 UNL     1      18.463  71.480  59.214  1.00  0.00     0.022 A 
ENDBRANCH   3  18
TORSDOF 7
ENDMDL
MODEL 3
REMARK VINA RESULT: -6.379838378      0.967      1.242
REMARK  7 active torsions:
REMARK  status: ('A' for Active; 'I' for Inactive)
REMARK    1  A    between atoms: N1_3  and  C3_4 
REMARK    2  A    between atoms: N1_3  and  C14_18 
REMARK    3  A    between atoms: C3_4  and  C4_5 
REMARK    4  A    between atoms: C5_6  and  N2_7 
REMARK       I    between atoms: N2_7  and  C6_9 
REMARK    5  A    between atoms: C6_9  and  C7_11 
REMARK    6  A    between atoms: C8_12  and  C9_13 
REMARK    7  A    between atoms: C10_14  and  C11_15 
ROOT
HETATM    1  C1  UNL     1      18.717  71.716  58.764  1.00  0.00     0.116 C 
HETATM    2  C2  UNL     1      18.425  72.471  59.677  1.00  0.00    -0.101 C 
HETATM    3  N1  UNL     1      18.087  73.331  60.733  1.00  0.00    -0.239 NA
ENDROOT
BRANCH   3   4
HETATM    4  C3  UNL     1      16.669  73.330  60.914  1.00  0.00     0.200 C 
BRANCH   4   5
HETATM    5  C4  UNL     1      16.075  74.329  60.046  1.00  0.00    -0.068 C 
HETATM    6  C5  UNL     1      15.559  75.155  59.316  1.00  0.00     0.015 C 
BRANCH   6   7
HETATM    7  N2  UNL     1      14.953  76.088  58.464  1.00  0.00    -0.275 N 
HETATM    8  C6  UNL     1      15.671  77.135  57.840  1.00  0.00     0.308 C 
HETATM    9  O1  UNL     1      16.898  77.223  58.064  1.00  0.00    -0.257 OA
ATOM     10  H2  UNL     1      13.952  76.009  58.287  1.00  0.00     0.180 HD
BRANCH   8  11
HETATM   11  C7  UNL     1      14.972  78.041  56.987  1.00  0.00     0.009 C 
HETATM   12  C8  UNL     1      14.396  78.820  56.255  1.00  0.00    -0.005 C 
BRANCH  12  13
HETATM   13  C9  UNL     1      13.744  79.726  55.388  1.00  0.00    -0.014 C 
HETATM   14  C10 UNL     1      13.200  80.518  54.643  1.00  0.00    -0.088 C 
BRANCH  14  15
HETATM   15  C11 UNL     1      12.567  81.482  53.736  1.00  0.00     0.058 C 
HETATM   16  C12 UNL     1      13.605  82.499  53.343  1.00  0.00     0.023 C 
HETATM   17  C13 UNL     1      11.484  82.195  54.517  1.00  0.00     0.023 C 
ENDBRANCH  14  15
ENDBRANCH  12  13
ENDBRANCH   8  11
ENDBRANCH   6   7
ENDBRANCH   4   5
ENDBRANCH   3   4
BRANCH   3  18
HETATM   18  C14 UNL     1      18.812  72.925  61.921  1.00  0.00     0.072 A 
HETATM   19  C15 UNL     1      19.295  74.116  62.774  1.00  0.00     0.022 A 
HETATM   20  C16 UNL     1      18.260  73.191  63.271  1.00  0.00     0.022 A 
ENDBRANCH   3  18
TORSDOF 7
ENDMDL
MODEL 4
REMARK VINA RESULT: -6.267532554      1.553      2.144
REMARK  7 active torsions:
REMARK  status: ('A' for Active; 'I' for Inactive)
REMARK    1  A    between atoms: N1_3  and  C3_4 
REMARK    2  A    between atoms: N1_3  and  C14_18 
REMARK    3  A    between atoms: C3_4  and  C4_5 
REMARK    4  A    between atoms: C5_6  and  N2_7 
REMARK       I    between atoms: N2_7  and  C6_9 
REMARK    5  A    between atoms: C6_9  and  C7_11 
REMARK    6  A    between atoms: C8_12  and  C9_13 
REMARK    7  A    between atoms: C10_14  and  C11_15 
ROOT
HETATM    1  C1  UNL     1      18.166  76.786  60.830  1.00  0.00     0.116 C 
HETATM    2  C2  UNL     1      17.734  75.739  61.284  1.00  0.00    -0.101 C 
HETATM    3  N1  UNL     1      17.243  74.530  61.802  1.00  0.00    -0.239 NA
ENDROOT
BRANCH   3   4
HETATM    4  C3  UNL     1      16.586  73.799  60.765  1.00  0.00     0.200 C 
BRANCH   4   5
HETATM    5  C4  UNL     1      15.943  74.730  59.857  1.00  0.00    -0.068 C 
HETATM    6  C5  UNL     1      15.422  75.520  59.093  1.00  0.00     0.015 C 
BRANCH   6   7
HETATM    7  N2  UNL     1      14.838  76.448  58.220  1.00  0.00    -0.275 N 
HETATM    8  C6  UNL     1      15.596  77.379  57.473  1.00  0.00     0.308 C 
HETATM    9  O1  UNL     1      16.839  77.367  57.604  1.00  0.00    -0.257 OA
ATOM     10  H2  UNL     1      13.823  76.451  58.119  1.00  0.00     0.180 HD
BRANCH   8  11
HETATM   11  C7  UNL     1      14.918  78.289  56.607  1.00  0.00     0.009 C 
HETATM   12  C8  UNL     1      14.353  79.078  55.876  1.00  0.00    -0.005 C 
BRANCH  12  13
HETATM   13  C9  UNL     1      13.717  80.007  55.022  1.00  0.00    -0.014 C 
HETATM   14  C10 UNL     1      13.188  80.817  54.285  1.00  0.00    -0.088 C 
BRANCH  14  15
HETATM   15  C11 UNL     1      12.573  81.798  53.385  1.00  0.00     0.058 C 
HETATM   16  C12 UNL     1      13.633  82.792  52.990  1.00  0.00     0.023 C 
HETATM   17  C13 UNL     1      11.511  82.533  54.174  1.00  0.00     0.023 C 
ENDBRANCH  14  15
ENDBRANCH  12  13
ENDBRANCH   8  11
ENDBRANCH   6   7
ENDBRANCH   4   5
ENDBRANCH   3   4
BRANCH   3  18
HETATM   18  C14 UNL     1      18.339  73.798  62.407  1.00  0.00     0.072 A 
HETATM   19  C15 UNL     1      17.991  73.218  63.793  1.00  0.00     0.022 A 
HETATM   20  C16 UNL     1      18.237  72.338  62.636  1.00  0.00     0.022 A 
ENDBRANCH   3  18
TORSDOF 7
ENDMDL
MODEL 5
REMARK VINA RESULT: -6.155727269      2.275     10.063
REMARK  7 active torsions:
REMARK  status: ('A' for Active; 'I' for Inactive)
REMARK    1  A    between atoms: N1_3  and  C3_4 
REMARK    2  A    between atoms: N1_3  and  C14_18 
REMARK    3  A    between atoms: C3_4  and  C4_5 
REMARK    4  A    between atoms: C5_6  and  N2_7 
REMARK       I    between atoms: N2_7  and  C6_9 
REMARK    5  A    between atoms: C6_9  and  C7_11 
REMARK    6  A    between atoms: C8_12  and  C9_13 
REMARK    7  A    between atoms: C10_14  and  C11_15 
ROOT
HETATM    1  C1  UNL     1      12.351  77.911  53.139  1.00  0.00     0.116 C 
HETATM    2  C2  UNL     1      12.948  78.921  53.473  1.00  0.00    -0.101 C 
HETATM    3  N1  UNL     1      13.636  80.086  53.848  1.00  0.00    -0.239 NA
ENDROOT
BRANCH   3   4
HETATM    4  C3  UNL     1      15.031  79.922  53.582  1.00  0.00     0.200 C 
BRANCH   4   5
HETATM    5  C4  UNL     1      15.619  79.088  54.613  1.00  0.00    -0.068 C 
HETATM    6  C5  UNL     1      16.100  78.397  55.492  1.00  0.00     0.015 C 
BRANCH   6   7
HETATM    7  N2  UNL     1      16.650  77.620  56.520  1.00  0.00    -0.275 N 
HETATM    8  C6  UNL     1      15.938  77.295  57.699  1.00  0.00     0.308 C 
HETATM    9  O1  UNL     1      14.770  77.724  57.819  1.00  0.00    -0.257 OA
ATOM     10  H2  UNL     1      17.603  77.274  56.414  1.00  0.00     0.180 HD
BRANCH   8  11
HETATM   11  C7  UNL     1      16.576  76.497  58.695  1.00  0.00     0.009 C 
HETATM   12  C8  UNL     1      17.119  75.801  59.530  1.00  0.00    -0.005 C 
BRANCH  12  13
HETATM   13  C9  UNL     1      17.763  74.980  60.484  1.00  0.00    -0.014 C 
HETATM   14  C10 UNL     1      18.317  74.259  61.290  1.00  0.00    -0.088 C 
BRANCH  14  15
HETATM   15  C11 UNL     1      18.996  73.375  62.244  1.00  0.00     0.058 C 
HETATM   16  C12 UNL     1      19.129  72.018  61.605  1.00  0.00     0.023 C 
HETATM   17  C13 UNL     1      18.098  73.238  63.455  1.00  0.00     0.023 C 
ENDBRANCH  14  15
ENDBRANCH  12  13
ENDBRANCH   8  11
ENDBRANCH   6   7
ENDBRANCH   4   5
ENDBRANCH   3   4
BRANCH   3  18
HETATM   18  C14 UNL     1      13.056  81.220  53.155  1.00  0.00     0.072 A 
HETATM   19  C15 UNL     1      12.482  82.286  54.110  1.00  0.00     0.022 A 
HETATM   20  C16 UNL     1      13.661  82.567  53.271  1.00  0.00     0.022 A 
ENDBRANCH   3  18
TORSDOF 7
ENDMDL
