MODEL 1
REMARK VINA RESULT: -6.976528287      0.000      0.000
REMARK  18 active torsions:
REMARK  status: ('A' for Active; 'I' for Inactive)
REMARK       I    between atoms: C1_4  and  N3_6 
REMARK       I    between atoms: N4_9  and  C4_10 
REMARK    1  A    between atoms: C4_10  and  C5_12 
REMARK    2  A    between atoms: C5_12  and  C6_13 
REMARK    3  A    between atoms: C5_12  and  N6_21 
REMARK    4  A    between atoms: C6_13  and  C7_14 
REMARK    5  A    between atoms: C7_14  and  C8_15 
REMARK    6  A    between atoms: C8_15  and  C9_16 
REMARK    7  A    between atoms: C9_16  and  N5_17 
REMARK    8  A    between atoms: N6_21  and  S1_23 
REMARK    9  A    between atoms: S1_23  and  C10_26 
REMARK   10  A    between atoms: C10_26  and  C11_27 
REMARK   11  A    between atoms: C11_27  and  C12_28 
REMARK   12  A    between atoms: C12_28  and  C13_29 
REMARK   13  A    between atoms: C13_29  and  C14_30 
REMARK   14  A    between atoms: C14_30  and  C15_31 
REMARK   15  A    between atoms: C15_31  and  C16_32 
REMARK   16  A    between atoms: C16_32  and  C17_33 
REMARK   17  A    between atoms: C17_33  and  C18_34 
REMARK   18  A    between atoms: C18_34  and  C19_35 
REMARK       I    between atoms: C19_35  and  N7_37 
ROOT
HETATM    1  C5  UNL     1      34.381  -8.460  -1.059  1.00  0.00     0.184 C 
ENDROOT
BRANCH   1   2
HETATM    2  C4  UNL     1      34.177  -7.064  -1.491  1.00  0.00     0.243 C 
HETATM    3  N4  UNL     1      34.998  -6.389  -2.400  1.00  0.00    -0.347 N 
HETATM    4  C3  UNL     1      34.698  -4.993  -2.755  1.00  0.00     0.145 C 
HETATM    5  C21 UNL     1      36.158  -6.944  -3.050  1.00  0.00     0.145 C 
HETATM    6  C2  UNL     1      35.833  -4.180  -2.117  1.00  0.00     0.145 C 
HETATM    7  N3  UNL     1      37.088  -4.844  -2.387  1.00  0.00    -0.353 N 
HETATM    8  C1  UNL     1      38.254  -4.521  -1.659  1.00  0.00     0.184 C 
HETATM    9  C22 UNL     1      37.149  -5.855  -3.420  1.00  0.00     0.145 C 
HETATM   10  N1  UNL     1      39.120  -5.410  -1.303  1.00  0.00    -0.374 N 
HETATM   11  N2  UNL     1      38.554  -3.171  -1.264  1.00  0.00    -0.064 NA
ATOM     12  H12 UNL     1      39.963  -5.176  -0.778  1.00  0.00     0.158 HD
ATOM     13  H11 UNL     1      38.908  -6.367  -1.584  1.00  0.00     0.158 HD
HETATM   14  O1  UNL     1      33.176  -6.449  -0.987  1.00  0.00    -0.271 OA
ENDBRANCH   1   2
BRANCH   1  15
HETATM   15  C6  UNL     1      33.548  -9.455  -1.878  1.00  0.00     0.035 C 
BRANCH  15  16
HETATM   16  C7  UNL     1      33.158 -10.609  -1.016  1.00  0.00     0.004 C 
BRANCH  16  17
HETATM   17  C8  UNL     1      33.939 -11.854  -1.368  1.00  0.00     0.027 C 
BRANCH  17  18
HETATM   18  C9  UNL     1      34.012 -12.801  -0.205  1.00  0.00     0.229 C 
BRANCH  18  19
HETATM   19  N5  UNL     1      33.691 -12.037   1.002  1.00  0.00    -0.079 N 
ATOM     20  H53 UNL     1      34.435 -11.398   1.279  1.00  0.00     0.274 HD
ATOM     21  H52 UNL     1      32.965 -11.338   0.848  1.00  0.00     0.274 HD
ATOM     22  H51 UNL     1      33.450 -12.708   1.732  1.00  0.00     0.274 HD
ENDBRANCH  18  19
ENDBRANCH  17  18
ENDBRANCH  16  17
ENDBRANCH  15  16
ENDBRANCH   1  15
BRANCH   1  23
HETATM   23  N6  UNL     1      33.977  -8.663   0.310  1.00  0.00    -0.306 N 
ATOM     24  H6  UNL     1      33.005  -8.687   0.618  1.00  0.00     0.173 HD
BRANCH  23  25
HETATM   25  S1  UNL     1      35.330  -8.859   1.370  1.00  0.00     0.227 S 
HETATM   26  O2  UNL     1      36.232  -7.666   1.317  1.00  0.00    -0.206 OA
HETATM   27  O3  UNL     1      36.080 -10.062   0.885  1.00  0.00    -0.206 OA
BRANCH  25  28
HETATM   28  C10 UNL     1      34.696  -9.019   3.000  1.00  0.00     0.163 C 
BRANCH  28  29
HETATM   29  C11 UNL     1      35.616  -8.570   4.096  1.00  0.00     0.017 C 
BRANCH  29  30
HETATM   30  C12 UNL     1      35.772  -9.593   5.163  1.00  0.00     0.001 C 
BRANCH  30  31
HETATM   31  C13 UNL     1      36.025 -10.983   4.595  1.00  0.00     0.000 C 
BRANCH  31  32
HETATM   32  C14 UNL     1      35.900 -12.065   5.627  1.00  0.00     0.000 C 
BRANCH  32  33
HETATM   33  C15 UNL     1      34.439 -12.304   5.893  1.00  0.00     0.000 C 
BRANCH  33  34
HETATM   34  C16 UNL     1      33.704 -12.923   4.743  1.00  0.00     0.000 C 
BRANCH  34  35
HETATM   35  C17 UNL     1      33.543 -14.409   5.044  1.00  0.00     0.009 C 
BRANCH  35  36
HETATM   36  C18 UNL     1      34.388 -15.252   4.115  1.00  0.00     0.103 C 
BRANCH  36  37
HETATM   37  C19 UNL     1      35.450 -15.881   4.940  1.00  0.00     0.223 C 
HETATM   38  O4  UNL     1      35.483 -15.836   6.187  1.00  0.00    -0.273 OA
HETATM   39  N7  UNL     1      36.485 -16.571   4.228  1.00  0.00    -0.304 N 
HETATM   40  C20 UNL     1      37.628 -16.003   3.990  1.00  0.00     0.203 C 
ATOM     41  H7  UNL     1      36.321 -17.524   3.903  1.00  0.00     0.171 HD
HETATM   42  N8  UNL     1      38.598 -16.760   3.278  1.00  0.00    -0.066 NA
HETATM   43  N9  UNL     1      37.913 -14.676   4.419  1.00  0.00    -0.066 NA
ENDBRANCH  36  37
ENDBRANCH  35  36
ENDBRANCH  34  35
ENDBRANCH  33  34
ENDBRANCH  32  33
ENDBRANCH  31  32
ENDBRANCH  30  31
ENDBRANCH  29  30
ENDBRANCH  28  29
ENDBRANCH  25  28
ENDBRANCH  23  25
ENDBRANCH   1  23
TORSDOF 18
ENDMDL
MODEL 2
REMARK VINA RESULT: -6.963958999      2.599      3.372
REMARK  18 active torsions:
REMARK  status: ('A' for Active; 'I' for Inactive)
REMARK       I    between atoms: C1_4  and  N3_6 
REMARK       I    between atoms: N4_9  and  C4_10 
REMARK    1  A    between atoms: C4_10  and  C5_12 
REMARK    2  A    between atoms: C5_12  and  C6_13 
REMARK    3  A    between atoms: C5_12  and  N6_21 
REMARK    4  A    between atoms: C6_13  and  C7_14 
REMARK    5  A    between atoms: C7_14  and  C8_15 
REMARK    6  A    between atoms: C8_15  and  C9_16 
REMARK    7  A    between atoms: C9_16  and  N5_17 
REMARK    8  A    between atoms: N6_21  and  S1_23 
REMARK    9  A    between atoms: S1_23  and  C10_26 
REMARK   10  A    between atoms: C10_26  and  C11_27 
REMARK   11  A    between atoms: C11_27  and  C12_28 
REMARK   12  A    between atoms: C12_28  and  C13_29 
REMARK   13  A    between atoms: C13_29  and  C14_30 
REMARK   14  A    between atoms: C14_30  and  C15_31 
REMARK   15  A    between atoms: C15_31  and  C16_32 
REMARK   16  A    between atoms: C16_32  and  C17_33 
REMARK   17  A    between atoms: C17_33  and  C18_34 
REMARK   18  A    between atoms: C18_34  and  C19_35 
REMARK       I    between atoms: C19_35  and  N7_37 
ROOT
HETATM    1  C5  UNL     1      34.296  -8.521  -1.036  1.00  0.00     0.184 C 
ENDROOT
BRANCH   1   2
HETATM    2  C4  UNL     1      34.094  -7.122  -1.457  1.00  0.00     0.243 C 
HETATM    3  N4  UNL     1      34.915  -6.441  -2.362  1.00  0.00    -0.347 N 
HETATM    4  C3  UNL     1      34.616  -5.042  -2.707  1.00  0.00     0.145 C 
HETATM    5  C21 UNL     1      36.074  -6.993  -3.016  1.00  0.00     0.145 C 
HETATM    6  C2  UNL     1      35.752  -4.235  -2.064  1.00  0.00     0.145 C 
HETATM    7  N3  UNL     1      37.006  -4.899  -2.340  1.00  0.00    -0.353 N 
HETATM    8  C1  UNL     1      38.174  -4.582  -1.610  1.00  0.00     0.184 C 
HETATM    9  C22 UNL     1      37.065  -5.902  -3.380  1.00  0.00     0.145 C 
HETATM   10  N1  UNL     1      39.038  -5.474  -1.262  1.00  0.00    -0.374 N 
HETATM   11  N2  UNL     1      38.475  -3.235  -1.206  1.00  0.00    -0.064 NA
ATOM     12  H12 UNL     1      39.882  -5.245  -0.735  1.00  0.00     0.158 HD
ATOM     13  H11 UNL     1      38.825  -6.429  -1.549  1.00  0.00     0.158 HD
HETATM   14  O1  UNL     1      33.094  -6.508  -0.948  1.00  0.00    -0.271 OA
ENDBRANCH   1   2
BRANCH   1  15
HETATM   15  C6  UNL     1      33.438  -9.506  -1.839  1.00  0.00     0.035 C 
BRANCH  15  16
HETATM   16  C7  UNL     1      33.166 -10.720  -1.016  1.00  0.00     0.004 C 
BRANCH  16  17
HETATM   17  C8  UNL     1      34.036 -11.883  -1.438  1.00  0.00     0.027 C 
BRANCH  17  18
HETATM   18  C9  UNL     1      34.063 -12.955  -0.387  1.00  0.00     0.229 C 
BRANCH  18  19
HETATM   19  N5  UNL     1      34.062 -12.290   0.918  1.00  0.00    -0.079 N 
ATOM     20  H53 UNL     1      34.410 -12.886   1.668  1.00  0.00     0.274 HD
ATOM     21  H52 UNL     1      34.768 -11.558   0.991  1.00  0.00     0.274 HD
ATOM     22  H51 UNL     1      33.116 -11.949   1.085  1.00  0.00     0.274 HD
ENDBRANCH  18  19
ENDBRANCH  17  18
ENDBRANCH  16  17
ENDBRANCH  15  16
ENDBRANCH   1  15
BRANCH   1  23
HETATM   23  N6  UNL     1      33.921  -8.726   0.342  1.00  0.00    -0.306 N 
ATOM     24  H6  UNL     1      32.956  -8.773   0.667  1.00  0.00     0.173 HD
BRANCH  23  25
HETATM   25  S1  UNL     1      35.297  -8.882   1.379  1.00  0.00     0.227 S 
HETATM   26  O2  UNL     1      36.162  -7.663   1.312  1.00  0.00    -0.206 OA
HETATM   27  O3  UNL     1      36.073 -10.062   0.881  1.00  0.00    -0.206 OA
BRANCH  25  28
HETATM   28  C10 UNL     1      34.695  -9.062   3.019  1.00  0.00     0.163 C 
BRANCH  28  29
HETATM   29  C11 UNL     1      35.744  -9.091   4.091  1.00  0.00     0.017 C 
BRANCH  29  30
HETATM   30  C12 UNL     1      36.221 -10.468   4.382  1.00  0.00     0.001 C 
BRANCH  30  31
HETATM   31  C13 UNL     1      35.280 -11.216   5.317  1.00  0.00     0.000 C 
BRANCH  31  32
HETATM   32  C14 UNL     1      34.929 -12.587   4.816  1.00  0.00     0.000 C 
BRANCH  32  33
HETATM   33  C15 UNL     1      36.196 -13.388   4.695  1.00  0.00     0.000 C 
BRANCH  33  34
HETATM   34  C16 UNL     1      36.890 -13.632   6.001  1.00  0.00     0.000 C 
BRANCH  34  35
HETATM   35  C17 UNL     1      38.351 -13.229   5.830  1.00  0.00     0.009 C 
BRANCH  35  36
HETATM   36  C18 UNL     1      38.688 -12.018   6.671  1.00  0.00     0.103 C 
BRANCH  36  37
HETATM   37  C19 UNL     1      39.609 -12.472   7.743  1.00  0.00     0.223 C 
HETATM   38  O4  UNL     1      39.844 -13.671   7.999  1.00  0.00    -0.273 OA
HETATM   39  N7  UNL     1      40.248 -11.444   8.512  1.00  0.00    -0.304 N 
HETATM   40  C20 UNL     1      39.787 -11.092   9.674  1.00  0.00     0.203 C 
ATOM     41  H7  UNL     1      41.079 -10.983   8.140  1.00  0.00     0.171 HD
HETATM   42  N8  UNL     1      40.483 -10.066  10.368  1.00  0.00    -0.066 NA
HETATM   43  N9  UNL     1      38.633 -11.702  10.241  1.00  0.00    -0.066 NA
ENDBRANCH  36  37
ENDBRANCH  35  36
ENDBRANCH  34  35
ENDBRANCH  33  34
ENDBRANCH  32  33
ENDBRANCH  31  32
ENDBRANCH  30  31
ENDBRANCH  29  30
ENDBRANCH  28  29
ENDBRANCH  25  28
ENDBRANCH  23  25
ENDBRANCH   1  23
TORSDOF 18
ENDMDL
MODEL 3
REMARK VINA RESULT: -6.953152502      1.431      1.795
REMARK  18 active torsions:
REMARK  status: ('A' for Active; 'I' for Inactive)
REMARK       I    between atoms: C1_4  and  N3_6 
REMARK       I    between atoms: N4_9  and  C4_10 
REMARK    1  A    between atoms: C4_10  and  C5_12 
REMARK    2  A    between atoms: C5_12  and  C6_13 
REMARK    3  A    between atoms: C5_12  and  N6_21 
REMARK    4  A    between atoms: C6_13  and  C7_14 
REMARK    5  A    between atoms: C7_14  and  C8_15 
REMARK    6  A    between atoms: C8_15  and  C9_16 
REMARK    7  A    between atoms: C9_16  and  N5_17 
REMARK    8  A    between atoms: N6_21  and  S1_23 
REMARK    9  A    between atoms: S1_23  and  C10_26 
REMARK   10  A    between atoms: C10_26  and  C11_27 
REMARK   11  A    between atoms: C11_27  and  C12_28 
REMARK   12  A    between atoms: C12_28  and  C13_29 
REMARK   13  A    between atoms: C13_29  and  C14_30 
REMARK   14  A    between atoms: C14_30  and  C15_31 
REMARK   15  A    between atoms: C15_31  and  C16_32 
REMARK   16  A    between atoms: C16_32  and  C17_33 
REMARK   17  A    between atoms: C17_33  and  C18_34 
REMARK   18  A    between atoms: C18_34  and  C19_35 
REMARK       I    between atoms: C19_35  and  N7_37 
ROOT
HETATM    1  C5  UNL     1      34.197  -8.342  -1.048  1.00  0.00     0.184 C 
ENDROOT
BRANCH   1   2
HETATM    2  C4  UNL     1      34.075  -6.943  -1.500  1.00  0.00     0.243 C 
HETATM    3  N4  UNL     1      34.930  -6.332  -2.423  1.00  0.00    -0.347 N 
HETATM    4  C3  UNL     1      34.712  -4.926  -2.798  1.00  0.00     0.145 C 
HETATM    5  C21 UNL     1      36.051  -6.966  -3.069  1.00  0.00     0.145 C 
HETATM    6  C2  UNL     1      35.897  -4.173  -2.178  1.00  0.00     0.145 C 
HETATM    7  N3  UNL     1      37.109  -4.916  -2.443  1.00  0.00    -0.353 N 
HETATM    8  C1  UNL     1      38.296  -4.652  -1.726  1.00  0.00     0.184 C 
HETATM    9  C22 UNL     1      37.103  -5.944  -3.461  1.00  0.00     0.145 C 
HETATM   10  N1  UNL     1      39.109  -5.586  -1.360  1.00  0.00    -0.374 N 
HETATM   11  N2  UNL     1      38.678  -3.317  -1.353  1.00  0.00    -0.064 NA
ATOM     12  H12 UNL     1      39.967  -5.395  -0.842  1.00  0.00     0.158 HD
ATOM     13  H11 UNL     1      38.838  -6.533  -1.625  1.00  0.00     0.158 HD
HETATM   14  O1  UNL     1      33.116  -6.261  -1.001  1.00  0.00    -0.271 OA
ENDBRANCH   1   2
BRANCH   1  15
HETATM   15  C6  UNL     1      33.237  -9.284  -1.786  1.00  0.00     0.035 C 
BRANCH  15  16
HETATM   16  C7  UNL     1      34.018 -10.335  -2.501  1.00  0.00     0.004 C 
BRANCH  16  17
HETATM   17  C8  UNL     1      34.008 -11.644  -1.746  1.00  0.00     0.027 C 
BRANCH  17  18
HETATM   18  C9  UNL     1      32.837 -11.726  -0.809  1.00  0.00     0.229 C 
BRANCH  18  19
HETATM   19  N5  UNL     1      33.368 -11.974   0.533  1.00  0.00    -0.079 N 
ATOM     20  H53 UNL     1      34.030 -12.748   0.562  1.00  0.00     0.274 HD
ATOM     21  H52 UNL     1      34.003 -11.243   0.851  1.00  0.00     0.274 HD
ATOM     22  H51 UNL     1      32.571 -12.108   1.156  1.00  0.00     0.274 HD
ENDBRANCH  18  19
ENDBRANCH  17  18
ENDBRANCH  16  17
ENDBRANCH  15  16
ENDBRANCH   1  15
BRANCH   1  23
HETATM   23  N6  UNL     1      33.870  -8.485   0.349  1.00  0.00    -0.306 N 
ATOM     24  H6  UNL     1      32.934  -8.351   0.730  1.00  0.00     0.173 HD
BRANCH  23  25
HETATM   25  S1  UNL     1      35.248  -8.911   1.305  1.00  0.00     0.227 S 
HETATM   26  O2  UNL     1      36.256  -7.805   1.317  1.00  0.00    -0.206 OA
HETATM   27  O3  UNL     1      35.855 -10.120   0.661  1.00  0.00    -0.206 OA
BRANCH  25  28
HETATM   28  C10 UNL     1      34.681  -9.181   2.945  1.00  0.00     0.163 C 
BRANCH  28  29
HETATM   29  C11 UNL     1      35.531  -8.583   4.026  1.00  0.00     0.017 C 
BRANCH  29  30
HETATM   30  C12 UNL     1      35.922  -9.578   5.059  1.00  0.00     0.001 C 
BRANCH  30  31
HETATM   31  C13 UNL     1      36.534 -10.831   4.447  1.00  0.00     0.000 C 
BRANCH  31  32
HETATM   32  C14 UNL     1      36.205 -12.076   5.218  1.00  0.00     0.000 C 
BRANCH  32  33
HETATM   33  C15 UNL     1      34.755 -12.021   5.614  1.00  0.00     0.000 C 
BRANCH  33  34
HETATM   34  C16 UNL     1      33.825 -12.626   4.608  1.00  0.00     0.000 C 
BRANCH  34  35
HETATM   35  C17 UNL     1      34.438 -13.944   4.146  1.00  0.00     0.009 C 
BRANCH  35  36
HETATM   36  C18 UNL     1      33.751 -15.126   4.792  1.00  0.00     0.103 C 
BRANCH  36  37
HETATM   37  C19 UNL     1      34.790 -15.886   5.531  1.00  0.00     0.223 C 
HETATM   38  O4  UNL     1      36.015 -15.776   5.322  1.00  0.00    -0.273 OA
HETATM   39  N7  UNL     1      34.321 -16.795   6.537  1.00  0.00    -0.304 N 
HETATM   40  C20 UNL     1      34.204 -18.064   6.290  1.00  0.00     0.203 C 
ATOM     41  H7  UNL     1      34.077 -16.438   7.460  1.00  0.00     0.171 HD
HETATM   42  N8  UNL     1      33.732 -18.892   7.344  1.00  0.00    -0.066 NA
HETATM   43  N9  UNL     1      34.531 -18.617   5.020  1.00  0.00    -0.066 NA
ENDBRANCH  36  37
ENDBRANCH  35  36
ENDBRANCH  34  35
ENDBRANCH  33  34
ENDBRANCH  32  33
ENDBRANCH  31  32
ENDBRANCH  30  31
ENDBRANCH  29  30
ENDBRANCH  28  29
ENDBRANCH  25  28
ENDBRANCH  23  25
ENDBRANCH   1  23
TORSDOF 18
ENDMDL
MODEL 4
REMARK VINA RESULT: -6.932153442      3.215      3.877
REMARK  18 active torsions:
REMARK  status: ('A' for Active; 'I' for Inactive)
REMARK       I    between atoms: C1_4  and  N3_6 
REMARK       I    between atoms: N4_9  and  C4_10 
REMARK    1  A    between atoms: C4_10  and  C5_12 
REMARK    2  A    between atoms: C5_12  and  C6_13 
REMARK    3  A    between atoms: C5_12  and  N6_21 
REMARK    4  A    between atoms: C6_13  and  C7_14 
REMARK    5  A    between atoms: C7_14  and  C8_15 
REMARK    6  A    between atoms: C8_15  and  C9_16 
REMARK    7  A    between atoms: C9_16  and  N5_17 
REMARK    8  A    between atoms: N6_21  and  S1_23 
REMARK    9  A    between atoms: S1_23  and  C10_26 
REMARK   10  A    between atoms: C10_26  and  C11_27 
REMARK   11  A    between atoms: C11_27  and  C12_28 
REMARK   12  A    between atoms: C12_28  and  C13_29 
REMARK   13  A    between atoms: C13_29  and  C14_30 
REMARK   14  A    between atoms: C14_30  and  C15_31 
REMARK   15  A    between atoms: C15_31  and  C16_32 
REMARK   16  A    between atoms: C16_32  and  C17_33 
REMARK   17  A    between atoms: C17_33  and  C18_34 
REMARK   18  A    between atoms: C18_34  and  C19_35 
REMARK       I    between atoms: C19_35  and  N7_37 
ROOT
HETATM    1  C5  UNL     1      34.336  -8.432  -1.079  1.00  0.00     0.184 C 
ENDROOT
BRANCH   1   2
HETATM    2  C4  UNL     1      34.156  -7.025  -1.482  1.00  0.00     0.243 C 
HETATM    3  N4  UNL     1      34.988  -6.345  -2.377  1.00  0.00    -0.347 N 
HETATM    4  C3  UNL     1      34.712  -4.937  -2.704  1.00  0.00     0.145 C 
HETATM    5  C21 UNL     1      36.138  -6.908  -3.039  1.00  0.00     0.145 C 
HETATM    6  C2  UNL     1      35.861  -4.158  -2.051  1.00  0.00     0.145 C 
HETATM    7  N3  UNL     1      37.105  -4.838  -2.335  1.00  0.00    -0.353 N 
HETATM    8  C1  UNL     1      38.277  -4.550  -1.601  1.00  0.00     0.184 C 
HETATM    9  C22 UNL     1      37.147  -5.828  -3.388  1.00  0.00     0.145 C 
HETATM   10  N1  UNL     1      39.127  -5.460  -1.264  1.00  0.00    -0.374 N 
HETATM   11  N2  UNL     1      38.600  -3.214  -1.180  1.00  0.00    -0.064 NA
ATOM     12  H12 UNL     1      39.974  -5.252  -0.735  1.00  0.00     0.158 HD
ATOM     13  H11 UNL     1      38.898  -6.408  -1.564  1.00  0.00     0.158 HD
HETATM   14  O1  UNL     1      33.166  -6.402  -0.965  1.00  0.00    -0.271 OA
ENDBRANCH   1   2
BRANCH   1  15
HETATM   15  C6  UNL     1      33.465  -9.393  -1.898  1.00  0.00     0.035 C 
BRANCH  15  16
HETATM   16  C7  UNL     1      33.095 -10.571  -1.061  1.00  0.00     0.004 C 
BRANCH  16  17
HETATM   17  C8  UNL     1      33.923 -11.785  -1.412  1.00  0.00     0.027 C 
BRANCH  17  18
HETATM   18  C9  UNL     1      33.996 -12.749  -0.263  1.00  0.00     0.229 C 
BRANCH  18  19
HETATM   19  N5  UNL     1      33.651 -12.009   0.952  1.00  0.00    -0.079 N 
ATOM     20  H53 UNL     1      33.524 -11.011   0.787  1.00  0.00     0.274 HD
ATOM     21  H52 UNL     1      32.709 -12.209   1.286  1.00  0.00     0.274 HD
ATOM     22  H51 UNL     1      34.371 -12.209   1.646  1.00  0.00     0.274 HD
ENDBRANCH  18  19
ENDBRANCH  17  18
ENDBRANCH  16  17
ENDBRANCH  15  16
ENDBRANCH   1  15
BRANCH   1  23
HETATM   23  N6  UNL     1      33.953  -8.650   0.294  1.00  0.00    -0.306 N 
ATOM     24  H6  UNL     1      32.986  -8.681   0.617  1.00  0.00     0.173 HD
BRANCH  23  25
HETATM   25  S1  UNL     1      35.323  -8.854   1.332  1.00  0.00     0.227 S 
HETATM   26  O2  UNL     1      36.216  -7.654   1.283  1.00  0.00    -0.206 OA
HETATM   27  O3  UNL     1      36.072 -10.044   0.819  1.00  0.00    -0.206 OA
BRANCH  25  28
HETATM   28  C10 UNL     1      34.713  -9.041   2.969  1.00  0.00     0.163 C 
BRANCH  28  29
HETATM   29  C11 UNL     1      35.481  -9.993   3.836  1.00  0.00     0.017 C 
BRANCH  29  30
HETATM   30  C12 UNL     1      35.718  -9.454   5.201  1.00  0.00     0.001 C 
BRANCH  30  31
HETATM   31  C13 UNL     1      36.957 -10.057   5.850  1.00  0.00     0.000 C 
BRANCH  31  32
HETATM   32  C14 UNL     1      37.250 -11.447   5.366  1.00  0.00     0.000 C 
BRANCH  32  33
HETATM   33  C15 UNL     1      38.367 -12.015   6.196  1.00  0.00     0.000 C 
BRANCH  33  34
HETATM   34  C16 UNL     1      37.921 -13.027   7.207  1.00  0.00     0.000 C 
BRANCH  34  35
HETATM   35  C17 UNL     1      38.204 -12.454   8.591  1.00  0.00     0.009 C 
BRANCH  35  36
HETATM   36  C18 UNL     1      39.265 -11.377   8.533  1.00  0.00     0.103 C 
BRANCH  36  37
HETATM   37  C19 UNL     1      39.914 -11.329   9.867  1.00  0.00     0.223 C 
HETATM   38  O4  UNL     1      40.274 -10.274  10.430  1.00  0.00    -0.273 OA
HETATM   39  N7  UNL     1      40.125 -12.587  10.520  1.00  0.00    -0.304 N 
HETATM   40  C20 UNL     1      41.280 -13.179  10.476  1.00  0.00     0.203 C 
ATOM     41  H7  UNL     1      39.355 -13.025  11.028  1.00  0.00     0.171 HD
HETATM   42  N8  UNL     1      41.401 -14.424  11.151  1.00  0.00    -0.066 NA
HETATM   43  N9  UNL     1      42.388 -12.615   9.784  1.00  0.00    -0.066 NA
ENDBRANCH  36  37
ENDBRANCH  35  36
ENDBRANCH  34  35
ENDBRANCH  33  34
ENDBRANCH  32  33
ENDBRANCH  31  32
ENDBRANCH  30  31
ENDBRANCH  29  30
ENDBRANCH  28  29
ENDBRANCH  25  28
ENDBRANCH  23  25
ENDBRANCH   1  23
TORSDOF 18
ENDMDL
MODEL 5
REMARK VINA RESULT: -6.899280839      2.668      9.060
REMARK  18 active torsions:
REMARK  status: ('A' for Active; 'I' for Inactive)
REMARK       I    between atoms: C1_4  and  N3_6 
REMARK       I    between atoms: N4_9  and  C4_10 
REMARK    1  A    between atoms: C4_10  and  C5_12 
REMARK    2  A    between atoms: C5_12  and  C6_13 
REMARK    3  A    between atoms: C5_12  and  N6_21 
REMARK    4  A    between atoms: C6_13  and  C7_14 
REMARK    5  A    between atoms: C7_14  and  C8_15 
REMARK    6  A    between atoms: C8_15  and  C9_16 
REMARK    7  A    between atoms: C9_16  and  N5_17 
REMARK    8  A    between atoms: N6_21  and  S1_23 
REMARK    9  A    between atoms: S1_23  and  C10_26 
REMARK   10  A    between atoms: C10_26  and  C11_27 
REMARK   11  A    between atoms: C11_27  and  C12_28 
REMARK   12  A    between atoms: C12_28  and  C13_29 
REMARK   13  A    between atoms: C13_29  and  C14_30 
REMARK   14  A    between atoms: C14_30  and  C15_31 
REMARK   15  A    between atoms: C15_31  and  C16_32 
REMARK   16  A    between atoms: C16_32  and  C17_33 
REMARK   17  A    between atoms: C17_33  and  C18_34 
REMARK   18  A    between atoms: C18_34  and  C19_35 
REMARK       I    between atoms: C19_35  and  N7_37 
ROOT
HETATM    1  C5  UNL     1      34.276 -11.880   1.776  1.00  0.00     0.184 C 
ENDROOT
BRANCH   1   2
HETATM    2  C4  UNL     1      34.304 -13.160   2.507  1.00  0.00     0.243 C 
HETATM    3  N4  UNL     1      34.160 -13.284   3.893  1.00  0.00    -0.347 N 
HETATM    4  C3  UNL     1      34.206 -14.617   4.514  1.00  0.00     0.145 C 
HETATM    5  C21 UNL     1      33.964 -12.192   4.812  1.00  0.00     0.145 C 
HETATM    6  C2  UNL     1      35.524 -14.630   5.300  1.00  0.00     0.145 C 
HETATM    7  N3  UNL     1      35.647 -13.383   6.021  1.00  0.00    -0.353 N 
HETATM    8  C1  UNL     1      36.888 -12.972   6.558  1.00  0.00     0.184 C 
HETATM    9  C22 UNL     1      34.481 -12.546   6.195  1.00  0.00     0.145 C 
HETATM   10  N1  UNL     1      37.272 -11.740   6.554  1.00  0.00    -0.374 N 
HETATM   11  N2  UNL     1      37.808 -13.906   7.146  1.00  0.00    -0.064 NA
ATOM     12  H12 UNL     1      38.167 -11.443   6.942  1.00  0.00     0.158 HD
ATOM     13  H11 UNL     1      36.618 -11.077   6.136  1.00  0.00     0.158 HD
HETATM   14  O1  UNL     1      34.472 -14.217   1.807  1.00  0.00    -0.271 OA
ENDBRANCH   1   2
BRANCH   1  15
HETATM   15  C6  UNL     1      34.283 -12.072   0.254  1.00  0.00     0.035 C 
BRANCH  15  16
HETATM   16  C7  UNL     1      32.880 -12.127  -0.250  1.00  0.00     0.004 C 
BRANCH  16  17
HETATM   17  C8  UNL     1      32.719 -13.172  -1.331  1.00  0.00     0.027 C 
BRANCH  17  18
HETATM   18  C9  UNL     1      33.522 -12.825  -2.552  1.00  0.00     0.229 C 
BRANCH  18  19
HETATM   19  N5  UNL     1      33.106 -11.489  -2.984  1.00  0.00    -0.079 N 
ATOM     20  H53 UNL     1      32.118 -11.439  -3.229  1.00  0.00     0.274 HD
ATOM     21  H52 UNL     1      33.089 -10.812  -2.221  1.00  0.00     0.274 HD
ATOM     22  H51 UNL     1      33.721 -11.211  -3.749  1.00  0.00     0.274 HD
ENDBRANCH  18  19
ENDBRANCH  17  18
ENDBRANCH  16  17
ENDBRANCH  15  16
ENDBRANCH   1  15
BRANCH   1  23
HETATM   23  N6  UNL     1      35.437 -11.073   2.062  1.00  0.00    -0.306 N 
ATOM     24  H6  UNL     1      36.373 -11.454   2.203  1.00  0.00     0.173 HD
BRANCH  23  25
HETATM   25  S1  UNL     1      35.061  -9.386   2.138  1.00  0.00     0.227 S 
HETATM   26  O2  UNL     1      34.321  -9.058   3.397  1.00  0.00    -0.206 OA
HETATM   27  O3  UNL     1      34.181  -9.093   0.962  1.00  0.00    -0.206 OA
BRANCH  25  28
HETATM   28  C10 UNL     1      36.583  -8.511   2.130  1.00  0.00     0.163 C 
BRANCH  28  29
HETATM   29  C11 UNL     1      36.586  -7.216   2.885  1.00  0.00     0.017 C 
BRANCH  29  30
HETATM   30  C12 UNL     1      37.579  -6.248   2.351  1.00  0.00     0.001 C 
BRANCH  30  31
HETATM   31  C13 UNL     1      36.915  -5.009   1.762  1.00  0.00     0.000 C 
BRANCH  31  32
HETATM   32  C14 UNL     1      37.906  -4.014   1.232  1.00  0.00     0.000 C 
BRANCH  32  33
HETATM   33  C15 UNL     1      37.652  -3.827  -0.238  1.00  0.00     0.000 C 
BRANCH  33  34
HETATM   34  C16 UNL     1      36.350  -3.155  -0.551  1.00  0.00     0.000 C 
BRANCH  34  35
HETATM   35  C17 UNL     1      35.697  -3.922  -1.695  1.00  0.00     0.009 C 
BRANCH  35  36
HETATM   36  C18 UNL     1      34.634  -4.870  -1.185  1.00  0.00     0.103 C 
BRANCH  36  37
HETATM   37  C19 UNL     1      35.004  -6.232  -1.646  1.00  0.00     0.223 C 
HETATM   38  O4  UNL     1      36.065  -6.501  -2.246  1.00  0.00    -0.273 OA
HETATM   39  N7  UNL     1      34.062  -7.277  -1.369  1.00  0.00    -0.304 N 
HETATM   40  C20 UNL     1      33.226  -7.682  -2.276  1.00  0.00     0.203 C 
ATOM     41  H7  UNL     1      34.049  -7.708  -0.445  1.00  0.00     0.171 HD
HETATM   42  N8  UNL     1      32.327  -8.723  -1.916  1.00  0.00    -0.066 NA
HETATM   43  N9  UNL     1      33.200  -7.117  -3.582  1.00  0.00    -0.066 NA
ENDBRANCH  36  37
ENDBRANCH  35  36
ENDBRANCH  34  35
ENDBRANCH  33  34
ENDBRANCH  32  33
ENDBRANCH  31  32
ENDBRANCH  30  31
ENDBRANCH  29  30
ENDBRANCH  28  29
ENDBRANCH  25  28
ENDBRANCH  23  25
ENDBRANCH   1  23
TORSDOF 18
ENDMDL
