MODEL 1
REMARK VINA RESULT: -6.539861668      0.000      0.000
REMARK  4 active torsions:
REMARK  status: ('A' for Active; 'I' for Inactive)
REMARK    1  A    between atoms: C2_2  and  C3_3 
REMARK    2  A    between atoms: C3_3  and  N1_4 
REMARK    3  A    between atoms: C3_3  and  C6_11 
REMARK       I    between atoms: N1_4  and  C4_6 
REMARK    4  A    between atoms: C4_6  and  C5_8 
REMARK       I    between atoms: C6_11  and  N3_13 
REMARK       I    between atoms: N3_13  and  C7_15 
REMARK       I    between atoms: C7_15  and  N4_16 
ROOT
HETATM    1  C6  UNL     1      41.907  -5.605  59.834  1.00  0.00     0.258 C 
HETATM    2  O3  UNL     1      41.105  -5.823  58.901  1.00  0.00    -0.270 OA
HETATM    3  N3  UNL     1      42.119  -6.601  60.802  1.00  0.00    -0.157 N 
ATOM      4  H3  UNL     1      42.773  -6.422  61.563  1.00  0.00     0.187 HD
HETATM    5  C7  UNL     1      41.450  -7.844  60.751  1.00  0.00     0.696 C 
HETATM    6  N4  UNL     1      40.527  -8.102  59.684  1.00  0.00    -0.165 N 
ATOM      7  H4  UNL     1      40.886  -8.229  58.738  1.00  0.00     0.186 HD
HETATM    8  C8  UNL     1      39.259  -8.177  59.889  1.00  0.00     0.215 C 
HETATM    9  N5  UNL     1      38.415  -8.437  58.776  1.00  0.00    -0.066 NA
HETATM   10  N6  UNL     1      38.651  -8.016  61.165  1.00  0.00    -0.066 NA
HETATM   11  N7  UNL     1      41.653  -8.747  61.645  1.00  0.00    -0.126 N 
ATOM     12  H7  UNL     1      41.164  -9.642  61.599  1.00  0.00     0.197 HD
HETATM   13  C9  UNL     1      42.554  -8.484  62.680  1.00  0.00     0.196 C 
HETATM   14  N8  UNL     1      43.313  -8.274  63.533  1.00  0.00    -0.171 NA
ENDROOT
BRANCH   1  15
HETATM   15  C3  UNL     1      42.602  -4.302  59.879  1.00  0.00     0.177 C 
BRANCH  15  16
HETATM   16  C2  UNL     1      41.813  -3.277  60.684  1.00  0.00     0.030 C 
HETATM   17  C1  UNL     1      42.288  -3.289  62.115  1.00  0.00     0.007 C 
ENDBRANCH  15  16
BRANCH  15  18
HETATM   18  N1  UNL     1      42.903  -3.791  58.565  1.00  0.00    -0.340 N 
HETATM   19  C4  UNL     1      44.181  -3.942  57.971  1.00  0.00     0.307 C 
HETATM   20  O1  UNL     1      45.063  -4.542  58.627  1.00  0.00    -0.263 OA
ATOM     21  H1  UNL     1      42.173  -3.305  58.046  1.00  0.00     0.163 HD
BRANCH  19  22
HETATM   22  C5  UNL     1      44.496  -3.431  56.650  1.00  0.00     0.322 C 
HETATM   23  N2  UNL     1      45.184  -2.199  56.506  1.00  0.00    -0.053 NA
HETATM   24  O2  UNL     1      44.180  -4.045  55.598  1.00  0.00    -0.266 OA
ENDBRANCH  19  22
ENDBRANCH  15  18
ENDBRANCH   1  15
TORSDOF 4
ENDMDL
MODEL 2
REMARK VINA RESULT: -6.524397888      2.580      6.450
REMARK  4 active torsions:
REMARK  status: ('A' for Active; 'I' for Inactive)
REMARK    1  A    between atoms: C2_2  and  C3_3 
REMARK    2  A    between atoms: C3_3  and  N1_4 
REMARK    3  A    between atoms: C3_3  and  C6_11 
REMARK       I    between atoms: N1_4  and  C4_6 
REMARK    4  A    between atoms: C4_6  and  C5_8 
REMARK       I    between atoms: C6_11  and  N3_13 
REMARK       I    between atoms: N3_13  and  C7_15 
REMARK       I    between atoms: C7_15  and  N4_16 
ROOT
HETATM    1  C6  UNL     1      42.181  -5.886  59.976  1.00  0.00     0.258 C 
HETATM    2  O3  UNL     1      41.903  -6.479  58.911  1.00  0.00    -0.270 OA
HETATM    3  N3  UNL     1      42.518  -4.522  59.933  1.00  0.00    -0.157 N 
ATOM      4  H3  UNL     1      42.745  -4.040  60.803  1.00  0.00     0.187 HD
HETATM    5  C7  UNL     1      42.551  -3.801  58.720  1.00  0.00     0.696 C 
HETATM    6  N4  UNL     1      42.235  -4.473  57.494  1.00  0.00    -0.165 N 
ATOM      7  H4  UNL     1      41.273  -4.764  57.322  1.00  0.00     0.186 HD
HETATM    8  C8  UNL     1      43.132  -4.719  56.604  1.00  0.00     0.215 C 
HETATM    9  N5  UNL     1      42.733  -5.388  55.418  1.00  0.00    -0.066 NA
HETATM   10  N6  UNL     1      44.502  -4.359  56.740  1.00  0.00    -0.066 NA
HETATM   11  N7  UNL     1      42.862  -2.552  58.696  1.00  0.00    -0.126 N 
ATOM     12  H7  UNL     1      42.883  -2.040  57.814  1.00  0.00     0.197 HD
HETATM   13  C9  UNL     1      43.169  -1.908  59.897  1.00  0.00     0.196 C 
HETATM   14  N8  UNL     1      43.410  -1.366  60.896  1.00  0.00    -0.171 NA
ENDROOT
BRANCH   1  15
HETATM   15  C3  UNL     1      42.144  -6.649  61.240  1.00  0.00     0.177 C 
BRANCH  15  16
HETATM   16  C2  UNL     1      43.545  -6.899  61.782  1.00  0.00     0.030 C 
HETATM   17  C1  UNL     1      44.411  -7.473  60.689  1.00  0.00     0.007 C 
ENDBRANCH  15  16
BRANCH  15  18
HETATM   18  N1  UNL     1      41.420  -7.890  61.114  1.00  0.00    -0.340 N 
HETATM   19  C4  UNL     1      41.492  -8.909  62.097  1.00  0.00     0.307 C 
HETATM   20  O1  UNL     1      42.214  -8.704  63.099  1.00  0.00    -0.263 OA
ATOM     21  H1  UNL     1      40.837  -8.039  60.291  1.00  0.00     0.163 HD
BRANCH  19  22
HETATM   22  C5  UNL     1      40.769 -10.162  61.981  1.00  0.00     0.322 C 
HETATM   23  N2  UNL     1      40.452 -10.913  63.142  1.00  0.00    -0.053 NA
HETATM   24  O2  UNL     1      40.400 -10.625  60.871  1.00  0.00    -0.266 OA
ENDBRANCH  19  22
ENDBRANCH  15  18
ENDBRANCH   1  15
TORSDOF 4
ENDMDL
MODEL 3
REMARK VINA RESULT: -6.109254394      2.338      6.186
REMARK  4 active torsions:
REMARK  status: ('A' for Active; 'I' for Inactive)
REMARK    1  A    between atoms: C2_2  and  C3_3 
REMARK    2  A    between atoms: C3_3  and  N1_4 
REMARK    3  A    between atoms: C3_3  and  C6_11 
REMARK       I    between atoms: N1_4  and  C4_6 
REMARK    4  A    between atoms: C4_6  and  C5_8 
REMARK       I    between atoms: C6_11  and  N3_13 
REMARK       I    between atoms: N3_13  and  C7_15 
REMARK       I    between atoms: C7_15  and  N4_16 
ROOT
HETATM    1  C6  UNL     1      41.923  -5.194  59.847  1.00  0.00     0.258 C 
HETATM    2  O3  UNL     1      41.665  -5.921  58.864  1.00  0.00    -0.270 OA
HETATM    3  N3  UNL     1      42.430  -3.901  59.628  1.00  0.00    -0.157 N 
ATOM      4  H3  UNL     1      42.641  -3.309  60.432  1.00  0.00     0.187 HD
HETATM    5  C7  UNL     1      42.655  -3.400  58.328  1.00  0.00     0.696 C 
HETATM    6  N4  UNL     1      42.362  -4.227  57.195  1.00  0.00    -0.165 N 
ATOM      7  H4  UNL     1      41.389  -4.436  56.971  1.00  0.00     0.186 HD
HETATM    8  C8  UNL     1      43.294  -4.714  56.452  1.00  0.00     0.215 C 
HETATM    9  N5  UNL     1      42.916  -5.525  55.349  1.00  0.00    -0.066 NA
HETATM   10  N6  UNL     1      44.681  -4.489  56.671  1.00  0.00    -0.066 NA
HETATM   11  N7  UNL     1      43.120  -2.213  58.143  1.00  0.00    -0.126 N 
ATOM     12  H7  UNL     1      43.280  -1.861  57.199  1.00  0.00     0.197 HD
HETATM   13  C9  UNL     1      43.403  -1.417  59.255  1.00  0.00     0.196 C 
HETATM   14  N8  UNL     1      43.625  -0.746  60.177  1.00  0.00    -0.171 NA
ENDROOT
BRANCH   1  15
HETATM   15  C3  UNL     1      41.684  -5.727  61.204  1.00  0.00     0.177 C 
BRANCH  15  16
HETATM   16  C2  UNL     1      42.975  -5.802  62.009  1.00  0.00     0.030 C 
HETATM   17  C1  UNL     1      43.161  -4.520  62.781  1.00  0.00     0.007 C 
ENDBRANCH  15  16
BRANCH  15  18
HETATM   18  N1  UNL     1      41.024  -7.009  61.184  1.00  0.00    -0.340 N 
HETATM   19  C4  UNL     1      41.703  -8.213  61.499  1.00  0.00     0.307 C 
HETATM   20  O1  UNL     1      42.916  -8.137  61.802  1.00  0.00    -0.263 OA
ATOM     21  H1  UNL     1      40.036  -7.051  60.935  1.00  0.00     0.163 HD
BRANCH  19  22
HETATM   22  C5  UNL     1      41.050  -9.508  61.482  1.00  0.00     0.322 C 
HETATM   23  N2  UNL     1      41.005 -10.300  62.658  1.00  0.00    -0.053 NA
HETATM   24  O2  UNL     1      40.507  -9.975  60.447  1.00  0.00    -0.266 OA
ENDBRANCH  19  22
ENDBRANCH  15  18
ENDBRANCH   1  15
TORSDOF 4
ENDMDL
MODEL 4
REMARK VINA RESULT: -6.011439243      2.669      6.948
REMARK  4 active torsions:
REMARK  status: ('A' for Active; 'I' for Inactive)
REMARK    1  A    between atoms: C2_2  and  C3_3 
REMARK    2  A    between atoms: C3_3  and  N1_4 
REMARK    3  A    between atoms: C3_3  and  C6_11 
REMARK       I    between atoms: N1_4  and  C4_6 
REMARK    4  A    between atoms: C4_6  and  C5_8 
REMARK       I    between atoms: C6_11  and  N3_13 
REMARK       I    between atoms: N3_13  and  C7_15 
REMARK       I    between atoms: C7_15  and  N4_16 
ROOT
HETATM    1  C6  UNL     1      42.128  -6.563  60.003  1.00  0.00     0.258 C 
HETATM    2  O3  UNL     1      42.483  -5.980  61.051  1.00  0.00    -0.270 OA
HETATM    3  N3  UNL     1      42.507  -6.027  58.760  1.00  0.00    -0.157 N 
ATOM      4  H3  UNL     1      42.217  -6.503  57.906  1.00  0.00     0.187 HD
HETATM    5  C7  UNL     1      43.277  -4.848  58.661  1.00  0.00     0.696 C 
HETATM    6  N4  UNL     1      43.688  -4.173  59.857  1.00  0.00    -0.165 N 
ATOM      7  H4  UNL     1      44.388  -4.609  60.457  1.00  0.00     0.186 HD
HETATM    8  C8  UNL     1      43.195  -3.033  60.195  1.00  0.00     0.215 C 
HETATM    9  N5  UNL     1      43.657  -2.434  61.397  1.00  0.00    -0.066 NA
HETATM   10  N6  UNL     1      42.214  -2.337  59.436  1.00  0.00    -0.066 NA
HETATM   11  N7  UNL     1      43.616  -4.368  57.515  1.00  0.00    -0.126 N 
ATOM     12  H7  UNL     1      44.173  -3.515  57.455  1.00  0.00     0.197 HD
HETATM   13  C9  UNL     1      43.211  -5.034  56.356  1.00  0.00     0.196 C 
HETATM   14  N8  UNL     1      42.887  -5.593  55.391  1.00  0.00    -0.171 NA
ENDROOT
BRANCH   1  15
HETATM   15  C3  UNL     1      41.322  -7.796  60.117  1.00  0.00     0.177 C 
BRANCH  15  16
HETATM   16  C2  UNL     1      39.970  -7.643  59.433  1.00  0.00     0.030 C 
HETATM   17  C1  UNL     1      38.880  -8.112  60.363  1.00  0.00     0.007 C 
ENDBRANCH  15  16
BRANCH  15  18
HETATM   18  N1  UNL     1      41.153  -8.220  61.484  1.00  0.00    -0.340 N 
HETATM   19  C4  UNL     1      41.050  -9.587  61.844  1.00  0.00     0.307 C 
HETATM   20  O1  UNL     1      41.110 -10.438  60.927  1.00  0.00    -0.263 OA
ATOM     21  H1  UNL     1      41.106  -7.513  62.217  1.00  0.00     0.163 HD
BRANCH  19  22
HETATM   22  C5  UNL     1      40.878 -10.025  63.216  1.00  0.00     0.322 C 
HETATM   23  N2  UNL     1      40.056 -11.143  63.511  1.00  0.00    -0.053 NA
HETATM   24  O2  UNL     1      41.438  -9.446  64.183  1.00  0.00    -0.266 OA
ENDBRANCH  19  22
ENDBRANCH  15  18
ENDBRANCH   1  15
TORSDOF 4
ENDMDL
MODEL 5
REMARK VINA RESULT: -5.567409985      2.350      6.270
REMARK  4 active torsions:
REMARK  status: ('A' for Active; 'I' for Inactive)
REMARK    1  A    between atoms: C2_2  and  C3_3 
REMARK    2  A    between atoms: C3_3  and  N1_4 
REMARK    3  A    between atoms: C3_3  and  C6_11 
REMARK       I    between atoms: N1_4  and  C4_6 
REMARK    4  A    between atoms: C4_6  and  C5_8 
REMARK       I    between atoms: C6_11  and  N3_13 
REMARK       I    between atoms: N3_13  and  C7_15 
REMARK       I    between atoms: C7_15  and  N4_16 
ROOT
HETATM    1  C6  UNL     1      42.514  -5.798  59.875  1.00  0.00     0.258 C 
HETATM    2  O3  UNL     1      42.251  -6.432  58.830  1.00  0.00    -0.270 OA
HETATM    3  N3  UNL     1      42.754  -4.416  59.796  1.00  0.00    -0.157 N 
ATOM      4  H3  UNL     1      42.969  -3.901  60.650  1.00  0.00     0.187 HD
HETATM    5  C7  UNL     1      42.707  -3.721  58.568  1.00  0.00     0.696 C 
HETATM    6  N4  UNL     1      42.406  -4.440  57.364  1.00  0.00    -0.165 N 
ATOM      7  H4  UNL     1      41.463  -4.800  57.224  1.00  0.00     0.186 HD
HETATM    8  C8  UNL     1      43.296  -4.643  56.457  1.00  0.00     0.215 C 
HETATM    9  N5  UNL     1      42.915  -5.364  55.295  1.00  0.00    -0.066 NA
HETATM   10  N6  UNL     1      44.640  -4.187  56.548  1.00  0.00    -0.066 NA
HETATM   11  N7  UNL     1      42.929  -2.454  58.511  1.00  0.00    -0.126 N 
ATOM     12  H7  UNL     1      42.892  -1.962  57.618  1.00  0.00     0.197 HD
HETATM   13  C9  UNL     1      43.221  -1.765  59.690  1.00  0.00     0.196 C 
HETATM   14  N8  UNL     1      43.449  -1.186  60.671  1.00  0.00    -0.171 NA
ENDROOT
BRANCH   1  15
HETATM   15  C3  UNL     1      42.561  -6.535  61.155  1.00  0.00     0.177 C 
BRANCH  15  16
HETATM   16  C2  UNL     1      43.984  -6.631  61.690  1.00  0.00     0.030 C 
HETATM   17  C1  UNL     1      44.690  -7.791  61.035  1.00  0.00     0.007 C 
ENDBRANCH  15  16
BRANCH  15  18
HETATM   18  N1  UNL     1      41.966  -7.844  61.061  1.00  0.00    -0.340 N 
HETATM   19  C4  UNL     1      40.577  -8.029  60.844  1.00  0.00     0.307 C 
HETATM   20  O1  UNL     1      39.863  -7.007  60.734  1.00  0.00    -0.263 OA
ATOM     21  H1  UNL     1      42.564  -8.665  61.154  1.00  0.00     0.163 HD
BRANCH  19  22
HETATM   22  C5  UNL     1      39.968  -9.342  60.749  1.00  0.00     0.322 C 
HETATM   23  N2  UNL     1      40.361 -10.377  61.635  1.00  0.00    -0.053 NA
HETATM   24  O2  UNL     1      39.084  -9.613  59.895  1.00  0.00    -0.266 OA
ENDBRANCH  19  22
ENDBRANCH  15  18
ENDBRANCH   1  15
TORSDOF 4
ENDMDL
