MODEL 1
REMARK VINA RESULT: -7.070145355      0.000      0.000
REMARK  5 active torsions:
REMARK  status: ('A' for Active; 'I' for Inactive)
REMARK    1  A    between atoms: C1_2  and  C2_3 
REMARK       I    between atoms: C1_2  and  N2_16 
REMARK    2  A    between atoms: C2_3  and  O2_4 
REMARK    3  A    between atoms: O2_4  and  C3_5 
REMARK    4  A    between atoms: N1_8  and  C6_9 
REMARK    5  A    between atoms: N2_16  and  C13_18 
ROOT
HETATM    1  C2  UNL     1       9.844  -7.066   5.032  1.00  0.00     0.270 C 
ENDROOT
BRANCH   1   2
HETATM    2  C1  UNL     1       9.804  -8.147   4.016  1.00  0.00     0.241 C 
HETATM    3  O1  UNL     1       8.779  -8.296   3.300  1.00  0.00    -0.271 OA
HETATM    4  N2  UNL     1      10.897  -9.034   3.823  1.00  0.00    -0.355 N 
ATOM      5  H2  UNL     1      11.730  -8.921   4.400  1.00  0.00     0.162 HD
BRANCH   4   6
HETATM    6  C13 UNL     1      10.871 -10.090   2.839  1.00  0.00     0.086 C 
HETATM    7  C14 UNL     1      12.082 -10.073   1.935  1.00  0.00     0.040 C 
HETATM    8  C15 UNL     1      13.375 -10.254   2.693  1.00  0.00     0.142 C 
HETATM    9  S1  UNL     1      13.279 -11.814   3.536  1.00  0.00     0.144 S 
HETATM   10  O3  UNL     1      14.444 -12.072   4.414  1.00  0.00    -0.228 OA
HETATM   11  O4  UNL     1      13.227 -12.911   2.496  1.00  0.00    -0.228 OA
HETATM   12  C16 UNL     1      11.728 -11.849   4.405  1.00  0.00     0.142 C 
HETATM   13  C17 UNL     1      10.640 -11.433   3.470  1.00  0.00     0.040 C 
ENDBRANCH   4   6
ENDBRANCH   1   2
BRANCH   1  14
HETATM   14  O2  UNL     1      10.143  -5.854   4.437  1.00  0.00    -0.377 OA
BRANCH  14  15
HETATM   15  C3  UNL     1      11.029  -5.082   5.163  1.00  0.00     0.125 C 
HETATM   16  C4  UNL     1      12.455  -5.257   4.773  1.00  0.00     0.051 C 
HETATM   17  C5  UNL     1      13.258  -4.176   5.531  1.00  0.00     0.119 C 
HETATM   18  N1  UNL     1      12.996  -2.927   4.906  1.00  0.00    -0.408 N 
HETATM   19  C11 UNL     1      11.637  -2.756   4.486  1.00  0.00     0.119 C 
HETATM   20  C12 UNL     1      10.671  -3.637   5.212  1.00  0.00     0.051 C 
BRANCH  18  21
HETATM   21  C6  UNL     1      13.662  -1.785   5.385  1.00  0.00     0.079 C 
HETATM   22  C7  UNL     1      14.833  -2.124   6.286  1.00  0.00     0.025 C 
HETATM   23  C8  UNL     1      15.118  -0.832   7.040  1.00  0.00     0.002 C 
HETATM   24  C9  UNL     1      13.814  -0.057   6.993  1.00  0.00     0.002 C 
HETATM   25  C10 UNL     1      12.799  -0.977   6.330  1.00  0.00     0.025 C 
ENDBRANCH  18  21
ENDBRANCH  14  15
ENDBRANCH   1  14
TORSDOF 5
ENDMDL
MODEL 2
REMARK VINA RESULT: -7.039002043      5.283      8.104
REMARK  5 active torsions:
REMARK  status: ('A' for Active; 'I' for Inactive)
REMARK    1  A    between atoms: C1_2  and  C2_3 
REMARK       I    between atoms: C1_2  and  N2_16 
REMARK    2  A    between atoms: C2_3  and  O2_4 
REMARK    3  A    between atoms: O2_4  and  C3_5 
REMARK    4  A    between atoms: N1_8  and  C6_9 
REMARK    5  A    between atoms: N2_16  and  C13_18 
ROOT
HETATM    1  C2  UNL     1       7.940  -4.108   4.116  1.00  0.00     0.270 C 
ENDROOT
BRANCH   1   2
HETATM    2  C1  UNL     1       6.697  -4.124   4.925  1.00  0.00     0.241 C 
HETATM    3  O1  UNL     1       5.742  -4.874   4.592  1.00  0.00    -0.271 OA
HETATM    4  N2  UNL     1       6.543  -3.308   6.079  1.00  0.00    -0.355 N 
ATOM      5  H2  UNL     1       7.312  -2.697   6.355  1.00  0.00     0.162 HD
BRANCH   4   6
HETATM    6  C13 UNL     1       5.339  -3.314   6.875  1.00  0.00     0.086 C 
HETATM    7  C14 UNL     1       5.597  -2.968   8.323  1.00  0.00     0.040 C 
HETATM    8  C15 UNL     1       6.192  -1.592   8.495  1.00  0.00     0.142 C 
HETATM    9  S1  UNL     1       5.046  -0.429   7.798  1.00  0.00     0.144 S 
HETATM   10  O3  UNL     1       5.555   0.961   7.798  1.00  0.00    -0.228 OA
HETATM   11  O4  UNL     1       3.779  -0.462   8.623  1.00  0.00    -0.228 OA
HETATM   12  C16 UNL     1       4.621  -1.017   6.174  1.00  0.00     0.142 C 
HETATM   13  C17 UNL     1       4.263  -2.465   6.262  1.00  0.00     0.040 C 
ENDBRANCH   4   6
ENDBRANCH   1   2
BRANCH   1  14
HETATM   14  O2  UNL     1       8.774  -5.147   4.489  1.00  0.00    -0.377 OA
BRANCH  14  15
HETATM   15  C3  UNL     1       9.935  -4.731   5.111  1.00  0.00     0.125 C 
HETATM   16  C4  UNL     1      11.173  -5.370   4.587  1.00  0.00     0.051 C 
HETATM   17  C5  UNL     1      12.363  -4.636   5.244  1.00  0.00     0.119 C 
HETATM   18  N1  UNL     1      12.478  -3.362   4.626  1.00  0.00    -0.408 N 
HETATM   19  C11 UNL     1      11.222  -2.735   4.337  1.00  0.00     0.119 C 
HETATM   20  C12 UNL     1      10.091  -3.251   5.170  1.00  0.00     0.051 C 
BRANCH  18  21
HETATM   21  C6  UNL     1      13.534  -2.520   5.017  1.00  0.00     0.079 C 
HETATM   22  C7  UNL     1      14.482  -3.185   5.995  1.00  0.00     0.025 C 
HETATM   23  C8  UNL     1      15.245  -2.028   6.629  1.00  0.00     0.002 C 
HETATM   24  C9  UNL     1      14.341  -0.821   6.452  1.00  0.00     0.002 C 
HETATM   25  C10 UNL     1      13.050  -1.346   5.841  1.00  0.00     0.025 C 
ENDBRANCH  18  21
ENDBRANCH  14  15
ENDBRANCH   1  14
TORSDOF 5
ENDMDL
MODEL 3
REMARK VINA RESULT: -6.958546738      7.011     10.046
REMARK  5 active torsions:
REMARK  status: ('A' for Active; 'I' for Inactive)
REMARK    1  A    between atoms: C1_2  and  C2_3 
REMARK       I    between atoms: C1_2  and  N2_16 
REMARK    2  A    between atoms: C2_3  and  O2_4 
REMARK    3  A    between atoms: O2_4  and  C3_5 
REMARK    4  A    between atoms: N1_8  and  C6_9 
REMARK    5  A    between atoms: N2_16  and  C13_18 
ROOT
HETATM    1  C2  UNL     1       6.736  -0.746   7.316  1.00  0.00     0.270 C 
ENDROOT
BRANCH   1   2
HETATM    2  C1  UNL     1       5.507  -0.510   8.114  1.00  0.00     0.241 C 
HETATM    3  O1  UNL     1       4.736   0.438   7.810  1.00  0.00    -0.271 OA
HETATM    4  N2  UNL     1       5.167  -1.327   9.225  1.00  0.00    -0.355 N 
ATOM      5  H2  UNL     1       5.787  -2.096   9.479  1.00  0.00     0.162 HD
BRANCH   4   6
HETATM    6  C13 UNL     1       3.975  -1.108  10.010  1.00  0.00     0.086 C 
HETATM    7  C14 UNL     1       2.823  -1.982   9.573  1.00  0.00     0.040 C 
HETATM    8  C15 UNL     1       3.129  -3.455   9.702  1.00  0.00     0.142 C 
HETATM    9  S1  UNL     1       3.507  -3.770  11.408  1.00  0.00     0.144 S 
HETATM   10  O3  UNL     1       3.938  -5.164  11.660  1.00  0.00    -0.228 OA
HETATM   11  O4  UNL     1       2.259  -3.513  12.223  1.00  0.00    -0.228 OA
HETATM   12  C16 UNL     1       4.713  -2.563  11.912  1.00  0.00     0.142 C 
HETATM   13  C17 UNL     1       4.251  -1.210  11.482  1.00  0.00     0.040 C 
ENDBRANCH   4   6
ENDBRANCH   1   2
BRANCH   1  14
HETATM   14  O2  UNL     1       6.430  -1.408   6.141  1.00  0.00    -0.377 OA
BRANCH  14  15
HETATM   15  C3  UNL     1       7.045  -2.639   6.020  1.00  0.00     0.125 C 
HETATM   16  C4  UNL     1       7.510  -2.959   4.643  1.00  0.00     0.051 C 
HETATM   17  C5  UNL     1       8.347  -4.253   4.747  1.00  0.00     0.119 C 
HETATM   18  N1  UNL     1       9.592  -3.915   5.341  1.00  0.00    -0.408 N 
HETATM   19  C11 UNL     1       9.496  -2.948   6.393  1.00  0.00     0.119 C 
HETATM   20  C12 UNL     1       8.135  -2.868   7.010  1.00  0.00     0.051 C 
BRANCH  18  21
HETATM   21  C6  UNL     1      10.559  -4.925   5.493  1.00  0.00     0.079 C 
HETATM   22  C7  UNL     1      11.886  -4.567   4.855  1.00  0.00     0.025 C 
HETATM   23  C8  UNL     1      12.613  -5.899   4.718  1.00  0.00     0.002 C 
HETATM   24  C9  UNL     1      11.513  -6.946   4.714  1.00  0.00     0.002 C 
HETATM   25  C10 UNL     1      10.199  -6.178   4.721  1.00  0.00     0.025 C 
ENDBRANCH  18  21
ENDBRANCH  14  15
ENDBRANCH   1  14
TORSDOF 5
ENDMDL
MODEL 4
REMARK VINA RESULT: -6.803066341      6.657      9.003
REMARK  5 active torsions:
REMARK  status: ('A' for Active; 'I' for Inactive)
REMARK    1  A    between atoms: C1_2  and  C2_3 
REMARK       I    between atoms: C1_2  and  N2_16 
REMARK    2  A    between atoms: C2_3  and  O2_4 
REMARK    3  A    between atoms: O2_4  and  C3_5 
REMARK    4  A    between atoms: N1_8  and  C6_9 
REMARK    5  A    between atoms: N2_16  and  C13_18 
ROOT
HETATM    1  C2  UNL     1       8.115  -3.093   7.265  1.00  0.00     0.270 C 
ENDROOT
BRANCH   1   2
HETATM    2  C1  UNL     1       8.837  -3.277   5.982  1.00  0.00     0.241 C 
HETATM    3  O1  UNL     1       8.217  -3.694   4.969  1.00  0.00    -0.271 OA
HETATM    4  N2  UNL     1      10.224  -2.994   5.855  1.00  0.00    -0.355 N 
ATOM      5  H2  UNL     1      10.734  -2.657   6.671  1.00  0.00     0.162 HD
BRANCH   4   6
HETATM    6  C13 UNL     1      10.938  -3.169   4.612  1.00  0.00     0.086 C 
HETATM    7  C14 UNL     1      11.665  -1.917   4.179  1.00  0.00     0.040 C 
HETATM    8  C15 UNL     1      12.699  -1.469   5.183  1.00  0.00     0.142 C 
HETATM    9  S1  UNL     1      13.859  -2.798   5.377  1.00  0.00     0.144 S 
HETATM   10  O3  UNL     1      14.874  -2.536   6.423  1.00  0.00    -0.228 OA
HETATM   11  O4  UNL     1      14.584  -2.989   4.063  1.00  0.00    -0.228 OA
HETATM   12  C16 UNL     1      12.920  -4.280   5.670  1.00  0.00     0.142 C 
HETATM   13  C17 UNL     1      11.834  -4.373   4.649  1.00  0.00     0.040 C 
ENDBRANCH   4   6
ENDBRANCH   1   2
BRANCH   1  14
HETATM   14  O2  UNL     1       7.809  -1.759   7.462  1.00  0.00    -0.377 OA
BRANCH  14  15
HETATM   15  C3  UNL     1       6.469  -1.467   7.301  1.00  0.00     0.125 C 
HETATM   16  C4  UNL     1       5.561  -2.631   7.492  1.00  0.00     0.051 C 
HETATM   17  C5  UNL     1       4.120  -2.075   7.485  1.00  0.00     0.119 C 
HETATM   18  N1  UNL     1       3.909  -1.408   8.723  1.00  0.00    -0.408 N 
HETATM   19  C11 UNL     1       5.042  -0.666   9.189  1.00  0.00     0.119 C 
HETATM   20  C12 UNL     1       6.005  -0.301   8.103  1.00  0.00     0.051 C 
BRANCH  18  21
HETATM   21  C6  UNL     1       2.640  -0.861   8.981  1.00  0.00     0.079 C 
HETATM   22  C7  UNL     1       2.269   0.244   8.012  1.00  0.00     0.025 C 
HETATM   23  C8  UNL     1       1.134   0.989   8.703  1.00  0.00     0.002 C 
HETATM   24  C9  UNL     1       1.309   0.685  10.180  1.00  0.00     0.002 C 
HETATM   25  C10 UNL     1       2.600  -0.112  10.297  1.00  0.00     0.025 C 
ENDBRANCH  18  21
ENDBRANCH  14  15
ENDBRANCH   1  14
TORSDOF 5
ENDMDL
MODEL 5
REMARK VINA RESULT: -6.785084240      6.496      8.860
REMARK  5 active torsions:
REMARK  status: ('A' for Active; 'I' for Inactive)
REMARK    1  A    between atoms: C1_2  and  C2_3 
REMARK       I    between atoms: C1_2  and  N2_16 
REMARK    2  A    between atoms: C2_3  and  O2_4 
REMARK    3  A    between atoms: O2_4  and  C3_5 
REMARK    4  A    between atoms: N1_8  and  C6_9 
REMARK    5  A    between atoms: N2_16  and  C13_18 
ROOT
HETATM    1  C2  UNL     1       8.096  -2.602   7.538  1.00  0.00     0.270 C 
ENDROOT
BRANCH   1   2
HETATM    2  C1  UNL     1       8.710  -2.821   6.205  1.00  0.00     0.241 C 
HETATM    3  O1  UNL     1       7.980  -2.885   5.182  1.00  0.00    -0.271 OA
HETATM    4  N2  UNL     1      10.115  -2.965   6.042  1.00  0.00    -0.355 N 
ATOM      5  H2  UNL     1      10.713  -2.916   6.866  1.00  0.00     0.162 HD
BRANCH   4   6
HETATM    6  C13 UNL     1      10.725  -3.179   4.751  1.00  0.00     0.086 C 
HETATM    7  C14 UNL     1      11.473  -1.964   4.253  1.00  0.00     0.040 C 
HETATM    8  C15 UNL     1      12.599  -1.558   5.173  1.00  0.00     0.142 C 
HETATM    9  S1  UNL     1      13.709  -2.938   5.292  1.00  0.00     0.144 S 
HETATM   10  O3  UNL     1      14.810  -2.717   6.257  1.00  0.00    -0.228 OA
HETATM   11  O4  UNL     1      14.323  -3.169   3.930  1.00  0.00    -0.228 OA
HETATM   12  C16 UNL     1      12.728  -4.373   5.668  1.00  0.00     0.142 C 
HETATM   13  C17 UNL     1      11.566  -4.423   4.732  1.00  0.00     0.040 C 
ENDBRANCH   4   6
ENDBRANCH   1   2
BRANCH   1  14
HETATM   14  O2  UNL     1       6.914  -3.312   7.649  1.00  0.00    -0.377 OA
BRANCH  14  15
HETATM   15  C3  UNL     1       5.817  -2.522   7.934  1.00  0.00     0.125 C 
HETATM   16  C4  UNL     1       6.126  -1.074   8.079  1.00  0.00     0.051 C 
HETATM   17  C5  UNL     1       4.770  -0.339   8.180  1.00  0.00     0.119 C 
HETATM   18  N1  UNL     1       4.190  -0.325   6.883  1.00  0.00    -0.408 N 
HETATM   19  C11 UNL     1       4.381  -1.536   6.143  1.00  0.00     0.119 C 
HETATM   20  C12 UNL     1       4.670  -2.725   7.005  1.00  0.00     0.051 C 
BRANCH  18  21
HETATM   21  C6  UNL     1       2.965   0.343   6.704  1.00  0.00     0.079 C 
HETATM   22  C7  UNL     1       3.142   1.796   6.312  1.00  0.00     0.025 C 
HETATM   23  C8  UNL     1       1.793   2.437   6.610  1.00  0.00     0.002 C 
HETATM   24  C9  UNL     1       1.153   1.534   7.650  1.00  0.00     0.002 C 
HETATM   25  C10 UNL     1       2.201   0.488   8.003  1.00  0.00     0.025 C 
ENDBRANCH  18  21
ENDBRANCH  14  15
ENDBRANCH   1  14
TORSDOF 5
ENDMDL
