MODEL 1
REMARK VINA RESULT: -7.106795582      0.000      0.000
REMARK  5 active torsions:
REMARK  status: ('A' for Active; 'I' for Inactive)
REMARK    1  A    between atoms: C1_2  and  C2_3 
REMARK       I    between atoms: C1_2  and  N1_8 
REMARK    2  A    between atoms: C8_11  and  C9_12 
REMARK    3  A    between atoms: C9_12  and  O3_13 
REMARK    4  A    between atoms: O3_13  and  C10_14 
REMARK    5  A    between atoms: C13_17  and  N2_18 
ROOT
HETATM    1  O1  UNL     1       4.068  -1.753   7.702  1.00  0.00    -0.270 OA
HETATM    2  C1  UNL     1       5.088  -2.323   8.252  1.00  0.00     0.250 C 
HETATM    3  N1  UNL     1       6.356  -2.241   7.637  1.00  0.00    -0.326 N 
HETATM    4  C6  UNL     1       7.575  -2.858   8.162  1.00  0.00     0.130 C 
HETATM    5  C7  UNL     1       8.685  -2.659   7.093  1.00  0.00     0.055 C 
HETATM    6  C8  UNL     1       8.055  -3.136   5.829  1.00  0.00     0.213 C 
HETATM    7  N3  UNL     1       7.120  -2.186   5.329  1.00  0.00    -0.053 N 
ATOM      8  H31 UNL     1       6.444  -2.626   4.705  1.00  0.00     0.279 HD
ATOM      9  H32 UNL     1       7.559  -1.547   4.668  1.00  0.00     0.279 HD
HETATM   10  C19 UNL     1       6.463  -1.471   6.383  1.00  0.00     0.360 C 
ENDROOT
BRANCH   6  11
HETATM   11  C9  UNL     1       9.043  -3.613   4.803  1.00  0.00     0.201 C 
BRANCH  11  12
HETATM   12  O3  UNL     1      10.368  -3.363   5.154  1.00  0.00    -0.384 OA
BRANCH  12  13
HETATM   13  C10 UNL     1      10.962  -4.586   5.366  1.00  0.00     0.123 C 
HETATM   14  C11 UNL     1      12.372  -4.660   4.824  1.00  0.00     0.034 C 
HETATM   15  C12 UNL     1      12.636  -6.167   4.959  1.00  0.00     0.038 C 
HETATM   16  C13 UNL     1      11.315  -6.834   4.841  1.00  0.00     0.225 C 
HETATM   17  C18 UNL     1      10.296  -5.732   4.654  1.00  0.00     0.067 C 
BRANCH  16  18
HETATM   18  N2  UNL     1      11.228  -7.864   3.870  1.00  0.00     0.093 N 
HETATM   19  C14 UNL     1      12.373  -8.698   3.733  1.00  0.00     0.273 C 
HETATM   20  C15 UNL     1      11.958 -10.104   4.118  1.00  0.00     0.032 C 
HETATM   21  C16 UNL     1      10.507 -10.046   4.467  1.00  0.00     0.032 C 
HETATM   22  C17 UNL     1      10.066  -8.671   4.072  1.00  0.00     0.273 C 
ENDBRANCH  16  18
ENDBRANCH  12  13
ENDBRANCH  11  12
ENDBRANCH   6  11
BRANCH   2  23
HETATM   23  C2  UNL     1       4.822  -3.026   9.509  1.00  0.00     0.213 C 
HETATM   24  C3  UNL     1       4.701  -2.030  10.647  1.00  0.00     0.043 C 
HETATM   25  C4  UNL     1       3.886  -2.807  11.658  1.00  0.00     0.029 C 
HETATM   26  C5  UNL     1       3.453  -4.022  10.878  1.00  0.00     0.168 C 
HETATM   27  O2  UNL     1       3.612  -3.695   9.522  1.00  0.00    -0.376 OA
ENDBRANCH   2  23
TORSDOF 5
ENDMDL
MODEL 2
REMARK VINA RESULT: -6.989222844      2.785      9.814
REMARK  5 active torsions:
REMARK  status: ('A' for Active; 'I' for Inactive)
REMARK    1  A    between atoms: C1_2  and  C2_3 
REMARK       I    between atoms: C1_2  and  N1_8 
REMARK    2  A    between atoms: C8_11  and  C9_12 
REMARK    3  A    between atoms: C9_12  and  O3_13 
REMARK    4  A    between atoms: O3_13  and  C10_14 
REMARK    5  A    between atoms: C13_17  and  N2_18 
ROOT
HETATM    1  O1  UNL     1       8.718  -3.323   3.796  1.00  0.00    -0.270 OA
HETATM    2  C1  UNL     1       9.034  -3.303   5.048  1.00  0.00     0.250 C 
HETATM    3  N1  UNL     1       8.055  -2.987   6.016  1.00  0.00    -0.326 N 
HETATM    4  C6  UNL     1       8.303  -2.920   7.457  1.00  0.00     0.130 C 
HETATM    5  C7  UNL     1       7.005  -2.380   8.119  1.00  0.00     0.055 C 
HETATM    6  C8  UNL     1       6.682  -1.158   7.329  1.00  0.00     0.213 C 
HETATM    7  N3  UNL     1       6.135  -1.496   6.058  1.00  0.00    -0.053 N 
ATOM      8  H31 UNL     1       6.244  -0.731   5.394  1.00  0.00     0.279 HD
ATOM      9  H32 UNL     1       5.116  -1.536   6.093  1.00  0.00     0.279 HD
HETATM   10  C19 UNL     1       6.684  -2.714   5.542  1.00  0.00     0.360 C 
ENDROOT
BRANCH   6  11
HETATM   11  C9  UNL     1       5.873  -0.144   8.087  1.00  0.00     0.201 C 
BRANCH  11  12
HETATM   12  O3  UNL     1       4.740   0.283   7.399  1.00  0.00    -0.384 OA
BRANCH  12  13
HETATM   13  C10 UNL     1       3.659  -0.331   7.990  1.00  0.00     0.123 C 
HETATM   14  C11 UNL     1       2.395   0.497   7.918  1.00  0.00     0.034 C 
HETATM   15  C12 UNL     1       1.493  -0.302   8.869  1.00  0.00     0.038 C 
HETATM   16  C13 UNL     1       2.395  -0.951   9.853  1.00  0.00     0.225 C 
HETATM   17  C18 UNL     1       3.802  -0.548   9.472  1.00  0.00     0.067 C 
BRANCH  16  18
HETATM   18  N2  UNL     1       2.085  -0.724  11.219  1.00  0.00     0.093 N 
HETATM   19  C14 UNL     1       3.189  -0.472  12.081  1.00  0.00     0.273 C 
HETATM   20  C15 UNL     1       3.028   0.934  12.624  1.00  0.00     0.032 C 
HETATM   21  C16 UNL     1       1.763   1.478  12.047  1.00  0.00     0.032 C 
HETATM   22  C17 UNL     1       1.113   0.313  11.365  1.00  0.00     0.273 C 
ENDBRANCH  16  18
ENDBRANCH  12  13
ENDBRANCH  11  12
ENDBRANCH   6  11
BRANCH   2  23
HETATM   23  C2  UNL     1      10.429  -3.622   5.356  1.00  0.00     0.213 C 
HETATM   24  C3  UNL     1      10.715  -5.075   5.030  1.00  0.00     0.043 C 
HETATM   25  C4  UNL     1      12.217  -5.065   4.842  1.00  0.00     0.029 C 
HETATM   26  C5  UNL     1      12.544  -3.594   4.843  1.00  0.00     0.168 C 
HETATM   27  O2  UNL     1      11.339  -2.923   4.585  1.00  0.00    -0.376 OA
ENDBRANCH   2  23
TORSDOF 5
ENDMDL
MODEL 3
REMARK VINA RESULT: -6.953866263      2.483      3.825
REMARK  5 active torsions:
REMARK  status: ('A' for Active; 'I' for Inactive)
REMARK    1  A    between atoms: C1_2  and  C2_3 
REMARK       I    between atoms: C1_2  and  N1_8 
REMARK    2  A    between atoms: C8_11  and  C9_12 
REMARK    3  A    between atoms: C9_12  and  O3_13 
REMARK    4  A    between atoms: O3_13  and  C10_14 
REMARK    5  A    between atoms: C13_17  and  N2_18 
ROOT
HETATM    1  O1  UNL     1       4.430  -0.350   8.679  1.00  0.00    -0.270 OA
HETATM    2  C1  UNL     1       5.065  -1.422   9.019  1.00  0.00     0.250 C 
HETATM    3  N1  UNL     1       6.281  -1.751   8.382  1.00  0.00    -0.326 N 
HETATM    4  C6  UNL     1       7.077  -2.944   8.676  1.00  0.00     0.130 C 
HETATM    5  C7  UNL     1       8.231  -2.991   7.637  1.00  0.00     0.055 C 
HETATM    6  C8  UNL     1       7.541  -2.820   6.326  1.00  0.00     0.213 C 
HETATM    7  N3  UNL     1       7.143  -1.468   6.126  1.00  0.00    -0.053 N 
ATOM      8  H31 UNL     1       6.387  -1.402   5.445  1.00  0.00     0.279 HD
ATOM      9  H32 UNL     1       7.858  -0.942   5.624  1.00  0.00     0.279 HD
HETATM   10  C19 UNL     1       6.792  -0.821   7.355  1.00  0.00     0.360 C 
ENDROOT
BRANCH   6  11
HETATM   11  C9  UNL     1       8.290  -3.411   5.165  1.00  0.00     0.201 C 
BRANCH  11  12
HETATM   12  O3  UNL     1       9.042  -4.532   5.508  1.00  0.00    -0.384 OA
BRANCH  12  13
HETATM   13  C10 UNL     1      10.242  -4.428   4.840  1.00  0.00     0.123 C 
HETATM   14  C11 UNL     1      11.388  -5.084   5.577  1.00  0.00     0.034 C 
HETATM   15  C12 UNL     1      12.574  -4.567   4.749  1.00  0.00     0.038 C 
HETATM   16  C13 UNL     1      12.155  -3.255   4.195  1.00  0.00     0.225 C 
HETATM   17  C18 UNL     1      10.742  -3.018   4.681  1.00  0.00     0.067 C 
BRANCH  16  18
HETATM   18  N2  UNL     1      13.035  -2.170   4.443  1.00  0.00     0.093 N 
HETATM   19  C14 UNL     1      12.598  -1.212   5.399  1.00  0.00     0.273 C 
HETATM   20  C15 UNL     1      13.576  -1.247   6.557  1.00  0.00     0.032 C 
HETATM   21  C16 UNL     1      14.615  -2.263   6.213  1.00  0.00     0.032 C 
HETATM   22  C17 UNL     1      14.343  -2.632   4.788  1.00  0.00     0.273 C 
ENDBRANCH  16  18
ENDBRANCH  12  13
ENDBRANCH  11  12
ENDBRANCH   6  11
BRANCH   2  23
HETATM   23  C2  UNL     1       4.439  -2.224  10.072  1.00  0.00     0.213 C 
HETATM   24  C3  UNL     1       4.780  -1.651  11.434  1.00  0.00     0.043 C 
HETATM   25  C4  UNL     1       3.651  -2.183  12.289  1.00  0.00     0.029 C 
HETATM   26  C5  UNL     1       2.706  -2.768  11.271  1.00  0.00     0.168 C 
HETATM   27  O2  UNL     1       3.058  -2.200  10.037  1.00  0.00    -0.376 OA
ENDBRANCH   2  23
TORSDOF 5
ENDMDL
MODEL 4
REMARK VINA RESULT: -6.916778845      2.277      2.969
REMARK  5 active torsions:
REMARK  status: ('A' for Active; 'I' for Inactive)
REMARK    1  A    between atoms: C1_2  and  C2_3 
REMARK       I    between atoms: C1_2  and  N1_8 
REMARK    2  A    between atoms: C8_11  and  C9_12 
REMARK    3  A    between atoms: C9_12  and  O3_13 
REMARK    4  A    between atoms: O3_13  and  C10_14 
REMARK    5  A    between atoms: C13_17  and  N2_18 
ROOT
HETATM    1  O1  UNL     1       5.626   0.403   7.866  1.00  0.00    -0.270 OA
HETATM    2  C1  UNL     1       5.131  -0.510   7.098  1.00  0.00     0.250 C 
HETATM    3  N1  UNL     1       5.863  -1.690   6.846  1.00  0.00    -0.326 N 
HETATM    4  C6  UNL     1       5.408  -2.782   5.984  1.00  0.00     0.130 C 
HETATM    5  C7  UNL     1       6.585  -3.788   5.859  1.00  0.00     0.055 C 
HETATM    6  C8  UNL     1       7.748  -2.934   5.483  1.00  0.00     0.213 C 
HETATM    7  N3  UNL     1       8.229  -2.196   6.602  1.00  0.00    -0.053 N 
ATOM      8  H31 UNL     1       8.755  -1.375   6.304  1.00  0.00     0.279 HD
ATOM      9  H32 UNL     1       8.973  -2.699   7.084  1.00  0.00     0.279 HD
HETATM   10  C19 UNL     1       7.176  -1.838   7.504  1.00  0.00     0.360 C 
ENDROOT
BRANCH   6  11
HETATM   11  C9  UNL     1       8.823  -3.670   4.734  1.00  0.00     0.201 C 
BRANCH  11  12
HETATM   12  O3  UNL     1      10.109  -3.368   5.177  1.00  0.00    -0.384 OA
BRANCH  12  13
HETATM   13  C10 UNL     1      10.752  -4.568   5.380  1.00  0.00     0.123 C 
HETATM   14  C11 UNL     1      12.157  -4.587   4.821  1.00  0.00     0.034 C 
HETATM   15  C12 UNL     1      12.480  -6.083   4.951  1.00  0.00     0.038 C 
HETATM   16  C13 UNL     1      11.185  -6.800   4.848  1.00  0.00     0.225 C 
HETATM   17  C18 UNL     1      10.122  -5.738   4.674  1.00  0.00     0.067 C 
BRANCH  16  18
HETATM   18  N2  UNL     1      11.125  -7.832   3.875  1.00  0.00     0.093 N 
HETATM   19  C14 UNL     1      12.308  -8.603   3.705  1.00  0.00     0.273 C 
HETATM   20  C15 UNL     1      11.979 -10.030   4.096  1.00  0.00     0.032 C 
HETATM   21  C16 UNL     1      10.538 -10.050   4.485  1.00  0.00     0.032 C 
HETATM   22  C17 UNL     1      10.013  -8.699   4.107  1.00  0.00     0.273 C 
ENDBRANCH  16  18
ENDBRANCH  12  13
ENDBRANCH  11  12
ENDBRANCH   6  11
BRANCH   2  23
HETATM   23  C2  UNL     1       3.806  -0.223   6.543  1.00  0.00     0.213 C 
HETATM   24  C3  UNL     1       3.381   1.184   6.914  1.00  0.00     0.043 C 
HETATM   25  C4  UNL     1       2.363   1.498   5.838  1.00  0.00     0.029 C 
HETATM   26  C5  UNL     1       2.526   0.347   4.878  1.00  0.00     0.168 C 
HETATM   27  O2  UNL     1       3.774  -0.227   5.161  1.00  0.00    -0.376 OA
ENDBRANCH   2  23
TORSDOF 5
ENDMDL
MODEL 5
REMARK VINA RESULT: -6.837515447      3.245      9.559
REMARK  5 active torsions:
REMARK  status: ('A' for Active; 'I' for Inactive)
REMARK    1  A    between atoms: C1_2  and  C2_3 
REMARK       I    between atoms: C1_2  and  N1_8 
REMARK    2  A    between atoms: C8_11  and  C9_12 
REMARK    3  A    between atoms: C9_12  and  O3_13 
REMARK    4  A    between atoms: O3_13  and  C10_14 
REMARK    5  A    between atoms: C13_17  and  N2_18 
ROOT
HETATM    1  O1  UNL     1       8.698  -3.467   3.772  1.00  0.00    -0.270 OA
HETATM    2  C1  UNL     1       9.030  -3.333   5.013  1.00  0.00     0.250 C 
HETATM    3  N1  UNL     1       8.058  -2.956   5.965  1.00  0.00    -0.326 N 
HETATM    4  C6  UNL     1       8.323  -2.762   7.391  1.00  0.00     0.130 C 
HETATM    5  C7  UNL     1       7.023  -2.193   8.025  1.00  0.00     0.055 C 
HETATM    6  C8  UNL     1       6.663  -1.050   7.139  1.00  0.00     0.213 C 
HETATM    7  N3  UNL     1       6.106  -1.506   5.909  1.00  0.00    -0.053 N 
ATOM      8  H31 UNL     1       6.191  -0.798   5.180  1.00  0.00     0.279 HD
ATOM      9  H32 UNL     1       5.090  -1.563   5.962  1.00  0.00     0.279 HD
HETATM   10  C19 UNL     1       6.675  -2.752   5.490  1.00  0.00     0.360 C 
ENDROOT
BRANCH   6  11
HETATM   11  C9  UNL     1       5.843   0.009   7.819  1.00  0.00     0.201 C 
BRANCH  11  12
HETATM   12  O3  UNL     1       5.124  -0.469   8.913  1.00  0.00    -0.384 OA
BRANCH  12  13
HETATM   13  C10 UNL     1       3.789  -0.331   8.604  1.00  0.00     0.123 C 
HETATM   14  C11 UNL     1       3.155  -1.620   8.131  1.00  0.00     0.034 C 
HETATM   15  C12 UNL     1       1.808  -1.088   7.621  1.00  0.00     0.038 C 
HETATM   16  C13 UNL     1       2.050   0.310   7.184  1.00  0.00     0.225 C 
HETATM   17  C18 UNL     1       3.512   0.593   7.449  1.00  0.00     0.067 C 
BRANCH  16  18
HETATM   18  N2  UNL     1       1.637   0.625   5.863  1.00  0.00     0.093 N 
HETATM   19  C14 UNL     1       0.460   1.415   5.744  1.00  0.00     0.273 C 
HETATM   20  C15 UNL     1       0.856   2.723   5.090  1.00  0.00     0.032 C 
HETATM   21  C16 UNL     1       2.323   2.644   4.819  1.00  0.00     0.032 C 
HETATM   22  C17 UNL     1       2.698   1.225   5.117  1.00  0.00     0.273 C 
ENDBRANCH  16  18
ENDBRANCH  12  13
ENDBRANCH  11  12
ENDBRANCH   6  11
BRANCH   2  23
HETATM   23  C2  UNL     1      10.436  -3.596   5.326  1.00  0.00     0.213 C 
HETATM   24  C3  UNL     1      10.780  -5.038   5.002  1.00  0.00     0.043 C 
HETATM   25  C4  UNL     1      12.281  -4.968   4.819  1.00  0.00     0.029 C 
HETATM   26  C5  UNL     1      12.550  -3.485   4.820  1.00  0.00     0.168 C 
HETATM   27  O2  UNL     1      11.320  -2.863   4.557  1.00  0.00    -0.376 OA
ENDBRANCH   2  23
TORSDOF 5
ENDMDL
