MODEL 1
REMARK VINA RESULT: -6.072256102      0.000      0.000
REMARK  4 active torsions:
REMARK  status: ('A' for Active; 'I' for Inactive)
REMARK    1  A    between atoms: C5_8  and  N3_9 
REMARK    2  A    between atoms: N3_9  and  C6_11 
REMARK    3  A    between atoms: C8_13  and  C9_14 
REMARK    4  A    between atoms: C9_14  and  N4_15 
ROOT
HETATM    1  C6  UNL     1     -19.844  24.842  -0.484  1.00  0.00     0.137 A 
HETATM    2  C7  UNL     1     -19.844  23.945   0.539  1.00  0.00     0.080 A 
HETATM    3  C8  UNL     1     -20.404  24.533   1.641  1.00  0.00     0.070 A 
HETATM    4  N5  UNL     1     -20.740  25.777   1.282  1.00  0.00    -0.300 N 
ATOM      5  H5  UNL     1     -21.182  26.473   1.883  1.00  0.00     0.186 HD
HETATM    6  N6  UNL     1     -20.406  25.953   0.022  1.00  0.00    -0.285 N 
ATOM      7  H6  UNL     1     -20.553  26.816  -0.501  1.00  0.00     0.188 HD
ENDROOT
BRANCH   1   8
HETATM    8  N3  UNL     1     -19.384  24.732  -1.817  1.00  0.00    -0.175 N 
ATOM      9  H3  UNL     1     -19.507  23.836  -2.288  1.00  0.00     0.186 HD
BRANCH   8  10
HETATM   10  C5  UNL     1     -18.826  25.672  -2.471  1.00  0.00     0.685 A 
HETATM   11  N1  UNL     1     -17.474  25.749  -2.419  1.00  0.00    -0.198 N 
HETATM   12  C1  UNL     1     -16.730  24.765  -1.627  1.00  0.00     0.174 C 
HETATM   13  C2  UNL     1     -16.788  26.706  -3.074  1.00  0.00     0.110 A 
HETATM   14  C3  UNL     1     -17.466  27.646  -3.828  1.00  0.00     0.035 A 
HETATM   15  C4  UNL     1     -18.844  27.571  -3.885  1.00  0.00     0.107 A 
HETATM   16  N2  UNL     1     -19.469  26.590  -3.206  1.00  0.00    -0.201 N 
ATOM     17  H2  UNL     1     -20.487  26.543  -3.254  1.00  0.00     0.183 HD
ENDBRANCH   8  10
ENDBRANCH   1   8
BRANCH   3  18
HETATM   18  C9  UNL     1     -20.619  23.933   3.003  1.00  0.00     0.306 C 
HETATM   19  S1  UNL     1     -20.969  22.183   2.794  1.00  0.00    -0.056 SA
BRANCH  18  20
HETATM   20  N4  UNL     1     -21.719  24.624   3.661  1.00  0.00    -0.060 N 
ATOM     21  H43 UNL     1     -21.546  25.625   3.757  1.00  0.00     0.276 HD
ATOM     22  H42 UNL     1     -22.550  24.677   3.072  1.00  0.00     0.276 HD
ATOM     23  H41 UNL     1     -21.908  24.176   4.558  1.00  0.00     0.276 HD
ENDBRANCH  18  20
ENDBRANCH   3  18
TORSDOF 4
ENDMDL
MODEL 2
REMARK VINA RESULT: -5.987633082      0.946      1.899
REMARK  4 active torsions:
REMARK  status: ('A' for Active; 'I' for Inactive)
REMARK    1  A    between atoms: C5_8  and  N3_9 
REMARK    2  A    between atoms: N3_9  and  C6_11 
REMARK    3  A    between atoms: C8_13  and  C9_14 
REMARK    4  A    between atoms: C9_14  and  N4_15 
ROOT
HETATM    1  C6  UNL     1     -19.650  25.251  -1.076  1.00  0.00     0.137 A 
HETATM    2  C7  UNL     1     -19.525  24.317  -0.093  1.00  0.00     0.080 A 
HETATM    3  C8  UNL     1     -20.189  24.758   1.020  1.00  0.00     0.070 A 
HETATM    4  N5  UNL     1     -20.711  25.949   0.708  1.00  0.00    -0.300 N 
ATOM      5  H5  UNL     1     -21.266  26.538   1.329  1.00  0.00     0.186 HD
HETATM    6  N6  UNL     1     -20.388  26.235  -0.534  1.00  0.00    -0.285 N 
ATOM      7  H6  UNL     1     -20.661  27.088  -1.022  1.00  0.00     0.188 HD
ENDROOT
BRANCH   1   8
HETATM    8  N3  UNL     1     -19.156  25.278  -2.401  1.00  0.00    -0.175 N 
ATOM      9  H3  UNL     1     -19.782  24.972  -3.145  1.00  0.00     0.186 HD
BRANCH   8  10
HETATM   10  C5  UNL     1     -17.986  25.657  -2.730  1.00  0.00     0.685 A 
HETATM   11  N1  UNL     1     -17.879  26.816  -3.427  1.00  0.00    -0.198 N 
HETATM   12  C1  UNL     1     -19.095  27.564  -3.761  1.00  0.00     0.174 C 
HETATM   13  C2  UNL     1     -16.688  27.304  -3.823  1.00  0.00     0.110 A 
HETATM   14  C3  UNL     1     -15.527  26.616  -3.520  1.00  0.00     0.035 A 
HETATM   15  C4  UNL     1     -15.629  25.436  -2.811  1.00  0.00     0.107 A 
HETATM   16  N2  UNL     1     -16.851  25.003  -2.444  1.00  0.00    -0.201 N 
ATOM     17  H2  UNL     1     -16.916  24.130  -1.921  1.00  0.00     0.183 HD
ENDBRANCH   8  10
ENDBRANCH   1   8
BRANCH   3  18
HETATM   18  C9  UNL     1     -20.329  24.068   2.348  1.00  0.00     0.306 C 
HETATM   19  S1  UNL     1     -20.632  22.323   2.042  1.00  0.00    -0.056 SA
BRANCH  18  20
HETATM   20  N4  UNL     1     -21.422  24.678   3.091  1.00  0.00    -0.060 N 
ATOM     21  H43 UNL     1     -21.101  25.422   3.711  1.00  0.00     0.276 HD
ATOM     22  H42 UNL     1     -22.029  25.240   2.494  1.00  0.00     0.276 HD
ATOM     23  H41 UNL     1     -21.935  23.952   3.591  1.00  0.00     0.276 HD
ENDBRANCH  18  20
ENDBRANCH   3  18
TORSDOF 4
ENDMDL
MODEL 3
REMARK VINA RESULT: -5.703732230      1.215      1.450
REMARK  4 active torsions:
REMARK  status: ('A' for Active; 'I' for Inactive)
REMARK    1  A    between atoms: C5_8  and  N3_9 
REMARK    2  A    between atoms: N3_9  and  C6_11 
REMARK    3  A    between atoms: C8_13  and  C9_14 
REMARK    4  A    between atoms: C9_14  and  N4_15 
ROOT
HETATM    1  C6  UNL     1     -19.398  25.070  -1.254  1.00  0.00     0.137 A 
HETATM    2  C7  UNL     1     -19.394  24.357  -0.095  1.00  0.00     0.080 A 
HETATM    3  C8  UNL     1     -20.176  25.005   0.823  1.00  0.00     0.070 A 
HETATM    4  N5  UNL     1     -20.648  26.101   0.218  1.00  0.00    -0.300 N 
ATOM      5  H5  UNL     1     -21.265  26.796   0.640  1.00  0.00     0.186 HD
HETATM    6  N6  UNL     1     -20.183  26.133  -1.011  1.00  0.00    -0.285 N 
ATOM      7  H6  UNL     1     -20.391  26.866  -1.690  1.00  0.00     0.188 HD
ENDROOT
BRANCH   1   8
HETATM    8  N3  UNL     1     -18.756  24.835  -2.492  1.00  0.00    -0.175 N 
ATOM      9  H3  UNL     1     -19.148  24.115  -3.099  1.00  0.00     0.186 HD
BRANCH   8  10
HETATM   10  C5  UNL     1     -17.724  25.457  -2.904  1.00  0.00     0.685 A 
HETATM   11  N1  UNL     1     -16.580  24.743  -3.041  1.00  0.00    -0.198 N 
HETATM   12  C1  UNL     1     -16.585  23.314  -2.714  1.00  0.00     0.174 C 
HETATM   13  C2  UNL     1     -15.433  25.307  -3.469  1.00  0.00     0.110 A 
HETATM   14  C3  UNL     1     -15.404  26.653  -3.783  1.00  0.00     0.035 A 
HETATM   15  C4  UNL     1     -16.566  27.385  -3.646  1.00  0.00     0.107 A 
HETATM   16  N2  UNL     1     -17.678  26.761  -3.213  1.00  0.00    -0.201 N 
ATOM     17  H2  UNL     1     -18.532  27.310  -3.115  1.00  0.00     0.183 HD
ENDBRANCH   8  10
ENDBRANCH   1   8
BRANCH   3  18
HETATM   18  C9  UNL     1     -20.473  24.597   2.239  1.00  0.00     0.306 C 
HETATM   19  S1  UNL     1     -20.709  22.816   2.270  1.00  0.00    -0.056 SA
BRANCH  18  20
HETATM   20  N4  UNL     1     -21.659  25.303   2.701  1.00  0.00    -0.060 N 
ATOM     21  H43 UNL     1     -22.463  24.683   2.804  1.00  0.00     0.276 HD
ATOM     22  H42 UNL     1     -21.580  25.598   3.674  1.00  0.00     0.276 HD
ATOM     23  H41 UNL     1     -21.851  26.084   2.074  1.00  0.00     0.276 HD
ENDBRANCH  18  20
ENDBRANCH   3  18
TORSDOF 4
ENDMDL
MODEL 4
REMARK VINA RESULT: -5.675660763      4.614      6.787
REMARK  4 active torsions:
REMARK  status: ('A' for Active; 'I' for Inactive)
REMARK    1  A    between atoms: C5_8  and  N3_9 
REMARK    2  A    between atoms: N3_9  and  C6_11 
REMARK    3  A    between atoms: C8_13  and  C9_14 
REMARK    4  A    between atoms: C9_14  and  N4_15 
ROOT
HETATM    1  C6  UNL     1     -15.205  26.328  -4.022  1.00  0.00     0.137 A 
HETATM    2  C7  UNL     1     -16.149  27.308  -4.050  1.00  0.00     0.080 A 
HETATM    3  C8  UNL     1     -17.328  26.797  -3.577  1.00  0.00     0.070 A 
HETATM    4  N5  UNL     1     -17.093  25.518  -3.264  1.00  0.00    -0.300 N 
ATOM      5  H5  UNL     1     -17.775  24.862  -2.883  1.00  0.00     0.186 HD
HETATM    6  N6  UNL     1     -15.834  25.247  -3.530  1.00  0.00    -0.285 N 
ATOM      7  H6  UNL     1     -15.393  24.339  -3.383  1.00  0.00     0.188 HD
ENDROOT
BRANCH   1   8
HETATM    8  N3  UNL     1     -13.842  26.340  -4.399  1.00  0.00    -0.175 N 
ATOM      9  H3  UNL     1     -13.182  26.803  -3.775  1.00  0.00     0.186 HD
BRANCH   8  10
HETATM   10  C5  UNL     1     -13.380  25.813  -5.463  1.00  0.00     0.685 A 
HETATM   11  N1  UNL     1     -12.787  26.638  -6.359  1.00  0.00    -0.198 N 
HETATM   12  C1  UNL     1     -12.707  28.073  -6.068  1.00  0.00     0.174 C 
HETATM   13  C2  UNL     1     -12.266  26.181  -7.515  1.00  0.00     0.110 A 
HETATM   14  C3  UNL     1     -12.330  24.832  -7.813  1.00  0.00     0.035 A 
HETATM   15  C4  UNL     1     -12.932  23.987  -6.903  1.00  0.00     0.107 A 
HETATM   16  N2  UNL     1     -13.433  24.508  -5.766  1.00  0.00    -0.201 N 
ATOM     17  H2  UNL     1     -13.876  23.875  -5.100  1.00  0.00     0.183 HD
ENDBRANCH   8  10
ENDBRANCH   1   8
BRANCH   3  18
HETATM   18  C9  UNL     1     -18.646  27.502  -3.421  1.00  0.00     0.306 C 
HETATM   19  S1  UNL     1     -19.513  26.766  -2.029  1.00  0.00    -0.056 SA
BRANCH  18  20
HETATM   20  N4  UNL     1     -19.408  27.371  -4.655  1.00  0.00    -0.060 N 
ATOM     21  H43 UNL     1     -19.869  28.241  -4.920  1.00  0.00     0.276 HD
ATOM     22  H42 UNL     1     -18.806  27.273  -5.472  1.00  0.00     0.276 HD
ATOM     23  H41 UNL     1     -20.065  26.596  -4.563  1.00  0.00     0.276 HD
ENDBRANCH  18  20
ENDBRANCH   3  18
TORSDOF 4
ENDMDL
MODEL 5
REMARK VINA RESULT: -5.617642062      1.293      2.146
REMARK  4 active torsions:
REMARK  status: ('A' for Active; 'I' for Inactive)
REMARK    1  A    between atoms: C5_8  and  N3_9 
REMARK    2  A    between atoms: N3_9  and  C6_11 
REMARK    3  A    between atoms: C8_13  and  C9_14 
REMARK    4  A    between atoms: C9_14  and  N4_15 
ROOT
HETATM    1  C6  UNL     1     -19.466  24.641  -1.071  1.00  0.00     0.137 A 
HETATM    2  C7  UNL     1     -20.052  25.257  -0.008  1.00  0.00     0.080 A 
HETATM    3  C8  UNL     1     -20.045  24.399   1.058  1.00  0.00     0.070 A 
HETATM    4  N5  UNL     1     -19.456  23.273   0.639  1.00  0.00    -0.300 N 
ATOM      5  H5  UNL     1     -19.298  22.437   1.203  1.00  0.00     0.186 HD
HETATM    6  N6  UNL     1     -19.116  23.423  -0.622  1.00  0.00    -0.285 N 
ATOM      7  H6  UNL     1     -18.649  22.712  -1.185  1.00  0.00     0.188 HD
ENDROOT
BRANCH   1   8
HETATM    8  N3  UNL     1     -19.227  25.090  -2.390  1.00  0.00    -0.175 N 
ATOM      9  H3  UNL     1     -20.008  25.070  -3.045  1.00  0.00     0.186 HD
BRANCH   8  10
HETATM   10  C5  UNL     1     -18.106  25.516  -2.819  1.00  0.00     0.685 A 
HETATM   11  N1  UNL     1     -18.051  26.803  -3.243  1.00  0.00    -0.198 N 
HETATM   12  C1  UNL     1     -19.261  27.627  -3.188  1.00  0.00     0.174 C 
HETATM   13  C2  UNL     1     -16.914  27.351  -3.714  1.00  0.00     0.110 A 
HETATM   14  C3  UNL     1     -15.758  26.593  -3.775  1.00  0.00     0.035 A 
HETATM   15  C4  UNL     1     -15.809  25.282  -3.345  1.00  0.00     0.107 A 
HETATM   16  N2  UNL     1     -16.977  24.796  -2.885  1.00  0.00    -0.201 N 
ATOM     17  H2  UNL     1     -17.005  23.826  -2.569  1.00  0.00     0.183 HD
ENDBRANCH   8  10
ENDBRANCH   1   8
BRANCH   3  18
HETATM   18  C9  UNL     1     -20.580  24.637   2.442  1.00  0.00     0.306 C 
HETATM   19  S1  UNL     1     -21.165  23.068   3.093  1.00  0.00    -0.056 SA
BRANCH  18  20
HETATM   20  N4  UNL     1     -21.650  25.622   2.379  1.00  0.00    -0.060 N 
ATOM     21  H43 UNL     1     -21.531  26.274   1.603  1.00  0.00     0.276 HD
ATOM     22  H42 UNL     1     -22.537  25.212   2.086  1.00  0.00     0.276 HD
ATOM     23  H41 UNL     1     -21.722  26.099   3.278  1.00  0.00     0.276 HD
ENDBRANCH  18  20
ENDBRANCH   3  18
TORSDOF 4
ENDMDL
