MODEL 1
REMARK VINA RESULT: -6.929206755      0.000      0.000
REMARK  4 active torsions:
REMARK  status: ('A' for Active; 'I' for Inactive)
REMARK    1  A    between atoms: N1_2  and  C2_4 
REMARK    2  A    between atoms: C4_11  and  N4_12 
REMARK    3  A    between atoms: N4_12  and  C5_14 
REMARK    4  A    between atoms: C9_18  and  C10_19 
ROOT
HETATM    1  C2  UNL     1      85.857  98.440  22.715  1.00  0.00     0.696 A 
HETATM    2  N2  UNL     1      86.423  99.396  21.997  1.00  0.00    -0.140 N 
ATOM      3  H2  UNL     1      87.208  99.922  22.382  1.00  0.00     0.189 HD
HETATM    4  C3  UNL     1      85.970  99.676  20.768  1.00  0.00     0.352 A 
HETATM    5  O1  UNL     1      86.526 100.592  20.104  1.00  0.00    -0.246 OA
HETATM    6  N3  UNL     1      84.922  98.969  20.262  1.00  0.00    -0.140 N 
ATOM      7  H3  UNL     1      84.578  99.184  19.326  1.00  0.00     0.189 HD
HETATM    8  C4  UNL     1      84.333  97.997  20.971  1.00  0.00     0.701 A 
HETATM    9  N5  UNL     1      84.808  97.738  22.199  1.00  0.00    -0.022 N 
ATOM     10  H5  UNL     1      84.377  97.002  22.757  1.00  0.00     0.203 HD
ENDROOT
BRANCH   8  11
HETATM   11  N4  UNL     1      83.349  97.312  20.529  1.00  0.00    -0.191 N 
ATOM     12  H4  UNL     1      82.627  97.041  21.196  1.00  0.00     0.184 HD
BRANCH  11  13
HETATM   13  C5  UNL     1      83.184  96.902  19.189  1.00  0.00     0.050 A 
HETATM   14  C6  UNL     1      81.990  97.043  18.512  1.00  0.00     0.030 A 
HETATM   15  C7  UNL     1      81.799  96.654  17.209  1.00  0.00     0.003 A 
HETATM   16  C8  UNL     1      82.861  96.083  16.522  1.00  0.00     0.014 A 
HETATM   17  C9  UNL     1      84.078  95.925  17.171  1.00  0.00     0.004 A 
HETATM   18  C11 UNL     1      84.233  96.327  18.480  1.00  0.00     0.044 A 
BRANCH  17  19
HETATM   19  C10 UNL     1      85.186  95.324  16.439  1.00  0.00     0.270 C 
HETATM   20  O2  UNL     1      86.171  96.023  16.089  1.00  0.00    -0.301 OA
ENDBRANCH  17  19
ENDBRANCH  11  13
ENDBRANCH   8  11
BRANCH   1  21
HETATM   21  N1  UNL     1      86.272  98.144  23.910  1.00  0.00    -0.230 N 
HETATM   22  C1  UNL     1      85.477  97.300  24.751  1.00  0.00     0.165 C 
ATOM     23  H1  UNL     1      87.162  98.510  24.247  1.00  0.00     0.177 HD
ENDBRANCH   1  21
TORSDOF 4
ENDMDL
MODEL 2
REMARK VINA RESULT: -6.750673233      3.412      4.975
REMARK  4 active torsions:
REMARK  status: ('A' for Active; 'I' for Inactive)
REMARK    1  A    between atoms: N1_2  and  C2_4 
REMARK    2  A    between atoms: C4_11  and  N4_12 
REMARK    3  A    between atoms: N4_12  and  C5_14 
REMARK    4  A    between atoms: C9_18  and  C10_19 
ROOT
HETATM    1  C2  UNL     1      84.566  96.667  19.114  1.00  0.00     0.696 A 
HETATM    2  N2  UNL     1      85.621  96.978  18.378  1.00  0.00    -0.140 N 
ATOM      3  H2  UNL     1      86.261  97.708  18.691  1.00  0.00     0.189 HD
HETATM    4  C3  UNL     1      85.853  96.337  17.225  1.00  0.00     0.352 A 
HETATM    5  O1  UNL     1      86.864  96.651  16.543  1.00  0.00    -0.246 OA
HETATM    6  N3  UNL     1      84.994  95.363  16.814  1.00  0.00    -0.140 N 
ATOM      7  H3  UNL     1      85.172  94.877  15.935  1.00  0.00     0.189 HD
HETATM    8  C4  UNL     1      83.919  95.032  17.543  1.00  0.00     0.701 A 
HETATM    9  N5  UNL     1      83.713  95.691  18.693  1.00  0.00    -0.022 N 
ATOM     10  H5  UNL     1      82.902  95.456  19.265  1.00  0.00     0.203 HD
ENDROOT
BRANCH   8  11
HETATM   11  N4  UNL     1      83.093  94.124  17.190  1.00  0.00    -0.191 N 
ATOM     12  H4  UNL     1      82.594  93.629  17.929  1.00  0.00     0.184 HD
BRANCH  11  13
HETATM   13  C5  UNL     1      82.817  93.753  15.857  1.00  0.00     0.050 A 
HETATM   14  C6  UNL     1      83.611  92.870  15.154  1.00  0.00     0.030 A 
HETATM   15  C7  UNL     1      83.368  92.491  13.857  1.00  0.00     0.003 A 
HETATM   16  C8  UNL     1      82.264  93.019  13.204  1.00  0.00     0.014 A 
HETATM   17  C9  UNL     1      81.441  93.910  13.880  1.00  0.00     0.004 A 
HETATM   18  C11 UNL     1      81.716  94.268  15.182  1.00  0.00     0.044 A 
BRANCH  17  19
HETATM   19  C10 UNL     1      80.284  94.457  13.183  1.00  0.00     0.270 C 
HETATM   20  O2  UNL     1      80.383  94.836  11.988  1.00  0.00    -0.301 OA
ENDBRANCH  17  19
ENDBRANCH  11  13
ENDBRANCH   8  11
BRANCH   1  21
HETATM   21  N1  UNL     1      84.313  97.270  20.237  1.00  0.00    -0.230 N 
HETATM   22  C1  UNL     1      85.052  98.442  20.597  1.00  0.00     0.165 C 
ATOM     23  H1  UNL     1      83.591  96.909  20.860  1.00  0.00     0.177 HD
ENDBRANCH   1  21
TORSDOF 4
ENDMDL
MODEL 3
REMARK VINA RESULT: -6.648344907      1.583      2.490
REMARK  4 active torsions:
REMARK  status: ('A' for Active; 'I' for Inactive)
REMARK    1  A    between atoms: N1_2  and  C2_4 
REMARK    2  A    between atoms: C4_11  and  N4_12 
REMARK    3  A    between atoms: N4_12  and  C5_14 
REMARK    4  A    between atoms: C9_18  and  C10_19 
ROOT
HETATM    1  C2  UNL     1      85.824  99.410  20.840  1.00  0.00     0.696 A 
HETATM    2  N2  UNL     1      86.281  98.986  22.007  1.00  0.00    -0.140 N 
ATOM      3  H2  UNL     1      87.090  99.440  22.431  1.00  0.00     0.189 HD
HETATM    4  C3  UNL     1      85.685  97.963  22.635  1.00  0.00     0.352 A 
HETATM    5  O1  UNL     1      86.140  97.578  23.744  1.00  0.00    -0.246 OA
HETATM    6  N3  UNL     1      84.606  97.362  22.062  1.00  0.00    -0.140 N 
ATOM      7  H3  UNL     1      84.154  96.583  22.541  1.00  0.00     0.189 HD
HETATM    8  C4  UNL     1      84.126  97.775  20.881  1.00  0.00     0.701 A 
HETATM    9  N5  UNL     1      84.742  98.802  20.276  1.00  0.00    -0.022 N 
ATOM     10  H5  UNL     1      84.395  99.133  19.377  1.00  0.00     0.203 HD
ENDROOT
BRANCH   8  11
HETATM   11  N4  UNL     1      83.115  97.237  20.315  1.00  0.00    -0.191 N 
ATOM     12  H4  UNL     1      82.190  97.507  20.647  1.00  0.00     0.184 HD
BRANCH  11  13
HETATM   13  C5  UNL     1      83.180  96.296  19.265  1.00  0.00     0.050 A 
HETATM   14  C6  UNL     1      82.259  95.279  19.122  1.00  0.00     0.030 A 
HETATM   15  C7  UNL     1      82.297  94.349  18.112  1.00  0.00     0.003 A 
HETATM   16  C8  UNL     1      83.316  94.426  17.174  1.00  0.00     0.014 A 
HETATM   17  C9  UNL     1      84.261  95.437  17.284  1.00  0.00     0.004 A 
HETATM   18  C11 UNL     1      84.192  96.353  18.313  1.00  0.00     0.044 A 
BRANCH  17  19
HETATM   19  C10 UNL     1      85.327  95.507  16.293  1.00  0.00     0.270 C 
HETATM   20  O2  UNL     1      86.294  96.295  16.454  1.00  0.00    -0.301 OA
ENDBRANCH  17  19
ENDBRANCH  11  13
ENDBRANCH   8  11
BRANCH   1  21
HETATM   21  N1  UNL     1      86.379 100.399  20.206  1.00  0.00    -0.230 N 
HETATM   22  C1  UNL     1      87.415 101.158  20.840  1.00  0.00     0.165 C 
ATOM     23  H1  UNL     1      86.078 100.634  19.261  1.00  0.00     0.177 HD
ENDBRANCH   1  21
TORSDOF 4
ENDMDL
MODEL 4
REMARK VINA RESULT: -6.527091031      3.217      6.012
REMARK  4 active torsions:
REMARK  status: ('A' for Active; 'I' for Inactive)
REMARK    1  A    between atoms: N1_2  and  C2_4 
REMARK    2  A    between atoms: C4_11  and  N4_12 
REMARK    3  A    between atoms: N4_12  and  C5_14 
REMARK    4  A    between atoms: C9_18  and  C10_19 
ROOT
HETATM    1  C2  UNL     1      84.278  94.499  16.215  1.00  0.00     0.696 A 
HETATM    2  N2  UNL     1      85.380  95.179  15.948  1.00  0.00    -0.140 N 
ATOM      3  H2  UNL     1      85.881  95.011  15.075  1.00  0.00     0.189 HD
HETATM    4  C3  UNL     1      85.841  96.089  16.817  1.00  0.00     0.352 A 
HETATM    5  O1  UNL     1      86.893  96.723  16.539  1.00  0.00    -0.246 OA
HETATM    6  N3  UNL     1      85.166  96.307  17.979  1.00  0.00    -0.140 N 
ATOM      7  H3  UNL     1      85.518  97.000  18.641  1.00  0.00     0.189 HD
HETATM    8  C4  UNL     1      84.047  95.630  18.271  1.00  0.00     0.701 A 
HETATM    9  N5  UNL     1      83.610  94.726  17.381  1.00  0.00    -0.022 N 
ATOM     10  H5  UNL     1      82.761  94.198  17.582  1.00  0.00     0.203 HD
ENDROOT
BRANCH   8  11
HETATM   11  N4  UNL     1      83.387  95.809  19.350  1.00  0.00    -0.191 N 
ATOM     12  H4  UNL     1      83.232  94.997  19.948  1.00  0.00     0.184 HD
BRANCH  11  13
HETATM   13  C5  UNL     1      82.855  97.043  19.779  1.00  0.00     0.050 A 
HETATM   14  C6  UNL     1      83.291  97.681  20.923  1.00  0.00     0.030 A 
HETATM   15  C7  UNL     1      82.793  98.882  21.365  1.00  0.00     0.003 A 
HETATM   16  C8  UNL     1      81.792  99.500  20.629  1.00  0.00     0.014 A 
HETATM   17  C9  UNL     1      81.328  98.888  19.472  1.00  0.00     0.004 A 
HETATM   18  C11 UNL     1      81.852  97.682  19.059  1.00  0.00     0.044 A 
BRANCH  17  19
HETATM   19  C10 UNL     1      80.277  99.547  18.708  1.00  0.00     0.270 C 
HETATM   20  O2  UNL     1      80.532 100.061  17.588  1.00  0.00    -0.301 OA
ENDBRANCH  17  19
ENDBRANCH  11  13
ENDBRANCH   8  11
BRANCH   1  21
HETATM   21  N1  UNL     1      83.805  93.611  15.393  1.00  0.00    -0.230 N 
HETATM   22  C1  UNL     1      84.517  93.306  14.189  1.00  0.00     0.165 C 
ATOM     23  H1  UNL     1      82.930  93.132  15.605  1.00  0.00     0.177 HD
ENDBRANCH   1  21
TORSDOF 4
ENDMDL
MODEL 5
REMARK VINA RESULT: -6.524974788      2.470      3.444
REMARK  4 active torsions:
REMARK  status: ('A' for Active; 'I' for Inactive)
REMARK    1  A    between atoms: N1_2  and  C2_4 
REMARK    2  A    between atoms: C4_11  and  N4_12 
REMARK    3  A    between atoms: N4_12  and  C5_14 
REMARK    4  A    between atoms: C9_18  and  C10_19 
ROOT
HETATM    1  C2  UNL     1      84.835  98.150  20.160  1.00  0.00     0.696 A 
HETATM    2  N2  UNL     1      83.585  98.583  20.122  1.00  0.00    -0.140 N 
ATOM      3  H2  UNL     1      83.312  99.395  20.677  1.00  0.00     0.189 HD
HETATM    4  C3  UNL     1      82.676  97.961  19.359  1.00  0.00     0.352 A 
HETATM    5  O1  UNL     1      81.494  98.393  19.340  1.00  0.00    -0.246 OA
HETATM    6  N3  UNL     1      83.049  96.879  18.621  1.00  0.00    -0.140 N 
ATOM      7  H3  UNL     1      82.356  96.406  18.041  1.00  0.00     0.189 HD
HETATM    8  C4  UNL     1      84.308  96.423  18.644  1.00  0.00     0.701 A 
HETATM    9  N5  UNL     1      85.196  97.066  19.417  1.00  0.00    -0.022 N 
ATOM     10  H5  UNL     1      86.160  96.737  19.450  1.00  0.00     0.203 HD
ENDROOT
BRANCH   8  11
HETATM   11  N4  UNL     1      84.694  95.411  17.964  1.00  0.00    -0.191 N 
ATOM     12  H4  UNL     1      85.394  94.800  18.386  1.00  0.00     0.184 HD
BRANCH  11  13
HETATM   13  C5  UNL     1      84.227  95.074  16.676  1.00  0.00     0.050 A 
HETATM   14  C6  UNL     1      82.886  95.078  16.349  1.00  0.00     0.030 A 
HETATM   15  C7  UNL     1      82.402  94.755  15.106  1.00  0.00     0.003 A 
HETATM   16  C8  UNL     1      83.302  94.402  14.111  1.00  0.00     0.014 A 
HETATM   17  C9  UNL     1      84.660  94.387  14.403  1.00  0.00     0.004 A 
HETATM   18  C11 UNL     1      85.110  94.717  15.663  1.00  0.00     0.044 A 
BRANCH  17  19
HETATM   19  C10 UNL     1      85.595  94.015  13.349  1.00  0.00     0.270 C 
HETATM   20  O2  UNL     1      85.220  93.978  12.150  1.00  0.00    -0.301 OA
ENDBRANCH  17  19
ENDBRANCH  11  13
ENDBRANCH   8  11
BRANCH   1  21
HETATM   21  N1  UNL     1      85.739  98.730  20.889  1.00  0.00    -0.230 N 
HETATM   22  C1  UNL     1      85.880  98.370  22.268  1.00  0.00     0.165 C 
ATOM     23  H1  UNL     1      86.346  99.441  20.482  1.00  0.00     0.177 HD
ENDBRANCH   1  21
TORSDOF 4
ENDMDL
