MODEL 1
REMARK VINA RESULT: -6.674481899      0.000      0.000
REMARK  4 active torsions:
REMARK  status: ('A' for Active; 'I' for Inactive)
REMARK    1  A    between atoms: C5_8  and  N3_9 
REMARK    2  A    between atoms: N3_9  and  C6_11 
REMARK    3  A    between atoms: C11_16  and  S1_17 
REMARK    4  A    between atoms: S1_17  and  N4_18 
ROOT
HETATM    1  C6  UNL     1       4.710  -7.134 -40.863  1.00  0.00     0.056 A 
HETATM    2  C7  UNL     1       4.552  -8.037 -41.901  1.00  0.00     0.031 A 
HETATM    3  C8  UNL     1       4.051  -7.657 -43.121  1.00  0.00     0.002 A 
HETATM    4  C9  UNL     1       3.687  -6.347 -43.343  1.00  0.00     0.002 A 
HETATM    5  C10 UNL     1       3.834  -5.427 -42.331  1.00  0.00     0.027 A 
HETATM    6  C11 UNL     1       4.343  -5.825 -41.095  1.00  0.00     0.105 A 
ENDROOT
BRANCH   1   7
HETATM    7  N3  UNL     1       5.222  -7.538 -39.667  1.00  0.00    -0.353 N 
ATOM      8  H3  UNL     1       5.968  -6.921 -39.345  1.00  0.00     0.166 HD
BRANCH   7   9
HETATM    9  C5  UNL     1       5.009  -8.478 -38.857  1.00  0.00     0.059 A 
HETATM   10  C1  UNL     1       3.968  -8.448 -37.969  1.00  0.00     0.088 A 
HETATM   11  N1  UNL     1       3.037  -7.384 -37.845  1.00  0.00    -0.099 NA
HETATM   12  C2  UNL     1       3.752  -9.512 -37.084  1.00  0.00     0.116 A 
HETATM   13  N2  UNL     1       4.564 -10.581 -37.090  1.00  0.00    -0.373 N 
HETATM   14  C3  UNL     1       5.587 -10.648 -37.937  1.00  0.00     0.090 A 
ATOM     15  H2  UNL     1       4.395 -11.349 -36.440  1.00  0.00     0.164 HD
HETATM   16  C4  UNL     1       5.816  -9.623 -38.810  1.00  0.00     0.048 A 
ENDBRANCH   7   9
ENDBRANCH   1   7
BRANCH   6  17
HETATM   17  S1  UNL     1       4.501  -4.592 -39.875  1.00  0.00     0.259 S 
HETATM   18  O1  UNL     1       5.565  -4.876 -38.864  1.00  0.00    -0.201 OA
HETATM   19  O2  UNL     1       4.748  -3.289 -40.592  1.00  0.00    -0.201 OA
BRANCH  17  20
HETATM   20  N4  UNL     1       3.026  -4.405 -39.000  1.00  0.00    -0.324 N 
ATOM     21  H42 UNL     1       2.107  -4.374 -39.439  1.00  0.00     0.169 HD
ATOM     22  H41 UNL     1       3.207  -4.332 -37.999  1.00  0.00     0.169 HD
ENDBRANCH  17  20
ENDBRANCH   6  17
TORSDOF 4
ENDMDL
MODEL 2
REMARK VINA RESULT: -6.660102606      2.937      5.567
REMARK  4 active torsions:
REMARK  status: ('A' for Active; 'I' for Inactive)
REMARK    1  A    between atoms: C5_8  and  N3_9 
REMARK    2  A    between atoms: N3_9  and  C6_11 
REMARK    3  A    between atoms: C11_16  and  S1_17 
REMARK    4  A    between atoms: S1_17  and  N4_18 
ROOT
HETATM    1  C6  UNL     1       4.321  -7.139 -40.540  1.00  0.00     0.056 A 
HETATM    2  C7  UNL     1       5.688  -7.357 -40.585  1.00  0.00     0.031 A 
HETATM    3  C8  UNL     1       6.231  -8.598 -40.364  1.00  0.00     0.002 A 
HETATM    4  C9  UNL     1       5.415  -9.673 -40.087  1.00  0.00     0.002 A 
HETATM    5  C10 UNL     1       4.052  -9.488 -40.036  1.00  0.00     0.027 A 
HETATM    6  C11 UNL     1       3.511  -8.222 -40.262  1.00  0.00     0.105 A 
ENDROOT
BRANCH   1   7
HETATM    7  N3  UNL     1       3.809  -5.899 -40.775  1.00  0.00    -0.353 N 
ATOM      8  H3  UNL     1       3.096  -5.646 -40.092  1.00  0.00     0.166 HD
BRANCH   7   9
HETATM    9  C5  UNL     1       3.993  -4.985 -41.620  1.00  0.00     0.059 A 
HETATM   10  C1  UNL     1       4.677  -3.839 -41.313  1.00  0.00     0.088 A 
HETATM   11  N1  UNL     1       5.234  -3.543 -40.042  1.00  0.00    -0.099 NA
HETATM   12  C2  UNL     1       4.871  -2.842 -42.278  1.00  0.00     0.116 A 
HETATM   13  N2  UNL     1       4.389  -2.992 -43.522  1.00  0.00    -0.373 N 
HETATM   14  C3  UNL     1       3.719  -4.089 -43.859  1.00  0.00     0.090 A 
ATOM     15  H2  UNL     1       4.538  -2.257 -44.214  1.00  0.00     0.164 HD
HETATM   16  C4  UNL     1       3.519  -5.076 -42.936  1.00  0.00     0.048 A 
ENDBRANCH   7   9
ENDBRANCH   1   7
BRANCH   6  17
HETATM   17  S1  UNL     1       1.777  -8.081 -40.186  1.00  0.00     0.259 S 
HETATM   18  O1  UNL     1       1.293  -7.136 -39.135  1.00  0.00    -0.201 OA
HETATM   19  O2  UNL     1       1.306  -7.676 -41.559  1.00  0.00    -0.201 OA
BRANCH  17  20
HETATM   20  N4  UNL     1       1.054  -9.610 -39.846  1.00  0.00    -0.324 N 
ATOM     21  H42 UNL     1       0.507  -9.804 -39.007  1.00  0.00     0.169 HD
ATOM     22  H41 UNL     1       1.250 -10.277 -40.592  1.00  0.00     0.169 HD
ENDBRANCH  17  20
ENDBRANCH   6  17
TORSDOF 4
ENDMDL
MODEL 3
REMARK VINA RESULT: -6.658119761      1.367      1.597
REMARK  4 active torsions:
REMARK  status: ('A' for Active; 'I' for Inactive)
REMARK    1  A    between atoms: C5_8  and  N3_9 
REMARK    2  A    between atoms: N3_9  and  C6_11 
REMARK    3  A    between atoms: C11_16  and  S1_17 
REMARK    4  A    between atoms: S1_17  and  N4_18 
ROOT
HETATM    1  C6  UNL     1       4.818  -5.876 -41.671  1.00  0.00     0.056 A 
HETATM    2  C7  UNL     1       4.887  -6.531 -42.889  1.00  0.00     0.031 A 
HETATM    3  C8  UNL     1       4.319  -6.011 -44.025  1.00  0.00     0.002 A 
HETATM    4  C9  UNL     1       3.655  -4.804 -43.978  1.00  0.00     0.002 A 
HETATM    5  C10 UNL     1       3.571  -4.129 -42.782  1.00  0.00     0.027 A 
HETATM    6  C11 UNL     1       4.151  -4.668 -41.634  1.00  0.00     0.105 A 
ENDROOT
BRANCH   1   7
HETATM    7  N3  UNL     1       5.401  -6.411 -40.563  1.00  0.00    -0.353 N 
ATOM      8  H3  UNL     1       6.090  -5.780 -40.154  1.00  0.00     0.166 HD
BRANCH   7   9
HETATM    9  C5  UNL     1       5.307  -7.485 -39.914  1.00  0.00     0.059 A 
HETATM   10  C1  UNL     1       5.031  -7.502 -38.573  1.00  0.00     0.088 A 
HETATM   11  N1  UNL     1       4.835  -6.347 -37.771  1.00  0.00    -0.099 NA
HETATM   12  C2  UNL     1       4.926  -8.714 -37.880  1.00  0.00     0.116 A 
HETATM   13  N2  UNL     1       5.095  -9.883 -38.518  1.00  0.00    -0.373 N 
HETATM   14  C3  UNL     1       5.365  -9.909 -39.819  1.00  0.00     0.090 A 
ATOM     15  H2  UNL     1       5.015 -10.758 -38.000  1.00  0.00     0.164 HD
HETATM   16  C4  UNL     1       5.471  -8.740 -40.517  1.00  0.00     0.048 A 
ENDBRANCH   7   9
ENDBRANCH   1   7
BRANCH   6  17
HETATM   17  S1  UNL     1       4.002  -3.742 -40.167  1.00  0.00     0.259 S 
HETATM   18  O1  UNL     1       5.294  -3.550 -39.439  1.00  0.00    -0.201 OA
HETATM   19  O2  UNL     1       3.372  -2.424 -40.538  1.00  0.00    -0.201 OA
BRANCH  17  20
HETATM   20  N4  UNL     1       2.924  -4.513 -39.063  1.00  0.00    -0.324 N 
ATOM     21  H42 UNL     1       2.555  -5.454 -39.195  1.00  0.00     0.169 HD
ATOM     22  H41 UNL     1       2.714  -3.900 -38.275  1.00  0.00     0.169 HD
ENDBRANCH  17  20
ENDBRANCH   6  17
TORSDOF 4
ENDMDL
MODEL 4
REMARK VINA RESULT: -6.594750828      2.764      5.497
REMARK  4 active torsions:
REMARK  status: ('A' for Active; 'I' for Inactive)
REMARK    1  A    between atoms: C5_8  and  N3_9 
REMARK    2  A    between atoms: N3_9  and  C6_11 
REMARK    3  A    between atoms: C11_16  and  S1_17 
REMARK    4  A    between atoms: S1_17  and  N4_18 
ROOT
HETATM    1  C6  UNL     1       4.130  -6.124 -41.400  1.00  0.00     0.056 A 
HETATM    2  C7  UNL     1       3.408  -6.605 -42.480  1.00  0.00     0.031 A 
HETATM    3  C8  UNL     1       2.360  -7.476 -42.320  1.00  0.00     0.002 A 
HETATM    4  C9  UNL     1       1.997  -7.901 -41.061  1.00  0.00     0.002 A 
HETATM    5  C10 UNL     1       2.695  -7.440 -39.968  1.00  0.00     0.027 A 
HETATM    6  C11 UNL     1       3.759  -6.555 -40.142  1.00  0.00     0.105 A 
ENDROOT
BRANCH   1   7
HETATM    7  N3  UNL     1       5.158  -5.250 -41.588  1.00  0.00    -0.353 N 
ATOM      8  H3  UNL     1       5.899  -5.382 -40.900  1.00  0.00     0.166 HD
BRANCH   7   9
HETATM    9  C5  UNL     1       5.427  -4.322 -42.394  1.00  0.00     0.059 A 
HETATM   10  C1  UNL     1       4.888  -3.070 -42.264  1.00  0.00     0.088 A 
HETATM   11  N1  UNL     1       3.981  -2.679 -41.245  1.00  0.00    -0.099 NA
HETATM   12  C2  UNL     1       5.211  -2.055 -43.174  1.00  0.00     0.116 A 
HETATM   13  N2  UNL     1       6.054  -2.292 -44.191  1.00  0.00    -0.373 N 
HETATM   14  C3  UNL     1       6.598  -3.495 -44.352  1.00  0.00     0.090 A 
ATOM     15  H2  UNL     1       6.281  -1.543 -44.846  1.00  0.00     0.164 HD
HETATM   16  C4  UNL     1       6.299  -4.500 -43.476  1.00  0.00     0.048 A 
ENDBRANCH   7   9
ENDBRANCH   1   7
BRANCH   6  17
HETATM   17  S1  UNL     1       4.580  -6.018 -38.704  1.00  0.00     0.259 S 
HETATM   18  O1  UNL     1       5.696  -5.059 -38.967  1.00  0.00    -0.201 OA
HETATM   19  O2  UNL     1       3.535  -5.421 -37.795  1.00  0.00    -0.201 OA
BRANCH  17  20
HETATM   20  N4  UNL     1       5.268  -7.354 -37.857  1.00  0.00    -0.324 N 
ATOM     21  H42 UNL     1       6.033  -7.268 -37.188  1.00  0.00     0.169 HD
ATOM     22  H41 UNL     1       4.806  -8.225 -38.119  1.00  0.00     0.169 HD
ENDBRANCH  17  20
ENDBRANCH   6  17
TORSDOF 4
ENDMDL
MODEL 5
REMARK VINA RESULT: -6.576866171      2.366      2.717
REMARK  4 active torsions:
REMARK  status: ('A' for Active; 'I' for Inactive)
REMARK    1  A    between atoms: C5_8  and  N3_9 
REMARK    2  A    between atoms: N3_9  and  C6_11 
REMARK    3  A    between atoms: C11_16  and  S1_17 
REMARK    4  A    between atoms: S1_17  and  N4_18 
ROOT
HETATM    1  C6  UNL     1       3.395  -7.171 -40.888  1.00  0.00     0.056 A 
HETATM    2  C7  UNL     1       3.283  -7.267 -42.266  1.00  0.00     0.031 A 
HETATM    3  C8  UNL     1       4.113  -6.572 -43.110  1.00  0.00     0.002 A 
HETATM    4  C9  UNL     1       5.091  -5.749 -42.598  1.00  0.00     0.002 A 
HETATM    5  C10 UNL     1       5.228  -5.633 -41.234  1.00  0.00     0.027 A 
HETATM    6  C11 UNL     1       4.379  -6.344 -40.385  1.00  0.00     0.105 A 
ENDROOT
BRANCH   1   7
HETATM    7  N3  UNL     1       2.566  -7.882 -40.075  1.00  0.00    -0.353 N 
ATOM      8  H3  UNL     1       1.933  -7.275 -39.554  1.00  0.00     0.166 HD
BRANCH   7   9
HETATM    9  C5  UNL     1       2.380  -9.096 -39.803  1.00  0.00     0.059 A 
HETATM   10  C1  UNL     1       1.129  -9.609 -39.589  1.00  0.00     0.088 A 
HETATM   11  N1  UNL     1      -0.074  -8.857 -39.633  1.00  0.00    -0.099 NA
HETATM   12  C2  UNL     1       0.954 -10.967 -39.293  1.00  0.00     0.116 A 
HETATM   13  N2  UNL     1       2.011 -11.791 -39.215  1.00  0.00    -0.373 N 
HETATM   14  C3  UNL     1       3.242 -11.331 -39.416  1.00  0.00     0.090 A 
ATOM     15  H2  UNL     1       1.868 -12.778 -39.000  1.00  0.00     0.164 HD
HETATM   16  C4  UNL     1       3.437 -10.011 -39.706  1.00  0.00     0.048 A 
ENDBRANCH   7   9
ENDBRANCH   1   7
BRANCH   6  17
HETATM   17  S1  UNL     1       4.628  -6.143 -38.674  1.00  0.00     0.259 S 
HETATM   18  O1  UNL     1       5.566  -5.033 -38.326  1.00  0.00    -0.201 OA
HETATM   19  O2  UNL     1       3.271  -5.942 -38.050  1.00  0.00    -0.201 OA
BRANCH  17  20
HETATM   20  N4  UNL     1       5.284  -7.580 -37.979  1.00  0.00    -0.324 N 
ATOM     21  H42 UNL     1       6.219  -7.639 -37.576  1.00  0.00     0.169 HD
ATOM     22  H41 UNL     1       4.612  -8.346 -38.029  1.00  0.00     0.169 HD
ENDBRANCH  17  20
ENDBRANCH   6  17
TORSDOF 4
ENDMDL
