MODEL 1
REMARK VINA RESULT: -6.250150084      0.000      0.000
REMARK  5 active torsions:
REMARK  status: ('A' for Active; 'I' for Inactive)
REMARK    1  A    between atoms: C2_2  and  N1_3 
REMARK    2  A    between atoms: N1_3  and  C3_5 
REMARK    3  A    between atoms: C3_5  and  N2_7 
REMARK       I    between atoms: C4_9  and  N3_10 
REMARK       I    between atoms: C4_9  and  N4_16 
REMARK    4  A    between atoms: N3_10  and  C5_12 
REMARK    5  A    between atoms: C12_20  and  C13_21 
ROOT
HETATM    1  N2  UNL     1      23.277  37.456  21.449  1.00  0.00    -0.167 N 
ATOM      2  H2  UNL     1      24.101  37.970  21.139  1.00  0.00     0.186 HD
HETATM    3  C4  UNL     1      23.365  36.217  21.278  1.00  0.00     0.679 C 
HETATM    4  N3  UNL     1      24.580  35.727  20.688  1.00  0.00    -0.221 N 
ATOM      5  H3  UNL     1      24.538  35.135  19.859  1.00  0.00     0.178 HD
HETATM    6  N4  UNL     1      22.393  35.231  21.603  1.00  0.00    -0.203 N 
HETATM    7  C9  UNL     1      21.706  35.235  22.898  1.00  0.00     0.142 C 
HETATM    8  C10 UNL     1      20.991  33.905  22.959  1.00  0.00     0.023 C 
HETATM    9  C11 UNL     1      20.632  33.697  21.503  1.00  0.00     0.038 C 
HETATM   10  C12 UNL     1      21.926  34.121  20.796  1.00  0.00     0.203 C 
ENDROOT
BRANCH   1  11
HETATM   11  C3  UNL     1      22.287  38.265  21.974  1.00  0.00     0.186 C 
HETATM   12  S1  UNL     1      20.892  38.465  21.155  1.00  0.00    -0.040 SA
BRANCH  11  13
HETATM   13  N1  UNL     1      22.459  38.926  23.218  1.00  0.00    -0.367 N 
ATOM     14  H1  UNL     1      23.137  39.686  23.271  1.00  0.00     0.161 HD
BRANCH  13  15
HETATM   15  C2  UNL     1      21.722  38.578  24.417  1.00  0.00     0.117 C 
HETATM   16  C1  UNL     1      22.638  38.280  25.566  1.00  0.00     0.026 C 
ENDBRANCH  13  15
ENDBRANCH  11  13
ENDBRANCH   1  11
BRANCH   4  17
HETATM   17  C5  UNL     1      25.845  36.064  21.257  1.00  0.00     0.099 C 
HETATM   18  C6  UNL     1      27.030  35.223  20.844  1.00  0.00     0.026 C 
HETATM   19  C7  UNL     1      27.861  36.514  20.876  1.00  0.00     0.004 C 
HETATM   20  C8  UNL     1      26.544  37.243  20.630  1.00  0.00     0.026 C 
ENDBRANCH   4  17
BRANCH  10  21
HETATM   21  C13 UNL     1      22.829  32.954  20.877  1.00  0.00     0.197 C 
HETATM   22  O1  UNL     1      24.044  33.017  21.184  1.00  0.00    -0.646 OA
HETATM   23  O2  UNL     1      22.325  31.680  20.596  1.00  0.00    -0.646 OA
ENDBRANCH  10  21
TORSDOF 5
ENDMDL
MODEL 2
REMARK VINA RESULT: -6.079300008      2.698      5.102
REMARK  5 active torsions:
REMARK  status: ('A' for Active; 'I' for Inactive)
REMARK    1  A    between atoms: C2_2  and  N1_3 
REMARK    2  A    between atoms: N1_3  and  C3_5 
REMARK    3  A    between atoms: C3_5  and  N2_7 
REMARK       I    between atoms: C4_9  and  N3_10 
REMARK       I    between atoms: C4_9  and  N4_16 
REMARK    4  A    between atoms: N3_10  and  C5_12 
REMARK    5  A    between atoms: C12_20  and  C13_21 
ROOT
HETATM    1  N2  UNL     1      21.972  36.265  21.605  1.00  0.00    -0.167 N 
ATOM      2  H2  UNL     1      21.944  35.567  20.862  1.00  0.00     0.186 HD
HETATM    3  C4  UNL     1      21.437  35.883  22.672  1.00  0.00     0.679 C 
HETATM    4  N3  UNL     1      20.883  34.557  22.683  1.00  0.00    -0.221 N 
ATOM      5  H3  UNL     1      19.913  34.415  22.962  1.00  0.00     0.178 HD
HETATM    6  N4  UNL     1      21.313  36.615  23.885  1.00  0.00    -0.203 N 
HETATM    7  C9  UNL     1      22.447  37.353  24.449  1.00  0.00     0.142 C 
HETATM    8  C10 UNL     1      22.000  37.742  25.840  1.00  0.00     0.023 C 
HETATM    9  C11 UNL     1      20.519  37.963  25.621  1.00  0.00     0.038 C 
HETATM   10  C12 UNL     1      20.149  36.767  24.734  1.00  0.00     0.203 C 
ENDROOT
BRANCH   1  11
HETATM   11  C3  UNL     1      22.592  37.443  21.233  1.00  0.00     0.186 C 
HETATM   12  S1  UNL     1      21.688  38.736  20.827  1.00  0.00    -0.040 SA
BRANCH  11  13
HETATM   13  N1  UNL     1      24.007  37.551  21.200  1.00  0.00    -0.367 N 
ATOM     14  H1  UNL     1      24.419  38.483  21.178  1.00  0.00     0.161 HD
BRANCH  13  15
HETATM   15  C2  UNL     1      24.897  36.406  21.197  1.00  0.00     0.117 C 
HETATM   16  C1  UNL     1      26.297  36.791  20.823  1.00  0.00     0.026 C 
ENDBRANCH  13  15
ENDBRANCH  11  13
ENDBRANCH   1  11
BRANCH   4  17
HETATM   17  C5  UNL     1      21.684  33.437  22.305  1.00  0.00     0.099 C 
HETATM   18  C6  UNL     1      21.338  32.104  22.925  1.00  0.00     0.026 C 
HETATM   19  C7  UNL     1      21.690  31.469  21.572  1.00  0.00     0.004 C 
HETATM   20  C8  UNL     1      21.356  32.828  20.966  1.00  0.00     0.026 C 
ENDBRANCH   4  17
BRANCH  10  21
HETATM   21  C13 UNL     1      19.976  35.623  25.654  1.00  0.00     0.197 C 
HETATM   22  O1  UNL     1      20.571  34.524  25.539  1.00  0.00    -0.646 OA
HETATM   23  O2  UNL     1      19.097  35.743  26.736  1.00  0.00    -0.646 OA
ENDBRANCH  10  21
TORSDOF 5
ENDMDL
MODEL 3
REMARK VINA RESULT: -5.998446240      1.627      1.968
REMARK  5 active torsions:
REMARK  status: ('A' for Active; 'I' for Inactive)
REMARK    1  A    between atoms: C2_2  and  N1_3 
REMARK    2  A    between atoms: N1_3  and  C3_5 
REMARK    3  A    between atoms: C3_5  and  N2_7 
REMARK       I    between atoms: C4_9  and  N3_10 
REMARK       I    between atoms: C4_9  and  N4_16 
REMARK    4  A    between atoms: N3_10  and  C5_12 
REMARK    5  A    between atoms: C12_20  and  C13_21 
ROOT
HETATM    1  N2  UNL     1      23.359  35.691  21.315  1.00  0.00    -0.167 N 
ATOM      2  H2  UNL     1      24.282  35.955  20.971  1.00  0.00     0.186 HD
HETATM    3  C4  UNL     1      23.100  34.473  21.173  1.00  0.00     0.679 C 
HETATM    4  N3  UNL     1      24.116  33.659  20.566  1.00  0.00    -0.221 N 
ATOM      5  H3  UNL     1      23.889  33.087  19.753  1.00  0.00     0.178 HD
HETATM    6  N4  UNL     1      21.906  33.796  21.547  1.00  0.00    -0.203 N 
HETATM    7  C9  UNL     1      21.287  34.011  22.858  1.00  0.00     0.142 C 
HETATM    8  C10 UNL     1      20.238  32.929  22.971  1.00  0.00     0.023 C 
HETATM    9  C11 UNL     1      19.792  32.801  21.531  1.00  0.00     0.038 C 
HETATM   10  C12 UNL     1      21.129  32.843  20.781  1.00  0.00     0.203 C 
ENDROOT
BRANCH   1  11
HETATM   11  C3  UNL     1      22.645  36.750  21.844  1.00  0.00     0.186 C 
HETATM   12  S1  UNL     1      21.432  37.414  20.981  1.00  0.00    -0.040 SA
BRANCH  11  13
HETATM   13  N1  UNL     1      22.944  37.270  23.130  1.00  0.00    -0.367 N 
ATOM     14  H1  UNL     1      23.923  37.391  23.385  1.00  0.00     0.161 HD
BRANCH  13  15
HETATM   15  C2  UNL     1      21.930  37.640  24.099  1.00  0.00     0.117 C 
HETATM   16  C1  UNL     1      22.350  38.822  24.920  1.00  0.00     0.026 C 
ENDBRANCH  13  15
ENDBRANCH  11  13
ENDBRANCH   1  11
BRANCH   4  17
HETATM   17  C5  UNL     1      25.442  33.647  21.093  1.00  0.00     0.099 C 
HETATM   18  C6  UNL     1      26.171  32.324  21.092  1.00  0.00     0.026 C 
HETATM   19  C7  UNL     1      27.446  33.112  20.757  1.00  0.00     0.004 C 
HETATM   20  C8  UNL     1      26.513  34.166  20.168  1.00  0.00     0.026 C 
ENDBRANCH   4  17
BRANCH  10  21
HETATM   21  C13 UNL     1      21.682  31.475  20.868  1.00  0.00     0.197 C 
HETATM   22  O1  UNL     1      22.887  31.210  21.095  1.00  0.00    -0.646 OA
HETATM   23  O2  UNL     1      20.828  30.381  20.688  1.00  0.00    -0.646 OA
ENDBRANCH  10  21
TORSDOF 5
ENDMDL
MODEL 4
REMARK VINA RESULT: -5.924297024      3.177      5.514
REMARK  5 active torsions:
REMARK  status: ('A' for Active; 'I' for Inactive)
REMARK    1  A    between atoms: C2_2  and  N1_3 
REMARK    2  A    between atoms: N1_3  and  C3_5 
REMARK    3  A    between atoms: C3_5  and  N2_7 
REMARK       I    between atoms: C4_9  and  N3_10 
REMARK       I    between atoms: C4_9  and  N4_16 
REMARK    4  A    between atoms: N3_10  and  C5_12 
REMARK    5  A    between atoms: C12_20  and  C13_21 
ROOT
HETATM    1  N2  UNL     1      20.645  34.213  20.645  1.00  0.00    -0.167 N 
ATOM      2  H2  UNL     1      19.894  34.538  20.036  1.00  0.00     0.186 HD
HETATM    3  C4  UNL     1      20.748  32.965  20.692  1.00  0.00     0.679 C 
HETATM    4  N3  UNL     1      19.818  32.206  19.902  1.00  0.00    -0.221 N 
ATOM      5  H3  UNL     1      19.255  31.478  20.342  1.00  0.00     0.178 HD
HETATM    6  N4  UNL     1      21.687  32.205  21.443  1.00  0.00    -0.203 N 
HETATM    7  C9  UNL     1      23.111  32.552  21.458  1.00  0.00     0.142 C 
HETATM    8  C10 UNL     1      23.788  31.372  22.115  1.00  0.00     0.023 C 
HETATM    9  C11 UNL     1      22.731  30.942  23.109  1.00  0.00     0.038 C 
HETATM   10  C12 UNL     1      21.451  31.038  22.269  1.00  0.00     0.203 C 
ENDROOT
BRANCH   1  11
HETATM   11  C3  UNL     1      21.345  35.239  21.252  1.00  0.00     0.186 C 
HETATM   12  S1  UNL     1      21.323  35.379  22.875  1.00  0.00    -0.040 SA
BRANCH  11  13
HETATM   13  N1  UNL     1      22.090  36.174  20.488  1.00  0.00    -0.367 N 
ATOM     14  H1  UNL     1      22.371  35.912  19.543  1.00  0.00     0.161 HD
BRANCH  13  15
HETATM   15  C2  UNL     1      22.473  37.484  20.980  1.00  0.00     0.117 C 
HETATM   16  C1  UNL     1      21.356  38.476  20.847  1.00  0.00     0.026 C 
ENDBRANCH  13  15
ENDBRANCH  11  13
ENDBRANCH   1  11
BRANCH   4  17
HETATM   17  C5  UNL     1      19.677  32.464  18.506  1.00  0.00     0.099 C 
HETATM   18  C6  UNL     1      19.280  31.301  17.627  1.00  0.00     0.026 C 
HETATM   19  C7  UNL     1      18.435  32.298  16.820  1.00  0.00     0.004 C 
HETATM   20  C8  UNL     1      18.389  33.132  18.096  1.00  0.00     0.026 C 
ENDBRANCH   4  17
BRANCH  10  21
HETATM   21  C13 UNL     1      21.398  29.793  21.475  1.00  0.00     0.197 C 
HETATM   22  O1  UNL     1      22.296  28.917  21.468  1.00  0.00    -0.646 OA
HETATM   23  O2  UNL     1      20.283  29.546  20.666  1.00  0.00    -0.646 OA
ENDBRANCH  10  21
TORSDOF 5
ENDMDL
MODEL 5
REMARK VINA RESULT: -5.919332078      2.981      5.508
REMARK  5 active torsions:
REMARK  status: ('A' for Active; 'I' for Inactive)
REMARK    1  A    between atoms: C2_2  and  N1_3 
REMARK    2  A    between atoms: N1_3  and  C3_5 
REMARK    3  A    between atoms: C3_5  and  N2_7 
REMARK       I    between atoms: C4_9  and  N3_10 
REMARK       I    between atoms: C4_9  and  N4_16 
REMARK    4  A    between atoms: N3_10  and  C5_12 
REMARK    5  A    between atoms: C12_20  and  C13_21 
ROOT
HETATM    1  N2  UNL     1      20.647  34.358  20.715  1.00  0.00    -0.167 N 
ATOM      2  H2  UNL     1      19.890  34.717  20.132  1.00  0.00     0.186 HD
HETATM    3  C4  UNL     1      20.715  33.107  20.734  1.00  0.00     0.679 C 
HETATM    4  N3  UNL     1      19.743  32.391  19.955  1.00  0.00    -0.221 N 
ATOM      5  H3  UNL     1      19.171  31.671  20.395  1.00  0.00     0.178 HD
HETATM    6  N4  UNL     1      21.651  32.305  21.445  1.00  0.00    -0.203 N 
HETATM    7  C9  UNL     1      23.084  32.612  21.430  1.00  0.00     0.142 C 
HETATM    8  C10 UNL     1      23.744  31.400  22.046  1.00  0.00     0.023 C 
HETATM    9  C11 UNL     1      22.701  30.979  23.058  1.00  0.00     0.038 C 
HETATM   10  C12 UNL     1      21.403  31.129  22.254  1.00  0.00     0.203 C 
ENDROOT
BRANCH   1  11
HETATM   11  C3  UNL     1      21.392  35.351  21.323  1.00  0.00     0.186 C 
HETATM   12  S1  UNL     1      21.299  35.553  22.938  1.00  0.00    -0.040 SA
BRANCH  11  13
HETATM   13  N1  UNL     1      22.244  36.199  20.569  1.00  0.00    -0.367 N 
ATOM     14  H1  UNL     1      22.221  36.126  19.552  1.00  0.00     0.161 HD
BRANCH  13  15
HETATM   15  C2  UNL     1      23.144  37.165  21.168  1.00  0.00     0.117 C 
HETATM   16  C1  UNL     1      24.557  36.663  21.200  1.00  0.00     0.026 C 
ENDBRANCH  13  15
ENDBRANCH  11  13
ENDBRANCH   1  11
BRANCH   4  17
HETATM   17  C5  UNL     1      19.574  32.682  18.568  1.00  0.00     0.099 C 
HETATM   18  C6  UNL     1      19.261  31.521  17.654  1.00  0.00     0.026 C 
HETATM   19  C7  UNL     1      18.338  32.475  16.883  1.00  0.00     0.004 C 
HETATM   20  C8  UNL     1      18.236  33.262  18.185  1.00  0.00     0.026 C 
ENDBRANCH   4  17
BRANCH  10  21
HETATM   21  C13 UNL     1      21.293  29.903  21.437  1.00  0.00     0.197 C 
HETATM   22  O1  UNL     1      20.384  29.688  20.599  1.00  0.00    -0.646 OA
HETATM   23  O2  UNL     1      22.250  28.894  21.586  1.00  0.00    -0.646 OA
ENDBRANCH  10  21
TORSDOF 5
ENDMDL
