MODEL 1
REMARK VINA RESULT: -7.527483913      0.000      0.000
REMARK  6 active torsions:
REMARK  status: ('A' for Active; 'I' for Inactive)
REMARK    1  A    between atoms: C3_3  and  C4_4 
REMARK    2  A    between atoms: C5_5  and  C6_6 
REMARK    3  A    between atoms: C6_6  and  O2_8 
REMARK    4  A    between atoms: O2_8  and  C7_9 
REMARK    5  A    between atoms: C7_9  and  C8_10 
REMARK    6  A    between atoms: C11_15  and  O4_16 
ROOT
HETATM    1  C4  UNL     1      23.604  35.325  21.003  1.00  0.00     0.084 C 
HETATM    2  C5  UNL     1      23.305  34.066  21.736  1.00  0.00     0.101 C 
HETATM    3  C9  UNL     1      21.882  33.789  22.003  1.00  0.00     0.048 C 
HETATM    4  C10 UNL     1      20.880  34.778  21.545  1.00  0.00     0.134 C 
HETATM    5  O3  UNL     1      21.368  35.598  20.498  1.00  0.00    -0.348 OA
HETATM    6  C11 UNL     1      22.421  36.268  21.116  1.00  0.00     0.170 C 
HETATM    7  C12 UNL     1      22.015  36.530  22.551  1.00  0.00     0.080 C 
HETATM    8  C13 UNL     1      20.649  35.891  22.576  1.00  0.00    -0.016 C 
HETATM    9  C14 UNL     1      19.658  36.871  22.037  1.00  0.00     0.018 C 
HETATM   10  C15 UNL     1      20.230  35.380  23.894  1.00  0.00     0.018 C 
ENDROOT
BRANCH   2  11
HETATM   11  C6  UNL     1      23.907  32.925  20.932  1.00  0.00     0.264 C 
HETATM   12  O1  UNL     1      23.336  31.808  20.906  1.00  0.00    -0.265 OA
BRANCH  11  13
HETATM   13  O2  UNL     1      25.049  33.062  20.234  1.00  0.00    -0.320 OA
BRANCH  13  14
HETATM   14  C7  UNL     1      26.256  32.423  20.199  1.00  0.00     0.193 C 
BRANCH  14  15
HETATM   15  C8  UNL     1      27.504  33.182  19.945  1.00  0.00     0.141 C 
HETATM   16 CL1  UNL     1      28.676  33.078  21.219  1.00  0.00    -0.128 Cl
ENDBRANCH  14  15
ENDBRANCH  13  14
ENDBRANCH  11  13
ENDBRANCH   2  11
BRANCH   1  17
HETATM   17  C3  UNL     1      24.863  35.970  21.420  1.00  0.00    -0.020 C 
HETATM   18  C2  UNL     1      25.762  36.293  20.504  1.00  0.00    -0.034 C 
HETATM   19  C1  UNL     1      27.064  36.953  20.874  1.00  0.00     0.036 C 
ENDBRANCH   1  17
BRANCH   6  20
HETATM   20  O4  UNL     1      22.688  37.494  20.499  1.00  0.00    -0.365 OA
ATOM     21  H4  UNL     1      23.301  38.011  21.009  1.00  0.00     0.213 HD
ENDBRANCH   6  20
TORSDOF 6
ENDMDL
MODEL 2
REMARK VINA RESULT: -7.317664649      1.076      1.223
REMARK  6 active torsions:
REMARK  status: ('A' for Active; 'I' for Inactive)
REMARK    1  A    between atoms: C3_3  and  C4_4 
REMARK    2  A    between atoms: C5_5  and  C6_6 
REMARK    3  A    between atoms: C6_6  and  O2_8 
REMARK    4  A    between atoms: O2_8  and  C7_9 
REMARK    5  A    between atoms: C7_9  and  C8_10 
REMARK    6  A    between atoms: C11_15  and  O4_16 
ROOT
HETATM    1  C4  UNL     1      23.035  35.950  21.262  1.00  0.00     0.084 C 
HETATM    2  C5  UNL     1      22.570  34.610  21.709  1.00  0.00     0.101 C 
HETATM    3  C9  UNL     1      21.163  34.517  22.137  1.00  0.00     0.048 C 
HETATM    4  C10 UNL     1      20.341  35.749  22.107  1.00  0.00     0.134 C 
HETATM    5  O3  UNL     1      20.860  36.724  21.222  1.00  0.00    -0.348 OA
HETATM    6  C11 UNL     1      22.096  37.015  21.797  1.00  0.00     0.170 C 
HETATM    7  C12 UNL     1      21.926  36.946  23.300  1.00  0.00     0.080 C 
HETATM    8  C13 UNL     1      20.470  36.566  23.400  1.00  0.00    -0.016 C 
HETATM    9  C14 UNL     1      19.648  37.808  23.289  1.00  0.00     0.018 C 
HETATM   10  C15 UNL     1      20.114  35.797  24.608  1.00  0.00     0.018 C 
ENDROOT
BRANCH   2  11
HETATM   11  C6  UNL     1      22.821  33.642  20.564  1.00  0.00     0.264 C 
HETATM   12  O1  UNL     1      22.024  33.597  19.596  1.00  0.00    -0.265 OA
BRANCH  11  13
HETATM   13  O2  UNL     1      23.881  32.814  20.543  1.00  0.00    -0.320 OA
BRANCH  13  14
HETATM   14  C7  UNL     1      25.101  32.771  21.158  1.00  0.00     0.193 C 
BRANCH  14  15
HETATM   15  C8  UNL     1      26.331  32.505  20.375  1.00  0.00     0.141 C 
HETATM   16 CL1  UNL     1      27.781  33.142  21.083  1.00  0.00    -0.128 Cl
ENDBRANCH  14  15
ENDBRANCH  13  14
ENDBRANCH  11  13
ENDBRANCH   2  11
BRANCH   1  17
HETATM   17  C3  UNL     1      24.440  36.235  21.603  1.00  0.00    -0.020 C 
HETATM   18  C2  UNL     1      25.318  36.434  20.632  1.00  0.00    -0.034 C 
HETATM   19  C1  UNL     1      26.766  36.728  20.924  1.00  0.00     0.036 C 
ENDBRANCH   1  17
BRANCH   6  20
HETATM   20  O4  UNL     1      22.536  38.297  21.458  1.00  0.00    -0.365 OA
ATOM     21  H4  UNL     1      21.899  38.958  21.704  1.00  0.00     0.213 HD
ENDBRANCH   6  20
TORSDOF 6
ENDMDL
MODEL 3
REMARK VINA RESULT: -7.113576775      2.425      3.576
REMARK  6 active torsions:
REMARK  status: ('A' for Active; 'I' for Inactive)
REMARK    1  A    between atoms: C3_3  and  C4_4 
REMARK    2  A    between atoms: C5_5  and  C6_6 
REMARK    3  A    between atoms: C6_6  and  O2_8 
REMARK    4  A    between atoms: O2_8  and  C7_9 
REMARK    5  A    between atoms: C7_9  and  C8_10 
REMARK    6  A    between atoms: C11_15  and  O4_16 
ROOT
HETATM    1  C4  UNL     1      22.037  37.214  21.917  1.00  0.00     0.084 C 
HETATM    2  C5  UNL     1      21.547  35.867  22.316  1.00  0.00     0.101 C 
HETATM    3  C9  UNL     1      20.615  35.824  23.457  1.00  0.00     0.048 C 
HETATM    4  C10 UNL     1      20.260  37.101  24.118  1.00  0.00     0.134 C 
HETATM    5  O3  UNL     1      20.466  38.221  23.276  1.00  0.00    -0.348 OA
HETATM    6  C11 UNL     1      21.843  38.183  23.068  1.00  0.00     0.170 C 
HETATM    7  C12 UNL     1      22.485  37.704  24.353  1.00  0.00     0.080 C 
HETATM    8  C13 UNL     1      21.264  37.488  25.212  1.00  0.00    -0.016 C 
HETATM    9  C14 UNL     1      20.868  38.798  25.810  1.00  0.00     0.018 C 
HETATM   10  C15 UNL     1      21.415  36.452  26.251  1.00  0.00     0.018 C 
ENDROOT
BRANCH   2  11
HETATM   11  C6  UNL     1      20.889  35.248  21.094  1.00  0.00     0.264 C 
HETATM   12  O1  UNL     1      19.670  35.449  20.869  1.00  0.00    -0.265 OA
BRANCH  11  13
HETATM   13  O2  UNL     1      21.568  34.478  20.224  1.00  0.00    -0.320 OA
BRANCH  13  14
HETATM   14  C7  UNL     1      21.675  33.137  19.983  1.00  0.00     0.193 C 
BRANCH  14  15
HETATM   15  C8  UNL     1      22.005  32.198  21.082  1.00  0.00     0.141 C 
HETATM   16 CL1  UNL     1      23.468  32.581  21.933  1.00  0.00    -0.128 Cl
ENDBRANCH  14  15
ENDBRANCH  13  14
ENDBRANCH  11  13
ENDBRANCH   2  11
BRANCH   1  17
HETATM   17  C3  UNL     1      23.426  37.217  21.424  1.00  0.00    -0.020 C 
HETATM   18  C2  UNL     1      24.187  36.151  21.617  1.00  0.00    -0.034 C 
HETATM   19  C1  UNL     1      25.613  36.101  21.134  1.00  0.00     0.036 C 
ENDBRANCH   1  17
BRANCH   6  20
HETATM   20  O4  UNL     1      22.355  39.446  22.760  1.00  0.00    -0.365 OA
ATOM     21  H4  UNL     1      22.577  39.930  23.547  1.00  0.00     0.213 HD
ENDBRANCH   6  20
TORSDOF 6
ENDMDL
MODEL 4
REMARK VINA RESULT: -6.985631047      1.865      2.092
REMARK  6 active torsions:
REMARK  status: ('A' for Active; 'I' for Inactive)
REMARK    1  A    between atoms: C3_3  and  C4_4 
REMARK    2  A    between atoms: C5_5  and  C6_6 
REMARK    3  A    between atoms: C6_6  and  O2_8 
REMARK    4  A    between atoms: O2_8  and  C7_9 
REMARK    5  A    between atoms: C7_9  and  C8_10 
REMARK    6  A    between atoms: C11_15  and  O4_16 
ROOT
HETATM    1  C4  UNL     1      22.997  35.999  21.263  1.00  0.00     0.084 C 
HETATM    2  C5  UNL     1      22.522  34.666  21.723  1.00  0.00     0.101 C 
HETATM    3  C9  UNL     1      21.110  34.585  22.138  1.00  0.00     0.048 C 
HETATM    4  C10 UNL     1      20.294  35.820  22.084  1.00  0.00     0.134 C 
HETATM    5  O3  UNL     1      20.826  36.782  21.192  1.00  0.00    -0.348 OA
HETATM    6  C11 UNL     1      22.058  37.074  21.776  1.00  0.00     0.170 C 
HETATM    7  C12 UNL     1      21.873  37.025  23.278  1.00  0.00     0.080 C 
HETATM    8  C13 UNL     1      20.414  36.652  23.368  1.00  0.00    -0.016 C 
HETATM    9  C14 UNL     1      19.599  37.896  23.233  1.00  0.00     0.018 C 
HETATM   10  C15 UNL     1      20.043  35.900  24.581  1.00  0.00     0.018 C 
ENDROOT
BRANCH   2  11
HETATM   11  C6  UNL     1      22.780  33.683  20.592  1.00  0.00     0.264 C 
HETATM   12  O1  UNL     1      22.003  33.642  19.608  1.00  0.00    -0.265 OA
BRANCH  11  13
HETATM   13  O2  UNL     1      23.826  32.837  20.601  1.00  0.00    -0.320 OA
BRANCH  13  14
HETATM   14  C7  UNL     1      24.801  32.497  21.497  1.00  0.00     0.193 C 
BRANCH  14  15
HETATM   15  C8  UNL     1      24.580  31.400  22.470  1.00  0.00     0.141 C 
HETATM   16 CL1  UNL     1      22.971  31.330  23.115  1.00  0.00    -0.128 Cl
ENDBRANCH  14  15
ENDBRANCH  13  14
ENDBRANCH  11  13
ENDBRANCH   2  11
BRANCH   1  17
HETATM   17  C3  UNL     1      24.400  36.281  21.615  1.00  0.00    -0.020 C 
HETATM   18  C2  UNL     1      25.302  36.395  20.652  1.00  0.00    -0.034 C 
HETATM   19  C1  UNL     1      26.749  36.682  20.955  1.00  0.00     0.036 C 
ENDBRANCH   1  17
BRANCH   6  20
HETATM   20  O4  UNL     1      22.507  38.350  21.425  1.00  0.00    -0.365 OA
ATOM     21  H4  UNL     1      21.780  38.949  21.299  1.00  0.00     0.213 HD
ENDBRANCH   6  20
TORSDOF 6
ENDMDL
MODEL 5
REMARK VINA RESULT: -6.967557118      2.252      3.055
REMARK  6 active torsions:
REMARK  status: ('A' for Active; 'I' for Inactive)
REMARK    1  A    between atoms: C3_3  and  C4_4 
REMARK    2  A    between atoms: C5_5  and  C6_6 
REMARK    3  A    between atoms: C6_6  and  O2_8 
REMARK    4  A    between atoms: O2_8  and  C7_9 
REMARK    5  A    between atoms: C7_9  and  C8_10 
REMARK    6  A    between atoms: C11_15  and  O4_16 
ROOT
HETATM    1  C4  UNL     1      22.847  34.471  20.888  1.00  0.00     0.084 C 
HETATM    2  C5  UNL     1      21.646  33.681  21.273  1.00  0.00     0.101 C 
HETATM    3  C9  UNL     1      20.397  34.441  21.456  1.00  0.00     0.048 C 
HETATM    4  C10 UNL     1      20.438  35.909  21.265  1.00  0.00     0.134 C 
HETATM    5  O3  UNL     1      21.531  36.320  20.465  1.00  0.00    -0.348 OA
HETATM    6  C11 UNL     1      22.624  35.930  21.238  1.00  0.00     0.170 C 
HETATM    7  C12 UNL     1      22.251  36.136  22.690  1.00  0.00     0.080 C 
HETATM    8  C13 UNL     1      20.841  36.651  22.547  1.00  0.00    -0.016 C 
HETATM    9  C14 UNL     1      20.898  38.118  22.276  1.00  0.00     0.018 C 
HETATM   10  C15 UNL     1      19.956  36.354  23.689  1.00  0.00     0.018 C 
ENDROOT
BRANCH   2  11
HETATM   11  C6  UNL     1      21.447  32.619  20.204  1.00  0.00     0.264 C 
HETATM   12  O1  UNL     1      21.224  32.958  19.017  1.00  0.00    -0.265 OA
BRANCH  11  13
HETATM   13  O2  UNL     1      21.498  31.302  20.481  1.00  0.00    -0.320 OA
BRANCH  13  14
HETATM   14  C7  UNL     1      21.438  30.538  21.612  1.00  0.00     0.193 C 
BRANCH  14  15
HETATM   15  C8  UNL     1      22.657  29.882  22.143  1.00  0.00     0.141 C 
HETATM   16 CL1  UNL     1      23.578  30.864  23.237  1.00  0.00    -0.128 Cl
ENDBRANCH  14  15
ENDBRANCH  13  14
ENDBRANCH  11  13
ENDBRANCH   2  11
BRANCH   1  17
HETATM   17  C3  UNL     1      24.104  33.954  21.460  1.00  0.00    -0.020 C 
HETATM   18  C2  UNL     1      24.871  33.158  20.731  1.00  0.00    -0.034 C 
HETATM   19  C1  UNL     1      26.164  32.603  21.264  1.00  0.00     0.036 C 
ENDBRANCH   1  17
BRANCH   6  20
HETATM   20  O4  UNL     1      23.757  36.698  20.956  1.00  0.00    -0.365 OA
ATOM     21  H4  UNL     1      24.416  36.187  20.501  1.00  0.00     0.213 HD
ENDBRANCH   6  20
TORSDOF 6
ENDMDL
