MODEL 1
REMARK VINA RESULT: -7.941711887      0.000      0.000
REMARK  10 active torsions:
REMARK  status: ('A' for Active; 'I' for Inactive)
REMARK    1  A    between atoms: C2_2  and  C3_3 
REMARK    2  A    between atoms: C2_2  and  C9_13 
REMARK       I    between atoms: C3_3  and  N1_5 
REMARK    3  A    between atoms: N1_5  and  C4_7 
REMARK    4  A    between atoms: C4_7  and  C5_8 
REMARK    5  A    between atoms: C5_8  and  O2_9 
REMARK    6  A    between atoms: O2_9  and  C6_10 
REMARK    7  A    between atoms: C6_10  and  C7_11 
REMARK    8  A    between atoms: C19_23  and  C20_24 
REMARK    9  A    between atoms: C20_24  and  N2_25 
REMARK   10  A    between atoms: C21_29  and  O3_30 
ROOT
HETATM    1  C9  UNL     1      41.171 -21.006  29.370  1.00  0.00     0.032 C 
HETATM    2  C10 UNL     1      42.691 -20.904  29.609  1.00  0.00     0.011 C 
HETATM    3  C11 UNL     1      43.224 -21.627  28.390  1.00  0.00     0.006 C 
HETATM    4  C12 UNL     1      42.225 -22.737  28.094  1.00  0.00    -0.001 C 
HETATM    5  C13 UNL     1      42.833 -24.090  28.315  1.00  0.00    -0.005 C 
HETATM    6  C14 UNL     1      43.990 -24.121  29.261  1.00  0.00     0.006 C 
HETATM    7  C15 UNL     1      44.236 -25.517  29.820  1.00  0.00     0.006 C 
HETATM    8  C16 UNL     1      43.756 -26.559  28.826  1.00  0.00     0.002 C 
HETATM    9  C17 UNL     1      44.353 -27.866  29.055  1.00  0.00     0.022 C 
HETATM   10  C18 UNL     1      45.382 -28.006  30.134  1.00  0.00     0.018 C 
HETATM   11  C19 UNL     1      45.486 -29.523  30.352  1.00  0.00     0.045 C 
HETATM   12  C21 UNL     1      44.306 -30.128  29.588  1.00  0.00     0.153 C 
HETATM   13  C22 UNL     1      43.407 -28.944  29.459  1.00  0.00    -0.050 C 
HETATM   14  C23 UNL     1      42.124 -28.725  29.630  1.00  0.00    -0.020 C 
HETATM   15  C24 UNL     1      41.447 -27.420  29.454  1.00  0.00     0.037 C 
HETATM   16  C25 UNL     1      42.271 -26.515  28.625  1.00  0.00    -0.033 C 
HETATM   17  C26 UNL     1      42.051 -27.004  27.173  1.00  0.00     0.016 C 
HETATM   18  C27 UNL     1      41.733 -25.102  28.677  1.00  0.00    -0.001 C 
HETATM   19  C28 UNL     1      41.060 -24.724  29.955  1.00  0.00     0.006 C 
HETATM   20  C29 UNL     1      41.035 -23.247  30.216  1.00  0.00     0.010 C 
HETATM   21  C30 UNL     1      41.027 -22.415  28.910  1.00  0.00    -0.032 C 
HETATM   22  C31 UNL     1      39.697 -22.739  28.283  1.00  0.00     0.016 C 
ENDROOT
BRANCH   1  23
HETATM   23  C2  UNL     1      40.849 -19.920  28.474  1.00  0.00     0.005 C 
HETATM   24  C1  UNL     1      41.182 -19.723  27.225  1.00  0.00     0.025 C 
BRANCH  23  25
HETATM   25  C3  UNL     1      39.957 -18.872  29.046  1.00  0.00     0.247 C 
HETATM   26  O1  UNL     1      39.767 -18.865  30.303  1.00  0.00    -0.268 OA
HETATM   27  N1  UNL     1      39.320 -17.887  28.280  1.00  0.00    -0.355 N 
ATOM     28  H1  UNL     1      39.444 -17.849  27.269  1.00  0.00     0.162 HD
BRANCH  27  29
HETATM   29  C4  UNL     1      38.456 -16.900  28.979  1.00  0.00     0.149 C 
BRANCH  29  30
HETATM   30  C5  UNL     1      37.032 -17.072  28.587  1.00  0.00     0.187 C 
BRANCH  30  31
HETATM   31  O2  UNL     1      36.352 -15.982  28.339  1.00  0.00    -0.390 OA
BRANCH  31  32
HETATM   32  C6  UNL     1      35.722 -15.138  29.122  1.00  0.00     0.167 C 
BRANCH  32  33
HETATM   33  C7  UNL     1      35.492 -13.715  28.755  1.00  0.00     0.022 C 
HETATM   34  C8  UNL     1      36.324 -13.354  27.547  1.00  0.00     0.007 C 
ENDBRANCH  32  33
ENDBRANCH  31  32
ENDBRANCH  30  31
ENDBRANCH  29  30
ENDBRANCH  27  29
ENDBRANCH  23  25
ENDBRANCH   1  23
BRANCH  11  35
HETATM   35  C20 UNL     1      46.806 -30.050  29.876  1.00  0.00     0.237 C 
BRANCH  35  36
HETATM   36  N2  UNL     1      46.996 -31.448  30.141  1.00  0.00    -0.079 N 
ATOM     37  H23 UNL     1      47.667 -31.584  30.898  1.00  0.00     0.274 HD
ATOM     38  H22 UNL     1      46.165 -31.849  30.575  1.00  0.00     0.274 HD
ATOM     39  H21 UNL     1      47.268 -31.986  29.318  1.00  0.00     0.274 HD
ENDBRANCH  35  36
ENDBRANCH  11  35
BRANCH  12  40
HETATM   40  O3  UNL     1      44.688 -30.573  28.346  1.00  0.00    -0.391 OA
ATOM     41  H3  UNL     1      43.991 -30.463  27.709  1.00  0.00     0.210 HD
ENDBRANCH  12  40
TORSDOF 10
ENDMDL
MODEL 2
REMARK VINA RESULT: -7.920167063      7.462      8.422
REMARK  10 active torsions:
REMARK  status: ('A' for Active; 'I' for Inactive)
REMARK    1  A    between atoms: C2_2  and  C3_3 
REMARK    2  A    between atoms: C2_2  and  C9_13 
REMARK       I    between atoms: C3_3  and  N1_5 
REMARK    3  A    between atoms: N1_5  and  C4_7 
REMARK    4  A    between atoms: C4_7  and  C5_8 
REMARK    5  A    between atoms: C5_8  and  O2_9 
REMARK    6  A    between atoms: O2_9  and  C6_10 
REMARK    7  A    between atoms: C6_10  and  C7_11 
REMARK    8  A    between atoms: C19_23  and  C20_24 
REMARK    9  A    between atoms: C20_24  and  N2_25 
REMARK   10  A    between atoms: C21_29  and  O3_30 
ROOT
HETATM    1  C9  UNL     1      37.725 -17.420  25.210  1.00  0.00     0.032 C 
HETATM    2  C10 UNL     1      37.517 -18.251  26.492  1.00  0.00     0.011 C 
HETATM    3  C11 UNL     1      38.523 -19.362  26.282  1.00  0.00     0.006 C 
HETATM    4  C12 UNL     1      38.542 -19.631  24.784  1.00  0.00    -0.001 C 
HETATM    5  C13 UNL     1      37.999 -20.993  24.468  1.00  0.00    -0.005 C 
HETATM    6  C14 UNL     1      37.072 -21.562  25.494  1.00  0.00     0.006 C 
HETATM    7  C15 UNL     1      36.191 -22.665  24.922  1.00  0.00     0.006 C 
HETATM    8  C16 UNL     1      36.903 -23.340  23.762  1.00  0.00     0.002 C 
HETATM    9  C17 UNL     1      36.363 -24.659  23.467  1.00  0.00     0.022 C 
HETATM   10  C18 UNL     1      35.282 -25.205  24.348  1.00  0.00     0.018 C 
HETATM   11  C19 UNL     1      34.702 -26.375  23.539  1.00  0.00     0.045 C 
HETATM   12  C21 UNL     1      35.296 -26.237  22.135  1.00  0.00     0.153 C 
HETATM   13  C22 UNL     1      35.709 -24.804  22.136  1.00  0.00    -0.050 C 
HETATM   14  C23 UNL     1      35.597 -23.801  21.296  1.00  0.00    -0.020 C 
HETATM   15  C24 UNL     1      36.085 -22.424  21.536  1.00  0.00     0.037 C 
HETATM   16  C25 UNL     1      37.109 -22.413  22.602  1.00  0.00    -0.033 C 
HETATM   17  C26 UNL     1      38.399 -22.921  21.912  1.00  0.00     0.016 C 
HETATM   18  C27 UNL     1      37.402 -20.998  23.050  1.00  0.00    -0.001 C 
HETATM   19  C28 UNL     1      36.254 -20.049  22.951  1.00  0.00     0.006 C 
HETATM   20  C29 UNL     1      36.360 -18.868  23.868  1.00  0.00     0.010 C 
HETATM   21  C30 UNL     1      37.829 -18.482  24.170  1.00  0.00    -0.032 C 
HETATM   22  C31 UNL     1      38.359 -18.012  22.842  1.00  0.00     0.016 C 
ENDROOT
BRANCH   1  23
HETATM   23  C2  UNL     1      38.858 -16.568  25.483  1.00  0.00     0.005 C 
HETATM   24  C1  UNL     1      40.063 -16.569  24.976  1.00  0.00     0.025 C 
BRANCH  23  25
HETATM   25  C3  UNL     1      38.607 -15.481  26.471  1.00  0.00     0.247 C 
HETATM   26  O1  UNL     1      39.426 -15.344  27.434  1.00  0.00    -0.268 OA
HETATM   27  N1  UNL     1      37.525 -14.595  26.400  1.00  0.00    -0.355 N 
ATOM     28  H1  UNL     1      36.843 -14.661  25.644  1.00  0.00     0.162 HD
BRANCH  27  29
HETATM   29  C4  UNL     1      37.394 -13.555  27.453  1.00  0.00     0.149 C 
BRANCH  29  30
HETATM   30  C5  UNL     1      35.992 -13.471  27.943  1.00  0.00     0.187 C 
BRANCH  30  31
HETATM   31  O2  UNL     1      35.722 -14.085  29.066  1.00  0.00    -0.390 OA
BRANCH  31  32
HETATM   32  C6  UNL     1      35.352 -15.316  29.332  1.00  0.00     0.167 C 
BRANCH  32  33
HETATM   33  C7  UNL     1      36.262 -16.482  29.175  1.00  0.00     0.022 C 
HETATM   34  C8  UNL     1      37.522 -16.265  29.981  1.00  0.00     0.007 C 
ENDBRANCH  32  33
ENDBRANCH  31  32
ENDBRANCH  30  31
ENDBRANCH  29  30
ENDBRANCH  27  29
ENDBRANCH  23  25
ENDBRANCH   1  23
BRANCH  11  35
HETATM   35  C20 UNL     1      35.035 -27.691  24.174  1.00  0.00     0.237 C 
BRANCH  35  36
HETATM   36  N2  UNL     1      34.133 -28.749  23.813  1.00  0.00    -0.079 N 
ATOM     37  H23 UNL     1      33.191 -28.386  23.666  1.00  0.00     0.274 HD
ATOM     38  H22 UNL     1      34.334 -29.088  22.872  1.00  0.00     0.274 HD
ATOM     39  H21 UNL     1      34.121 -29.521  24.480  1.00  0.00     0.274 HD
ENDBRANCH  35  36
ENDBRANCH  11  35
BRANCH  12  40
HETATM   40  O3  UNL     1      36.393 -27.048  21.974  1.00  0.00    -0.391 OA
ATOM     41  H3  UNL     1      36.145 -27.906  21.648  1.00  0.00     0.210 HD
ENDBRANCH  12  40
TORSDOF 10
ENDMDL
MODEL 3
REMARK VINA RESULT: -7.802080758      3.480     11.247
REMARK  10 active torsions:
REMARK  status: ('A' for Active; 'I' for Inactive)
REMARK    1  A    between atoms: C2_2  and  C3_3 
REMARK    2  A    between atoms: C2_2  and  C9_13 
REMARK       I    between atoms: C3_3  and  N1_5 
REMARK    3  A    between atoms: N1_5  and  C4_7 
REMARK    4  A    between atoms: C4_7  and  C5_8 
REMARK    5  A    between atoms: C5_8  and  O2_9 
REMARK    6  A    between atoms: O2_9  and  C6_10 
REMARK    7  A    between atoms: C6_10  and  C7_11 
REMARK    8  A    between atoms: C19_23  and  C20_24 
REMARK    9  A    between atoms: C20_24  and  N2_25 
REMARK   10  A    between atoms: C21_29  and  O3_30 
ROOT
HETATM    1  C9  UNL     1      40.547 -22.776  26.619  1.00  0.00     0.032 C 
HETATM    2  C10 UNL     1      39.217 -22.960  27.378  1.00  0.00     0.011 C 
HETATM    3  C11 UNL     1      38.247 -22.303  26.420  1.00  0.00     0.006 C 
HETATM    4  C12 UNL     1      39.005 -21.145  25.786  1.00  0.00    -0.001 C 
HETATM    5  C13 UNL     1      38.427 -19.824  26.199  1.00  0.00    -0.005 C 
HETATM    6  C14 UNL     1      37.676 -19.835  27.491  1.00  0.00     0.006 C 
HETATM    7  C15 UNL     1      37.552 -18.441  28.094  1.00  0.00     0.006 C 
HETATM    8  C16 UNL     1      37.586 -17.400  26.989  1.00  0.00     0.002 C 
HETATM    9  C17 UNL     1      37.025 -16.124  27.406  1.00  0.00     0.022 C 
HETATM   10  C18 UNL     1      36.431 -16.015  28.777  1.00  0.00     0.018 C 
HETATM   11  C19 UNL     1      36.313 -14.501  29.010  1.00  0.00     0.045 C 
HETATM   12  C21 UNL     1      37.110 -13.850  27.877  1.00  0.00     0.153 C 
HETATM   13  C22 UNL     1      37.981 -14.982  27.447  1.00  0.00    -0.050 C 
HETATM   14  C23 UNL     1      39.254 -15.122  27.158  1.00  0.00    -0.020 C 
HETATM   15  C24 UNL     1      39.909 -16.390  26.762  1.00  0.00     0.037 C 
HETATM   16  C25 UNL     1      38.907 -17.364  26.280  1.00  0.00    -0.033 C 
HETATM   17  C26 UNL     1      38.572 -16.902  24.841  1.00  0.00     0.016 C 
HETATM   18  C27 UNL     1      39.518 -18.741  26.147  1.00  0.00    -0.001 C 
HETATM   19  C28 UNL     1      40.618 -19.044  27.110  1.00  0.00     0.006 C 
HETATM   20  C29 UNL     1      40.827 -20.509  27.352  1.00  0.00     0.010 C 
HETATM   21  C30 UNL     1      40.431 -21.374  26.131  1.00  0.00    -0.032 C 
HETATM   22  C31 UNL     1      41.433 -20.991  25.075  1.00  0.00     0.016 C 
ENDROOT
BRANCH   1  23
HETATM   23  C2  UNL     1      40.605 -23.866  25.674  1.00  0.00     0.005 C 
HETATM   24  C1  UNL     1      40.802 -23.857  24.380  1.00  0.00     0.025 C 
BRANCH  23  25
HETATM   25  C3  UNL     1      40.459 -25.226  26.265  1.00  0.00     0.247 C 
HETATM   26  O1  UNL     1      39.394 -25.876  26.020  1.00  0.00    -0.268 OA
HETATM   27  N1  UNL     1      41.429 -25.834  27.071  1.00  0.00    -0.355 N 
ATOM     28  H1  UNL     1      42.301 -25.355  27.293  1.00  0.00     0.162 HD
BRANCH  27  29
HETATM   29  C4  UNL     1      41.155 -27.197  27.597  1.00  0.00     0.149 C 
BRANCH  29  30
HETATM   30  C5  UNL     1      40.862 -27.153  29.054  1.00  0.00     0.187 C 
BRANCH  30  31
HETATM   31  O2  UNL     1      40.302 -26.063  29.511  1.00  0.00    -0.390 OA
BRANCH  31  32
HETATM   32  C6  UNL     1      40.665 -25.206  30.436  1.00  0.00     0.167 C 
BRANCH  32  33
HETATM   33  C7  UNL     1      41.646 -24.116  30.185  1.00  0.00     0.022 C 
HETATM   34  C8  UNL     1      41.030 -22.779  30.524  1.00  0.00     0.007 C 
ENDBRANCH  32  33
ENDBRANCH  31  32
ENDBRANCH  30  31
ENDBRANCH  29  30
ENDBRANCH  27  29
ENDBRANCH  23  25
ENDBRANCH   1  23
BRANCH  11  35
HETATM   35  C20 UNL     1      34.880 -14.065  29.025  1.00  0.00     0.237 C 
BRANCH  35  36
HETATM   36  N2  UNL     1      34.004 -14.989  29.690  1.00  0.00    -0.079 N 
ATOM     37  H23 UNL     1      33.055 -14.913  29.325  1.00  0.00     0.274 HD
ATOM     38  H22 UNL     1      34.216 -15.948  29.414  1.00  0.00     0.274 HD
ATOM     39  H21 UNL     1      34.008 -14.897  30.706  1.00  0.00     0.274 HD
ENDBRANCH  35  36
ENDBRANCH  11  35
BRANCH  12  40
HETATM   40  O3  UNL     1      36.290 -13.462  26.846  1.00  0.00    -0.391 OA
ATOM     41  H3  UNL     1      35.375 -13.494  27.100  1.00  0.00     0.210 HD
ENDBRANCH  12  40
TORSDOF 10
ENDMDL
MODEL 4
REMARK VINA RESULT: -7.770099352      2.470     10.715
REMARK  10 active torsions:
REMARK  status: ('A' for Active; 'I' for Inactive)
REMARK    1  A    between atoms: C2_2  and  C3_3 
REMARK    2  A    between atoms: C2_2  and  C9_13 
REMARK       I    between atoms: C3_3  and  N1_5 
REMARK    3  A    between atoms: N1_5  and  C4_7 
REMARK    4  A    between atoms: C4_7  and  C5_8 
REMARK    5  A    between atoms: C5_8  and  O2_9 
REMARK    6  A    between atoms: O2_9  and  C6_10 
REMARK    7  A    between atoms: C6_10  and  C7_11 
REMARK    8  A    between atoms: C19_23  and  C20_24 
REMARK    9  A    between atoms: C20_24  and  N2_25 
REMARK   10  A    between atoms: C21_29  and  O3_30 
ROOT
HETATM    1  C9  UNL     1      42.189 -24.226  28.889  1.00  0.00     0.032 C 
HETATM    2  C10 UNL     1      41.610 -23.569  30.159  1.00  0.00     0.011 C 
HETATM    3  C11 UNL     1      40.170 -23.357  29.741  1.00  0.00     0.006 C 
HETATM    4  C12 UNL     1      40.209 -23.038  28.253  1.00  0.00    -0.001 C 
HETATM    5  C13 UNL     1      39.777 -21.627  27.987  1.00  0.00    -0.005 C 
HETATM    6  C14 UNL     1      39.941 -20.684  29.135  1.00  0.00     0.006 C 
HETATM    7  C15 UNL     1      39.967 -19.230  28.683  1.00  0.00     0.006 C 
HETATM    8  C16 UNL     1      39.174 -19.078  27.396  1.00  0.00     0.002 C 
HETATM    9  C17 UNL     1      38.764 -17.704  27.152  1.00  0.00     0.022 C 
HETATM   10  C18 UNL     1      39.080 -16.666  28.184  1.00  0.00     0.018 C 
HETATM   11  C19 UNL     1      38.874 -15.335  27.445  1.00  0.00     0.045 C 
HETATM   12  C21 UNL     1      38.735 -15.704  25.967  1.00  0.00     0.153 C 
HETATM   13  C22 UNL     1      39.359 -17.059  25.947  1.00  0.00    -0.050 C 
HETATM   14  C23 UNL     1      40.222 -17.677  25.174  1.00  0.00    -0.020 C 
HETATM   15  C24 UNL     1      40.717 -19.058  25.375  1.00  0.00     0.037 C 
HETATM   16  C25 UNL     1      39.800 -19.817  26.252  1.00  0.00    -0.033 C 
HETATM   17  C26 UNL     1      38.614 -20.206  25.335  1.00  0.00     0.016 C 
HETATM   18  C27 UNL     1      40.433 -21.118  26.693  1.00  0.00    -0.001 C 
HETATM   19  C28 UNL     1      41.920 -21.090  26.823  1.00  0.00     0.006 C 
HETATM   20  C29 UNL     1      42.469 -22.132  27.750  1.00  0.00     0.010 C 
HETATM   21  C30 UNL     1      41.580 -23.399  27.811  1.00  0.00    -0.032 C 
HETATM   22  C31 UNL     1      41.693 -23.986  26.429  1.00  0.00     0.016 C 
ENDROOT
BRANCH   1  23
HETATM   23  C2  UNL     1      41.859 -25.627  28.996  1.00  0.00     0.005 C 
HETATM   24  C1  UNL     1      40.698 -26.229  28.980  1.00  0.00     0.025 C 
BRANCH  23  25
HETATM   25  C3  UNL     1      43.027 -26.547  29.098  1.00  0.00     0.247 C 
HETATM   26  O1  UNL     1      42.809 -27.763  29.398  1.00  0.00    -0.268 OA
HETATM   27  N1  UNL     1      44.353 -26.153  28.878  1.00  0.00    -0.355 N 
ATOM     28  H1  UNL     1      44.578 -25.189  28.631  1.00  0.00     0.162 HD
BRANCH  27  29
HETATM   29  C4  UNL     1      45.424 -27.174  29.013  1.00  0.00     0.149 C 
BRANCH  29  30
HETATM   30  C5  UNL     1      46.092 -27.068  30.337  1.00  0.00     0.187 C 
BRANCH  30  31
HETATM   31  O2  UNL     1      46.341 -25.861  30.778  1.00  0.00    -0.390 OA
BRANCH  31  32
HETATM   32  C6  UNL     1      45.915 -25.201  31.829  1.00  0.00     0.167 C 
BRANCH  32  33
HETATM   33  C7  UNL     1      44.940 -24.082  31.737  1.00  0.00     0.022 C 
HETATM   34  C8  UNL     1      45.340 -23.140  30.625  1.00  0.00     0.007 C 
ENDBRANCH  32  33
ENDBRANCH  31  32
ENDBRANCH  30  31
ENDBRANCH  29  30
ENDBRANCH  27  29
ENDBRANCH  23  25
ENDBRANCH   1  23
BRANCH  11  35
HETATM   35  C20 UNL     1      37.675 -14.605  27.968  1.00  0.00     0.237 C 
BRANCH  35  36
HETATM   36  N2  UNL     1      37.548 -13.268  27.459  1.00  0.00    -0.079 N 
ATOM     37  H23 UNL     1      37.466 -12.597  28.224  1.00  0.00     0.274 HD
ATOM     38  H22 UNL     1      38.429 -12.953  27.051  1.00  0.00     0.274 HD
ATOM     39  H21 UNL     1      36.782 -13.154  26.796  1.00  0.00     0.274 HD
ENDBRANCH  35  36
ENDBRANCH  11  35
BRANCH  12  40
HETATM   40  O3  UNL     1      37.416 -15.783  25.592  1.00  0.00    -0.391 OA
ATOM     41  H3  UNL     1      37.253 -15.297  24.792  1.00  0.00     0.210 HD
ENDBRANCH  12  40
TORSDOF 10
ENDMDL
MODEL 5
REMARK VINA RESULT: -7.684070701      2.259     11.312
REMARK  10 active torsions:
REMARK  status: ('A' for Active; 'I' for Inactive)
REMARK    1  A    between atoms: C2_2  and  C3_3 
REMARK    2  A    between atoms: C2_2  and  C9_13 
REMARK       I    between atoms: C3_3  and  N1_5 
REMARK    3  A    between atoms: N1_5  and  C4_7 
REMARK    4  A    between atoms: C4_7  and  C5_8 
REMARK    5  A    between atoms: C5_8  and  O2_9 
REMARK    6  A    between atoms: O2_9  and  C6_10 
REMARK    7  A    between atoms: C6_10  and  C7_11 
REMARK    8  A    between atoms: C19_23  and  C20_24 
REMARK    9  A    between atoms: C20_24  and  N2_25 
REMARK   10  A    between atoms: C21_29  and  O3_30 
ROOT
HETATM    1  C9  UNL     1      42.406 -24.070  29.103  1.00  0.00     0.032 C 
HETATM    2  C10 UNL     1      41.844 -23.376  30.360  1.00  0.00     0.011 C 
HETATM    3  C11 UNL     1      40.390 -23.213  29.973  1.00  0.00     0.006 C 
HETATM    4  C12 UNL     1      40.383 -22.954  28.473  1.00  0.00    -0.001 C 
HETATM    5  C13 UNL     1      39.911 -21.565  28.163  1.00  0.00    -0.005 C 
HETATM    6  C14 UNL     1      40.083 -20.573  29.267  1.00  0.00     0.006 C 
HETATM    7  C15 UNL     1      40.064 -19.137  28.757  1.00  0.00     0.006 C 
HETATM    8  C16 UNL     1      39.235 -19.056  27.487  1.00  0.00     0.002 C 
HETATM    9  C17 UNL     1      38.787 -17.702  27.198  1.00  0.00     0.022 C 
HETATM   10  C18 UNL     1      39.105 -16.616  28.179  1.00  0.00     0.018 C 
HETATM   11  C19 UNL     1      38.850 -15.321  27.393  1.00  0.00     0.045 C 
HETATM   12  C21 UNL     1      38.681 -15.753  25.935  1.00  0.00     0.153 C 
HETATM   13  C22 UNL     1      39.335 -17.094  25.953  1.00  0.00    -0.050 C 
HETATM   14  C23 UNL     1      40.192 -17.724  25.183  1.00  0.00    -0.020 C 
HETATM   15  C24 UNL     1      40.724 -19.084  25.426  1.00  0.00     0.037 C 
HETATM   16  C25 UNL     1      39.847 -19.826  26.356  1.00  0.00    -0.033 C 
HETATM   17  C26 UNL     1      38.648 -20.278  25.488  1.00  0.00     0.016 C 
HETATM   18  C27 UNL     1      40.522 -21.094  26.832  1.00  0.00    -0.001 C 
HETATM   19  C28 UNL     1      42.010 -21.028  26.921  1.00  0.00     0.006 C 
HETATM   20  C29 UNL     1      42.607 -22.019  27.874  1.00  0.00     0.010 C 
HETATM   21  C30 UNL     1      41.750 -23.302  28.009  1.00  0.00    -0.032 C 
HETATM   22  C31 UNL     1      41.840 -23.942  26.649  1.00  0.00     0.016 C 
ENDROOT
BRANCH   1  23
HETATM   23  C2  UNL     1      42.111 -25.473  29.274  1.00  0.00     0.005 C 
HETATM   24  C1  UNL     1      40.994 -26.072  29.598  1.00  0.00     0.025 C 
BRANCH  23  25
HETATM   25  C3  UNL     1      43.247 -26.397  28.999  1.00  0.00     0.247 C 
HETATM   26  O1  UNL     1      43.119 -27.243  28.058  1.00  0.00    -0.268 OA
HETATM   27  N1  UNL     1      44.453 -26.387  29.712  1.00  0.00    -0.355 N 
ATOM     28  H1  UNL     1      44.605 -25.725  30.473  1.00  0.00     0.162 HD
BRANCH  27  29
HETATM   29  C4  UNL     1      45.505 -27.365  29.333  1.00  0.00     0.149 C 
BRANCH  29  30
HETATM   30  C5  UNL     1      46.309 -27.763  30.518  1.00  0.00     0.187 C 
BRANCH  30  31
HETATM   31  O2  UNL     1      45.777 -28.646  31.324  1.00  0.00    -0.390 OA
BRANCH  31  32
HETATM   32  C6  UNL     1      45.413 -29.895  31.147  1.00  0.00     0.167 C 
BRANCH  32  33
HETATM   33  C7  UNL     1      44.071 -30.405  31.534  1.00  0.00     0.022 C 
HETATM   34  C8  UNL     1      43.048 -30.007  30.496  1.00  0.00     0.007 C 
ENDBRANCH  32  33
ENDBRANCH  31  32
ENDBRANCH  30  31
ENDBRANCH  29  30
ENDBRANCH  27  29
ENDBRANCH  23  25
ENDBRANCH   1  23
BRANCH  11  35
HETATM   35  C20 UNL     1      37.648 -14.597  27.919  1.00  0.00     0.237 C 
BRANCH  35  36
HETATM   36  N2  UNL     1      37.502 -13.268  27.394  1.00  0.00    -0.079 N 
ATOM     37  H23 UNL     1      36.913 -13.272  26.561  1.00  0.00     0.274 HD
ATOM     38  H22 UNL     1      36.921 -12.699  28.011  1.00  0.00     0.274 HD
ATOM     39  H21 UNL     1      38.390 -12.803  27.206  1.00  0.00     0.274 HD
ENDBRANCH  35  36
ENDBRANCH  11  35
BRANCH  12  40
HETATM   40  O3  UNL     1      37.354 -15.876  25.600  1.00  0.00    -0.391 OA
ATOM     41  H3  UNL     1      36.851 -16.259  26.309  1.00  0.00     0.210 HD
ENDBRANCH  12  40
TORSDOF 10
ENDMDL
