MODEL 1
REMARK VINA RESULT: -7.110789611      0.000      0.000
REMARK  10 active torsions:
REMARK  status: ('A' for Active; 'I' for Inactive)
REMARK    1  A    between atoms: C3_3  and  C4_4 
REMARK    2  A    between atoms: C4_4  and  O1_5 
REMARK    3  A    between atoms: C4_4  and  C5_7 
REMARK    4  A    between atoms: C4_4  and  S1_10 
REMARK    5  A    between atoms: S1_10  and  C6_13 
REMARK    6  A    between atoms: C7_14  and  C8_15 
REMARK    7  A    between atoms: C8_15  and  C9_16 
REMARK    8  A    between atoms: C12_19  and  C13_20 
REMARK       I    between atoms: C13_20  and  N1_22 
REMARK    9  A    between atoms: N1_22  and  C14_24 
REMARK   10  A    between atoms: C20_30  and  C21_31 
ROOT
HETATM    1  C1  UNL     1      41.190 -15.366  22.689  1.00  0.00     0.097 C 
HETATM    2  C2  UNL     1      40.766 -15.446  23.831  1.00  0.00    -0.183 C 
HETATM    3  C3  UNL     1      40.263 -15.569  25.215  1.00  0.00     0.146 C 
ENDROOT
BRANCH   3   4
HETATM    4  C4  UNL     1      38.776 -15.841  25.237  1.00  0.00     0.264 C 
BRANCH   4   5
HETATM    5  O1  UNL     1      38.294 -15.117  24.153  1.00  0.00    -0.365 OA
ATOM      6  H1  UNL     1      37.358 -15.277  24.176  1.00  0.00     0.212 HD
ENDBRANCH   4   5
BRANCH   4   7
HETATM    7  C5  UNL     1      38.275 -15.208  26.508  1.00  0.00     0.226 C 
HETATM    8  O2  UNL     1      39.123 -15.081  27.430  1.00  0.00    -0.645 OA
HETATM    9  O3  UNL     1      36.990 -14.782  26.698  1.00  0.00    -0.645 OA
ENDBRANCH   4   7
BRANCH   4  10
HETATM   10  S1  UNL     1      38.403 -17.569  25.244  1.00  0.00     0.221 S 
HETATM   11  O4  UNL     1      38.108 -18.094  23.856  1.00  0.00    -0.219 OA
HETATM   12  O5  UNL     1      36.939 -17.525  25.760  1.00  0.00    -0.219 OA
BRANCH  10  13
HETATM   13  C6  UNL     1      39.400 -18.505  26.226  1.00  0.00     0.084 A 
HETATM   14  C7  UNL     1      39.236 -18.638  27.573  1.00  0.00    -0.016 A 
HETATM   15  C11 UNL     1      40.221 -19.352  28.306  1.00  0.00     0.030 A 
HETATM   16  C12 UNL     1      41.333 -19.925  27.719  1.00  0.00     0.043 A 
HETATM   17  C18 UNL     1      41.499 -19.803  26.370  1.00  0.00    -0.008 A 
HETATM   18  C19 UNL     1      42.578 -20.377  25.730  1.00  0.00     0.021 A 
HETATM   19  C26 UNL     1      40.528 -19.097  25.644  1.00  0.00    -0.002 A 
HETATM   20  C20 UNL     1      42.754 -20.299  24.360  1.00  0.00    -0.052 A 
HETATM   21  C23 UNL     1      41.821 -19.632  23.642  1.00  0.00    -0.055 A 
HETATM   22  C24 UNL     1      41.918 -19.508  22.174  1.00  0.00     0.049 C 
HETATM   23  C25 UNL     1      40.726 -19.044  24.294  1.00  0.00     0.021 A 
BRANCH  14  24
HETATM   24  C8  UNL     1      38.072 -18.200  28.307  1.00  0.00    -0.014 C 
BRANCH  24  25
HETATM   25  C9  UNL     1      38.121 -17.387  29.518  1.00  0.00     0.023 C 
HETATM   26  C10 UNL     1      36.767 -16.657  29.611  1.00  0.00     0.009 C 
ENDBRANCH  24  25
ENDBRANCH  14  24
BRANCH  16  27
HETATM   27  C13 UNL     1      42.212 -20.698  28.555  1.00  0.00     0.253 C 
HETATM   28  O6  UNL     1      41.793 -21.884  28.822  1.00  0.00    -0.268 OA
HETATM   29  N1  UNL     1      43.451 -20.371  29.112  1.00  0.00    -0.349 N 
ATOM     30  H1  UNL     1      43.838 -19.446  28.920  1.00  0.00     0.163 HD
BRANCH  29  31
HETATM   31  C14 UNL     1      44.218 -21.278  29.950  1.00  0.00     0.022 C 
HETATM   32  C15 UNL     1      43.290 -21.857  30.987  1.00  0.00     0.037 C 
HETATM   33  C16 UNL     1      45.323 -20.517  30.610  1.00  0.00     0.037 C 
HETATM   34  C17 UNL     1      44.801 -22.411  29.124  1.00  0.00     0.037 C 
ENDBRANCH  29  31
ENDBRANCH  16  27
BRANCH  20  35
HETATM   35  C21 UNL     1      43.945 -20.937  23.750  1.00  0.00     0.034 C 
HETATM   36  C22 UNL     1      45.131 -21.019  24.668  1.00  0.00     0.010 C 
ENDBRANCH  20  35
ENDBRANCH  10  13
ENDBRANCH   4  10
ENDBRANCH   3   4
TORSDOF 10
ENDMDL
MODEL 2
REMARK VINA RESULT: -6.853403272      4.507      7.644
REMARK  10 active torsions:
REMARK  status: ('A' for Active; 'I' for Inactive)
REMARK    1  A    between atoms: C3_3  and  C4_4 
REMARK    2  A    between atoms: C4_4  and  O1_5 
REMARK    3  A    between atoms: C4_4  and  C5_7 
REMARK    4  A    between atoms: C4_4  and  S1_10 
REMARK    5  A    between atoms: S1_10  and  C6_13 
REMARK    6  A    between atoms: C7_14  and  C8_15 
REMARK    7  A    between atoms: C8_15  and  C9_16 
REMARK    8  A    between atoms: C12_19  and  C13_20 
REMARK       I    between atoms: C13_20  and  N1_22 
REMARK    9  A    between atoms: N1_22  and  C14_24 
REMARK   10  A    between atoms: C20_30  and  C21_31 
ROOT
HETATM    1  C1  UNL     1      42.298 -20.225  25.795  1.00  0.00     0.097 C 
HETATM    2  C2  UNL     1      42.652 -21.031  26.641  1.00  0.00    -0.183 C 
HETATM    3  C3  UNL     1      43.059 -22.023  27.657  1.00  0.00     0.146 C 
ENDROOT
BRANCH   3   4
HETATM    4  C4  UNL     1      42.601 -21.613  29.039  1.00  0.00     0.264 C 
BRANCH   4   5
HETATM    5  O1  UNL     1      42.788 -20.237  29.051  1.00  0.00    -0.365 OA
ATOM      6  H1  UNL     1      42.665 -20.002  29.964  1.00  0.00     0.212 HD
ENDBRANCH   4   5
BRANCH   4   7
HETATM    7  C5  UNL     1      43.584 -22.248  29.986  1.00  0.00     0.226 C 
HETATM    8  O2  UNL     1      44.312 -23.153  29.500  1.00  0.00    -0.645 OA
HETATM    9  O3  UNL     1      43.716 -21.898  31.302  1.00  0.00    -0.645 OA
ENDBRANCH   4   7
BRANCH   4  10
HETATM   10  S1  UNL     1      40.967 -22.180  29.407  1.00  0.00     0.221 S 
HETATM   11  O4  UNL     1      40.537 -21.805  30.808  1.00  0.00    -0.219 OA
HETATM   12  O5  UNL     1      41.259 -23.681  29.677  1.00  0.00    -0.219 OA
BRANCH  10  13
HETATM   13  C6  UNL     1      39.845 -21.957  28.172  1.00  0.00     0.084 A 
HETATM   14  C7  UNL     1      39.219 -20.773  27.916  1.00  0.00    -0.016 A 
HETATM   15  C11 UNL     1      38.198 -20.750  26.929  1.00  0.00     0.030 A 
HETATM   16  C12 UNL     1      37.814 -21.866  26.211  1.00  0.00     0.043 A 
HETATM   17  C18 UNL     1      38.442 -23.052  26.457  1.00  0.00    -0.008 A 
HETATM   18  C19 UNL     1      38.116 -24.192  25.751  1.00  0.00     0.021 A 
HETATM   19  C26 UNL     1      39.450 -23.078  27.432  1.00  0.00    -0.002 A 
HETATM   20  C20 UNL     1      38.759 -25.399  25.953  1.00  0.00    -0.052 A 
HETATM   21  C23 UNL     1      39.742 -25.441  26.883  1.00  0.00    -0.055 A 
HETATM   22  C24 UNL     1      40.492 -26.681  27.159  1.00  0.00     0.049 C 
HETATM   23  C25 UNL     1      40.072 -24.282  27.604  1.00  0.00     0.021 A 
BRANCH  14  24
HETATM   24  C8  UNL     1      39.590 -19.504  28.496  1.00  0.00    -0.014 C 
BRANCH  24  25
HETATM   25  C9  UNL     1      39.801 -18.280  27.731  1.00  0.00     0.023 C 
HETATM   26  C10 UNL     1      39.008 -17.171  28.450  1.00  0.00     0.009 C 
ENDBRANCH  24  25
ENDBRANCH  14  24
BRANCH  16  27
HETATM   27  C13 UNL     1      36.830 -21.694  25.176  1.00  0.00     0.253 C 
HETATM   28  O6  UNL     1      35.634 -21.485  25.602  1.00  0.00    -0.268 OA
HETATM   29  N1  UNL     1      36.967 -21.706  23.785  1.00  0.00    -0.349 N 
ATOM     30  H1  UNL     1      37.897 -21.854  23.393  1.00  0.00     0.163 HD
BRANCH  29  31
HETATM   31  C14 UNL     1      35.854 -21.519  22.868  1.00  0.00     0.022 C 
HETATM   32  C15 UNL     1      36.375 -21.673  21.462  1.00  0.00     0.037 C 
HETATM   33  C16 UNL     1      35.285 -20.151  23.064  1.00  0.00     0.037 C 
HETATM   34  C17 UNL     1      34.776 -22.561  23.110  1.00  0.00     0.037 C 
ENDBRANCH  29  31
ENDBRANCH  16  27
BRANCH  20  35
HETATM   35  C21 UNL     1      38.343 -26.579  25.159  1.00  0.00     0.034 C 
HETATM   36  C22 UNL     1      36.891 -26.932  25.306  1.00  0.00     0.010 C 
ENDBRANCH  20  35
ENDBRANCH  10  13
ENDBRANCH   4  10
ENDBRANCH   3   4
TORSDOF 10
ENDMDL
MODEL 3
REMARK VINA RESULT: -6.844362191      4.905      7.577
REMARK  10 active torsions:
REMARK  status: ('A' for Active; 'I' for Inactive)
REMARK    1  A    between atoms: C3_3  and  C4_4 
REMARK    2  A    between atoms: C4_4  and  O1_5 
REMARK    3  A    between atoms: C4_4  and  C5_7 
REMARK    4  A    between atoms: C4_4  and  S1_10 
REMARK    5  A    between atoms: S1_10  and  C6_13 
REMARK    6  A    between atoms: C7_14  and  C8_15 
REMARK    7  A    between atoms: C8_15  and  C9_16 
REMARK    8  A    between atoms: C12_19  and  C13_20 
REMARK       I    between atoms: C13_20  and  N1_22 
REMARK    9  A    between atoms: N1_22  and  C14_24 
REMARK   10  A    between atoms: C20_30  and  C21_31 
ROOT
HETATM    1  C1  UNL     1      37.165 -26.297  25.667  1.00  0.00     0.097 C 
HETATM    2  C2  UNL     1      36.727 -25.828  24.628  1.00  0.00    -0.183 C 
HETATM    3  C3  UNL     1      36.224 -25.256  23.362  1.00  0.00     0.146 C 
ENDROOT
BRANCH   3   4
HETATM    4  C4  UNL     1      35.730 -23.839  23.557  1.00  0.00     0.264 C 
BRANCH   4   5
HETATM    5  O1  UNL     1      35.304 -23.821  24.879  1.00  0.00    -0.365 OA
ATOM      6  H1  UNL     1      36.020 -24.231  25.351  1.00  0.00     0.212 HD
ENDBRANCH   4   5
BRANCH   4   7
HETATM    7  C5  UNL     1      34.532 -23.709  22.656  1.00  0.00     0.226 C 
HETATM    8  O2  UNL     1      33.665 -22.868  23.010  1.00  0.00    -0.645 OA
HETATM    9  O3  UNL     1      34.349 -24.438  21.513  1.00  0.00    -0.645 OA
ENDBRANCH   4   7
BRANCH   4  10
HETATM   10  S1  UNL     1      36.943 -22.631  23.115  1.00  0.00     0.221 S 
HETATM   11  O4  UNL     1      36.939 -22.338  21.631  1.00  0.00    -0.219 OA
HETATM   12  O5  UNL     1      38.222 -23.512  23.145  1.00  0.00    -0.219 OA
BRANCH  10  13
HETATM   13  C6  UNL     1      37.047 -21.315  24.159  1.00  0.00     0.084 A 
HETATM   14  C7  UNL     1      36.496 -20.094  23.904  1.00  0.00    -0.016 A 
HETATM   15  C11 UNL     1      36.766 -19.031  24.806  1.00  0.00     0.030 A 
HETATM   16  C12 UNL     1      37.551 -19.175  25.933  1.00  0.00     0.043 A 
HETATM   17  C18 UNL     1      38.099 -20.397  26.199  1.00  0.00    -0.008 A 
HETATM   18  C19 UNL     1      38.870 -20.603  27.324  1.00  0.00     0.021 A 
HETATM   19  C26 UNL     1      37.835 -21.449  25.309  1.00  0.00    -0.002 A 
HETATM   20  C20 UNL     1      39.409 -21.837  27.638  1.00  0.00    -0.052 A 
HETATM   21  C23 UNL     1      39.156 -22.867  26.796  1.00  0.00    -0.055 A 
HETATM   22  C24 UNL     1      39.678 -24.223  27.056  1.00  0.00     0.049 C 
HETATM   23  C25 UNL     1      38.374 -22.657  25.650  1.00  0.00     0.021 A 
BRANCH  14  24
HETATM   24  C8  UNL     1      35.562 -19.820  22.837  1.00  0.00    -0.014 C 
BRANCH  24  25
HETATM   25  C9  UNL     1      35.231 -18.482  22.357  1.00  0.00     0.023 C 
HETATM   26  C10 UNL     1      35.579 -18.457  20.857  1.00  0.00     0.009 C 
ENDBRANCH  24  25
ENDBRANCH  14  24
BRANCH  16  27
HETATM   27  C13 UNL     1      37.676 -18.046  26.816  1.00  0.00     0.253 C 
HETATM   28  O6  UNL     1      38.743 -17.350  26.649  1.00  0.00    -0.268 OA
HETATM   29  N1  UNL     1      36.817 -17.579  27.815  1.00  0.00    -0.349 N 
ATOM     30  H1  UNL     1      35.947 -18.086  27.980  1.00  0.00     0.163 HD
BRANCH  29  31
HETATM   31  C14 UNL     1      37.098 -16.409  28.631  1.00  0.00     0.022 C 
HETATM   32  C15 UNL     1      35.789 -15.883  29.163  1.00  0.00     0.037 C 
HETATM   33  C16 UNL     1      37.768 -15.374  27.785  1.00  0.00     0.037 C 
HETATM   34  C17 UNL     1      37.995 -16.772  29.801  1.00  0.00     0.037 C 
ENDBRANCH  29  31
ENDBRANCH  16  27
BRANCH  20  35
HETATM   35  C21 UNL     1      40.233 -21.973  28.862  1.00  0.00     0.034 C 
HETATM   36  C22 UNL     1      40.939 -20.711  29.265  1.00  0.00     0.010 C 
ENDBRANCH  20  35
ENDBRANCH  10  13
ENDBRANCH   4  10
ENDBRANCH   3   4
TORSDOF 10
ENDMDL
MODEL 4
REMARK VINA RESULT: -6.841704228      4.003      7.959
REMARK  10 active torsions:
REMARK  status: ('A' for Active; 'I' for Inactive)
REMARK    1  A    between atoms: C3_3  and  C4_4 
REMARK    2  A    between atoms: C4_4  and  O1_5 
REMARK    3  A    between atoms: C4_4  and  C5_7 
REMARK    4  A    between atoms: C4_4  and  S1_10 
REMARK    5  A    between atoms: S1_10  and  C6_13 
REMARK    6  A    between atoms: C7_14  and  C8_15 
REMARK    7  A    between atoms: C8_15  and  C9_16 
REMARK    8  A    between atoms: C12_19  and  C13_20 
REMARK       I    between atoms: C13_20  and  N1_22 
REMARK    9  A    between atoms: N1_22  and  C14_24 
REMARK   10  A    between atoms: C20_30  and  C21_31 
ROOT
HETATM    1  C1  UNL     1      41.997 -19.856  25.945  1.00  0.00     0.097 C 
HETATM    2  C2  UNL     1      42.394 -20.759  26.664  1.00  0.00    -0.183 C 
HETATM    3  C3  UNL     1      42.852 -21.868  27.527  1.00  0.00     0.146 C 
ENDROOT
BRANCH   3   4
HETATM    4  C4  UNL     1      42.505 -21.614  28.978  1.00  0.00     0.264 C 
BRANCH   4   5
HETATM    5  O1  UNL     1      42.556 -20.230  29.090  1.00  0.00    -0.365 OA
ATOM      6  H1  UNL     1      41.651 -19.963  28.980  1.00  0.00     0.212 HD
ENDBRANCH   4   5
BRANCH   4   7
HETATM    7  C5  UNL     1      43.640 -22.210  29.766  1.00  0.00     0.226 C 
HETATM    8  O2  UNL     1      44.425 -22.956  29.124  1.00  0.00    -0.645 OA
HETATM    9  O3  UNL     1      43.848 -21.987  31.099  1.00  0.00    -0.645 OA
ENDBRANCH   4   7
BRANCH   4  10
HETATM   10  S1  UNL     1      40.982 -22.377  29.454  1.00  0.00     0.221 S 
HETATM   11  O4  UNL     1      40.543 -21.954  30.839  1.00  0.00    -0.219 OA
HETATM   12  O5  UNL     1      41.498 -23.793  29.828  1.00  0.00    -0.219 OA
BRANCH  10  13
HETATM   13  C6  UNL     1      39.805 -22.420  28.252  1.00  0.00     0.084 A 
HETATM   14  C7  UNL     1      39.525 -23.521  27.498  1.00  0.00    -0.016 A 
HETATM   15  C11 UNL     1      38.599 -23.389  26.429  1.00  0.00     0.030 A 
HETATM   16  C12 UNL     1      37.962 -22.203  26.122  1.00  0.00     0.043 A 
HETATM   17  C18 UNL     1      38.231 -21.099  26.877  1.00  0.00    -0.008 A 
HETATM   18  C19 UNL     1      37.604 -19.895  26.630  1.00  0.00     0.021 A 
HETATM   19  C26 UNL     1      39.146 -21.225  27.933  1.00  0.00    -0.002 A 
HETATM   20  C20 UNL     1      37.830 -18.769  27.400  1.00  0.00    -0.052 A 
HETATM   21  C23 UNL     1      38.702 -18.875  28.430  1.00  0.00    -0.055 A 
HETATM   22  C24 UNL     1      38.998 -17.731  29.314  1.00  0.00     0.049 C 
HETATM   23  C25 UNL     1      39.343 -20.099  28.680  1.00  0.00     0.021 A 
BRANCH  14  24
HETATM   24  C8  UNL     1      40.018 -24.850  27.771  1.00  0.00    -0.014 C 
BRANCH  24  25
HETATM   25  C9  UNL     1      39.773 -26.009  26.917  1.00  0.00     0.023 C 
HETATM   26  C10 UNL     1      40.927 -26.997  27.178  1.00  0.00     0.009 C 
ENDBRANCH  24  25
ENDBRANCH  14  24
BRANCH  16  27
HETATM   27  C13 UNL     1      36.979 -22.220  25.072  1.00  0.00     0.253 C 
HETATM   28  O6  UNL     1      35.829 -22.676  25.422  1.00  0.00    -0.268 OA
HETATM   29  N1  UNL     1      37.070 -21.808  23.740  1.00  0.00    -0.349 N 
ATOM     30  H1  UNL     1      37.957 -21.424  23.412  1.00  0.00     0.163 HD
BRANCH  29  31
HETATM   31  C14 UNL     1      35.968 -21.899  22.795  1.00  0.00     0.022 C 
HETATM   32  C15 UNL     1      36.480 -21.490  21.437  1.00  0.00     0.037 C 
HETATM   33  C16 UNL     1      34.872 -20.981  23.234  1.00  0.00     0.037 C 
HETATM   34  C17 UNL     1      35.442 -23.321  22.716  1.00  0.00     0.037 C 
ENDBRANCH  29  31
ENDBRANCH  16  27
BRANCH  20  35
HETATM   35  C21 UNL     1      37.122 -17.511  27.063  1.00  0.00     0.034 C 
HETATM   36  C22 UNL     1      37.498 -16.940  25.726  1.00  0.00     0.010 C 
ENDBRANCH  20  35
ENDBRANCH  10  13
ENDBRANCH   4  10
ENDBRANCH   3   4
TORSDOF 10
ENDMDL
MODEL 5
REMARK VINA RESULT: -6.784901298      4.268      8.006
REMARK  10 active torsions:
REMARK  status: ('A' for Active; 'I' for Inactive)
REMARK    1  A    between atoms: C3_3  and  C4_4 
REMARK    2  A    between atoms: C4_4  and  O1_5 
REMARK    3  A    between atoms: C4_4  and  C5_7 
REMARK    4  A    between atoms: C4_4  and  S1_10 
REMARK    5  A    between atoms: S1_10  and  C6_13 
REMARK    6  A    between atoms: C7_14  and  C8_15 
REMARK    7  A    between atoms: C8_15  and  C9_16 
REMARK    8  A    between atoms: C12_19  and  C13_20 
REMARK       I    between atoms: C13_20  and  N1_22 
REMARK    9  A    between atoms: N1_22  and  C14_24 
REMARK   10  A    between atoms: C20_30  and  C21_31 
ROOT
HETATM    1  C1  UNL     1      42.603 -20.245  26.240  1.00  0.00     0.097 C 
HETATM    2  C2  UNL     1      42.964 -21.057  27.078  1.00  0.00    -0.183 C 
HETATM    3  C3  UNL     1      43.379 -22.055  28.085  1.00  0.00     0.146 C 
ENDROOT
BRANCH   3   4
HETATM    4  C4  UNL     1      42.920 -21.661  29.471  1.00  0.00     0.264 C 
BRANCH   4   5
HETATM    5  O1  UNL     1      42.937 -20.273  29.440  1.00  0.00    -0.365 OA
ATOM      6  H1  UNL     1      43.803 -20.052  29.765  1.00  0.00     0.212 HD
ENDBRANCH   4   5
BRANCH   4   7
HETATM    7  C5  UNL     1      44.004 -22.142  30.399  1.00  0.00     0.226 C 
HETATM    8  O2  UNL     1      44.840 -22.941  29.901  1.00  0.00    -0.645 OA
HETATM    9  O3  UNL     1      44.116 -21.764  31.708  1.00  0.00    -0.645 OA
ENDBRANCH   4   7
BRANCH   4  10
HETATM   10  S1  UNL     1      41.381 -22.410  29.914  1.00  0.00     0.221 S 
HETATM   11  O4  UNL     1      40.794 -21.804  31.170  1.00  0.00    -0.219 OA
HETATM   12  O5  UNL     1      41.898 -23.730  30.548  1.00  0.00    -0.219 OA
BRANCH  10  13
HETATM   13  C6  UNL     1      40.330 -22.684  28.628  1.00  0.00     0.084 A 
HETATM   14  C7  UNL     1      40.213 -23.879  27.981  1.00  0.00    -0.016 A 
HETATM   15  C11 UNL     1      39.385 -23.944  26.829  1.00  0.00     0.030 A 
HETATM   16  C12 UNL     1      38.688 -22.859  26.336  1.00  0.00     0.043 A 
HETATM   17  C18 UNL     1      38.795 -21.661  26.982  1.00  0.00    -0.008 A 
HETATM   18  C19 UNL     1      38.100 -20.552  26.548  1.00  0.00     0.021 A 
HETATM   19  C26 UNL     1      39.612 -21.594  28.120  1.00  0.00    -0.002 A 
HETATM   20  C20 UNL     1      38.161 -19.335  27.203  1.00  0.00    -0.052 A 
HETATM   21  C23 UNL     1      38.937 -19.254  28.310  1.00  0.00    -0.055 A 
HETATM   22  C24 UNL     1      39.054 -18.001  29.081  1.00  0.00     0.049 C 
HETATM   23  C25 UNL     1      39.647 -20.382  28.749  1.00  0.00     0.021 A 
BRANCH  14  24
HETATM   24  C8  UNL     1      40.782 -25.123  28.443  1.00  0.00    -0.014 C 
BRANCH  24  25
HETATM   25  C9  UNL     1      40.544 -26.420  27.816  1.00  0.00     0.023 C 
HETATM   26  C10 UNL     1      40.807 -27.485  28.897  1.00  0.00     0.009 C 
ENDBRANCH  24  25
ENDBRANCH  14  24
BRANCH  16  27
HETATM   27  C13 UNL     1      37.813 -23.074  25.214  1.00  0.00     0.253 C 
HETATM   28  O6  UNL     1      38.241 -22.594  24.101  1.00  0.00    -0.268 OA
HETATM   29  N1  UNL     1      36.582 -23.730  25.139  1.00  0.00    -0.349 N 
ATOM     30  H1  UNL     1      36.202 -24.143  25.991  1.00  0.00     0.163 HD
BRANCH  29  31
HETATM   31  C14 UNL     1      35.814 -23.856  23.911  1.00  0.00     0.022 C 
HETATM   32  C15 UNL     1      34.704 -24.847  24.152  1.00  0.00     0.037 C 
HETATM   33  C16 UNL     1      36.714 -24.341  22.820  1.00  0.00     0.037 C 
HETATM   34  C17 UNL     1      35.205 -22.522  23.517  1.00  0.00     0.037 C 
ENDBRANCH  29  31
ENDBRANCH  16  27
BRANCH  20  35
HETATM   35  C21 UNL     1      37.391 -18.189  26.666  1.00  0.00     0.034 C 
HETATM   36  C22 UNL     1      37.135 -18.263  25.188  1.00  0.00     0.010 C 
ENDBRANCH  20  35
ENDBRANCH  10  13
ENDBRANCH   4  10
ENDBRANCH   3   4
TORSDOF 10
ENDMDL
