MODEL 1
REMARK VINA RESULT: -8.183732018      0.000      0.000
REMARK  8 active torsions:
REMARK  status: ('A' for Active; 'I' for Inactive)
REMARK    1  A    between atoms: C3_3  and  O1_4 
REMARK    2  A    between atoms: C20_22  and  C21_23 
REMARK    3  A    between atoms: C21_23  and  O2_24 
REMARK    4  A    between atoms: C21_23  and  C23_26 
REMARK    5  A    between atoms: C23_26  and  N1_27 
REMARK    6  A    between atoms: C23_26  and  C28_33 
REMARK    7  A    between atoms: N1_27  and  C24_29 
REMARK    8  A    between atoms: C24_29  and  C25_30 
ROOT
HETATM    1  C1  UNL     1      43.167  47.154  54.549  1.00  0.00     0.017 C 
HETATM    2  C2  UNL     1      43.210  47.828  55.726  1.00  0.00    -0.052 C 
HETATM    3  C3  UNL     1      44.258  47.483  56.672  1.00  0.00     0.147 C 
HETATM    4  C4  UNL     1      44.379  48.564  57.720  1.00  0.00     0.037 C 
HETATM    5  C5  UNL     1      44.259  49.946  57.136  1.00  0.00     0.013 C 
HETATM    6  C6  UNL     1      43.018  50.169  56.319  1.00  0.00    -0.029 C 
HETATM    7  C7  UNL     1      43.460  50.716  54.944  1.00  0.00     0.016 C 
HETATM    8  C8  UNL     1      42.258  48.915  56.019  1.00  0.00     0.047 C 
HETATM    9  C9  UNL     1      41.223  48.631  57.000  1.00  0.00    -0.020 C 
HETATM   10  C10 UNL     1      40.876  49.385  58.033  1.00  0.00    -0.024 C 
HETATM   11  C11 UNL     1      41.570  50.634  58.280  1.00  0.00     0.017 C 
HETATM   12  C12 UNL     1      42.156  51.225  56.992  1.00  0.00     0.003 C 
HETATM   13  C13 UNL     1      41.078  51.760  56.119  1.00  0.00     0.007 C 
HETATM   14  C14 UNL     1      39.800  52.163  56.899  1.00  0.00     0.010 C 
HETATM   15  C15 UNL     1      40.176  52.738  58.167  1.00  0.00    -0.033 C 
HETATM   16  C16 UNL     1      41.215  53.863  57.875  1.00  0.00     0.016 C 
HETATM   17  C17 UNL     1      40.906  51.698  59.050  1.00  0.00     0.002 C 
HETATM   18  C18 UNL     1      39.925  51.305  60.095  1.00  0.00     0.006 C 
HETATM   19  C19 UNL     1      38.630  51.980  59.672  1.00  0.00     0.009 C 
HETATM   20  C20 UNL     1      39.238  53.298  59.162  1.00  0.00     0.029 C 
ENDROOT
BRANCH  20  21
HETATM   21  C21 UNL     1      38.202  54.225  58.700  1.00  0.00     0.182 C 
BRANCH  21  22
HETATM   22  O2  UNL     1      38.783  55.552  58.753  1.00  0.00    -0.384 OA
HETATM   23  C22 UNL     1      38.597  56.106  57.463  1.00  0.00     0.202 C 
ENDBRANCH  21  22
BRANCH  21  24
HETATM   24  C23 UNL     1      37.028  54.498  59.588  1.00  0.00     0.112 C 
BRANCH  24  25
HETATM   25  N1  UNL     1      37.111  54.821  60.932  1.00  0.00    -0.385 N 
ATOM     26  H1  UNL     1      37.188  55.805  61.189  1.00  0.00     0.159 HD
BRANCH  25  27
HETATM   27  C24 UNL     1      37.093  53.860  61.964  1.00  0.00     0.123 C 
BRANCH  27  28
HETATM   28  C25 UNL     1      35.915  52.921  62.002  1.00  0.00    -0.005 C 
HETATM   29  C26 UNL     1      34.714  53.495  62.707  1.00  0.00     0.011 C 
HETATM   30  C27 UNL     1      36.329  51.641  62.663  1.00  0.00     0.011 C 
ENDBRANCH  27  28
ENDBRANCH  25  27
ENDBRANCH  24  25
BRANCH  24  31
HETATM   31  C28 UNL     1      35.719  54.685  58.984  1.00  0.00     0.224 C 
HETATM   32  O3  UNL     1      35.492  54.584  57.712  1.00  0.00    -0.643 OA
HETATM   33  O4  UNL     1      34.543  54.975  59.709  1.00  0.00    -0.643 OA
ENDBRANCH  24  31
ENDBRANCH  21  24
ENDBRANCH  20  21
BRANCH   3  34
HETATM   34  O1  UNL     1      43.973  46.281  57.354  1.00  0.00    -0.391 OA
ATOM     35  H1  UNL     1      44.747  45.922  57.773  1.00  0.00     0.210 HD
ENDBRANCH   3  34
TORSDOF 8
ENDMDL
MODEL 2
REMARK VINA RESULT: -8.129238844      1.115      1.394
REMARK  8 active torsions:
REMARK  status: ('A' for Active; 'I' for Inactive)
REMARK    1  A    between atoms: C3_3  and  O1_4 
REMARK    2  A    between atoms: C20_22  and  C21_23 
REMARK    3  A    between atoms: C21_23  and  O2_24 
REMARK    4  A    between atoms: C21_23  and  C23_26 
REMARK    5  A    between atoms: C23_26  and  N1_27 
REMARK    6  A    between atoms: C23_26  and  C28_33 
REMARK    7  A    between atoms: N1_27  and  C24_29 
REMARK    8  A    between atoms: C24_29  and  C25_30 
ROOT
HETATM    1  C1  UNL     1      43.303  47.145  55.008  1.00  0.00     0.017 C 
HETATM    2  C2  UNL     1      43.378  48.062  56.005  1.00  0.00    -0.052 C 
HETATM    3  C3  UNL     1      44.605  48.126  56.782  1.00  0.00     0.147 C 
HETATM    4  C4  UNL     1      44.651  49.419  57.562  1.00  0.00     0.037 C 
HETATM    5  C5  UNL     1      44.156  50.592  56.759  1.00  0.00     0.013 C 
HETATM    6  C6  UNL     1      42.787  50.407  56.167  1.00  0.00    -0.029 C 
HETATM    7  C7  UNL     1      42.894  50.700  54.654  1.00  0.00     0.016 C 
HETATM    8  C8  UNL     1      42.273  49.004  56.262  1.00  0.00     0.047 C 
HETATM    9  C9  UNL     1      41.481  48.771  57.458  1.00  0.00    -0.020 C 
HETATM   10  C10 UNL     1      41.141  49.665  58.376  1.00  0.00    -0.024 C 
HETATM   11  C11 UNL     1      41.585  51.039  58.243  1.00  0.00     0.017 C 
HETATM   12  C12 UNL     1      41.833  51.419  56.779  1.00  0.00     0.003 C 
HETATM   13  C13 UNL     1      40.549  51.548  56.042  1.00  0.00     0.007 C 
HETATM   14  C14 UNL     1      39.346  51.886  56.960  1.00  0.00     0.010 C 
HETATM   15  C15 UNL     1      39.777  52.787  58.000  1.00  0.00    -0.033 C 
HETATM   16  C16 UNL     1      40.500  53.983  57.306  1.00  0.00     0.016 C 
HETATM   17  C17 UNL     1      40.834  52.116  58.909  1.00  0.00     0.002 C 
HETATM   18  C18 UNL     1      40.126  51.802  60.177  1.00  0.00     0.006 C 
HETATM   19  C19 UNL     1      38.669  52.128  59.889  1.00  0.00     0.009 C 
HETATM   20  C20 UNL     1      38.902  53.384  59.030  1.00  0.00     0.029 C 
ENDROOT
BRANCH  20  21
HETATM   21  C21 UNL     1      37.637  53.988  58.607  1.00  0.00     0.182 C 
BRANCH  21  22
HETATM   22  O2  UNL     1      37.963  55.294  58.070  1.00  0.00    -0.384 OA
HETATM   23  C22 UNL     1      37.129  55.466  56.939  1.00  0.00     0.202 C 
ENDBRANCH  21  22
BRANCH  21  24
HETATM   24  C23 UNL     1      36.671  54.450  59.652  1.00  0.00     0.112 C 
BRANCH  24  25
HETATM   25  N1  UNL     1      35.574  53.727  60.092  1.00  0.00    -0.385 N 
ATOM     26  H1  UNL     1      35.493  52.751  59.808  1.00  0.00     0.159 HD
BRANCH  25  27
HETATM   27  C24 UNL     1      34.565  54.271  60.913  1.00  0.00     0.123 C 
BRANCH  27  28
HETATM   28  C25 UNL     1      34.447  53.717  62.309  1.00  0.00    -0.005 C 
HETATM   29  C26 UNL     1      34.275  54.778  63.363  1.00  0.00     0.011 C 
HETATM   30  C27 UNL     1      35.659  52.889  62.612  1.00  0.00     0.011 C 
ENDBRANCH  27  28
ENDBRANCH  25  27
ENDBRANCH  24  25
BRANCH  24  31
HETATM   31  C28 UNL     1      37.006  55.617  60.452  1.00  0.00     0.224 C 
HETATM   32  O3  UNL     1      37.826  55.590  61.455  1.00  0.00    -0.643 OA
HETATM   33  O4  UNL     1      36.498  56.914  60.220  1.00  0.00    -0.643 OA
ENDBRANCH  24  31
ENDBRANCH  21  24
ENDBRANCH  20  21
BRANCH   3  34
HETATM   34  O1  UNL     1      44.686  47.077  57.721  1.00  0.00    -0.391 OA
ATOM     35  H1  UNL     1      45.419  47.192  58.315  1.00  0.00     0.210 HD
ENDBRANCH   3  34
TORSDOF 8
ENDMDL
MODEL 3
REMARK VINA RESULT: -8.040152566      3.058      5.482
REMARK  8 active torsions:
REMARK  status: ('A' for Active; 'I' for Inactive)
REMARK    1  A    between atoms: C3_3  and  O1_4 
REMARK    2  A    between atoms: C20_22  and  C21_23 
REMARK    3  A    between atoms: C21_23  and  O2_24 
REMARK    4  A    between atoms: C21_23  and  C23_26 
REMARK    5  A    between atoms: C23_26  and  N1_27 
REMARK    6  A    between atoms: C23_26  and  C28_33 
REMARK    7  A    between atoms: N1_27  and  C24_29 
REMARK    8  A    between atoms: C24_29  and  C25_30 
ROOT
HETATM    1  C1  UNL     1      40.530  51.323  56.011  1.00  0.00     0.017 C 
HETATM    2  C2  UNL     1      40.471  51.680  57.319  1.00  0.00    -0.052 C 
HETATM    3  C3  UNL     1      41.651  51.464  58.139  1.00  0.00     0.147 C 
HETATM    4  C4  UNL     1      41.533  52.250  59.424  1.00  0.00     0.037 C 
HETATM    5  C5  UNL     1      40.958  53.623  59.205  1.00  0.00     0.013 C 
HETATM    6  C6  UNL     1      39.641  53.637  58.481  1.00  0.00    -0.029 C 
HETATM    7  C7  UNL     1      39.782  54.602  57.283  1.00  0.00     0.016 C 
HETATM    8  C8  UNL     1      39.267  52.317  57.883  1.00  0.00     0.047 C 
HETATM    9  C9  UNL     1      38.452  51.504  58.770  1.00  0.00    -0.020 C 
HETATM   10  C10 UNL     1      37.985  51.848  59.962  1.00  0.00    -0.024 C 
HETATM   11  C11 UNL     1      38.295  53.155  60.508  1.00  0.00     0.017 C 
HETATM   12  C12 UNL     1      38.565  54.184  59.404  1.00  0.00     0.003 C 
HETATM   13  C13 UNL     1      37.307  54.548  58.702  1.00  0.00     0.007 C 
HETATM   14  C14 UNL     1      36.038  54.340  59.569  1.00  0.00     0.010 C 
HETATM   15  C15 UNL     1      36.332  54.688  60.938  1.00  0.00    -0.033 C 
HETATM   16  C16 UNL     1      36.960  56.115  60.928  1.00  0.00     0.016 C 
HETATM   17  C17 UNL     1      37.412  53.748  61.526  1.00  0.00     0.002 C 
HETATM   18  C18 UNL     1      36.686  52.836  62.448  1.00  0.00     0.006 C 
HETATM   19  C19 UNL     1      35.217  53.156  62.218  1.00  0.00     0.009 C 
HETATM   20  C20 UNL     1      35.358  54.679  62.049  1.00  0.00     0.029 C 
ENDROOT
BRANCH  20  21
HETATM   21  C21 UNL     1      34.058  55.320  61.843  1.00  0.00     0.182 C 
BRANCH  21  22
HETATM   22  O2  UNL     1      34.332  56.671  61.392  1.00  0.00    -0.384 OA
HETATM   23  C22 UNL     1      33.545  56.856  60.229  1.00  0.00     0.202 C 
ENDBRANCH  21  22
BRANCH  21  24
HETATM   24  C23 UNL     1      33.234  55.685  63.038  1.00  0.00     0.112 C 
BRANCH  24  25
HETATM   25  N1  UNL     1      33.167  56.950  63.597  1.00  0.00    -0.385 N 
ATOM     26  H1  UNL     1      32.947  57.737  62.987  1.00  0.00     0.159 HD
BRANCH  25  27
HETATM   27  C24 UNL     1      33.387  57.206  64.966  1.00  0.00     0.123 C 
BRANCH  27  28
HETATM   28  C25 UNL     1      32.874  58.515  65.507  1.00  0.00    -0.005 C 
HETATM   29  C26 UNL     1      31.464  58.437  66.031  1.00  0.00     0.011 C 
HETATM   30  C27 UNL     1      32.961  59.557  64.434  1.00  0.00     0.011 C 
ENDBRANCH  27  28
ENDBRANCH  25  27
ENDBRANCH  24  25
BRANCH  24  31
HETATM   31  C28 UNL     1      32.242  54.739  63.522  1.00  0.00     0.224 C 
HETATM   32  O3  UNL     1      31.392  55.007  64.463  1.00  0.00    -0.643 OA
HETATM   33  O4  UNL     1      32.072  53.433  63.014  1.00  0.00    -0.643 OA
ENDBRANCH  24  31
ENDBRANCH  21  24
ENDBRANCH  20  21
BRANCH   3  34
HETATM   34  O1  UNL     1      41.797  50.108  58.501  1.00  0.00    -0.391 OA
ATOM     35  H1  UNL     1      42.330  50.006  59.281  1.00  0.00     0.210 HD
ENDBRANCH   3  34
TORSDOF 8
ENDMDL
MODEL 4
REMARK VINA RESULT: -8.029586715      1.406      2.360
REMARK  8 active torsions:
REMARK  status: ('A' for Active; 'I' for Inactive)
REMARK    1  A    between atoms: C3_3  and  O1_4 
REMARK    2  A    between atoms: C20_22  and  C21_23 
REMARK    3  A    between atoms: C21_23  and  O2_24 
REMARK    4  A    between atoms: C21_23  and  C23_26 
REMARK    5  A    between atoms: C23_26  and  N1_27 
REMARK    6  A    between atoms: C23_26  and  C28_33 
REMARK    7  A    between atoms: N1_27  and  C24_29 
REMARK    8  A    between atoms: C24_29  and  C25_30 
ROOT
HETATM    1  C1  UNL     1      43.341  47.081  54.761  1.00  0.00     0.017 C 
HETATM    2  C2  UNL     1      43.370  47.855  55.876  1.00  0.00    -0.052 C 
HETATM    3  C3  UNL     1      44.472  47.669  56.806  1.00  0.00     0.147 C 
HETATM    4  C4  UNL     1      44.544  48.842  57.755  1.00  0.00     0.037 C 
HETATM    5  C5  UNL     1      44.301  50.156  57.064  1.00  0.00     0.013 C 
HETATM    6  C6  UNL     1      43.020  50.218  56.280  1.00  0.00    -0.029 C 
HETATM    7  C7  UNL     1      43.375  50.676  54.848  1.00  0.00     0.016 C 
HETATM    8  C8  UNL     1      42.348  48.890  56.114  1.00  0.00     0.047 C 
HETATM    9  C9  UNL     1      41.371  48.616  57.155  1.00  0.00    -0.020 C 
HETATM   10  C10 UNL     1      41.001  49.429  58.135  1.00  0.00    -0.024 C 
HETATM   11  C11 UNL     1      41.606  50.742  58.250  1.00  0.00     0.017 C 
HETATM   12  C12 UNL     1      42.103  51.261  56.896  1.00  0.00     0.003 C 
HETATM   13  C13 UNL     1      40.960  51.640  56.024  1.00  0.00     0.007 C 
HETATM   14  C14 UNL     1      39.681  52.014  56.817  1.00  0.00     0.010 C 
HETATM   15  C15 UNL     1      40.053  52.721  58.018  1.00  0.00    -0.033 C 
HETATM   16  C16 UNL     1      40.994  53.890  57.593  1.00  0.00     0.016 C 
HETATM   17  C17 UNL     1      40.888  51.817  58.955  1.00  0.00     0.002 C 
HETATM   18  C18 UNL     1      39.975  51.443  60.066  1.00  0.00     0.006 C 
HETATM   19  C19 UNL     1      38.619  51.983  59.639  1.00  0.00     0.009 C 
HETATM   20  C20 UNL     1      39.108  53.294  58.998  1.00  0.00     0.029 C 
ENDROOT
BRANCH  20  21
HETATM   21  C21 UNL     1      37.990  54.100  58.502  1.00  0.00     0.182 C 
BRANCH  21  22
HETATM   22  O2  UNL     1      38.497  55.448  58.334  1.00  0.00    -0.384 OA
HETATM   23  C22 UNL     1      37.887  55.946  57.157  1.00  0.00     0.202 C 
ENDBRANCH  21  22
BRANCH  21  24
HETATM   24  C23 UNL     1      36.869  54.435  59.435  1.00  0.00     0.112 C 
BRANCH  24  25
HETATM   25  N1  UNL     1      35.526  54.244  59.159  1.00  0.00    -0.385 N 
ATOM     26  H1  UNL     1      35.222  53.322  58.844  1.00  0.00     0.159 HD
BRANCH  25  27
HETATM   27  C24 UNL     1      34.554  55.258  59.292  1.00  0.00     0.123 C 
BRANCH  27  28
HETATM   28  C25 UNL     1      33.990  55.833  58.019  1.00  0.00    -0.005 C 
HETATM   29  C26 UNL     1      34.356  55.043  56.790  1.00  0.00     0.011 C 
HETATM   30  C27 UNL     1      34.456  57.250  57.871  1.00  0.00     0.011 C 
ENDBRANCH  27  28
ENDBRANCH  25  27
ENDBRANCH  24  25
BRANCH  24  31
HETATM   31  C28 UNL     1      37.179  54.754  60.819  1.00  0.00     0.224 C 
HETATM   32  O3  UNL     1      37.481  55.945  61.232  1.00  0.00    -0.643 OA
HETATM   33  O4  UNL     1      37.166  53.817  61.875  1.00  0.00    -0.643 OA
ENDBRANCH  24  31
ENDBRANCH  21  24
ENDBRANCH  20  21
BRANCH   3  34
HETATM   34  O1  UNL     1      44.302  46.512  57.595  1.00  0.00    -0.391 OA
ATOM     35  H1  UNL     1      44.870  46.519  58.357  1.00  0.00     0.210 HD
ENDBRANCH   3  34
TORSDOF 8
ENDMDL
MODEL 5
REMARK VINA RESULT: -7.674749447      4.115      9.684
REMARK  8 active torsions:
REMARK  status: ('A' for Active; 'I' for Inactive)
REMARK    1  A    between atoms: C3_3  and  O1_4 
REMARK    2  A    between atoms: C20_22  and  C21_23 
REMARK    3  A    between atoms: C21_23  and  O2_24 
REMARK    4  A    between atoms: C21_23  and  C23_26 
REMARK    5  A    between atoms: C23_26  and  N1_27 
REMARK    6  A    between atoms: C23_26  and  C28_33 
REMARK    7  A    between atoms: N1_27  and  C24_29 
REMARK    8  A    between atoms: C24_29  and  C25_30 
ROOT
HETATM    1  C1  UNL     1      34.238  62.952  56.735  1.00  0.00     0.017 C 
HETATM    2  C2  UNL     1      34.510  61.769  56.128  1.00  0.00    -0.052 C 
HETATM    3  C3  UNL     1      34.154  61.625  54.726  1.00  0.00     0.147 C 
HETATM    4  C4  UNL     1      34.860  60.425  54.140  1.00  0.00     0.037 C 
HETATM    5  C5  UNL     1      36.283  60.307  54.615  1.00  0.00     0.013 C 
HETATM    6  C6  UNL     1      36.441  60.306  56.109  1.00  0.00    -0.029 C 
HETATM    7  C7  UNL     1      37.471  61.402  56.466  1.00  0.00     0.016 C 
HETATM    8  C8  UNL     1      35.195  60.681  56.849  1.00  0.00     0.047 C 
HETATM    9  C9  UNL     1      34.386  59.530  57.215  1.00  0.00    -0.020 C 
HETATM   10  C10 UNL     1      34.684  58.253  57.020  1.00  0.00    -0.024 C 
HETATM   11  C11 UNL     1      35.925  57.893  56.363  1.00  0.00     0.017 C 
HETATM   12  C12 UNL     1      37.003  58.967  56.555  1.00  0.00     0.003 C 
HETATM   13  C13 UNL     1      37.504  58.967  57.954  1.00  0.00     0.007 C 
HETATM   14  C14 UNL     1      37.332  57.601  58.668  1.00  0.00     0.010 C 
HETATM   15  C15 UNL     1      37.565  56.536  57.724  1.00  0.00    -0.033 C 
HETATM   16  C16 UNL     1      38.941  56.814  57.043  1.00  0.00     0.016 C 
HETATM   17  C17 UNL     1      36.512  56.562  56.591  1.00  0.00     0.002 C 
HETATM   18  C18 UNL     1      35.596  55.427  56.872  1.00  0.00     0.006 C 
HETATM   19  C19 UNL     1      36.037  54.912  58.233  1.00  0.00     0.009 C 
HETATM   20  C20 UNL     1      37.554  55.093  58.044  1.00  0.00     0.029 C 
ENDROOT
BRANCH  20  21
HETATM   21  C21 UNL     1      38.301  54.633  59.216  1.00  0.00     0.182 C 
BRANCH  21  22
HETATM   22  O2  UNL     1      39.639  54.317  58.754  1.00  0.00    -0.384 OA
HETATM   23  C22 UNL     1      40.520  54.977  59.645  1.00  0.00     0.202 C 
ENDBRANCH  21  22
BRANCH  21  24
HETATM   24  C23 UNL     1      37.981  53.291  59.797  1.00  0.00     0.112 C 
BRANCH  24  25
HETATM   25  N1  UNL     1      38.551  52.096  59.390  1.00  0.00    -0.385 N 
ATOM     26  H1  UNL     1      38.231  51.680  58.515  1.00  0.00     0.159 HD
BRANCH  25  27
HETATM   27  C24 UNL     1      39.550  51.424  60.123  1.00  0.00     0.123 C 
BRANCH  27  28
HETATM   28  C25 UNL     1      39.578  49.921  60.021  1.00  0.00    -0.005 C 
HETATM   29  C26 UNL     1      40.426  49.413  58.885  1.00  0.00     0.011 C 
HETATM   30  C27 UNL     1      38.176  49.413  59.877  1.00  0.00     0.011 C 
ENDBRANCH  27  28
ENDBRANCH  25  27
ENDBRANCH  24  25
BRANCH  24  31
HETATM   31  C28 UNL     1      37.210  53.223  61.028  1.00  0.00     0.224 C 
HETATM   32  O3  UNL     1      37.051  54.227  61.832  1.00  0.00    -0.643 OA
HETATM   33  O4  UNL     1      36.532  52.071  61.480  1.00  0.00    -0.643 OA
ENDBRANCH  24  31
ENDBRANCH  21  24
ENDBRANCH  20  21
BRANCH   3  34
HETATM   34  O1  UNL     1      32.770  61.409  54.557  1.00  0.00    -0.391 OA
ATOM     35  H1  UNL     1      32.398  61.999  53.911  1.00  0.00     0.210 HD
ENDBRANCH   3  34
TORSDOF 8
ENDMDL
