MODEL 1
REMARK VINA RESULT: -6.101456922      0.000      0.000
REMARK  6 active torsions:
REMARK  status: ('A' for Active; 'I' for Inactive)
REMARK    1  A    between atoms: C4_4  and  C5_5 
REMARK    2  A    between atoms: C8_12  and  C9_13 
REMARK    3  A    between atoms: C9_13  and  C10_14 
REMARK       I    between atoms: C10_14  and  N3_16 
REMARK    4  A    between atoms: N3_16  and  C12_18 
REMARK    5  A    between atoms: C12_18  and  C13_19 
REMARK    6  A    between atoms: C13_19  and  N4_20 
ROOT
HETATM    1  C1  UNL     1       0.022  27.673   0.198  1.00  0.00     0.049 C 
HETATM    2  C2  UNL     1       0.399  27.719   1.616  1.00  0.00    -0.055 A 
HETATM    3  C3  UNL     1       1.691  27.433   1.981  1.00  0.00     0.020 A 
HETATM    4  C4  UNL     1       2.113  27.460   3.332  1.00  0.00    -0.015 A 
HETATM    5  C8  UNL     1       1.201  27.780   4.273  1.00  0.00    -0.032 A 
HETATM    6  C16 UNL     1      -0.142  28.080   3.930  1.00  0.00    -0.048 A 
HETATM    7  C17 UNL     1      -1.105  28.425   5.017  1.00  0.00     0.049 C 
HETATM    8  C18 UNL     1      -0.505  28.040   2.600  1.00  0.00    -0.050 A 
HETATM    9  C19 UNL     1      -1.933  28.360   2.245  1.00  0.00     0.049 C 
ENDROOT
BRANCH   5  10
HETATM   10  C9  UNL     1       1.540  27.875   5.700  1.00  0.00     0.142 C 
BRANCH  10  11
HETATM   11  C10 UNL     1       1.312  26.577   6.384  1.00  0.00     0.223 C 
HETATM   12  O1  UNL     1       1.955  25.543   6.043  1.00  0.00    -0.273 OA
HETATM   13  N3  UNL     1       0.376  26.430   7.438  1.00  0.00    -0.355 N 
HETATM   14  C11 UNL     1       0.191  25.137   8.063  1.00  0.00     0.152 C 
BRANCH  13  15
HETATM   15  C12 UNL     1      -0.425  27.524   7.947  1.00  0.00     0.155 C 
BRANCH  15  16
HETATM   16  C13 UNL     1      -0.737  27.279   9.411  1.00  0.00     0.291 C 
BRANCH  16  17
HETATM   17  N4  UNL     1       0.044  28.214  10.229  1.00  0.00     0.081 N 
HETATM   18  C14 UNL     1      -0.780  28.889  11.188  1.00  0.00     0.309 C 
HETATM   19  C15 UNL     1       1.028  27.418  10.956  1.00  0.00     0.309 C 
ENDBRANCH  16  17
ENDBRANCH  15  16
ENDBRANCH  13  15
ENDBRANCH  10  11
ENDBRANCH   5  10
BRANCH   4  20
HETATM   20  C5  UNL     1       3.484  27.114   3.642  1.00  0.00     0.008 A 
HETATM   21  C6  UNL     1       4.413  28.160   3.853  1.00  0.00     0.120 A 
HETATM   22  N1  UNL     1       5.562  27.561   4.151  1.00  0.00    -0.311 N 
HETATM   23  N2  UNL     1       5.442  26.255   4.146  1.00  0.00    -0.311 N 
ATOM     24  H1  UNL     1       6.430  28.056   4.357  1.00  0.00     0.186 HD
HETATM   25  C7  UNL     1       4.175  25.976   3.837  1.00  0.00     0.120 A 
ATOM     26  H2  UNL     1       6.180  25.579   4.342  1.00  0.00     0.186 HD
ENDBRANCH   4  20
TORSDOF 6
ENDMDL
MODEL 2
REMARK VINA RESULT: -6.036641486      2.285      7.531
REMARK  6 active torsions:
REMARK  status: ('A' for Active; 'I' for Inactive)
REMARK    1  A    between atoms: C4_4  and  C5_5 
REMARK    2  A    between atoms: C8_12  and  C9_13 
REMARK    3  A    between atoms: C9_13  and  C10_14 
REMARK       I    between atoms: C10_14  and  N3_16 
REMARK    4  A    between atoms: N3_16  and  C12_18 
REMARK    5  A    between atoms: C12_18  and  C13_19 
REMARK    6  A    between atoms: C13_19  and  N4_20 
ROOT
HETATM    1  C1  UNL     1      -2.772  23.577  12.200  1.00  0.00     0.049 C 
HETATM    2  C2  UNL     1      -1.820  24.054  11.189  1.00  0.00    -0.055 A 
HETATM    3  C3  UNL     1      -1.250  25.295  11.331  1.00  0.00     0.020 A 
HETATM    4  C4  UNL     1      -0.327  25.809  10.388  1.00  0.00    -0.015 A 
HETATM    5  C8  UNL     1      -0.011  25.038   9.327  1.00  0.00    -0.032 A 
HETATM    6  C16 UNL     1      -0.583  23.751   9.151  1.00  0.00    -0.048 A 
HETATM    7  C17 UNL     1      -0.194  22.947   7.955  1.00  0.00     0.049 C 
HETATM    8  C18 UNL     1      -1.477  23.295  10.096  1.00  0.00    -0.050 A 
HETATM    9  C19 UNL     1      -2.078  21.928   9.900  1.00  0.00     0.049 C 
ENDROOT
BRANCH   5  10
HETATM   10  C9  UNL     1       0.963  25.456   8.310  1.00  0.00     0.142 C 
BRANCH  10  11
HETATM   11  C10 UNL     1       0.303  26.243   7.238  1.00  0.00     0.223 C 
HETATM   12  O1  UNL     1      -0.878  26.670   7.381  1.00  0.00    -0.273 OA
HETATM   13  N3  UNL     1       0.951  26.550   6.016  1.00  0.00    -0.355 N 
HETATM   14  C11 UNL     1       0.253  27.315   5.002  1.00  0.00     0.152 C 
BRANCH  13  15
HETATM   15  C12 UNL     1       2.306  26.141   5.710  1.00  0.00     0.155 C 
BRANCH  15  16
HETATM   16  C13 UNL     1       2.919  27.125   4.732  1.00  0.00     0.291 C 
BRANCH  16  17
HETATM   17  N4  UNL     1       4.042  26.479   4.043  1.00  0.00     0.081 N 
HETATM   18  C14 UNL     1       5.163  27.362   3.920  1.00  0.00     0.309 C 
HETATM   19  C15 UNL     1       4.446  25.344   4.868  1.00  0.00     0.309 C 
ENDBRANCH  16  17
ENDBRANCH  15  16
ENDBRANCH  13  15
ENDBRANCH  10  11
ENDBRANCH   5  10
BRANCH   4  20
HETATM   20  C5  UNL     1       0.207  27.139  10.588  1.00  0.00     0.008 A 
HETATM   21  C6  UNL     1       1.380  27.286  11.364  1.00  0.00     0.120 A 
HETATM   22  N1  UNL     1       1.657  28.587  11.348  1.00  0.00    -0.311 N 
HETATM   23  N2  UNL     1       0.778  29.259  10.644  1.00  0.00    -0.311 N 
ATOM     24  H1  UNL     1       2.454  29.009  11.824  1.00  0.00     0.186 HD
HETATM   25  C7  UNL     1      -0.110  28.381  10.177  1.00  0.00     0.120 A 
ATOM     26  H2  UNL     1       0.774  30.267  10.485  1.00  0.00     0.186 HD
ENDBRANCH   4  20
TORSDOF 6
ENDMDL
MODEL 3
REMARK VINA RESULT: -5.958713660      2.629      4.414
REMARK  6 active torsions:
REMARK  status: ('A' for Active; 'I' for Inactive)
REMARK    1  A    between atoms: C4_4  and  C5_5 
REMARK    2  A    between atoms: C8_12  and  C9_13 
REMARK    3  A    between atoms: C9_13  and  C10_14 
REMARK       I    between atoms: C10_14  and  N3_16 
REMARK    4  A    between atoms: N3_16  and  C12_18 
REMARK    5  A    between atoms: C12_18  and  C13_19 
REMARK    6  A    between atoms: C13_19  and  N4_20 
ROOT
HETATM    1  C1  UNL     1       4.712  27.274   2.852  1.00  0.00     0.049 C 
HETATM    2  C2  UNL     1       3.459  27.109   3.599  1.00  0.00    -0.055 A 
HETATM    3  C3  UNL     1       2.293  27.615   3.080  1.00  0.00     0.020 A 
HETATM    4  C4  UNL     1       1.055  27.489   3.754  1.00  0.00    -0.015 A 
HETATM    5  C8  UNL     1       1.043  26.846   4.941  1.00  0.00    -0.032 A 
HETATM    6  C16 UNL     1       2.231  26.313   5.504  1.00  0.00    -0.048 A 
HETATM    7  C17 UNL     1       2.153  25.613   6.821  1.00  0.00     0.049 C 
HETATM    8  C18 UNL     1       3.412  26.461   4.810  1.00  0.00    -0.050 A 
HETATM    9  C19 UNL     1       4.667  25.891   5.416  1.00  0.00     0.049 C 
ENDROOT
BRANCH   5  10
HETATM   10  C9  UNL     1      -0.191  26.625   5.706  1.00  0.00     0.142 C 
BRANCH  10  11
HETATM   11  C10 UNL     1      -0.263  27.544   6.870  1.00  0.00     0.223 C 
HETATM   12  O1  UNL     1       0.003  28.773   6.743  1.00  0.00    -0.273 OA
HETATM   13  N3  UNL     1      -0.627  27.099   8.165  1.00  0.00    -0.355 N 
HETATM   14  C11 UNL     1      -0.672  28.040   9.265  1.00  0.00     0.152 C 
BRANCH  13  15
HETATM   15  C12 UNL     1      -0.970  25.724   8.466  1.00  0.00     0.155 C 
BRANCH  15  16
HETATM   16  C13 UNL     1      -0.888  25.502   9.964  1.00  0.00     0.291 C 
BRANCH  16  17
HETATM   17  N4  UNL     1      -0.078  24.307  10.226  1.00  0.00     0.081 N 
HETATM   18  C14 UNL     1       0.017  23.471   9.067  1.00  0.00     0.309 C 
HETATM   19  C15 UNL     1       1.264  24.774  10.562  1.00  0.00     0.309 C 
ENDBRANCH  16  17
ENDBRANCH  15  16
ENDBRANCH  13  15
ENDBRANCH  10  11
ENDBRANCH   5  10
BRANCH   4  20
HETATM   20  C5  UNL     1      -0.126  28.077   3.160  1.00  0.00     0.008 A 
HETATM   21  C6  UNL     1      -0.648  27.500   1.979  1.00  0.00     0.120 A 
HETATM   22  N1  UNL     1      -1.734  28.208   1.685  1.00  0.00    -0.311 N 
HETATM   23  N2  UNL     1      -1.939  29.164   2.560  1.00  0.00    -0.311 N 
ATOM     24  H1  UNL     1      -2.333  28.031   0.880  1.00  0.00     0.186 HD
HETATM   25  C7  UNL     1      -0.961  29.088   3.464  1.00  0.00     0.120 A 
ATOM     26  H2  UNL     1      -2.703  29.839   2.551  1.00  0.00     0.186 HD
ENDBRANCH   4  20
TORSDOF 6
ENDMDL
MODEL 4
REMARK VINA RESULT: -5.866602222      1.894      5.980
REMARK  6 active torsions:
REMARK  status: ('A' for Active; 'I' for Inactive)
REMARK    1  A    between atoms: C4_4  and  C5_5 
REMARK    2  A    between atoms: C8_12  and  C9_13 
REMARK    3  A    between atoms: C9_13  and  C10_14 
REMARK       I    between atoms: C10_14  and  N3_16 
REMARK    4  A    between atoms: N3_16  and  C12_18 
REMARK    5  A    between atoms: C12_18  and  C13_19 
REMARK    6  A    between atoms: C13_19  and  N4_20 
ROOT
HETATM    1  C1  UNL     1      -2.290  28.499   2.059  1.00  0.00     0.049 C 
HETATM    2  C2  UNL     1      -1.054  28.092   2.737  1.00  0.00    -0.055 A 
HETATM    3  C3  UNL     1      -1.053  27.933   4.101  1.00  0.00     0.020 A 
HETATM    4  C4  UNL     1       0.109  27.545   4.810  1.00  0.00    -0.015 A 
HETATM    5  C8  UNL     1       1.238  27.327   4.105  1.00  0.00    -0.032 A 
HETATM    6  C16 UNL     1       1.271  27.483   2.695  1.00  0.00    -0.048 A 
HETATM    7  C17 UNL     1       2.551  27.229   1.971  1.00  0.00     0.049 C 
HETATM    8  C18 UNL     1       0.114  27.863   2.049  1.00  0.00    -0.050 A 
HETATM    9  C19 UNL     1       0.158  28.026   0.552  1.00  0.00     0.049 C 
ENDROOT
BRANCH   5  10
HETATM   10  C9  UNL     1       2.489  26.884   4.735  1.00  0.00     0.142 C 
BRANCH  10  11
HETATM   11  C10 UNL     1       3.512  27.960   4.692  1.00  0.00     0.223 C 
HETATM   12  O1  UNL     1       3.205  29.157   4.955  1.00  0.00    -0.273 OA
HETATM   13  N3  UNL     1       4.866  27.705   4.359  1.00  0.00    -0.355 N 
HETATM   14  C11 UNL     1       5.817  28.796   4.326  1.00  0.00     0.152 C 
BRANCH  13  15
HETATM   15  C12 UNL     1       5.372  26.384   4.046  1.00  0.00     0.155 C 
BRANCH  15  16
HETATM   16  C13 UNL     1       6.678  26.159   4.783  1.00  0.00     0.291 C 
BRANCH  16  17
HETATM   17  N4  UNL     1       7.704  25.741   3.821  1.00  0.00     0.081 N 
HETATM   18  C14 UNL     1       7.225  25.821   2.473  1.00  0.00     0.309 C 
HETATM   19  C15 UNL     1       8.820  26.671   3.964  1.00  0.00     0.309 C 
ENDBRANCH  16  17
ENDBRANCH  15  16
ENDBRANCH  13  15
ENDBRANCH  10  11
ENDBRANCH   5  10
BRANCH   4  20
HETATM   20  C5  UNL     1       0.041  27.430   6.251  1.00  0.00     0.008 A 
HETATM   21  C6  UNL     1      -0.349  28.564   7.002  1.00  0.00     0.120 A 
HETATM   22  N1  UNL     1      -0.360  28.165   8.271  1.00  0.00    -0.311 N 
HETATM   23  N2  UNL     1      -0.017  26.904   8.384  1.00  0.00    -0.311 N 
ATOM     24  H1  UNL     1      -0.604  28.765   9.058  1.00  0.00     0.186 HD
HETATM   25  C7  UNL     1       0.228  26.449   7.154  1.00  0.00     0.120 A 
ATOM     26  H2  UNL     1       0.050  26.371   9.250  1.00  0.00     0.186 HD
ENDBRANCH   4  20
TORSDOF 6
ENDMDL
MODEL 5
REMARK VINA RESULT: -5.652966374      7.045     10.731
REMARK  6 active torsions:
REMARK  status: ('A' for Active; 'I' for Inactive)
REMARK    1  A    between atoms: C4_4  and  C5_5 
REMARK    2  A    between atoms: C8_12  and  C9_13 
REMARK    3  A    between atoms: C9_13  and  C10_14 
REMARK       I    between atoms: C10_14  and  N3_16 
REMARK    4  A    between atoms: N3_16  and  C12_18 
REMARK    5  A    between atoms: C12_18  and  C13_19 
REMARK    6  A    between atoms: C13_19  and  N4_20 
ROOT
HETATM    1  C1  UNL     1      15.752  28.994   3.110  1.00  0.00     0.049 C 
HETATM    2  C2  UNL     1      14.367  28.705   2.722  1.00  0.00    -0.055 A 
HETATM    3  C3  UNL     1      13.379  28.732   3.675  1.00  0.00     0.020 A 
HETATM    4  C4  UNL     1      12.026  28.460   3.362  1.00  0.00    -0.015 A 
HETATM    5  C8  UNL     1      11.719  28.171   2.080  1.00  0.00    -0.032 A 
HETATM    6  C16 UNL     1      12.716  28.135   1.071  1.00  0.00    -0.048 A 
HETATM    7  C17 UNL     1      12.313  27.807  -0.329  1.00  0.00     0.049 C 
HETATM    8  C18 UNL     1      14.020  28.406   1.426  1.00  0.00    -0.050 A 
HETATM    9  C19 UNL     1      15.071  28.366   0.348  1.00  0.00     0.049 C 
ENDROOT
BRANCH   5  10
HETATM   10  C9  UNL     1      10.342  27.911   1.637  1.00  0.00     0.142 C 
BRANCH  10  11
HETATM   11  C10 UNL     1       9.871  26.590   2.123  1.00  0.00     0.223 C 
HETATM   12  O1  UNL     1      10.566  25.549   1.946  1.00  0.00    -0.273 OA
HETATM   13  N3  UNL     1       8.637  26.428   2.801  1.00  0.00    -0.355 N 
HETATM   14  C11 UNL     1       8.226  25.112   3.245  1.00  0.00     0.152 C 
BRANCH  13  15
HETATM   15  C12 UNL     1       7.738  27.526   3.088  1.00  0.00     0.155 C 
BRANCH  15  16
HETATM   16  C13 UNL     1       6.692  27.071   4.087  1.00  0.00     0.291 C 
BRANCH  16  17
HETATM   17  N4  UNL     1       5.381  27.046   3.429  1.00  0.00     0.081 N 
HETATM   18  C14 UNL     1       4.751  25.766   3.558  1.00  0.00     0.309 C 
HETATM   19  C15 UNL     1       4.549  28.033   4.110  1.00  0.00     0.309 C 
ENDBRANCH  16  17
ENDBRANCH  15  16
ENDBRANCH  13  15
ENDBRANCH  10  11
ENDBRANCH   5  10
BRANCH   4  20
HETATM   20  C5  UNL     1      11.046  28.474   4.427  1.00  0.00     0.008 A 
HETATM   21  C6  UNL     1      10.824  27.283   5.156  1.00  0.00     0.120 A 
HETATM   22  N1  UNL     1       9.917  27.594   6.078  1.00  0.00    -0.311 N 
HETATM   23  N2  UNL     1       9.555  28.852   5.996  1.00  0.00    -0.311 N 
ATOM     24  H1  UNL     1       9.548  26.935   6.764  1.00  0.00     0.186 HD
HETATM   25  C7  UNL     1      10.241  29.395   4.990  1.00  0.00     0.120 A 
ATOM     26  H2  UNL     1       8.875  29.326   6.589  1.00  0.00     0.186 HD
ENDBRANCH   4  20
TORSDOF 6
ENDMDL
