MODEL 1
REMARK VINA RESULT: -6.637729930      0.000      0.000
REMARK  6 active torsions:
REMARK  status: ('A' for Active; 'I' for Inactive)
REMARK    1  A    between atoms: C6_6  and  S1_7 
REMARK    2  A    between atoms: S1_7  and  N1_10 
REMARK    3  A    between atoms: N1_10  and  C7_11 
REMARK    4  A    between atoms: N1_10  and  C9_15 
REMARK    5  A    between atoms: C7_11  and  C8_12 
REMARK    6  A    between atoms: C9_15  and  C11_17 
ROOT
HETATM    1  S1  UNL     1       8.062  26.505   5.165  1.00  0.00     0.265 S 
HETATM    2  O1  UNL     1       8.223  25.022   4.996  1.00  0.00    -0.200 OA
HETATM    3  O2  UNL     1       8.052  26.712   6.668  1.00  0.00    -0.200 OA
ENDROOT
BRANCH   1   4
HETATM    4  C6  UNL     1       9.558  27.246   4.641  1.00  0.00     0.086 A 
HETATM    5  C4  UNL     1      10.122  28.334   5.256  1.00  0.00    -0.038 A 
HETATM    6  C3  UNL     1      11.316  28.895   4.795  1.00  0.00     0.015 A 
HETATM    7  C5  UNL     1       9.518  28.968   6.429  1.00  0.00     0.050 C 
HETATM    8  C2  UNL     1      11.971  28.382   3.712  1.00  0.00    -0.056 A 
HETATM    9  C1  UNL     1      13.254  28.982   3.214  1.00  0.00     0.049 C 
HETATM   10  C15 UNL     1      11.415  27.291   3.086  1.00  0.00    -0.055 A 
HETATM   11  C14 UNL     1      10.255  26.756   3.544  1.00  0.00     0.033 A 
HETATM   12  C16 UNL     1      12.125  26.732   1.909  1.00  0.00     0.049 C 
ENDBRANCH   1   4
BRANCH   1  13
HETATM   13  N1  UNL     1       6.783  27.221   4.372  1.00  0.00    -0.271 N 
BRANCH  13  14
HETATM   14  C7  UNL     1       6.961  27.175   2.988  1.00  0.00     0.188 C 
BRANCH  14  15
HETATM   15  C8  UNL     1       7.005  25.943   2.235  1.00  0.00     0.215 C 
HETATM   16  O3  UNL     1       5.867  25.327   2.134  1.00  0.00    -0.643 OA
HETATM   17  O4  UNL     1       8.016  25.298   1.603  1.00  0.00    -0.643 OA
ENDBRANCH  14  15
ENDBRANCH  13  14
BRANCH  13  18
HETATM   18  C9  UNL     1       5.505  27.244   4.856  1.00  0.00     0.100 C 
HETATM   19  C10 UNL     1       5.005  25.852   5.160  1.00  0.00     0.034 C 
BRANCH  18  20
HETATM   20  C11 UNL     1       4.380  27.908   4.113  1.00  0.00     0.001 C 
HETATM   21  C12 UNL     1       3.950  29.234   4.649  1.00  0.00     0.011 C 
HETATM   22  C13 UNL     1       3.268  27.027   3.655  1.00  0.00     0.011 C 
ENDBRANCH  18  20
ENDBRANCH  13  18
ENDBRANCH   1  13
TORSDOF 6
ENDMDL
MODEL 2
REMARK VINA RESULT: -6.218924116      1.524      2.922
REMARK  6 active torsions:
REMARK  status: ('A' for Active; 'I' for Inactive)
REMARK    1  A    between atoms: C6_6  and  S1_7 
REMARK    2  A    between atoms: S1_7  and  N1_10 
REMARK    3  A    between atoms: N1_10  and  C7_11 
REMARK    4  A    between atoms: N1_10  and  C9_15 
REMARK    5  A    between atoms: C7_11  and  C8_12 
REMARK    6  A    between atoms: C9_15  and  C11_17 
ROOT
HETATM    1  S1  UNL     1       7.804  26.071   5.146  1.00  0.00     0.265 S 
HETATM    2  O1  UNL     1       8.110  24.665   5.577  1.00  0.00    -0.200 OA
HETATM    3  O2  UNL     1       8.229  26.925   6.325  1.00  0.00    -0.200 OA
ENDROOT
BRANCH   1   4
HETATM    4  C6  UNL     1       8.945  26.482   3.885  1.00  0.00     0.086 A 
HETATM    5  C4  UNL     1       8.831  26.052   2.588  1.00  0.00    -0.038 A 
HETATM    6  C3  UNL     1       9.773  26.402   1.617  1.00  0.00     0.015 A 
HETATM    7  C5  UNL     1       7.719  25.211   2.140  1.00  0.00     0.050 C 
HETATM    8  C2  UNL     1      10.849  27.186   1.922  1.00  0.00    -0.056 A 
HETATM    9  C1  UNL     1      11.863  27.564   0.882  1.00  0.00     0.049 C 
HETATM   10  C15 UNL     1      10.975  27.624   3.219  1.00  0.00    -0.055 A 
HETATM   11  C14 UNL     1      10.052  27.277   4.152  1.00  0.00     0.033 A 
HETATM   12  C16 UNL     1      12.142  28.478   3.552  1.00  0.00     0.049 C 
ENDBRANCH   1   4
BRANCH   1  13
HETATM   13  N1  UNL     1       6.255  26.375   4.609  1.00  0.00    -0.271 N 
BRANCH  13  14
HETATM   14  C7  UNL     1       5.312  25.699   5.387  1.00  0.00     0.188 C 
BRANCH  14  15
HETATM   15  C8  UNL     1       4.115  25.105   4.841  1.00  0.00     0.215 C 
HETATM   16  O3  UNL     1       3.023  25.400   5.477  1.00  0.00    -0.643 OA
HETATM   17  O4  UNL     1       3.906  24.290   3.777  1.00  0.00    -0.643 OA
ENDBRANCH  14  15
ENDBRANCH  13  14
BRANCH  13  18
HETATM   18  C9  UNL     1       5.875  27.539   4.004  1.00  0.00     0.100 C 
HETATM   19  C10 UNL     1       6.694  28.709   4.495  1.00  0.00     0.034 C 
BRANCH  18  20
HETATM   20  C11 UNL     1       4.452  28.025   4.026  1.00  0.00     0.001 C 
HETATM   21  C12 UNL     1       3.658  27.743   2.792  1.00  0.00     0.011 C 
HETATM   22  C13 UNL     1       4.211  29.364   4.634  1.00  0.00     0.011 C 
ENDBRANCH  18  20
ENDBRANCH  13  18
ENDBRANCH   1  13
TORSDOF 6
ENDMDL
MODEL 3
REMARK VINA RESULT: -5.961112236      7.699     10.568
REMARK  6 active torsions:
REMARK  status: ('A' for Active; 'I' for Inactive)
REMARK    1  A    between atoms: C6_6  and  S1_7 
REMARK    2  A    between atoms: S1_7  and  N1_10 
REMARK    3  A    between atoms: N1_10  and  C7_11 
REMARK    4  A    between atoms: N1_10  and  C9_15 
REMARK    5  A    between atoms: C7_11  and  C8_12 
REMARK    6  A    between atoms: C9_15  and  C11_17 
ROOT
HETATM    1  S1  UNL     1      -0.259  25.092   9.328  1.00  0.00     0.265 S 
HETATM    2  O1  UNL     1      -1.687  24.664   9.148  1.00  0.00    -0.200 OA
HETATM    3  O2  UNL     1       0.543  23.823   9.112  1.00  0.00    -0.200 OA
ENDROOT
BRANCH   1   4
HETATM    4  C6  UNL     1       0.152  26.098   7.957  1.00  0.00     0.086 A 
HETATM    5  C4  UNL     1      -0.528  27.241   7.623  1.00  0.00    -0.038 A 
HETATM    6  C3  UNL     1      -0.166  28.008   6.513  1.00  0.00     0.015 A 
HETATM    7  C5  UNL     1      -1.665  27.729   8.406  1.00  0.00     0.050 C 
HETATM    8  C2  UNL     1       0.882  27.651   5.714  1.00  0.00    -0.056 A 
HETATM    9  C1  UNL     1       1.275  28.473   4.521  1.00  0.00     0.049 C 
HETATM   10  C15 UNL     1       1.573  26.507   6.038  1.00  0.00    -0.055 A 
HETATM   11  C14 UNL     1       1.211  25.771   7.120  1.00  0.00     0.033 A 
HETATM   12  C16 UNL     1       2.713  26.117   5.172  1.00  0.00     0.049 C 
ENDBRANCH   1   4
BRANCH   1  13
HETATM   13  N1  UNL     1       0.114  25.900  10.738  1.00  0.00    -0.271 N 
BRANCH  13  14
HETATM   14  C7  UNL     1      -0.381  25.220  11.852  1.00  0.00     0.188 C 
BRANCH  14  15
HETATM   15  C8  UNL     1      -1.642  25.540  12.479  1.00  0.00     0.215 C 
HETATM   16  O3  UNL     1      -2.363  24.512  12.806  1.00  0.00    -0.643 OA
HETATM   17  O4  UNL     1      -2.225  26.722  12.799  1.00  0.00    -0.643 OA
ENDBRANCH  14  15
ENDBRANCH  13  14
BRANCH  13  18
HETATM   18  C9  UNL     1       1.229  26.673  10.899  1.00  0.00     0.100 C 
HETATM   19  C10 UNL     1       2.389  25.866  11.432  1.00  0.00     0.034 C 
BRANCH  18  20
HETATM   20  C11 UNL     1       1.219  27.930  11.723  1.00  0.00     0.001 C 
HETATM   21  C12 UNL     1       0.910  29.186  10.977  1.00  0.00     0.011 C 
HETATM   22  C13 UNL     1       2.285  28.062  12.757  1.00  0.00     0.011 C 
ENDBRANCH  18  20
ENDBRANCH  13  18
ENDBRANCH   1  13
TORSDOF 6
ENDMDL
MODEL 4
REMARK VINA RESULT: -5.876254346      1.731      5.950
REMARK  6 active torsions:
REMARK  status: ('A' for Active; 'I' for Inactive)
REMARK    1  A    between atoms: C6_6  and  S1_7 
REMARK    2  A    between atoms: S1_7  and  N1_10 
REMARK    3  A    between atoms: N1_10  and  C7_11 
REMARK    4  A    between atoms: N1_10  and  C9_15 
REMARK    5  A    between atoms: C7_11  and  C8_12 
REMARK    6  A    between atoms: C9_15  and  C11_17 
ROOT
HETATM    1  S1  UNL     1       8.311  28.047   3.863  1.00  0.00     0.265 S 
HETATM    2  O1  UNL     1       8.034  29.299   3.080  1.00  0.00    -0.200 OA
HETATM    3  O2  UNL     1       8.920  28.544   5.160  1.00  0.00    -0.200 OA
ENDROOT
BRANCH   1   4
HETATM    4  C6  UNL     1       6.763  27.388   4.340  1.00  0.00     0.086 A 
HETATM    5  C4  UNL     1       6.623  26.261   5.110  1.00  0.00    -0.038 A 
HETATM    6  C3  UNL     1       5.362  25.769   5.460  1.00  0.00     0.015 A 
HETATM    7  C5  UNL     1       7.775  25.512   5.614  1.00  0.00     0.050 C 
HETATM    8  C2  UNL     1       4.218  26.391   5.050  1.00  0.00    -0.056 A 
HETATM    9  C1  UNL     1       2.862  25.865   5.424  1.00  0.00     0.049 C 
HETATM   10  C15 UNL     1       4.345  27.522   4.278  1.00  0.00    -0.055 A 
HETATM   11  C14 UNL     1       5.575  27.989   3.945  1.00  0.00     0.033 A 
HETATM   12  C16 UNL     1       3.102  28.199   3.831  1.00  0.00     0.049 C 
ENDBRANCH   1   4
BRANCH   1  13
HETATM   13  N1  UNL     1       9.205  26.864   3.101  1.00  0.00    -0.271 N 
BRANCH  13  14
HETATM   14  C7  UNL     1       8.575  26.432   1.933  1.00  0.00     0.188 C 
BRANCH  14  15
HETATM   15  C8  UNL     1       7.616  25.353   1.903  1.00  0.00     0.215 C 
HETATM   16  O3  UNL     1       8.121  24.184   1.652  1.00  0.00    -0.643 OA
HETATM   17  O4  UNL     1       6.274  25.323   2.092  1.00  0.00    -0.643 OA
ENDBRANCH  14  15
ENDBRANCH  13  14
BRANCH  13  18
HETATM   18  C9  UNL     1      10.568  26.780   3.167  1.00  0.00     0.100 C 
HETATM   19  C10 UNL     1      11.056  26.842   4.595  1.00  0.00     0.034 C 
BRANCH  18  20
HETATM   20  C11 UNL     1      11.464  27.718   2.409  1.00  0.00     0.001 C 
HETATM   21  C12 UNL     1      11.813  27.292   1.020  1.00  0.00     0.011 C 
HETATM   22  C13 UNL     1      12.584  28.340   3.173  1.00  0.00     0.011 C 
ENDBRANCH  18  20
ENDBRANCH  13  18
ENDBRANCH   1  13
TORSDOF 6
ENDMDL
MODEL 5
REMARK VINA RESULT: -5.836560400      5.999      9.695
REMARK  6 active torsions:
REMARK  status: ('A' for Active; 'I' for Inactive)
REMARK    1  A    between atoms: C6_6  and  S1_7 
REMARK    2  A    between atoms: S1_7  and  N1_10 
REMARK    3  A    between atoms: N1_10  and  C7_11 
REMARK    4  A    between atoms: N1_10  and  C9_15 
REMARK    5  A    between atoms: C7_11  and  C8_12 
REMARK    6  A    between atoms: C9_15  and  C11_17 
ROOT
HETATM    1  S1  UNL     1      -0.008  27.789   6.146  1.00  0.00     0.265 S 
HETATM    2  O1  UNL     1      -1.320  28.260   5.588  1.00  0.00    -0.200 OA
HETATM    3  O2  UNL     1       0.550  29.001   6.866  1.00  0.00    -0.200 OA
ENDROOT
BRANCH   1   4
HETATM    4  C6  UNL     1      -0.373  26.658   7.429  1.00  0.00     0.086 A 
HETATM    5  C4  UNL     1      -1.175  26.958   8.501  1.00  0.00    -0.038 A 
HETATM    6  C3  UNL     1      -1.432  26.021   9.505  1.00  0.00     0.015 A 
HETATM    7  C5  UNL     1      -1.813  28.267   8.655  1.00  0.00     0.050 C 
HETATM    8  C2  UNL     1      -0.893  24.767   9.462  1.00  0.00    -0.056 A 
HETATM    9  C1  UNL     1      -1.167  23.758  10.539  1.00  0.00     0.049 C 
HETATM   10  C15 UNL     1      -0.087  24.453   8.392  1.00  0.00    -0.055 A 
HETATM   11  C14 UNL     1       0.154  25.372   7.423  1.00  0.00     0.033 A 
HETATM   12  C16 UNL     1       0.498  23.090   8.343  1.00  0.00     0.049 C 
ENDBRANCH   1   4
BRANCH   1  13
HETATM   13  N1  UNL     1       1.058  27.085   5.075  1.00  0.00    -0.271 N 
BRANCH  13  14
HETATM   14  C7  UNL     1       0.432  26.791   3.863  1.00  0.00     0.188 C 
BRANCH  14  15
HETATM   15  C8  UNL     1       0.256  27.760   2.807  1.00  0.00     0.215 C 
HETATM   16  O3  UNL     1       1.041  27.601   1.786  1.00  0.00    -0.643 OA
HETATM   17  O4  UNL     1      -0.584  28.817   2.672  1.00  0.00    -0.643 OA
ENDBRANCH  14  15
ENDBRANCH  13  14
BRANCH  13  18
HETATM   18  C9  UNL     1       2.401  27.339   5.061  1.00  0.00     0.100 C 
HETATM   19  C10 UNL     1       2.687  28.774   4.689  1.00  0.00     0.034 C 
BRANCH  18  20
HETATM   20  C11 UNL     1       3.360  26.526   4.238  1.00  0.00     0.001 C 
HETATM   21  C12 UNL     1       3.941  25.330   4.921  1.00  0.00     0.011 C 
HETATM   22  C13 UNL     1       4.317  27.283   3.381  1.00  0.00     0.011 C 
ENDBRANCH  18  20
ENDBRANCH  13  18
ENDBRANCH   1  13
TORSDOF 6
ENDMDL
