MODEL 1
REMARK VINA RESULT: -6.675369948      0.000      0.000
REMARK  5 active torsions:
REMARK  status: ('A' for Active; 'I' for Inactive)
REMARK    1  A    between atoms: N1_2  and  C2_3 
REMARK    2  A    between atoms: N1_2  and  C12_19 
REMARK    3  A    between atoms: C2_3  and  C3_4 
REMARK    4  A    between atoms: C5_6  and  C6_7 
REMARK    5  A    between atoms: N2_10  and  C7_11 
ROOT
HETATM    1  C3  UNL     1      10.396  -7.820   3.993  1.00  0.00     0.055 C 
HETATM    2  C4  UNL     1       9.561  -9.033   3.992  1.00  0.00     0.059 C 
HETATM    3  C5  UNL     1      10.442 -10.161   3.582  1.00  0.00     0.324 C 
HETATM    4  N2  UNL     1      11.764  -9.642   3.516  1.00  0.00     0.109 N 
HETATM    5  C11 UNL     1      11.836  -8.346   4.089  1.00  0.00     0.284 C 
ENDROOT
BRANCH   1   6
HETATM    6  C2  UNL     1      10.131  -6.803   5.058  1.00  0.00     0.064 C 
BRANCH   6   7
HETATM    7  N1  UNL     1       9.751  -5.528   4.615  1.00  0.00    -0.393 N 
HETATM    8  C1  UNL     1       8.383  -5.205   4.541  1.00  0.00     0.149 C 
BRANCH   7   9
HETATM    9  C12 UNL     1      10.625  -4.510   5.142  1.00  0.00     0.083 C 
HETATM   10  C13 UNL     1      10.556  -3.213   4.355  1.00  0.00     0.025 C 
HETATM   11  C14 UNL     1      11.569  -2.279   5.027  1.00  0.00     0.002 C 
HETATM   12  C15 UNL     1      12.948  -2.731   4.653  1.00  0.00     0.000 C 
HETATM   13  C16 UNL     1      13.050  -4.212   4.505  1.00  0.00     0.002 C 
HETATM   14  C17 UNL     1      12.038  -4.930   5.340  1.00  0.00     0.025 C 
ENDBRANCH   7   9
ENDBRANCH   6   7
ENDBRANCH   1   6
BRANCH   3  15
HETATM   15  C6  UNL     1      10.328 -11.333   4.497  1.00  0.00     0.207 C 
HETATM   16  O1  UNL     1       9.259 -11.962   4.605  1.00  0.00    -0.646 OA
HETATM   17  O2  UNL     1      11.464 -11.682   5.213  1.00  0.00    -0.646 OA
ENDBRANCH   3  15
BRANCH   4  18
HETATM   18  C7  UNL     1      12.283  -9.782   2.209  1.00  0.00     0.238 C 
HETATM   19  C8  UNL     1      13.535 -10.599   2.075  1.00  0.00     0.052 C 
HETATM   20  C9  UNL     1      14.008 -10.312   0.654  1.00  0.00     0.142 C 
HETATM   21  S1  UNL     1      12.442 -10.390  -0.230  1.00  0.00     0.146 S 
HETATM   22  O3  UNL     1      12.212  -9.146  -1.007  1.00  0.00    -0.228 OA
HETATM   23  O4  UNL     1      12.328 -11.637  -1.023  1.00  0.00    -0.228 OA
HETATM   24  C10 UNL     1      11.347 -10.419   1.203  1.00  0.00     0.176 C 
ENDBRANCH   4  18
TORSDOF 5
ENDMDL
MODEL 2
REMARK VINA RESULT: -6.301574805      5.647      8.514
REMARK  5 active torsions:
REMARK  status: ('A' for Active; 'I' for Inactive)
REMARK    1  A    between atoms: N1_2  and  C2_3 
REMARK    2  A    between atoms: N1_2  and  C12_19 
REMARK    3  A    between atoms: C2_3  and  C3_4 
REMARK    4  A    between atoms: C5_6  and  C6_7 
REMARK    5  A    between atoms: N2_10  and  C7_11 
ROOT
HETATM    1  C3  UNL     1       6.657  -4.368   4.616  1.00  0.00     0.055 C 
HETATM    2  C4  UNL     1       6.471  -5.507   3.701  1.00  0.00     0.059 C 
HETATM    3  C5  UNL     1       5.005  -5.651   3.489  1.00  0.00     0.324 C 
HETATM    4  N2  UNL     1       4.390  -4.537   4.121  1.00  0.00     0.109 N 
HETATM    5  C11 UNL     1       5.352  -3.567   4.502  1.00  0.00     0.284 C 
ENDROOT
BRANCH   1   6
HETATM    6  C2  UNL     1       7.843  -3.486   4.384  1.00  0.00     0.064 C 
BRANCH   6   7
HETATM    7  N1  UNL     1       8.918  -3.646   5.270  1.00  0.00    -0.393 N 
HETATM    8  C1  UNL     1       8.657  -3.829   6.641  1.00  0.00     0.149 C 
BRANCH   7   9
HETATM    9  C12 UNL     1       9.949  -4.473   4.696  1.00  0.00     0.083 C 
HETATM   10  C13 UNL     1      10.022  -5.849   5.335  1.00  0.00     0.025 C 
HETATM   11  C14 UNL     1      11.186  -6.558   4.635  1.00  0.00     0.002 C 
HETATM   12  C15 UNL     1      12.470  -5.974   5.142  1.00  0.00     0.000 C 
HETATM   13  C16 UNL     1      12.358  -4.518   5.452  1.00  0.00     0.002 C 
HETATM   14  C17 UNL     1      11.299  -3.851   4.634  1.00  0.00     0.025 C 
ENDBRANCH   7   9
ENDBRANCH   6   7
ENDBRANCH   1   6
BRANCH   3  15
HETATM   15  C6  UNL     1       4.648  -5.765   2.045  1.00  0.00     0.207 C 
HETATM   16  O1  UNL     1       3.744  -5.067   1.550  1.00  0.00    -0.646 OA
HETATM   17  O2  UNL     1       5.370  -6.679   1.292  1.00  0.00    -0.646 OA
ENDBRANCH   3  15
BRANCH   4  18
HETATM   18  C7  UNL     1       3.501  -4.972   5.131  1.00  0.00     0.238 C 
HETATM   19  C8  UNL     1       2.822  -3.897   5.928  1.00  0.00     0.052 C 
HETATM   20  C9  UNL     1       2.200  -4.649   7.099  1.00  0.00     0.142 C 
HETATM   21  S1  UNL     1       1.536  -6.087   6.244  1.00  0.00     0.146 S 
HETATM   22  O3  UNL     1       2.036  -7.344   6.858  1.00  0.00    -0.228 OA
HETATM   23  O4  UNL     1       0.061  -6.011   6.119  1.00  0.00    -0.228 OA
HETATM   24  C10 UNL     1       2.345  -5.828   4.654  1.00  0.00     0.176 C 
ENDBRANCH   4  18
TORSDOF 5
ENDMDL
MODEL 3
REMARK VINA RESULT: -6.293649288      5.885      8.617
REMARK  5 active torsions:
REMARK  status: ('A' for Active; 'I' for Inactive)
REMARK    1  A    between atoms: N1_2  and  C2_3 
REMARK    2  A    between atoms: N1_2  and  C12_19 
REMARK    3  A    between atoms: C2_3  and  C3_4 
REMARK    4  A    between atoms: C5_6  and  C6_7 
REMARK    5  A    between atoms: N2_10  and  C7_11 
ROOT
HETATM    1  C3  UNL     1       6.485  -4.258   4.647  1.00  0.00     0.055 C 
HETATM    2  C4  UNL     1       6.404  -5.474   3.820  1.00  0.00     0.059 C 
HETATM    3  C5  UNL     1       4.970  -5.660   3.469  1.00  0.00     0.324 C 
HETATM    4  N2  UNL     1       4.284  -4.506   3.935  1.00  0.00     0.109 N 
HETATM    5  C11 UNL     1       5.193  -3.491   4.329  1.00  0.00     0.284 C 
ENDROOT
BRANCH   1   6
HETATM    6  C2  UNL     1       7.683  -3.380   4.464  1.00  0.00     0.064 C 
BRANCH   6   7
HETATM    7  N1  UNL     1       8.752  -3.600   5.345  1.00  0.00    -0.393 N 
HETATM    8  C1  UNL     1       8.482  -3.880   6.697  1.00  0.00     0.149 C 
BRANCH   7   9
HETATM    9  C12 UNL     1       9.791  -4.380   4.720  1.00  0.00     0.083 C 
HETATM   10  C13 UNL     1       9.961  -5.747   5.358  1.00  0.00     0.025 C 
HETATM   11  C14 UNL     1      11.121  -6.404   4.601  1.00  0.00     0.002 C 
HETATM   12  C15 UNL     1      12.399  -5.757   5.040  1.00  0.00     0.000 C 
HETATM   13  C16 UNL     1      12.234  -4.308   5.353  1.00  0.00     0.002 C 
HETATM   14  C17 UNL     1      11.105  -3.694   4.588  1.00  0.00     0.025 C 
ENDBRANCH   7   9
ENDBRANCH   6   7
ENDBRANCH   1   6
BRANCH   3  15
HETATM   15  C6  UNL     1       4.767  -5.902   2.011  1.00  0.00     0.207 C 
HETATM   16  O1  UNL     1       5.478  -6.713   1.391  1.00  0.00    -0.646 OA
HETATM   17  O2  UNL     1       3.755  -5.184   1.392  1.00  0.00    -0.646 OA
ENDBRANCH   3  15
BRANCH   4  18
HETATM   18  C7  UNL     1       3.297  -4.867   4.881  1.00  0.00     0.238 C 
HETATM   19  C8  UNL     1       3.573  -6.098   5.694  1.00  0.00     0.052 C 
HETATM   20  C9  UNL     1       2.239  -6.397   6.368  1.00  0.00     0.142 C 
HETATM   21  S1  UNL     1       1.747  -4.737   6.862  1.00  0.00     0.146 S 
HETATM   22  O3  UNL     1       0.396  -4.410   6.340  1.00  0.00    -0.228 OA
HETATM   23  O4  UNL     1       1.905  -4.536   8.322  1.00  0.00    -0.228 OA
HETATM   24  C10 UNL     1       2.992  -3.821   5.933  1.00  0.00     0.176 C 
ENDBRANCH   4  18
TORSDOF 5
ENDMDL
MODEL 4
REMARK VINA RESULT: -6.270906323      5.966      8.908
REMARK  5 active torsions:
REMARK  status: ('A' for Active; 'I' for Inactive)
REMARK    1  A    between atoms: N1_2  and  C2_3 
REMARK    2  A    between atoms: N1_2  and  C12_19 
REMARK    3  A    between atoms: C2_3  and  C3_4 
REMARK    4  A    between atoms: C5_6  and  C6_7 
REMARK    5  A    between atoms: N2_10  and  C7_11 
ROOT
HETATM    1  C3  UNL     1       6.583  -3.923   4.681  1.00  0.00     0.055 C 
HETATM    2  C4  UNL     1       6.211  -5.175   3.999  1.00  0.00     0.059 C 
HETATM    3  C5  UNL     1       4.760  -5.074   3.679  1.00  0.00     0.324 C 
HETATM    4  N2  UNL     1       4.360  -3.752   4.013  1.00  0.00     0.109 N 
HETATM    5  C11 UNL     1       5.483  -2.928   4.283  1.00  0.00     0.284 C 
ENDROOT
BRANCH   1   6
HETATM    6  C2  UNL     1       7.939  -3.360   4.392  1.00  0.00     0.064 C 
BRANCH   6   7
HETATM    7  N1  UNL     1       8.950  -3.680   5.309  1.00  0.00    -0.393 N 
HETATM    8  C1  UNL     1       8.605  -3.953   6.646  1.00  0.00     0.149 C 
BRANCH   7   9
HETATM    9  C12 UNL     1       9.943  -4.538   4.713  1.00  0.00     0.083 C 
HETATM   10  C13 UNL     1       9.970  -5.924   5.334  1.00  0.00     0.025 C 
HETATM   11  C14 UNL     1      11.099  -6.668   4.612  1.00  0.00     0.002 C 
HETATM   12  C15 UNL     1      12.409  -6.139   5.112  1.00  0.00     0.000 C 
HETATM   13  C16 UNL     1      12.356  -4.685   5.443  1.00  0.00     0.002 C 
HETATM   14  C17 UNL     1      11.315  -3.966   4.645  1.00  0.00     0.025 C 
ENDBRANCH   7   9
ENDBRANCH   6   7
ENDBRANCH   1   6
BRANCH   3  15
HETATM   15  C6  UNL     1       4.465  -5.425   2.260  1.00  0.00     0.207 C 
HETATM   16  O1  UNL     1       3.358  -5.170   1.752  1.00  0.00    -0.646 OA
HETATM   17  O2  UNL     1       5.480  -6.043   1.544  1.00  0.00    -0.646 OA
ENDBRANCH   3  15
BRANCH   4  18
HETATM   18  C7  UNL     1       3.347  -3.777   4.999  1.00  0.00     0.238 C 
HETATM   19  C8  UNL     1       2.096  -3.008   4.687  1.00  0.00     0.052 C 
HETATM   20  C9  UNL     1       1.355  -2.963   6.018  1.00  0.00     0.142 C 
HETATM   21  S1  UNL     1       1.595  -4.657   6.579  1.00  0.00     0.146 S 
HETATM   22  O3  UNL     1       2.201  -4.683   7.935  1.00  0.00    -0.228 OA
HETATM   23  O4  UNL     1       0.352  -5.453   6.450  1.00  0.00    -0.228 OA
HETATM   24  C10 UNL     1       2.825  -5.153   5.357  1.00  0.00     0.176 C 
ENDBRANCH   4  18
TORSDOF 5
ENDMDL
MODEL 5
REMARK VINA RESULT: -6.195172314      1.987      2.952
REMARK  5 active torsions:
REMARK  status: ('A' for Active; 'I' for Inactive)
REMARK    1  A    between atoms: N1_2  and  C2_3 
REMARK    2  A    between atoms: N1_2  and  C12_19 
REMARK    3  A    between atoms: C2_3  and  C3_4 
REMARK    4  A    between atoms: C5_6  and  C6_7 
REMARK    5  A    between atoms: N2_10  and  C7_11 
ROOT
HETATM    1  C3  UNL     1      11.563  -9.898   3.469  1.00  0.00     0.055 C 
HETATM    2  C4  UNL     1      11.915 -11.218   4.021  1.00  0.00     0.059 C 
HETATM    3  C5  UNL     1      12.839 -11.858   3.045  1.00  0.00     0.324 C 
HETATM    4  N2  UNL     1      13.134 -10.878   2.059  1.00  0.00     0.109 N 
HETATM    5  C11 UNL     1      12.678  -9.595   2.458  1.00  0.00     0.284 C 
ENDROOT
BRANCH   1   6
HETATM    6  C2  UNL     1      11.402  -8.769   4.436  1.00  0.00     0.064 C 
BRANCH   6   7
HETATM    7  N1  UNL     1      10.335  -7.892   4.192  1.00  0.00    -0.393 N 
HETATM    8  C1  UNL     1       9.035  -8.412   4.053  1.00  0.00     0.149 C 
BRANCH   7   9
HETATM    9  C12 UNL     1      10.465  -6.683   4.967  1.00  0.00     0.083 C 
HETATM   10  C13 UNL     1       9.537  -5.579   4.490  1.00  0.00     0.025 C 
HETATM   11  C14 UNL     1       9.843  -4.378   5.393  1.00  0.00     0.002 C 
HETATM   12  C15 UNL     1      11.162  -3.799   4.978  1.00  0.00     0.000 C 
HETATM   13  C16 UNL     1      12.124  -4.837   4.503  1.00  0.00     0.002 C 
HETATM   14  C17 UNL     1      11.854  -6.174   5.117  1.00  0.00     0.025 C 
ENDBRANCH   7   9
ENDBRANCH   6   7
ENDBRANCH   1   6
BRANCH   3  15
HETATM   15  C6  UNL     1      14.062 -12.409   3.697  1.00  0.00     0.207 C 
HETATM   16  O1  UNL     1      15.197 -12.153   3.252  1.00  0.00    -0.646 OA
HETATM   17  O2  UNL     1      13.871 -13.210   4.812  1.00  0.00    -0.646 OA
ENDBRANCH   3  15
BRANCH   4  18
HETATM   18  C7  UNL     1      12.723 -11.323   0.782  1.00  0.00     0.238 C 
HETATM   19  C8  UNL     1      12.280 -10.262  -0.182  1.00  0.00     0.052 C 
HETATM   20  C9  UNL     1      11.621 -11.046  -1.311  1.00  0.00     0.142 C 
HETATM   21  S1  UNL     1      12.797 -12.397  -1.495  1.00  0.00     0.146 S 
HETATM   22  O3  UNL     1      12.112 -13.711  -1.382  1.00  0.00    -0.228 OA
HETATM   23  O4  UNL     1      13.619 -12.238  -2.717  1.00  0.00    -0.228 OA
HETATM   24  C10 UNL     1      13.765 -12.090  -0.005  1.00  0.00     0.176 C 
ENDBRANCH   4  18
TORSDOF 5
ENDMDL
