MODEL 1
REMARK VINA RESULT: -6.514649101      0.000      0.000
REMARK  3 active torsions:
REMARK  status: ('A' for Active; 'I' for Inactive)
REMARK    1  A    between atoms: N1_2  and  N2_3 
REMARK    2  A    between atoms: N1_2  and  C2_6 
REMARK    3  A    between atoms: C7_11  and  C8_12 
ROOT
HETATM    1  C2  UNL     1      10.326  -5.284   5.132  1.00  0.00     0.083 C 
HETATM    2  C3  UNL     1       9.514  -6.547   5.049  1.00  0.00     0.022 C 
HETATM    3  C4  UNL     1      10.305  -7.813   5.060  1.00  0.00     0.002 C 
HETATM    4  C5  UNL     1      11.559  -7.766   4.232  1.00  0.00     0.001 C 
HETATM    5  C6  UNL     1      12.372  -6.605   4.789  1.00  0.00     0.007 C 
HETATM    6  C7  UNL     1      11.587  -5.344   4.381  1.00  0.00     0.012 C 
ENDROOT
BRANCH   6   7
HETATM    7  C8  UNL     1      12.517  -4.245   4.371  1.00  0.00     0.027 C 
HETATM    8  C9  UNL     1      13.993  -4.394   4.435  1.00  0.00     0.128 C 
HETATM    9  C10 UNL     1      13.953  -4.198   5.954  1.00  0.00     0.040 C 
HETATM   10  O1  UNL     1      14.414  -3.082   4.096  1.00  0.00    -0.375 OA
HETATM   11  C11 UNL     1      12.753  -3.373   5.566  1.00  0.00     0.029 C 
HETATM   12  C12 UNL     1      13.549  -2.250   4.857  1.00  0.00     0.058 C 
HETATM   13  C13 UNL     1      12.676  -1.471   3.923  1.00  0.00     0.046 C 
HETATM   14  C14 UNL     1      14.295  -1.403   5.832  1.00  0.00     0.046 C 
ENDBRANCH   6   7
BRANCH   1  15
HETATM   15  N1  UNL     1       9.484  -4.272   4.465  1.00  0.00    -0.237 NA
HETATM   16  C1  UNL     1       9.077  -3.221   5.337  1.00  0.00     0.136 C 
BRANCH  15  17
HETATM   17  N2  UNL     1       8.411  -4.947   3.876  1.00  0.00    -0.363 NA
ATOM     18  H22 UNL     1       7.566  -4.420   4.093  1.00  0.00     0.171 HD
ATOM     19  H21 UNL     1       8.536  -5.108   2.876  1.00  0.00     0.171 HD
ENDBRANCH  15  17
ENDBRANCH   1  15
TORSDOF 3
ENDMDL
MODEL 2
REMARK VINA RESULT: -6.150767446      1.570      2.725
REMARK  3 active torsions:
REMARK  status: ('A' for Active; 'I' for Inactive)
REMARK    1  A    between atoms: N1_2  and  N2_3 
REMARK    2  A    between atoms: N1_2  and  C2_6 
REMARK    3  A    between atoms: C7_11  and  C8_12 
ROOT
HETATM    1  C2  UNL     1       9.977  -5.938   4.190  1.00  0.00     0.083 C 
HETATM    2  C3  UNL     1       8.524  -6.236   4.436  1.00  0.00     0.022 C 
HETATM    3  C4  UNL     1       7.613  -5.056   4.380  1.00  0.00     0.002 C 
HETATM    4  C5  UNL     1       8.163  -3.818   5.034  1.00  0.00     0.001 C 
HETATM    5  C6  UNL     1       9.479  -3.533   4.323  1.00  0.00     0.007 C 
HETATM    6  C7  UNL     1      10.423  -4.664   4.772  1.00  0.00     0.012 C 
ENDROOT
BRANCH   6   7
HETATM    7  C8  UNL     1      11.771  -4.187   4.610  1.00  0.00     0.027 C 
HETATM    8  C9  UNL     1      12.941  -5.058   4.326  1.00  0.00     0.128 C 
HETATM    9  C10 UNL     1      13.264  -5.120   5.822  1.00  0.00     0.040 C 
HETATM   10  O1  UNL     1      13.918  -4.092   3.971  1.00  0.00    -0.375 OA
HETATM   11  C11 UNL     1      12.622  -3.757   5.764  1.00  0.00     0.029 C 
HETATM   12  C12 UNL     1      13.754  -3.079   4.955  1.00  0.00     0.058 C 
HETATM   13  C13 UNL     1      13.271  -1.828   4.288  1.00  0.00     0.046 C 
HETATM   14  C14 UNL     1      14.983  -2.887   5.778  1.00  0.00     0.046 C 
ENDBRANCH   6   7
BRANCH   1  15
HETATM   15  N1  UNL     1      10.690  -7.007   4.914  1.00  0.00    -0.237 NA
HETATM   16  C1  UNL     1      10.710  -8.244   4.205  1.00  0.00     0.136 C 
BRANCH  15  17
HETATM   17  N2  UNL     1      10.114  -7.106   6.183  1.00  0.00    -0.363 NA
ATOM     18  H22 UNL     1      10.874  -7.098   6.862  1.00  0.00     0.171 HD
ATOM     19  H21 UNL     1       9.409  -6.391   6.363  1.00  0.00     0.171 HD
ENDBRANCH  15  17
ENDBRANCH   1  15
TORSDOF 3
ENDMDL
MODEL 3
REMARK VINA RESULT: -6.116328459      2.652      5.094
REMARK  3 active torsions:
REMARK  status: ('A' for Active; 'I' for Inactive)
REMARK    1  A    between atoms: N1_2  and  N2_3 
REMARK    2  A    between atoms: N1_2  and  C2_6 
REMARK    3  A    between atoms: C7_11  and  C8_12 
ROOT
HETATM    1  C2  UNL     1      11.481  -5.018   5.295  1.00  0.00     0.083 C 
HETATM    2  C3  UNL     1      12.940  -5.006   4.931  1.00  0.00     0.022 C 
HETATM    3  C4  UNL     1      13.545  -3.652   4.769  1.00  0.00     0.002 C 
HETATM    4  C5  UNL     1      12.667  -2.664   4.051  1.00  0.00     0.001 C 
HETATM    5  C6  UNL     1      11.379  -2.599   4.862  1.00  0.00     0.007 C 
HETATM    6  C7  UNL     1      10.701  -3.963   4.634  1.00  0.00     0.012 C 
ENDROOT
BRANCH   6   7
HETATM    7  C8  UNL     1       9.294  -3.789   4.886  1.00  0.00     0.027 C 
HETATM    8  C9  UNL     1       8.241  -4.745   4.457  1.00  0.00     0.128 C 
HETATM    9  C10 UNL     1       8.000  -3.919   3.189  1.00  0.00     0.040 C 
HETATM   10  O1  UNL     1       7.126  -4.269   5.196  1.00  0.00    -0.375 OA
HETATM   11  C11 UNL     1       8.448  -2.820   4.119  1.00  0.00     0.029 C 
HETATM   12  C12 UNL     1       7.198  -2.859   5.032  1.00  0.00     0.058 C 
HETATM   13  C13 UNL     1       7.476  -2.228   6.362  1.00  0.00     0.046 C 
HETATM   14  C14 UNL     1       5.995  -2.309   4.344  1.00  0.00     0.046 C 
ENDBRANCH   6   7
BRANCH   1  15
HETATM   15  N1  UNL     1      10.989  -6.304   4.764  1.00  0.00    -0.237 NA
HETATM   16  C1  UNL     1      10.163  -7.010   5.688  1.00  0.00     0.136 C 
BRANCH  15  17
HETATM   17  N2  UNL     1      12.105  -7.036   4.350  1.00  0.00    -0.363 NA
ATOM     18  H22 UNL     1      12.214  -6.880   3.347  1.00  0.00     0.171 HD
ATOM     19  H21 UNL     1      12.948  -6.822   4.881  1.00  0.00     0.171 HD
ENDBRANCH  15  17
ENDBRANCH   1  15
TORSDOF 3
ENDMDL
MODEL 4
REMARK VINA RESULT: -6.007948060      2.992      5.093
REMARK  3 active torsions:
REMARK  status: ('A' for Active; 'I' for Inactive)
REMARK    1  A    between atoms: N1_2  and  N2_3 
REMARK    2  A    between atoms: N1_2  and  C2_6 
REMARK    3  A    between atoms: C7_11  and  C8_12 
ROOT
HETATM    1  C2  UNL     1       9.648  -6.766   4.843  1.00  0.00     0.083 C 
HETATM    2  C3  UNL     1      10.993  -7.391   4.594  1.00  0.00     0.022 C 
HETATM    3  C4  UNL     1      12.167  -6.535   4.936  1.00  0.00     0.002 C 
HETATM    4  C5  UNL     1      12.015  -5.092   4.542  1.00  0.00     0.001 C 
HETATM    5  C6  UNL     1      10.756  -4.607   5.247  1.00  0.00     0.007 C 
HETATM    6  C7  UNL     1       9.600  -5.331   4.531  1.00  0.00     0.012 C 
ENDROOT
BRANCH   6   7
HETATM    7  C8  UNL     1       8.409  -4.549   4.740  1.00  0.00     0.027 C 
HETATM    8  C9  UNL     1       7.040  -4.990   4.372  1.00  0.00     0.128 C 
HETATM    9  C10 UNL     1       7.154  -4.249   3.036  1.00  0.00     0.040 C 
HETATM   10  O1  UNL     1       6.252  -4.022   5.047  1.00  0.00    -0.375 OA
HETATM   11  C11 UNL     1       8.049  -3.377   3.880  1.00  0.00     0.029 C 
HETATM   12  C12 UNL     1       6.920  -2.799   4.768  1.00  0.00     0.058 C 
HETATM   13  C13 UNL     1       7.466  -2.241   6.047  1.00  0.00     0.046 C 
HETATM   14  C14 UNL     1       6.059  -1.844   4.014  1.00  0.00     0.046 C 
ENDBRANCH   6   7
BRANCH   1  15
HETATM   15  N1  UNL     1       8.756  -7.439   3.881  1.00  0.00    -0.237 NA
HETATM   16  C1  UNL     1       7.563  -7.940   4.481  1.00  0.00     0.136 C 
BRANCH  15  17
HETATM   17  N2  UNL     1       9.507  -8.426   3.237  1.00  0.00    -0.363 NA
ATOM     18  H22 UNL     1       9.770  -9.114   3.943  1.00  0.00     0.171 HD
ATOM     19  H21 UNL     1       9.030  -8.838   2.436  1.00  0.00     0.171 HD
ENDBRANCH  15  17
ENDBRANCH   1  15
TORSDOF 3
ENDMDL
MODEL 5
REMARK VINA RESULT: -5.939402360      2.592      5.152
REMARK  3 active torsions:
REMARK  status: ('A' for Active; 'I' for Inactive)
REMARK    1  A    between atoms: N1_2  and  N2_3 
REMARK    2  A    between atoms: N1_2  and  C2_6 
REMARK    3  A    between atoms: C7_11  and  C8_12 
ROOT
HETATM    1  C2  UNL     1      11.766  -5.182   5.170  1.00  0.00     0.083 C 
HETATM    2  C3  UNL     1      13.251  -4.950   5.187  1.00  0.00     0.022 C 
HETATM    3  C4  UNL     1      13.673  -3.520   5.144  1.00  0.00     0.002 C 
HETATM    4  C5  UNL     1      12.873  -2.667   4.200  1.00  0.00     0.001 C 
HETATM    5  C6  UNL     1      11.426  -2.800   4.656  1.00  0.00     0.007 C 
HETATM    6  C7  UNL     1      11.034  -4.248   4.304  1.00  0.00     0.012 C 
ENDROOT
BRANCH   6   7
HETATM    7  C8  UNL     1       9.600  -4.287   4.186  1.00  0.00     0.027 C 
HETATM    8  C9  UNL     1       8.752  -3.110   3.867  1.00  0.00     0.128 C 
HETATM    9  C10 UNL     1       8.509  -2.874   5.361  1.00  0.00     0.040 C 
HETATM   10  O1  UNL     1       7.512  -3.738   3.581  1.00  0.00    -0.375 OA
HETATM   11  C11 UNL     1       8.692  -4.370   5.374  1.00  0.00     0.029 C 
HETATM   12  C12 UNL     1       7.381  -4.701   4.620  1.00  0.00     0.058 C 
HETATM   13  C13 UNL     1       7.431  -6.073   4.020  1.00  0.00     0.046 C 
HETATM   14  C14 UNL     1       6.180  -4.457   5.468  1.00  0.00     0.046 C 
ENDBRANCH   6   7
BRANCH   1  15
HETATM   15  N1  UNL     1      11.618  -6.521   4.570  1.00  0.00    -0.237 NA
HETATM   16  C1  UNL     1      10.743  -7.371   5.309  1.00  0.00     0.136 C 
BRANCH  15  17
HETATM   17  N2  UNL     1      12.901  -7.051   4.414  1.00  0.00    -0.363 NA
ATOM     18  H22 UNL     1      13.055  -7.184   3.415  1.00  0.00     0.171 HD
ATOM     19  H21 UNL     1      13.627  -6.487   4.858  1.00  0.00     0.171 HD
ENDBRANCH  15  17
ENDBRANCH   1  15
TORSDOF 3
ENDMDL
