MODEL 1
REMARK VINA RESULT: -4.851789144      0.000      0.000
REMARK  2 active torsions:
REMARK  status: ('A' for Active; 'I' for Inactive)
REMARK    1  A    between atoms: O1_1  and  C1_3 
REMARK    2  A    between atoms: C1_3  and  C2_4 
ROOT
HETATM    1  C2  UNL     1       6.370  -1.552   6.597  1.00  0.00     0.085 C 
HETATM    2  N1  UNL     1       5.452  -1.948   5.668  1.00  0.00    -0.379 N 
HETATM    3  C3  UNL     1       4.083  -2.048   5.878  1.00  0.00     0.084 C 
HETATM    4  C4  UNL     1       3.346  -1.057   5.037  1.00  0.00     0.025 C 
HETATM    5  C5  UNL     1       3.964  -0.688   3.750  1.00  0.00     0.004 C 
HETATM    6  C6  UNL     1       5.223  -1.346   3.367  1.00  0.00     0.028 C 
HETATM    7  C7  UNL     1       5.843  -2.271   4.346  1.00  0.00     0.118 C 
HETATM    8  C8  UNL     1       5.497  -3.733   4.125  1.00  0.00     0.081 C 
HETATM    9  C9  UNL     1       6.147  -4.308   2.913  1.00  0.00     0.040 C 
HETATM   10  C10 UNL     1       7.529  -4.829   3.337  1.00  0.00     0.005 C 
HETATM   11  C11 UNL     1       7.279  -6.099   4.151  1.00  0.00     0.026 C 
HETATM   12  C12 UNL     1       6.015  -5.838   4.947  1.00  0.00     0.168 C 
HETATM   13  O2  UNL     1       5.962  -4.474   5.229  1.00  0.00    -0.378 OA
HETATM   14  C13 UNL     1       4.002  -3.861   4.147  1.00  0.00     0.042 C 
HETATM   15  C14 UNL     1       3.514  -3.433   5.519  1.00  0.00     0.028 C 
ENDROOT
BRANCH   1  16
HETATM   16  C1  UNL     1       6.389  -0.131   7.078  1.00  0.00     0.208 C 
BRANCH  16  17
HETATM   17  O1  UNL     1       7.532   0.566   6.696  1.00  0.00    -0.396 OA
ATOM     18  H1  UNL     1       7.763   1.268   7.295  1.00  0.00     0.209 HD
ENDBRANCH  16  17
ENDBRANCH   1  16
TORSDOF 2
ENDMDL
MODEL 2
REMARK VINA RESULT: -4.839220619      2.068      2.968
REMARK  2 active torsions:
REMARK  status: ('A' for Active; 'I' for Inactive)
REMARK    1  A    between atoms: O1_1  and  C1_3 
REMARK    2  A    between atoms: C1_3  and  C2_4 
ROOT
HETATM    1  C2  UNL     1       5.282  -4.088   6.534  1.00  0.00     0.085 C 
HETATM    2  N1  UNL     1       5.633  -3.881   5.230  1.00  0.00    -0.379 N 
HETATM    3  C3  UNL     1       4.954  -4.375   4.124  1.00  0.00     0.084 C 
HETATM    4  C4  UNL     1       4.366  -3.259   3.324  1.00  0.00     0.025 C 
HETATM    5  C5  UNL     1       5.084  -1.971   3.351  1.00  0.00     0.004 C 
HETATM    6  C6  UNL     1       6.339  -1.888   4.117  1.00  0.00     0.028 C 
HETATM    7  C7  UNL     1       6.752  -3.082   4.893  1.00  0.00     0.118 C 
HETATM    8  C8  UNL     1       7.739  -3.982   4.171  1.00  0.00     0.081 C 
HETATM    9  C9  UNL     1       9.097  -3.378   4.051  1.00  0.00     0.040 C 
HETATM   10  C10 UNL     1       9.878  -3.752   5.320  1.00  0.00     0.005 C 
HETATM   11  C11 UNL     1      10.219  -5.236   5.196  1.00  0.00     0.026 C 
HETATM   12  C12 UNL     1       9.020  -5.881   4.526  1.00  0.00     0.168 C 
HETATM   13  O2  UNL     1       7.883  -5.171   4.911  1.00  0.00    -0.378 OA
HETATM   14  C13 UNL     1       7.122  -4.386   2.864  1.00  0.00     0.042 C 
HETATM   15  C14 UNL     1       5.858  -5.170   3.164  1.00  0.00     0.028 C 
ENDROOT
BRANCH   1  16
HETATM   16  C1  UNL     1       4.032  -3.465   7.083  1.00  0.00     0.208 C 
BRANCH  16  17
HETATM   17  O1  UNL     1       3.919  -2.108   6.796  1.00  0.00    -0.396 OA
ATOM     18  H1  UNL     1       3.969  -1.914   5.867  1.00  0.00     0.209 HD
ENDBRANCH  16  17
ENDBRANCH   1  16
TORSDOF 2
ENDMDL
MODEL 3
REMARK VINA RESULT: -4.791059570      2.671      4.734
REMARK  2 active torsions:
REMARK  status: ('A' for Active; 'I' for Inactive)
REMARK    1  A    between atoms: O1_1  and  C1_3 
REMARK    2  A    between atoms: C1_3  and  C2_4 
ROOT
HETATM    1  C2  UNL     1       6.855  -1.229   6.317  1.00  0.00     0.085 C 
HETATM    2  N1  UNL     1       5.579  -1.626   6.597  1.00  0.00    -0.379 N 
HETATM    3  C3  UNL     1       5.087  -2.916   6.456  1.00  0.00     0.084 C 
HETATM    4  C4  UNL     1       4.721  -3.491   7.786  1.00  0.00     0.025 C 
HETATM    5  C5  UNL     1       4.273  -2.539   8.820  1.00  0.00     0.004 C 
HETATM    6  C6  UNL     1       4.175  -1.115   8.462  1.00  0.00     0.028 C 
HETATM    7  C7  UNL     1       4.625  -0.713   7.108  1.00  0.00     0.118 C 
HETATM    8  C8  UNL     1       3.508  -0.619   6.083  1.00  0.00     0.081 C 
HETATM    9  C9  UNL     1       2.603   0.543   6.314  1.00  0.00     0.040 C 
HETATM   10  C10 UNL     1       3.209   1.749   5.578  1.00  0.00     0.005 C 
HETATM   11  C11 UNL     1       2.978   1.504   4.088  1.00  0.00     0.026 C 
HETATM   12  C12 UNL     1       3.147   0.011   3.882  1.00  0.00     0.168 C 
HETATM   13  O2  UNL     1       4.083  -0.443   4.810  1.00  0.00    -0.378 OA
HETATM   14  C13 UNL     1       2.812  -1.948   6.038  1.00  0.00     0.042 C 
HETATM   15  C14 UNL     1       3.818  -2.990   5.586  1.00  0.00     0.028 C 
ENDROOT
BRANCH   1  16
HETATM   16  C1  UNL     1       7.995  -1.705   7.170  1.00  0.00     0.208 C 
BRANCH  16  17
HETATM   17  O1  UNL     1       7.725  -1.648   8.535  1.00  0.00    -0.396 OA
ATOM     18  H1  UNL     1       7.484  -2.489   8.907  1.00  0.00     0.209 HD
ENDBRANCH  16  17
ENDBRANCH   1  16
TORSDOF 2
ENDMDL
MODEL 4
REMARK VINA RESULT: -4.733049763      1.776      2.761
REMARK  2 active torsions:
REMARK  status: ('A' for Active; 'I' for Inactive)
REMARK    1  A    between atoms: O1_1  and  C1_3 
REMARK    2  A    between atoms: C1_3  and  C2_4 
ROOT
HETATM    1  C2  UNL     1       4.690  -3.692   7.474  1.00  0.00     0.085 C 
HETATM    2  N1  UNL     1       5.186  -2.712   6.663  1.00  0.00    -0.379 N 
HETATM    3  C3  UNL     1       4.521  -1.546   6.308  1.00  0.00     0.084 C 
HETATM    4  C4  UNL     1       5.219  -0.349   6.866  1.00  0.00     0.025 C 
HETATM    5  C5  UNL     1       6.680  -0.452   7.039  1.00  0.00     0.004 C 
HETATM    6  C6  UNL     1       7.347  -1.694   6.614  1.00  0.00     0.028 C 
HETATM    7  C7  UNL     1       6.492  -2.801   6.125  1.00  0.00     0.118 C 
HETATM    8  C8  UNL     1       6.347  -2.854   4.614  1.00  0.00     0.081 C 
HETATM    9  C9  UNL     1       7.595  -3.285   3.923  1.00  0.00     0.040 C 
HETATM   10  C10 UNL     1       7.574  -4.820   3.853  1.00  0.00     0.005 C 
HETATM   11  C11 UNL     1       6.529  -5.188   2.799  1.00  0.00     0.026 C 
HETATM   12  C12 UNL     1       5.413  -4.172   2.951  1.00  0.00     0.168 C 
HETATM   13  O2  UNL     1       5.354  -3.801   4.293  1.00  0.00    -0.378 OA
HETATM   14  C13 UNL     1       5.810  -1.528   4.157  1.00  0.00     0.042 C 
HETATM   15  C14 UNL     1       4.443  -1.333   4.784  1.00  0.00     0.028 C 
ENDROOT
BRANCH   1  16
HETATM   16  C1  UNL     1       4.479  -3.423   8.936  1.00  0.00     0.208 C 
BRANCH  16  17
HETATM   17  O1  UNL     1       5.594  -2.872   9.562  1.00  0.00    -0.396 OA
ATOM     18  H1  UNL     1       6.380  -2.905   9.029  1.00  0.00     0.209 HD
ENDBRANCH  16  17
ENDBRANCH   1  16
TORSDOF 2
ENDMDL
MODEL 5
REMARK VINA RESULT: -4.724557631      3.360      4.720
REMARK  2 active torsions:
REMARK  status: ('A' for Active; 'I' for Inactive)
REMARK    1  A    between atoms: O1_1  and  C1_3 
REMARK    2  A    between atoms: C1_3  and  C2_4 
ROOT
HETATM    1  C2  UNL     1       6.689  -1.440   8.096  1.00  0.00     0.085 C 
HETATM    2  N1  UNL     1       5.384  -1.737   7.826  1.00  0.00    -0.379 N 
HETATM    3  C3  UNL     1       4.406  -0.822   7.463  1.00  0.00     0.084 C 
HETATM    4  C4  UNL     1       3.935  -1.077   6.067  1.00  0.00     0.025 C 
HETATM    5  C5  UNL     1       3.982  -2.474   5.596  1.00  0.00     0.004 C 
HETATM    6  C6  UNL     1       4.439  -3.512   6.534  1.00  0.00     0.028 C 
HETATM    7  C7  UNL     1       4.915  -3.073   7.868  1.00  0.00     0.118 C 
HETATM    8  C8  UNL     1       3.861  -3.141   8.958  1.00  0.00     0.081 C 
HETATM    9  C9  UNL     1       3.517  -4.537   9.350  1.00  0.00     0.040 C 
HETATM   10  C10 UNL     1       4.503  -4.959  10.452  1.00  0.00     0.005 C 
HETATM   11  C11 UNL     1       4.088  -4.202  11.714  1.00  0.00     0.026 C 
HETATM   12  C12 UNL     1       3.629  -2.835  11.244  1.00  0.00     0.168 C 
HETATM   13  O2  UNL     1       4.367  -2.504  10.108  1.00  0.00    -0.378 OA
HETATM   14  C13 UNL     1       2.688  -2.314   8.516  1.00  0.00     0.042 C 
HETATM   15  C14 UNL     1       3.157  -0.879   8.361  1.00  0.00     0.028 C 
ENDROOT
BRANCH   1  16
HETATM   16  C1  UNL     1       7.598  -0.979   6.995  1.00  0.00     0.208 C 
BRANCH  16  17
HETATM   17  O1  UNL     1       7.609   0.403   6.830  1.00  0.00    -0.396 OA
ATOM     18  H1  UNL     1       8.063   0.685   6.044  1.00  0.00     0.209 HD
ENDBRANCH  16  17
ENDBRANCH   1  16
TORSDOF 2
ENDMDL
