MODEL 1
REMARK VINA RESULT: -6.770452753      0.000      0.000
REMARK  1 active torsions:
REMARK  status: ('A' for Active; 'I' for Inactive)
REMARK    1  A    between atoms: C6_8  and  C7_9 
ROOT
HETATM    1  O1  UNL     1     -25.844  -4.691  -9.227  1.00  0.00    -0.265 OA
HETATM    2  C1  UNL     1     -24.866  -4.475  -9.964  1.00  0.00     0.259 C 
HETATM    3  C2  UNL     1     -24.308  -3.171 -10.403  1.00  0.00     0.121 C 
HETATM    4  C3  UNL     1     -22.824  -3.448 -10.519  1.00  0.00     0.060 C 
HETATM    5  C4  UNL     1     -22.756  -4.928 -10.701  1.00  0.00     0.162 C 
HETATM    6  C5  UNL     1     -21.955  -5.391  -9.504  1.00  0.00     0.201 C 
HETATM    7  O2  UNL     1     -21.181  -4.292  -9.205  1.00  0.00    -0.378 OA
HETATM    8  C6  UNL     1     -22.081  -3.208  -9.257  1.00  0.00     0.183 C 
HETATM    9  O5  UNL     1     -24.063  -5.442 -10.551  1.00  0.00    -0.313 OA
ENDROOT
BRANCH   8  10
HETATM   10  C7  UNL     1     -21.248  -1.950  -9.257  1.00  0.00     0.289 C 
HETATM   11  O3  UNL     1     -20.191  -2.182  -8.346  1.00  0.00    -0.357 OA
HETATM   12  C8  UNL     1     -19.803  -0.884  -8.036  1.00  0.00     0.197 C 
HETATM   13  C9  UNL     1     -21.147  -0.207  -7.864  1.00  0.00     0.197 C 
HETATM   14  O4  UNL     1     -21.914  -0.837  -8.821  1.00  0.00    -0.357 OA
ENDBRANCH   8  10
TORSDOF 1
ENDMDL
MODEL 2
REMARK VINA RESULT: -5.916367217      1.617      4.993
REMARK  1 active torsions:
REMARK  status: ('A' for Active; 'I' for Inactive)
REMARK    1  A    between atoms: C6_8  and  C7_9 
ROOT
HETATM    1  O1  UNL     1     -20.891  -1.397  -8.053  1.00  0.00    -0.265 OA
HETATM    2  C1  UNL     1     -21.068  -2.103  -9.062  1.00  0.00     0.259 C 
HETATM    3  C2  UNL     1     -20.865  -3.565  -9.214  1.00  0.00     0.121 C 
HETATM    4  C3  UNL     1     -21.931  -3.963 -10.213  1.00  0.00     0.060 C 
HETATM    5  C4  UNL     1     -22.228  -2.690 -10.935  1.00  0.00     0.162 C 
HETATM    6  C5  UNL     1     -23.694  -2.457 -10.642  1.00  0.00     0.201 C 
HETATM    7  O2  UNL     1     -24.174  -3.731 -10.434  1.00  0.00    -0.378 OA
HETATM    8  C6  UNL     1     -23.223  -4.327  -9.581  1.00  0.00     0.183 C 
HETATM    9  O5  UNL     1     -21.508  -1.655 -10.298  1.00  0.00    -0.313 OA
ENDROOT
BRANCH   8  10
HETATM   10  C7  UNL     1     -23.514  -5.807  -9.571  1.00  0.00     0.289 C 
HETATM   11  O3  UNL     1     -22.923  -6.328 -10.746  1.00  0.00    -0.357 OA
HETATM   12  C8  UNL     1     -23.634  -7.512 -10.911  1.00  0.00     0.197 C 
HETATM   13  C9  UNL     1     -25.047  -7.051 -10.616  1.00  0.00     0.197 C 
HETATM   14  O4  UNL     1     -24.845  -6.117  -9.622  1.00  0.00    -0.357 OA
ENDBRANCH   8  10
TORSDOF 1
ENDMDL
MODEL 3
REMARK VINA RESULT: -5.887234706      1.487      4.995
REMARK  1 active torsions:
REMARK  status: ('A' for Active; 'I' for Inactive)
REMARK    1  A    between atoms: C6_8  and  C7_9 
ROOT
HETATM    1  O1  UNL     1     -20.428  -2.039  -8.203  1.00  0.00    -0.265 OA
HETATM    2  C1  UNL     1     -20.900  -2.690  -9.153  1.00  0.00     0.259 C 
HETATM    3  C2  UNL     1     -21.504  -4.046  -9.134  1.00  0.00     0.121 C 
HETATM    4  C3  UNL     1     -22.561  -3.972 -10.216  1.00  0.00     0.060 C 
HETATM    5  C4  UNL     1     -22.090  -2.858 -11.091  1.00  0.00     0.162 C 
HETATM    6  C5  UNL     1     -23.216  -1.851 -11.011  1.00  0.00     0.201 C 
HETATM    7  O2  UNL     1     -24.315  -2.637 -10.741  1.00  0.00    -0.378 OA
HETATM    8  C6  UNL     1     -23.880  -3.506  -9.720  1.00  0.00     0.183 C 
HETATM    9  O5  UNL     1     -20.963  -2.271 -10.473  1.00  0.00    -0.313 OA
ENDROOT
BRANCH   8  10
HETATM   10  C7  UNL     1     -24.918  -4.593  -9.602  1.00  0.00     0.289 C 
HETATM   11  O3  UNL     1     -24.615  -5.534 -10.614  1.00  0.00    -0.357 OA
HETATM   12  C8  UNL     1     -25.835  -6.184 -10.762  1.00  0.00     0.197 C 
HETATM   13  C9  UNL     1     -26.798  -5.014 -10.733  1.00  0.00     0.197 C 
HETATM   14  O4  UNL     1     -26.201  -4.170  -9.821  1.00  0.00    -0.357 OA
ENDBRANCH   8  10
TORSDOF 1
ENDMDL
MODEL 4
REMARK VINA RESULT: -5.836735395      1.426      2.530
REMARK  1 active torsions:
REMARK  status: ('A' for Active; 'I' for Inactive)
REMARK    1  A    between atoms: C6_8  and  C7_9 
ROOT
HETATM    1  O1  UNL     1     -23.691  -7.733 -11.373  1.00  0.00    -0.265 OA
HETATM    2  C1  UNL     1     -23.713  -6.882 -10.465  1.00  0.00     0.259 C 
HETATM    3  C2  UNL     1     -22.572  -6.165  -9.843  1.00  0.00     0.121 C 
HETATM    4  C3  UNL     1     -23.157  -4.812  -9.496  1.00  0.00     0.060 C 
HETATM    5  C4  UNL     1     -24.625  -5.075  -9.415  1.00  0.00     0.162 C 
HETATM    6  C5  UNL     1     -25.200  -4.178 -10.490  1.00  0.00     0.201 C 
HETATM    7  O2  UNL     1     -24.276  -3.159 -10.570  1.00  0.00    -0.378 OA
HETATM    8  C6  UNL     1     -23.031  -3.819 -10.592  1.00  0.00     0.183 C 
HETATM    9  O5  UNL     1     -24.848  -6.408  -9.824  1.00  0.00    -0.313 OA
ENDROOT
BRANCH   8  10
HETATM   10  C7  UNL     1     -21.976  -2.767 -10.356  1.00  0.00     0.289 C 
HETATM   11  O3  UNL     1     -21.176  -3.247  -9.293  1.00  0.00    -0.357 OA
HETATM   12  C8  UNL     1     -20.599  -2.072  -8.828  1.00  0.00     0.197 C 
HETATM   13  C9  UNL     1     -21.787  -1.132  -8.846  1.00  0.00     0.197 C 
HETATM   14  O4  UNL     1     -22.472  -1.553  -9.966  1.00  0.00    -0.357 OA
ENDBRANCH   8  10
TORSDOF 1
ENDMDL
MODEL 5
REMARK VINA RESULT: -5.652369227      1.544      2.703
REMARK  1 active torsions:
REMARK  status: ('A' for Active; 'I' for Inactive)
REMARK    1  A    between atoms: C6_8  and  C7_9 
ROOT
HETATM    1  O1  UNL     1     -25.601  -7.179 -11.386  1.00  0.00    -0.265 OA
HETATM    2  C1  UNL     1     -25.261  -6.370 -10.504  1.00  0.00     0.259 C 
HETATM    3  C2  UNL     1     -23.912  -6.146  -9.925  1.00  0.00     0.121 C 
HETATM    4  C3  UNL     1     -23.910  -4.665  -9.609  1.00  0.00     0.060 C 
HETATM    5  C4  UNL     1     -25.360  -4.329  -9.491  1.00  0.00     0.162 C 
HETATM    6  C5  UNL     1     -25.570  -3.301 -10.581  1.00  0.00     0.201 C 
HETATM    7  O2  UNL     1     -24.324  -2.728 -10.709  1.00  0.00    -0.378 OA
HETATM    8  C6  UNL     1     -23.437  -3.823 -10.736  1.00  0.00     0.183 C 
HETATM    9  O5  UNL     1     -26.100  -5.477  -9.855  1.00  0.00    -0.313 OA
ENDROOT
BRANCH   8  10
HETATM   10  C7  UNL     1     -22.048  -3.264 -10.553  1.00  0.00     0.289 C 
HETATM   11  O3  UNL     1     -21.485  -3.969  -9.463  1.00  0.00    -0.357 OA
HETATM   12  C8  UNL     1     -20.481  -3.097  -9.059  1.00  0.00     0.197 C 
HETATM   13  C9  UNL     1     -21.201  -1.765  -9.130  1.00  0.00     0.197 C 
HETATM   14  O4  UNL     1     -22.017  -1.935 -10.228  1.00  0.00    -0.357 OA
ENDBRANCH   8  10
TORSDOF 1
ENDMDL
