MODEL 1
REMARK VINA RESULT: -8.405446874      0.000      0.000
REMARK  7 active torsions:
REMARK  status: ('A' for Active; 'I' for Inactive)
REMARK    1  A    between atoms: C8_8  and  N1_9 
REMARK       I    between atoms: N1_9  and  C9_11 
REMARK    2  A    between atoms: C9_11  and  C10_13 
REMARK    3  A    between atoms: C14_20  and  N3_21 
REMARK    4  A    between atoms: N3_21  and  C15_23 
REMARK    5  A    between atoms: C15_23  and  C16_24 
REMARK    6  A    between atoms: C20_30  and  C21_31 
REMARK       I    between atoms: C21_31  and  N4_33 
REMARK    7  A    between atoms: N4_33  and  C23_35 
ROOT
HETATM    1  C1  UNL     1      14.799  35.876  68.033  1.00  0.00     0.040 C 
HETATM    2  C2  UNL     1      15.830  36.868  68.510  1.00  0.00     0.125 C 
HETATM    3  C3  UNL     1      17.186  36.255  68.670  1.00  0.00     0.037 C 
HETATM    4  C4  UNL     1      17.086  35.063  69.631  1.00  0.00     0.045 C 
HETATM    5  C5  UNL     1      16.569  35.635  70.917  1.00  0.00    -0.009 A 
HETATM    6  C6  UNL     1      15.781  36.767  70.911  1.00  0.00     0.078 A 
HETATM    7  C7  UNL     1      15.322  37.274  72.101  1.00  0.00     0.066 A 
HETATM    8  C8  UNL     1      15.654  36.642  73.329  1.00  0.00     0.038 A 
HETATM    9  C19 UNL     1      16.427  35.534  73.322  1.00  0.00     0.047 A 
HETATM   10  C20 UNL     1      16.886  35.029  72.101  1.00  0.00     0.043 A 
HETATM   11  O5  UNL     1      15.425  37.428  69.724  1.00  0.00    -0.346 OA
ENDROOT
BRANCH   8  12
HETATM   12  N1  UNL     1      15.148  37.227  74.500  1.00  0.00    -0.321 N 
HETATM   13  C9  UNL     1      14.245  36.656  75.402  1.00  0.00     0.280 C 
HETATM   14  O1  UNL     1      13.764  35.507  75.256  1.00  0.00    -0.265 OA
ATOM     15  H1  UNL     1      15.475  38.169  74.716  1.00  0.00     0.169 HD
BRANCH  13  16
HETATM   16  C10 UNL     1      13.822  37.437  76.603  1.00  0.00     0.143 A 
HETATM   17  N2  UNL     1      14.645  38.014  77.450  1.00  0.00    -0.349 N 
HETATM   18  C11 UNL     1      14.171  38.671  78.465  1.00  0.00     0.023 A 
ATOM     19  H2  UNL     1      15.653  37.947  77.309  1.00  0.00     0.166 HD
HETATM   20  C12 UNL     1      12.806  38.730  78.603  1.00  0.00     0.009 A 
HETATM   21  C18 UNL     1      14.943  39.401  79.547  1.00  0.00     0.060 C 
HETATM   22  S1  UNL     1      12.297  37.818  77.237  1.00  0.00    -0.069 SA
HETATM   23  C13 UNL     1      12.158  39.468  79.749  1.00  0.00     0.073 C 
HETATM   24  C14 UNL     1      12.865  40.748  80.042  1.00  0.00     0.082 C 
HETATM   25  C17 UNL     1      14.315  40.772  79.632  1.00  0.00     0.031 C 
BRANCH  24  26
HETATM   26  N3  UNL     1      12.768  41.188  81.398  1.00  0.00    -0.408 N 
ATOM     27  H3  UNL     1      11.928  41.024  81.952  1.00  0.00     0.154 HD
BRANCH  26  28
HETATM   28  C15 UNL     1      13.893  41.864  81.937  1.00  0.00     0.228 C 
BRANCH  28  29
HETATM   29  C16 UNL     1      14.064  41.379  83.345  1.00  0.00     0.190 C 
HETATM   30  O2  UNL     1      15.184  41.094  83.837  1.00  0.00    -0.647 OA
HETATM   31  O3  UNL     1      12.949  41.232  84.155  1.00  0.00    -0.647 OA
ENDBRANCH  28  29
ENDBRANCH  26  28
ENDBRANCH  24  26
ENDBRANCH  13  16
ENDBRANCH   8  12
BRANCH  10  32
HETATM   32  C21 UNL     1      17.728  33.829  72.054  1.00  0.00     0.254 C 
HETATM   33  O4  UNL     1      17.152  32.747  71.763  1.00  0.00    -0.267 OA
HETATM   34  N4  UNL     1      19.124  33.867  72.320  1.00  0.00    -0.347 N 
HETATM   35  C22 UNL     1      19.878  32.636  72.252  1.00  0.00     0.153 C 
BRANCH  34  36
HETATM   36  C23 UNL     1      19.717  35.140  72.645  1.00  0.00     0.089 C 
HETATM   37  C24 UNL     1      21.073  35.352  72.072  1.00  0.00     0.028 C 
HETATM   38  C25 UNL     1      22.094  35.075  73.129  1.00  0.00     0.039 C 
HETATM   39  C26 UNL     1      21.354  35.165  74.418  1.00  0.00     0.172 C 
HETATM   40  F1  UNL     1      21.535  34.026  75.203  1.00  0.00    -0.249 F 
HETATM   41  C27 UNL     1      19.902  35.340  74.123  1.00  0.00     0.062 C 
ENDBRANCH  34  36
ENDBRANCH  10  32
TORSDOF 7
ENDMDL
MODEL 2
REMARK VINA RESULT: -8.096683004      1.874      2.804
REMARK  7 active torsions:
REMARK  status: ('A' for Active; 'I' for Inactive)
REMARK    1  A    between atoms: C8_8  and  N1_9 
REMARK       I    between atoms: N1_9  and  C9_11 
REMARK    2  A    between atoms: C9_11  and  C10_13 
REMARK    3  A    between atoms: C14_20  and  N3_21 
REMARK    4  A    between atoms: N3_21  and  C15_23 
REMARK    5  A    between atoms: C15_23  and  C16_24 
REMARK    6  A    between atoms: C20_30  and  C21_31 
REMARK       I    between atoms: C21_31  and  N4_33 
REMARK    7  A    between atoms: N4_33  and  C23_35 
ROOT
HETATM    1  C1  UNL     1      14.653  35.877  67.889  1.00  0.00     0.040 C 
HETATM    2  C2  UNL     1      15.536  37.037  68.276  1.00  0.00     0.125 C 
HETATM    3  C3  UNL     1      16.982  36.656  68.354  1.00  0.00     0.037 C 
HETATM    4  C4  UNL     1      17.141  35.492  69.340  1.00  0.00     0.045 C 
HETATM    5  C5  UNL     1      16.622  36.009  70.648  1.00  0.00    -0.009 A 
HETATM    6  C6  UNL     1      15.661  36.997  70.676  1.00  0.00     0.078 A 
HETATM    7  C7  UNL     1      15.203  37.455  71.886  1.00  0.00     0.066 A 
HETATM    8  C8  UNL     1      15.713  36.921  73.099  1.00  0.00     0.038 A 
HETATM    9  C19 UNL     1      16.655  35.953  73.058  1.00  0.00     0.047 A 
HETATM   10  C20 UNL     1      17.111  35.496  71.818  1.00  0.00     0.043 A 
HETATM   11  O5  UNL     1      15.125  37.557  69.506  1.00  0.00    -0.346 OA
ENDROOT
BRANCH   8  12
HETATM   12  N1  UNL     1      15.196  37.449  74.292  1.00  0.00    -0.321 N 
HETATM   13  C9  UNL     1      14.405  36.782  75.233  1.00  0.00     0.280 C 
HETATM   14  O1  UNL     1      14.054  35.584  75.107  1.00  0.00    -0.265 OA
ATOM     15  H1  UNL     1      15.420  38.423  74.494  1.00  0.00     0.169 HD
BRANCH  13  16
HETATM   16  C10 UNL     1      13.948  37.514  76.452  1.00  0.00     0.143 A 
HETATM   17  N2  UNL     1      14.744  38.115  77.307  1.00  0.00    -0.349 N 
HETATM   18  C11 UNL     1      14.242  38.724  78.338  1.00  0.00     0.023 A 
ATOM     19  H2  UNL     1      15.754  38.103  77.162  1.00  0.00     0.166 HD
HETATM   20  C12 UNL     1      12.877  38.709  78.483  1.00  0.00     0.009 A 
HETATM   21  C18 UNL     1      14.981  39.471  79.432  1.00  0.00     0.060 C 
HETATM   22  S1  UNL     1      12.409  37.801  77.100  1.00  0.00    -0.069 SA
HETATM   23  C13 UNL     1      12.197  39.388  79.648  1.00  0.00     0.073 C 
HETATM   24  C14 UNL     1      12.838  40.696  79.966  1.00  0.00     0.082 C 
HETATM   25  C17 UNL     1      14.283  40.805  79.550  1.00  0.00     0.031 C 
BRANCH  24  26
HETATM   26  N3  UNL     1      12.726  41.102  81.330  1.00  0.00    -0.408 N 
ATOM     27  H3  UNL     1      11.880  40.923  81.871  1.00  0.00     0.154 HD
BRANCH  26  28
HETATM   28  C15 UNL     1      13.844  41.765  81.900  1.00  0.00     0.228 C 
BRANCH  28  29
HETATM   29  C16 UNL     1      13.908  41.360  83.341  1.00  0.00     0.190 C 
HETATM   30  O2  UNL     1      12.902  41.355  84.093  1.00  0.00    -0.647 OA
HETATM   31  O3  UNL     1      15.122  40.972  83.887  1.00  0.00    -0.647 OA
ENDBRANCH  28  29
ENDBRANCH  26  28
ENDBRANCH  24  26
ENDBRANCH  13  16
ENDBRANCH   8  12
BRANCH  10  32
HETATM   32  C21 UNL     1      18.133  34.447  71.733  1.00  0.00     0.254 C 
HETATM   33  O4  UNL     1      19.334  34.827  71.749  1.00  0.00    -0.267 OA
HETATM   34  N4  UNL     1      17.802  33.068  71.637  1.00  0.00    -0.347 N 
HETATM   35  C22 UNL     1      18.874  32.101  71.557  1.00  0.00     0.153 C 
BRANCH  34  36
HETATM   36  C23 UNL     1      16.408  32.705  71.626  1.00  0.00     0.089 C 
HETATM   37  C24 UNL     1      15.868  32.288  72.947  1.00  0.00     0.028 C 
HETATM   38  C25 UNL     1      15.829  30.795  73.006  1.00  0.00     0.039 C 
HETATM   39  C26 UNL     1      15.889  30.348  71.587  1.00  0.00     0.172 C 
HETATM   40  F1  UNL     1      16.911  29.422  71.375  1.00  0.00    -0.249 F 
HETATM   41  C27 UNL     1      16.112  31.542  70.720  1.00  0.00     0.062 C 
ENDBRANCH  34  36
ENDBRANCH  10  32
TORSDOF 7
ENDMDL
MODEL 3
REMARK VINA RESULT: -7.938134171      2.387      3.058
REMARK  7 active torsions:
REMARK  status: ('A' for Active; 'I' for Inactive)
REMARK    1  A    between atoms: C8_8  and  N1_9 
REMARK       I    between atoms: N1_9  and  C9_11 
REMARK    2  A    between atoms: C9_11  and  C10_13 
REMARK    3  A    between atoms: C14_20  and  N3_21 
REMARK    4  A    between atoms: N3_21  and  C15_23 
REMARK    5  A    between atoms: C15_23  and  C16_24 
REMARK    6  A    between atoms: C20_30  and  C21_31 
REMARK       I    between atoms: C21_31  and  N4_33 
REMARK    7  A    between atoms: N4_33  and  C23_35 
ROOT
HETATM    1  C1  UNL     1      14.942  30.151  71.624  1.00  0.00     0.040 C 
HETATM    2  C2  UNL     1      14.557  31.468  70.997  1.00  0.00     0.125 C 
HETATM    3  C3  UNL     1      15.675  32.079  70.211  1.00  0.00     0.037 C 
HETATM    4  C4  UNL     1      16.898  32.242  71.123  1.00  0.00     0.045 C 
HETATM    5  C5  UNL     1      16.441  33.132  72.240  1.00  0.00    -0.009 A 
HETATM    6  C6  UNL     1      15.114  33.156  72.615  1.00  0.00     0.078 A 
HETATM    7  C7  UNL     1      14.720  33.980  73.639  1.00  0.00     0.066 A 
HETATM    8  C8  UNL     1      15.666  34.803  74.307  1.00  0.00     0.038 A 
HETATM    9  C19 UNL     1      16.962  34.771  73.930  1.00  0.00     0.047 A 
HETATM   10  C20 UNL     1      17.349  33.925  72.886  1.00  0.00     0.043 A 
HETATM   11  O5  UNL     1      14.141  32.362  71.987  1.00  0.00    -0.346 OA
ENDROOT
BRANCH   8  12
HETATM   12  N1  UNL     1      15.179  35.620  75.338  1.00  0.00    -0.321 N 
HETATM   13  C9  UNL     1      14.643  36.906  75.211  1.00  0.00     0.280 C 
HETATM   14  O1  UNL     1      14.536  37.498  74.110  1.00  0.00    -0.265 OA
ATOM     15  H1  UNL     1      15.220  35.236  76.282  1.00  0.00     0.169 HD
BRANCH  13  16
HETATM   16  C10 UNL     1      14.171  37.624  76.433  1.00  0.00     0.143 A 
HETATM   17  N2  UNL     1      14.953  38.253  77.282  1.00  0.00    -0.349 N 
HETATM   18  C11 UNL     1      14.438  38.846  78.315  1.00  0.00     0.023 A 
ATOM     19  H2  UNL     1      15.962  38.274  77.129  1.00  0.00     0.166 HD
HETATM   20  C12 UNL     1      13.075  38.786  78.470  1.00  0.00     0.009 A 
HETATM   21  C18 UNL     1      15.160  39.618  79.404  1.00  0.00     0.060 C 
HETATM   22  S1  UNL     1      12.628  37.861  77.092  1.00  0.00    -0.069 SA
HETATM   23  C13 UNL     1      12.382  39.443  79.639  1.00  0.00     0.073 C 
HETATM   24  C14 UNL     1      12.981  40.772  79.951  1.00  0.00     0.082 C 
HETATM   25  C17 UNL     1      14.418  40.928  79.525  1.00  0.00     0.031 C 
BRANCH  24  26
HETATM   26  N3  UNL     1      12.865  41.176  81.316  1.00  0.00    -0.408 N 
ATOM     27  H3  UNL     1      12.028  40.971  81.862  1.00  0.00     0.154 HD
BRANCH  26  28
HETATM   28  C15 UNL     1      13.965  41.874  81.877  1.00  0.00     0.228 C 
BRANCH  28  29
HETATM   29  C16 UNL     1      14.113  41.399  83.291  1.00  0.00     0.190 C 
HETATM   30  O2  UNL     1      15.225  41.119  83.804  1.00  0.00    -0.647 OA
HETATM   31  O3  UNL     1      12.985  41.254  84.083  1.00  0.00    -0.647 OA
ENDBRANCH  28  29
ENDBRANCH  26  28
ENDBRANCH  24  26
ENDBRANCH  13  16
ENDBRANCH   8  12
BRANCH  10  32
HETATM   32  C21 UNL     1      18.748  33.863  72.448  1.00  0.00     0.254 C 
HETATM   33  O4  UNL     1      19.093  34.670  71.545  1.00  0.00    -0.267 OA
HETATM   34  N4  UNL     1      19.680  32.944  73.004  1.00  0.00    -0.347 N 
HETATM   35  C22 UNL     1      21.039  32.950  72.512  1.00  0.00     0.153 C 
BRANCH  34  36
HETATM   36  C23 UNL     1      19.216  32.049  74.034  1.00  0.00     0.089 C 
HETATM   37  C24 UNL     1      20.160  31.876  75.171  1.00  0.00     0.028 C 
HETATM   38  C25 UNL     1      20.917  30.601  74.982  1.00  0.00     0.039 C 
HETATM   39  C26 UNL     1      20.106  29.806  74.019  1.00  0.00     0.172 C 
HETATM   40  F1  UNL     1      20.864  29.374  72.931  1.00  0.00    -0.249 F 
HETATM   41  C27 UNL     1      18.977  30.652  73.534  1.00  0.00     0.062 C 
ENDBRANCH  34  36
ENDBRANCH  10  32
TORSDOF 7
ENDMDL
MODEL 4
REMARK VINA RESULT: -7.935051813      2.220      2.964
REMARK  7 active torsions:
REMARK  status: ('A' for Active; 'I' for Inactive)
REMARK    1  A    between atoms: C8_8  and  N1_9 
REMARK       I    between atoms: N1_9  and  C9_11 
REMARK    2  A    between atoms: C9_11  and  C10_13 
REMARK    3  A    between atoms: C14_20  and  N3_21 
REMARK    4  A    between atoms: N3_21  and  C15_23 
REMARK    5  A    between atoms: C15_23  and  C16_24 
REMARK    6  A    between atoms: C20_30  and  C21_31 
REMARK       I    between atoms: C21_31  and  N4_33 
REMARK    7  A    between atoms: N4_33  and  C23_35 
ROOT
HETATM    1  C1  UNL     1      15.139  30.170  72.331  1.00  0.00     0.040 C 
HETATM    2  C2  UNL     1      14.423  31.352  71.727  1.00  0.00     0.125 C 
HETATM    3  C3  UNL     1      15.235  32.038  70.674  1.00  0.00     0.037 C 
HETATM    4  C4  UNL     1      16.581  32.461  71.275  1.00  0.00     0.045 C 
HETATM    5  C5  UNL     1      16.236  33.379  72.409  1.00  0.00    -0.009 A 
HETATM    6  C6  UNL     1      15.033  33.249  73.071  1.00  0.00     0.078 A 
HETATM    7  C7  UNL     1      14.738  34.103  74.105  1.00  0.00     0.066 A 
HETATM    8  C8  UNL     1      15.659  35.113  74.490  1.00  0.00     0.038 A 
HETATM    9  C19 UNL     1      16.834  35.230  73.834  1.00  0.00     0.047 A 
HETATM   10  C20 UNL     1      17.121  34.352  72.784  1.00  0.00     0.043 A 
HETATM   11  O5  UNL     1      14.089  32.268  72.728  1.00  0.00    -0.346 OA
ENDROOT
BRANCH   8  12
HETATM   12  N1  UNL     1      15.278  35.947  75.552  1.00  0.00    -0.321 N 
HETATM   13  C9  UNL     1      14.498  37.106  75.474  1.00  0.00     0.280 C 
HETATM   14  O1  UNL     1      14.035  37.547  74.395  1.00  0.00    -0.265 OA
ATOM     15  H1  UNL     1      15.604  35.680  76.481  1.00  0.00     0.169 HD
BRANCH  13  16
HETATM   16  C10 UNL     1      14.193  37.866  76.723  1.00  0.00     0.143 A 
HETATM   17  N2  UNL     1      15.085  38.494  77.454  1.00  0.00    -0.349 N 
HETATM   18  C11 UNL     1      14.712  39.126  78.526  1.00  0.00     0.023 A 
ATOM     19  H2  UNL     1      16.068  38.486  77.181  1.00  0.00     0.166 HD
HETATM   20  C12 UNL     1      13.377  39.105  78.844  1.00  0.00     0.009 A 
HETATM   21  C18 UNL     1      15.576  39.906  79.498  1.00  0.00     0.060 C 
HETATM   22  S1  UNL     1      12.746  38.158  77.555  1.00  0.00    -0.069 SA
HETATM   23  C13 UNL     1      12.844  39.808  80.069  1.00  0.00     0.073 C 
HETATM   24  C14 UNL     1      13.506  41.129  80.270  1.00  0.00     0.082 C 
HETATM   25  C17 UNL     1      14.885  41.237  79.670  1.00  0.00     0.031 C 
BRANCH  24  26
HETATM   26  N3  UNL     1      13.564  41.569  81.627  1.00  0.00    -0.408 N 
ATOM     27  H3  UNL     1      12.841  41.315  82.301  1.00  0.00     0.154 HD
BRANCH  26  28
HETATM   28  C15 UNL     1      14.672  42.375  81.997  1.00  0.00     0.228 C 
BRANCH  28  29
HETATM   29  C16 UNL     1      15.238  41.793  83.257  1.00  0.00     0.190 C 
HETATM   30  O2  UNL     1      14.641  40.919  83.932  1.00  0.00    -0.647 OA
HETATM   31  O3  UNL     1      16.474  42.226  83.712  1.00  0.00    -0.647 OA
ENDBRANCH  28  29
ENDBRANCH  26  28
ENDBRANCH  24  26
ENDBRANCH  13  16
ENDBRANCH   8  12
BRANCH  10  32
HETATM   32  C21 UNL     1      18.385  34.449  72.047  1.00  0.00     0.254 C 
HETATM   33  O4  UNL     1      18.365  35.108  70.974  1.00  0.00    -0.267 OA
HETATM   34  N4  UNL     1      19.583  33.837  72.508  1.00  0.00    -0.347 N 
HETATM   35  C22 UNL     1      20.785  33.983  71.718  1.00  0.00     0.153 C 
BRANCH  34  36
HETATM   36  C23 UNL     1      19.535  33.100  73.745  1.00  0.00     0.089 C 
HETATM   37  C24 UNL     1      20.770  33.194  74.568  1.00  0.00     0.028 C 
HETATM   38  C25 UNL     1      21.594  31.966  74.349  1.00  0.00     0.039 C 
HETATM   39  C26 UNL     1      20.650  30.960  73.789  1.00  0.00     0.172 C 
HETATM   40  F1  UNL     1      21.123  30.406  72.599  1.00  0.00    -0.249 F 
HETATM   41  C27 UNL     1      19.337  31.624  73.540  1.00  0.00     0.062 C 
ENDBRANCH  34  36
ENDBRANCH  10  32
TORSDOF 7
ENDMDL
MODEL 5
REMARK VINA RESULT: -7.829206483      2.977      4.899
REMARK  7 active torsions:
REMARK  status: ('A' for Active; 'I' for Inactive)
REMARK    1  A    between atoms: C8_8  and  N1_9 
REMARK       I    between atoms: N1_9  and  C9_11 
REMARK    2  A    between atoms: C9_11  and  C10_13 
REMARK    3  A    between atoms: C14_20  and  N3_21 
REMARK    4  A    between atoms: N3_21  and  C15_23 
REMARK    5  A    between atoms: C15_23  and  C16_24 
REMARK    6  A    between atoms: C20_30  and  C21_31 
REMARK       I    between atoms: C21_31  and  N4_33 
REMARK    7  A    between atoms: N4_33  and  C23_35 
ROOT
HETATM    1  C1  UNL     1      18.302  31.785  71.787  1.00  0.00     0.040 C 
HETATM    2  C2  UNL     1      16.796  31.802  71.862  1.00  0.00     0.125 C 
HETATM    3  C3  UNL     1      16.164  32.335  70.614  1.00  0.00     0.037 C 
HETATM    4  C4  UNL     1      16.716  33.738  70.334  1.00  0.00     0.045 C 
HETATM    5  C5  UNL     1      16.356  34.552  71.541  1.00  0.00    -0.009 A 
HETATM    6  C6  UNL     1      16.207  33.948  72.771  1.00  0.00     0.078 A 
HETATM    7  C7  UNL     1      15.875  34.713  73.861  1.00  0.00     0.066 A 
HETATM    8  C8  UNL     1      15.684  36.114  73.726  1.00  0.00     0.038 A 
HETATM    9  C19 UNL     1      15.833  36.694  72.515  1.00  0.00     0.047 A 
HETATM   10  C20 UNL     1      16.173  35.902  71.415  1.00  0.00     0.043 A 
HETATM   11  O5  UNL     1      16.384  32.567  72.956  1.00  0.00    -0.346 OA
ENDROOT
BRANCH   8  12
HETATM   12  N1  UNL     1      15.341  36.822  74.888  1.00  0.00    -0.321 N 
HETATM   13  C9  UNL     1      14.055  37.029  75.398  1.00  0.00     0.280 C 
HETATM   14  O1  UNL     1      13.020  36.584  74.847  1.00  0.00    -0.265 OA
ATOM     15  H1  UNL     1      16.112  37.231  75.417  1.00  0.00     0.169 HD
BRANCH  13  16
HETATM   16  C10 UNL     1      13.888  37.812  76.659  1.00  0.00     0.143 A 
HETATM   17  N2  UNL     1      14.863  38.412  77.303  1.00  0.00    -0.349 N 
HETATM   18  C11 UNL     1      14.608  39.068  78.394  1.00  0.00     0.023 A 
ATOM     19  H2  UNL     1      15.818  38.362  76.948  1.00  0.00     0.166 HD
HETATM   20  C12 UNL     1      13.305  39.104  78.825  1.00  0.00     0.009 A 
HETATM   21  C18 UNL     1      15.582  39.823  79.279  1.00  0.00     0.060 C 
HETATM   22  S1  UNL     1      12.530  38.170  77.607  1.00  0.00    -0.069 SA
HETATM   23  C13 UNL     1      12.907  39.839  80.081  1.00  0.00     0.073 C 
HETATM   24  C14 UNL     1      13.635  41.135  80.208  1.00  0.00     0.082 C 
HETATM   25  C17 UNL     1      14.960  41.182  79.492  1.00  0.00     0.031 C 
BRANCH  24  26
HETATM   26  N3  UNL     1      13.826  41.585  81.550  1.00  0.00    -0.408 N 
ATOM     27  H3  UNL     1      13.198  41.301  82.302  1.00  0.00     0.154 HD
BRANCH  26  28
HETATM   28  C15 UNL     1      14.928  42.446  81.790  1.00  0.00     0.228 C 
BRANCH  28  29
HETATM   29  C16 UNL     1      15.480  42.090  83.137  1.00  0.00     0.190 C 
HETATM   30  O2  UNL     1      16.416  42.727  83.681  1.00  0.00    -0.647 OA
HETATM   31  O3  UNL     1      14.947  41.013  83.828  1.00  0.00    -0.647 OA
ENDBRANCH  28  29
ENDBRANCH  26  28
ENDBRANCH  24  26
ENDBRANCH  13  16
ENDBRANCH   8  12
BRANCH  10  32
HETATM   32  C21 UNL     1      16.342  36.496  70.084  1.00  0.00     0.254 C 
HETATM   33  O4  UNL     1      17.525  36.647  69.680  1.00  0.00    -0.267 OA
HETATM   34  N4  UNL     1      15.237  36.886  69.279  1.00  0.00    -0.347 N 
HETATM   35  C22 UNL     1      15.495  37.464  67.979  1.00  0.00     0.153 C 
BRANCH  34  36
HETATM   36  C23 UNL     1      13.911  36.682  69.804  1.00  0.00     0.089 C 
HETATM   37  C24 UNL     1      13.031  35.842  68.947  1.00  0.00     0.028 C 
HETATM   38  C25 UNL     1      12.131  36.734  68.155  1.00  0.00     0.039 C 
HETATM   39  C26 UNL     1      12.144  38.038  68.874  1.00  0.00     0.172 C 
HETATM   40  F1  UNL     1      12.465  39.098  68.025  1.00  0.00    -0.249 F 
HETATM   41  C27 UNL     1      13.145  37.964  69.977  1.00  0.00     0.062 C 
ENDBRANCH  34  36
ENDBRANCH  10  32
TORSDOF 7
ENDMDL
