MODEL 1
REMARK VINA RESULT: -8.368528398      0.000      0.000
REMARK  11 active torsions:
REMARK  status: ('A' for Active; 'I' for Inactive)
REMARK    1  A    between atoms: C2_2  and  N1_3 
REMARK    2  A    between atoms: N1_3  and  C3_4 
REMARK    3  A    between atoms: N1_3  and  C5_6 
REMARK    4  A    between atoms: N2_9  and  C8_10 
REMARK    5  A    between atoms: C11_13  and  N3_14 
REMARK    6  A    between atoms: N3_14  and  C12_16 
REMARK    7  A    between atoms: C13_21  and  N6_22 
REMARK    8  A    between atoms: C14_27  and  S1_28 
REMARK    9  A    between atoms: S1_28  and  C15_29 
REMARK   10  A    between atoms: C16_32  and  N9_33 
REMARK   11  A    between atoms: N9_33  and  C17_35 
ROOT
HETATM    1  C8  UNL     1      11.070  -6.020   0.310  1.00  0.00     0.031 A 
HETATM    2  C9  UNL     1      11.446  -4.892   1.060  1.00  0.00     0.031 A 
HETATM    3  C10 UNL     1      12.692  -4.339   0.934  1.00  0.00     0.034 A 
HETATM    4  C11 UNL     1      13.647  -4.880   0.050  1.00  0.00     0.066 A 
HETATM    5  C14 UNL     1      13.314  -5.969  -0.687  1.00  0.00     0.036 A 
HETATM    6  C23 UNL     1      12.006  -6.517  -0.530  1.00  0.00     0.050 A 
ENDROOT
BRANCH   5   7
HETATM    7  S1  UNL     1      14.427  -6.735  -1.806  1.00  0.00    -0.068 SA
BRANCH   7   8
HETATM    8  C15 UNL     1      13.907  -6.953  -3.464  1.00  0.00     0.110 A 
HETATM    9  N8  UNL     1      12.783  -6.307  -3.931  1.00  0.00    -0.184 N 
HETATM   10  C16 UNL     1      12.366  -6.430  -5.190  1.00  0.00     0.679 A 
ATOM     11  H8  UNL     1      12.252  -5.716  -3.291  1.00  0.00     0.185 HD
HETATM   12  N11 UNL     1      13.062  -7.202  -6.035  1.00  0.00    -0.201 N 
HETATM   13  C21 UNL     1      14.168  -7.869  -5.671  1.00  0.00     0.128 A 
ATOM     14  H11 UNL     1      12.737  -7.286  -6.999  1.00  0.00     0.183 HD
HETATM   15  C22 UNL     1      14.604  -7.741  -4.342  1.00  0.00     0.061 A 
HETATM   16 BR1  UNL     1      16.161  -8.687  -3.780  1.00  0.00    -0.047 Br
BRANCH  10  17
HETATM   17  N9  UNL     1      11.263  -5.876  -5.625  1.00  0.00    -0.220 N 
ATOM     18  H9  UNL     1      11.108  -5.830  -6.632  1.00  0.00     0.178 HD
BRANCH  17  19
HETATM   19  C17 UNL     1      10.251  -5.325  -4.745  1.00  0.00     0.126 C 
HETATM   20  C18 UNL     1       9.487  -4.277  -5.496  1.00  0.00     0.055 C 
HETATM   21  C19 UNL     1       8.026  -4.691  -5.412  1.00  0.00     0.234 C 
HETATM   22  N10 UNL     1       8.067  -6.114  -5.227  1.00  0.00    -0.073 N 
HETATM   23  C20 UNL     1       9.210  -6.389  -4.405  1.00  0.00     0.257 C 
ATOM     24 2H10 UNL     1       7.200  -6.497  -4.851  1.00  0.00     0.277 HD
ATOM     25 1H10 UNL     1       8.067  -6.635  -6.103  1.00  0.00     0.277 HD
ENDBRANCH  17  19
ENDBRANCH  10  17
ENDBRANCH   7   8
ENDBRANCH   5   7
BRANCH   4  26
HETATM   26  N3  UNL     1      14.928  -4.282  -0.045  1.00  0.00    -0.189 N 
ATOM     27  H3  UNL     1      15.526  -4.452  -0.853  1.00  0.00     0.184 HD
BRANCH  26  28
HETATM   28  C12 UNL     1      15.326  -3.504   0.935  1.00  0.00     0.712 A 
HETATM   29  N4  UNL     1      16.460  -3.607   1.638  1.00  0.00    -0.117 N 
HETATM   30  N5  UNL     1      16.513  -2.662   2.564  1.00  0.00    -0.118 N 
ATOM     31  H4  UNL     1      17.180  -4.312   1.484  1.00  0.00     0.206 HD
HETATM   32  C13 UNL     1      15.404  -1.912   2.486  1.00  0.00     0.705 A 
ATOM     33  H5  UNL     1      17.274  -2.526   3.229  1.00  0.00     0.206 HD
HETATM   34  N7  UNL     1      14.683  -2.446   1.474  1.00  0.00    -0.020 N 
ATOM     35  H7  UNL     1      13.777  -2.098   1.161  1.00  0.00     0.203 HD
BRANCH  32  36
HETATM   36  N6  UNL     1      15.096  -0.885   3.233  1.00  0.00    -0.233 N 
ATOM     37  H62 UNL     1      15.338  -0.730   4.211  1.00  0.00     0.174 HD
ATOM     38  H61 UNL     1      14.558  -0.065   2.955  1.00  0.00     0.174 HD
ENDBRANCH  32  36
ENDBRANCH  26  28
ENDBRANCH   4  26
BRANCH   1  39
HETATM   39  N2  UNL     1       9.771  -6.565   0.463  1.00  0.00    -0.381 N 
HETATM   40  C7  UNL     1       8.882  -6.728  -0.623  1.00  0.00     0.125 C 
HETATM   41  C6  UNL     1       8.077  -8.013  -0.618  1.00  0.00     0.045 C 
HETATM   42  C5  UNL     1       7.492  -8.295   0.753  1.00  0.00     0.082 C 
HETATM   43  C25 UNL     1       7.815  -7.141   1.697  1.00  0.00     0.045 C 
HETATM   44  C24 UNL     1       9.311  -6.978   1.808  1.00  0.00     0.125 C 
BRANCH  42  45
HETATM   45  N1  UNL     1       6.130  -8.658   0.713  1.00  0.00    -0.409 N 
BRANCH  45  46
HETATM   46  C2  UNL     1       5.191  -7.959   1.485  1.00  0.00     0.112 C 
HETATM   47  C1  UNL     1       3.812  -8.089   0.832  1.00  0.00     0.026 C 
ENDBRANCH  45  46
BRANCH  45  48
HETATM   48  C3  UNL     1       5.784  -9.927   0.198  1.00  0.00     0.112 C 
HETATM   49  C4  UNL     1       6.202 -11.118   0.993  1.00  0.00     0.026 C 
ENDBRANCH  45  48
ENDBRANCH  42  45
ENDBRANCH   1  39
TORSDOF 11
ENDMDL
MODEL 2
REMARK VINA RESULT: -8.367261158      0.264      1.030
REMARK  11 active torsions:
REMARK  status: ('A' for Active; 'I' for Inactive)
REMARK    1  A    between atoms: C2_2  and  N1_3 
REMARK    2  A    between atoms: N1_3  and  C3_4 
REMARK    3  A    between atoms: N1_3  and  C5_6 
REMARK    4  A    between atoms: N2_9  and  C8_10 
REMARK    5  A    between atoms: C11_13  and  N3_14 
REMARK    6  A    between atoms: N3_14  and  C12_16 
REMARK    7  A    between atoms: C13_21  and  N6_22 
REMARK    8  A    between atoms: C14_27  and  S1_28 
REMARK    9  A    between atoms: S1_28  and  C15_29 
REMARK   10  A    between atoms: C16_32  and  N9_33 
REMARK   11  A    between atoms: N9_33  and  C17_35 
ROOT
HETATM    1  C8  UNL     1      11.085  -6.003   0.268  1.00  0.00     0.031 A 
HETATM    2  C9  UNL     1      11.464  -4.894   1.044  1.00  0.00     0.031 A 
HETATM    3  C10 UNL     1      12.714  -4.347   0.936  1.00  0.00     0.034 A 
HETATM    4  C11 UNL     1      13.670  -4.875   0.046  1.00  0.00     0.066 A 
HETATM    5  C14 UNL     1      13.334  -5.946  -0.717  1.00  0.00     0.036 A 
HETATM    6  C23 UNL     1      12.022  -6.488  -0.578  1.00  0.00     0.050 A 
ENDROOT
BRANCH   5   7
HETATM    7  S1  UNL     1      14.449  -6.694  -1.845  1.00  0.00    -0.068 SA
BRANCH   7   8
HETATM    8  C15 UNL     1      13.913  -6.930  -3.496  1.00  0.00     0.110 A 
HETATM    9  N8  UNL     1      12.792  -6.279  -3.963  1.00  0.00    -0.184 N 
HETATM   10  C16 UNL     1      12.364  -6.415  -5.216  1.00  0.00     0.679 A 
ATOM     11  H8  UNL     1      12.273  -5.673  -3.327  1.00  0.00     0.185 HD
HETATM   12  N11 UNL     1      13.045  -7.206  -6.057  1.00  0.00    -0.201 N 
HETATM   13  C21 UNL     1      14.146  -7.880  -5.692  1.00  0.00     0.128 A 
ATOM     14  H11 UNL     1      12.710  -7.300  -7.017  1.00  0.00     0.183 HD
HETATM   15  C22 UNL     1      14.594  -7.738  -4.369  1.00  0.00     0.061 A 
HETATM   16 BR1  UNL     1      16.146  -8.692  -3.806  1.00  0.00    -0.047 Br
BRANCH  10  17
HETATM   17  N9  UNL     1      11.263  -5.856  -5.650  1.00  0.00    -0.220 N 
ATOM     18  H9  UNL     1      11.117  -5.789  -6.658  1.00  0.00     0.178 HD
BRANCH  17  19
HETATM   19  C17 UNL     1      10.240  -5.326  -4.769  1.00  0.00     0.126 C 
HETATM   20  C18 UNL     1       9.486  -4.260  -5.502  1.00  0.00     0.055 C 
HETATM   21  C19 UNL     1       8.023  -4.675  -5.447  1.00  0.00     0.234 C 
HETATM   22  N10 UNL     1       8.063  -6.103  -5.297  1.00  0.00    -0.073 N 
HETATM   23  C20 UNL     1       9.196  -6.398  -4.468  1.00  0.00     0.257 C 
ATOM     24 2H10 UNL     1       7.190  -6.494  -4.941  1.00  0.00     0.277 HD
ATOM     25 1H10 UNL     1       8.073  -6.601  -6.186  1.00  0.00     0.277 HD
ENDBRANCH  17  19
ENDBRANCH  10  17
ENDBRANCH   7   8
ENDBRANCH   5   7
BRANCH   4  26
HETATM   26  N3  UNL     1      14.955  -4.283  -0.029  1.00  0.00    -0.189 N 
ATOM     27  H3  UNL     1      15.568  -4.461  -0.825  1.00  0.00     0.184 HD
BRANCH  26  28
HETATM   28  C12 UNL     1      15.339  -3.500   0.952  1.00  0.00     0.712 A 
HETATM   29  N4  UNL     1      16.477  -3.581   1.653  1.00  0.00    -0.117 N 
HETATM   30  N5  UNL     1      16.511  -2.638   2.582  1.00  0.00    -0.118 N 
ATOM     31  H4  UNL     1      17.211  -4.270   1.495  1.00  0.00     0.206 HD
HETATM   32  C13 UNL     1      15.386  -1.912   2.509  1.00  0.00     0.705 A 
ATOM     33  H5  UNL     1      17.271  -2.489   3.246  1.00  0.00     0.206 HD
HETATM   34  N7  UNL     1      14.675  -2.458   1.497  1.00  0.00    -0.020 N 
ATOM     35  H7  UNL     1      13.761  -2.128   1.187  1.00  0.00     0.203 HD
BRANCH  32  36
HETATM   36  N6  UNL     1      15.058  -0.895   3.260  1.00  0.00    -0.233 N 
ATOM     37  H62 UNL     1      15.146   0.097   3.042  1.00  0.00     0.174 HD
ATOM     38  H61 UNL     1      14.656  -0.930   4.197  1.00  0.00     0.174 HD
ENDBRANCH  32  36
ENDBRANCH  26  28
ENDBRANCH   4  26
BRANCH   1  39
HETATM   39  N2  UNL     1       9.781  -6.543   0.402  1.00  0.00    -0.381 N 
HETATM   40  C7  UNL     1       8.906  -6.696  -0.695  1.00  0.00     0.125 C 
HETATM   41  C6  UNL     1       8.094  -7.978  -0.707  1.00  0.00     0.045 C 
HETATM   42  C5  UNL     1       7.491  -8.264   0.655  1.00  0.00     0.082 C 
HETATM   43  C25 UNL     1       7.808  -7.117   1.609  1.00  0.00     0.045 C 
HETATM   44  C24 UNL     1       9.304  -6.962   1.739  1.00  0.00     0.125 C 
BRANCH  42  45
HETATM   45  N1  UNL     1       6.128  -8.621   0.596  1.00  0.00    -0.409 N 
BRANCH  45  46
HETATM   46  C2  UNL     1       5.640  -9.356  -0.494  1.00  0.00     0.112 C 
HETATM   47  C1  UNL     1       5.783 -10.851  -0.193  1.00  0.00     0.026 C 
ENDBRANCH  45  46
BRANCH  45  48
HETATM   48  C3  UNL     1       5.214  -7.937   1.425  1.00  0.00     0.112 C 
HETATM   49  C4  UNL     1       3.778  -7.966   1.021  1.00  0.00     0.026 C 
ENDBRANCH  45  48
ENDBRANCH  42  45
ENDBRANCH   1  39
TORSDOF 11
ENDMDL
MODEL 3
REMARK VINA RESULT: -8.065781177      2.457      7.682
REMARK  11 active torsions:
REMARK  status: ('A' for Active; 'I' for Inactive)
REMARK    1  A    between atoms: C2_2  and  N1_3 
REMARK    2  A    between atoms: N1_3  and  C3_4 
REMARK    3  A    between atoms: N1_3  and  C5_6 
REMARK    4  A    between atoms: N2_9  and  C8_10 
REMARK    5  A    between atoms: C11_13  and  N3_14 
REMARK    6  A    between atoms: N3_14  and  C12_16 
REMARK    7  A    between atoms: C13_21  and  N6_22 
REMARK    8  A    between atoms: C14_27  and  S1_28 
REMARK    9  A    between atoms: S1_28  and  C15_29 
REMARK   10  A    between atoms: C16_32  and  N9_33 
REMARK   11  A    between atoms: N9_33  and  C17_35 
ROOT
HETATM    1  C8  UNL     1      14.091  -5.915  -1.092  1.00  0.00     0.031 A 
HETATM    2  C9  UNL     1      15.181  -6.786  -1.262  1.00  0.00     0.031 A 
HETATM    3  C10 UNL     1      15.282  -7.590  -2.365  1.00  0.00     0.034 A 
HETATM    4  C11 UNL     1      14.296  -7.578  -3.372  1.00  0.00     0.066 A 
HETATM    5  C14 UNL     1      13.231  -6.747  -3.236  1.00  0.00     0.036 A 
HETATM    6  C23 UNL     1      13.161  -5.924  -2.073  1.00  0.00     0.050 A 
ENDROOT
BRANCH   5   7
HETATM    7  S1  UNL     1      11.938  -6.662  -4.418  1.00  0.00    -0.068 SA
BRANCH   7   8
HETATM    8  C15 UNL     1      10.341  -7.189  -3.928  1.00  0.00     0.110 A 
HETATM    9  N8  UNL     1      10.039  -7.345  -2.593  1.00  0.00    -0.184 N 
HETATM   10  C16 UNL     1       8.831  -7.724  -2.179  1.00  0.00     0.679 A 
ATOM     11  H8  UNL     1      10.765  -7.165  -1.899  1.00  0.00     0.185 HD
HETATM   12  N11 UNL     1       7.873  -7.958  -3.086  1.00  0.00    -0.201 N 
HETATM   13  C21 UNL     1       8.074  -7.833  -4.407  1.00  0.00     0.128 A 
ATOM     14  H11 UNL     1       6.950  -8.244  -2.758  1.00  0.00     0.183 HD
HETATM   15  C22 UNL     1       9.350  -7.437  -4.842  1.00  0.00     0.061 A 
HETATM   16 BR1  UNL     1       9.681  -7.264  -6.712  1.00  0.00    -0.047 Br
BRANCH  10  17
HETATM   17  N9  UNL     1       8.554  -7.941  -0.919  1.00  0.00    -0.220 N 
ATOM     18  H9  UNL     1       8.503  -8.906  -0.592  1.00  0.00     0.178 HD
BRANCH  17  19
HETATM   19  C17 UNL     1       8.315  -6.876   0.037  1.00  0.00     0.126 C 
HETATM   20  C18 UNL     1       7.430  -7.403   1.125  1.00  0.00     0.055 C 
HETATM   21  C19 UNL     1       8.181  -7.156   2.425  1.00  0.00     0.234 C 
HETATM   22  N10 UNL     1       9.563  -7.122   2.038  1.00  0.00    -0.073 N 
HETATM   23  C20 UNL     1       9.614  -6.501   0.745  1.00  0.00     0.257 C 
ATOM     24 2H10 UNL     1      10.163  -6.667   2.726  1.00  0.00     0.277 HD
ATOM     25 1H10 UNL     1      10.011  -8.037   2.062  1.00  0.00     0.277 HD
ENDBRANCH  17  19
ENDBRANCH  10  17
ENDBRANCH   7   8
ENDBRANCH   5   7
BRANCH   4  26
HETATM   26  N3  UNL     1      14.434  -8.431  -4.495  1.00  0.00    -0.189 N 
ATOM     27  H3  UNL     1      13.973  -9.340  -4.520  1.00  0.00     0.184 HD
BRANCH  26  28
HETATM   28  C12 UNL     1      15.171  -8.022  -5.501  1.00  0.00     0.712 A 
HETATM   29  N4  UNL     1      16.476  -7.724  -5.477  1.00  0.00    -0.117 N 
HETATM   30  N5  UNL     1      16.876  -7.321  -6.673  1.00  0.00    -0.118 N 
ATOM     31  H4  UNL     1      17.077  -7.796  -4.656  1.00  0.00     0.206 HD
HETATM   32  C13 UNL     1      15.832  -7.347  -7.514  1.00  0.00     0.705 A 
ATOM     33  H5  UNL     1      17.826  -7.037  -6.916  1.00  0.00     0.206 HD
HETATM   34  N7  UNL     1      14.788  -7.782  -6.773  1.00  0.00    -0.020 N 
ATOM     35  H7  UNL     1      13.840  -7.912  -7.126  1.00  0.00     0.203 HD
BRANCH  32  36
HETATM   36  N6  UNL     1      15.834  -7.019  -8.779  1.00  0.00    -0.233 N 
ATOM     37  H62 UNL     1      16.593  -6.597  -9.314  1.00  0.00     0.174 HD
ATOM     38  H61 UNL     1      15.068  -7.133  -9.443  1.00  0.00     0.174 HD
ENDBRANCH  32  36
ENDBRANCH  26  28
ENDBRANCH   4  26
BRANCH   1  39
HETATM   39  N2  UNL     1      14.020  -5.094   0.061  1.00  0.00    -0.381 N 
HETATM   40  C7  UNL     1      15.149  -4.809   0.862  1.00  0.00     0.125 C 
HETATM   41  C6  UNL     1      15.244  -3.382   1.368  1.00  0.00     0.045 C 
HETATM   42  C5  UNL     1      13.915  -2.898   1.916  1.00  0.00     0.082 C 
HETATM   43  C25 UNL     1      12.900  -4.036   1.879  1.00  0.00     0.045 C 
HETATM   44  C24 UNL     1      12.719  -4.511   0.458  1.00  0.00     0.125 C 
BRANCH  42  45
HETATM   45  N1  UNL     1      14.030  -2.253   3.164  1.00  0.00    -0.409 N 
BRANCH  45  46
HETATM   46  C2  UNL     1      15.051  -1.315   3.380  1.00  0.00     0.112 C 
HETATM   47  C1  UNL     1      15.849  -1.722   4.623  1.00  0.00     0.026 C 
ENDBRANCH  45  46
BRANCH  45  48
HETATM   48  C3  UNL     1      13.368  -2.812   4.279  1.00  0.00     0.112 C 
HETATM   49  C4  UNL     1      12.215  -2.047   4.836  1.00  0.00     0.026 C 
ENDBRANCH  45  48
ENDBRANCH  42  45
ENDBRANCH   1  39
TORSDOF 11
ENDMDL
MODEL 4
REMARK VINA RESULT: -8.042888099      2.629      7.484
REMARK  11 active torsions:
REMARK  status: ('A' for Active; 'I' for Inactive)
REMARK    1  A    between atoms: C2_2  and  N1_3 
REMARK    2  A    between atoms: N1_3  and  C3_4 
REMARK    3  A    between atoms: N1_3  and  C5_6 
REMARK    4  A    between atoms: N2_9  and  C8_10 
REMARK    5  A    between atoms: C11_13  and  N3_14 
REMARK    6  A    between atoms: N3_14  and  C12_16 
REMARK    7  A    between atoms: C13_21  and  N6_22 
REMARK    8  A    between atoms: C14_27  and  S1_28 
REMARK    9  A    between atoms: S1_28  and  C15_29 
REMARK   10  A    between atoms: C16_32  and  N9_33 
REMARK   11  A    between atoms: N9_33  and  C17_35 
ROOT
HETATM    1  C8  UNL     1      14.317  -6.049  -1.075  1.00  0.00     0.031 A 
HETATM    2  C9  UNL     1      15.319  -7.034  -1.083  1.00  0.00     0.031 A 
HETATM    3  C10 UNL     1      15.481  -7.872  -2.152  1.00  0.00     0.034 A 
HETATM    4  C11 UNL     1      14.648  -7.782  -3.285  1.00  0.00     0.066 A 
HETATM    5  C14 UNL     1      13.671  -6.841  -3.307  1.00  0.00     0.036 A 
HETATM    6  C23 UNL     1      13.533  -5.985  -2.175  1.00  0.00     0.050 A 
ENDROOT
BRANCH   5   7
HETATM    7  S1  UNL     1      12.567  -6.650  -4.657  1.00  0.00    -0.068 SA
BRANCH   7   8
HETATM    8  C15 UNL     1      10.911  -6.200  -4.307  1.00  0.00     0.110 A 
HETATM    9  N8  UNL     1      10.413  -6.320  -3.028  1.00  0.00    -0.184 N 
HETATM   10  C16 UNL     1       9.167  -5.969  -2.717  1.00  0.00     0.679 A 
ATOM     11  H8  UNL     1      11.019  -6.690  -2.296  1.00  0.00     0.185 HD
HETATM   12  N11 UNL     1       8.368  -5.478  -3.674  1.00  0.00    -0.201 N 
HETATM   13  C21 UNL     1       8.765  -5.325  -4.947  1.00  0.00     0.128 A 
ATOM     14  H11 UNL     1       7.416  -5.208  -3.424  1.00  0.00     0.183 HD
HETATM   15  C22 UNL     1      10.078  -5.700  -5.274  1.00  0.00     0.061 A 
HETATM   16 BR1  UNL     1      10.675  -5.515  -7.075  1.00  0.00    -0.047 Br
BRANCH  10  17
HETATM   17  N9  UNL     1       8.663  -6.142  -1.521  1.00  0.00    -0.220 N 
ATOM     18  H9  UNL     1       7.884  -5.550  -1.233  1.00  0.00     0.178 HD
BRANCH  17  19
HETATM   19  C17 UNL     1       9.158  -7.134  -0.587  1.00  0.00     0.126 C 
HETATM   20  C18 UNL     1       9.687  -6.427   0.623  1.00  0.00     0.055 C 
HETATM   21  C19 UNL     1       8.940  -7.019   1.808  1.00  0.00     0.234 C 
HETATM   22  N10 UNL     1       7.703  -7.491   1.251  1.00  0.00    -0.073 N 
HETATM   23  C20 UNL     1       8.006  -7.986  -0.061  1.00  0.00     0.257 C 
ATOM     24 2H10 UNL     1       7.232  -8.177   1.841  1.00  0.00     0.277 HD
ATOM     25 1H10 UNL     1       6.965  -6.789   1.257  1.00  0.00     0.277 HD
ENDBRANCH  17  19
ENDBRANCH  10  17
ENDBRANCH   7   8
ENDBRANCH   5   7
BRANCH   4  26
HETATM   26  N3  UNL     1      14.845  -8.674  -4.369  1.00  0.00    -0.189 N 
ATOM     27  H3  UNL     1      14.112  -9.324  -4.651  1.00  0.00     0.184 HD
BRANCH  26  28
HETATM   28  C12 UNL     1      15.996  -8.643  -5.000  1.00  0.00     0.712 A 
HETATM   29  N4  UNL     1      16.847  -9.661  -5.178  1.00  0.00    -0.117 N 
HETATM   30  N5  UNL     1      17.917  -9.253  -5.841  1.00  0.00    -0.118 N 
ATOM     31  H4  UNL     1      16.693 -10.615  -4.851  1.00  0.00     0.206 HD
HETATM   32  C13 UNL     1      17.790  -7.946  -6.113  1.00  0.00     0.705 A 
ATOM     33  H5  UNL     1      18.712  -9.838  -6.102  1.00  0.00     0.206 HD
HETATM   34  N7  UNL     1      16.597  -7.587  -5.587  1.00  0.00    -0.020 N 
ATOM     35  H7  UNL     1      16.205  -6.646  -5.628  1.00  0.00     0.203 HD
BRANCH  32  36
HETATM   36  N6  UNL     1      18.643  -7.190  -6.753  1.00  0.00    -0.233 N 
ATOM     37  H62 UNL     1      19.035  -7.340  -7.683  1.00  0.00     0.174 HD
ATOM     38  H61 UNL     1      19.059  -6.321  -6.422  1.00  0.00     0.174 HD
ENDBRANCH  32  36
ENDBRANCH  26  28
ENDBRANCH   4  26
BRANCH   1  39
HETATM   39  N2  UNL     1      14.179  -5.195   0.049  1.00  0.00    -0.381 N 
HETATM   40  C7  UNL     1      15.267  -4.851   0.880  1.00  0.00     0.125 C 
HETATM   41  C6  UNL     1      15.302  -3.407   1.343  1.00  0.00     0.045 C 
HETATM   42  C5  UNL     1      13.940  -2.948   1.828  1.00  0.00     0.082 C 
HETATM   43  C25 UNL     1      12.961  -4.116   1.790  1.00  0.00     0.045 C 
HETATM   44  C24 UNL     1      12.847  -4.640   0.379  1.00  0.00     0.125 C 
BRANCH  42  45
HETATM   45  N1  UNL     1      13.990  -2.260   3.058  1.00  0.00    -0.409 N 
BRANCH  45  46
HETATM   46  C2  UNL     1      14.967  -1.278   3.277  1.00  0.00     0.112 C 
HETATM   47  C1  UNL     1      15.780  -1.653   4.519  1.00  0.00     0.026 C 
ENDBRANCH  45  46
BRANCH  45  48
HETATM   48  C3  UNL     1      13.312  -2.811   4.167  1.00  0.00     0.112 C 
HETATM   49  C4  UNL     1      12.244  -1.976   4.792  1.00  0.00     0.026 C 
ENDBRANCH  45  48
ENDBRANCH  42  45
ENDBRANCH   1  39
TORSDOF 11
ENDMDL
MODEL 5
REMARK VINA RESULT: -7.981074022      2.782      8.059
REMARK  11 active torsions:
REMARK  status: ('A' for Active; 'I' for Inactive)
REMARK    1  A    between atoms: C2_2  and  N1_3 
REMARK    2  A    between atoms: N1_3  and  C3_4 
REMARK    3  A    between atoms: N1_3  and  C5_6 
REMARK    4  A    between atoms: N2_9  and  C8_10 
REMARK    5  A    between atoms: C11_13  and  N3_14 
REMARK    6  A    between atoms: N3_14  and  C12_16 
REMARK    7  A    between atoms: C13_21  and  N6_22 
REMARK    8  A    between atoms: C14_27  and  S1_28 
REMARK    9  A    between atoms: S1_28  and  C15_29 
REMARK   10  A    between atoms: C16_32  and  N9_33 
REMARK   11  A    between atoms: N9_33  and  C17_35 
ROOT
HETATM    1  C8  UNL     1      13.832  -5.988  -1.081  1.00  0.00     0.031 A 
HETATM    2  C9  UNL     1      14.919  -6.838  -1.346  1.00  0.00     0.031 A 
HETATM    3  C10 UNL     1      14.920  -7.671  -2.432  1.00  0.00     0.034 A 
HETATM    4  C11 UNL     1      13.830  -7.711  -3.324  1.00  0.00     0.066 A 
HETATM    5  C14 UNL     1      12.765  -6.902  -3.095  1.00  0.00     0.036 A 
HETATM    6  C23 UNL     1      12.801  -6.047  -1.954  1.00  0.00     0.050 A 
ENDROOT
BRANCH   5   7
HETATM    7  S1  UNL     1      11.349  -6.881  -4.130  1.00  0.00    -0.068 SA
BRANCH   7   8
HETATM    8  C15 UNL     1       9.842  -7.483  -3.472  1.00  0.00     0.110 A 
HETATM    9  N8  UNL     1       9.644  -7.522  -2.109  1.00  0.00    -0.184 N 
HETATM   10  C16 UNL     1       8.505  -7.952  -1.570  1.00  0.00     0.679 A 
ATOM     11  H8  UNL     1      10.395  -7.210  -1.493  1.00  0.00     0.185 HD
HETATM   12  N11 UNL     1       7.513  -8.357  -2.375  1.00  0.00    -0.201 N 
HETATM   13  C21 UNL     1       7.614  -8.356  -3.713  1.00  0.00     0.128 A 
ATOM     14  H11 UNL     1       6.643  -8.681  -1.952  1.00  0.00     0.183 HD
HETATM   15  C22 UNL     1       8.818  -7.905  -4.280  1.00  0.00     0.061 A 
HETATM   16 BR1  UNL     1       9.008  -7.904  -6.177  1.00  0.00    -0.047 Br
BRANCH  10  17
HETATM   17  N9  UNL     1       8.331  -8.057  -0.277  1.00  0.00    -0.220 N 
ATOM     18  H9  UNL     1       8.193  -8.986   0.120  1.00  0.00     0.178 HD
BRANCH  17  19
HETATM   19  C17 UNL     1       8.326  -6.916   0.619  1.00  0.00     0.126 C 
HETATM   20  C18 UNL     1       7.834  -7.367   1.960  1.00  0.00     0.055 C 
HETATM   21  C19 UNL     1       8.920  -6.979   2.951  1.00  0.00     0.234 C 
HETATM   22  N10 UNL     1      10.122  -6.938   2.167  1.00  0.00    -0.073 N 
HETATM   23  C20 UNL     1       9.753  -6.438   0.874  1.00  0.00     0.257 C 
ATOM     24 2H10 UNL     1      10.872  -6.404   2.606  1.00  0.00     0.277 HD
ATOM     25 1H10 UNL     1      10.608  -7.834   2.129  1.00  0.00     0.277 HD
ENDBRANCH  17  19
ENDBRANCH  10  17
ENDBRANCH   7   8
ENDBRANCH   5   7
BRANCH   4  26
HETATM   26  N3  UNL     1      13.868  -8.594  -4.433  1.00  0.00    -0.189 N 
ATOM     27  H3  UNL     1      14.141  -8.261  -5.357  1.00  0.00     0.184 HD
BRANCH  26  28
HETATM   28  C12 UNL     1      13.542  -9.851  -4.239  1.00  0.00     0.712 A 
HETATM   29  N4  UNL     1      12.764 -10.343  -3.267  1.00  0.00    -0.117 N 
HETATM   30  N5  UNL     1      12.678 -11.660  -3.372  1.00  0.00    -0.118 N 
ATOM     31  H4  UNL     1      12.303  -9.784  -2.549  1.00  0.00     0.206 HD
HETATM   32  C13 UNL     1      13.404 -12.062  -4.424  1.00  0.00     0.705 A 
ATOM     33  H5  UNL     1      12.144 -12.270  -2.752  1.00  0.00     0.206 HD
HETATM   34  N7  UNL     1      13.930 -10.932  -4.948  1.00  0.00    -0.020 N 
ATOM     35  H7  UNL     1      14.538 -10.901  -5.766  1.00  0.00     0.203 HD
BRANCH  32  36
HETATM   36  N6  UNL     1      13.563 -13.289  -4.846  1.00  0.00    -0.233 N 
ATOM     37  H62 UNL     1      14.438 -13.771  -5.051  1.00  0.00     0.174 HD
ATOM     38  H61 UNL     1      12.829 -13.969  -5.042  1.00  0.00     0.174 HD
ENDBRANCH  32  36
ENDBRANCH  26  28
ENDBRANCH   4  26
BRANCH   1  39
HETATM   39  N2  UNL     1      13.865  -5.135   0.051  1.00  0.00    -0.381 N 
HETATM   40  C7  UNL     1      15.040  -4.919   0.804  1.00  0.00     0.125 C 
HETATM   41  C6  UNL     1      15.263  -3.491   1.267  1.00  0.00     0.045 C 
HETATM   42  C5  UNL     1      13.995  -2.893   1.847  1.00  0.00     0.082 C 
HETATM   43  C25 UNL     1      12.895  -3.949   1.876  1.00  0.00     0.045 C 
HETATM   44  C24 UNL     1      12.628  -4.443   0.475  1.00  0.00     0.125 C 
BRANCH  42  45
HETATM   45  N1  UNL     1      14.204  -2.227   3.072  1.00  0.00    -0.409 N 
BRANCH  45  46
HETATM   46  C2  UNL     1      15.297  -1.361   3.225  1.00  0.00     0.112 C 
HETATM   47  C1  UNL     1      16.009  -1.684   4.543  1.00  0.00     0.026 C 
ENDBRANCH  45  46
BRANCH  45  48
HETATM   48  C3  UNL     1      13.547  -2.709   4.224  1.00  0.00     0.112 C 
HETATM   49  C4  UNL     1      12.456  -1.860   4.787  1.00  0.00     0.026 C 
ENDBRANCH  45  48
ENDBRANCH  42  45
ENDBRANCH   1  39
TORSDOF 11
ENDMDL
