MODEL 1
REMARK VINA RESULT: -6.817799720      0.000      0.000
REMARK  5 active torsions:
REMARK  status: ('A' for Active; 'I' for Inactive)
REMARK    1  A    between atoms: C4_4  and  C5_5 
REMARK    2  A    between atoms: C5_5  and  C6_6 
REMARK    3  A    between atoms: C6_6  and  N1_7 
REMARK    4  A    between atoms: C6_6  and  C15_24 
REMARK       I    between atoms: N1_7  and  C7_9 
REMARK       I    between atoms: C7_9  and  N3_13 
REMARK    5  A    between atoms: N3_13  and  C8_15 
ROOT
HETATM    1  N1  UNL     1       4.805   9.329   1.341  1.00  0.00    -0.222 N 
ATOM      2  H1  UNL     1       4.716   9.832   2.224  1.00  0.00     0.178 HD
HETATM    3  C7  UNL     1       5.773   9.811   0.454  1.00  0.00     0.668 C 
HETATM    4  N2  UNL     1       5.442  10.411  -0.615  1.00  0.00    -0.235 N 
ATOM      5  H21 UNL     1       6.149  10.763  -1.261  1.00  0.00     0.174 HD
ATOM      6  H22 UNL     1       4.455  10.543  -0.831  1.00  0.00     0.174 HD
HETATM    7  N3  UNL     1       7.134   9.629   0.752  1.00  0.00    -0.217 N 
ATOM      8  H3  UNL     1       7.613   8.829   0.336  1.00  0.00     0.178 HD
ENDROOT
BRANCH   1   9
HETATM    9  C6  UNL     1       3.933   8.227   1.163  1.00  0.00     0.106 C 
BRANCH   9  10
HETATM   10  C5  UNL     1       4.461   6.991   1.857  1.00  0.00     0.053 C 
BRANCH  10  11
HETATM   11  C4  UNL     1       4.809   5.926   0.852  1.00  0.00    -0.023 C 
HETATM   12  C2  UNL     1       4.134   4.807   0.750  1.00  0.00    -0.091 C 
HETATM   13  C1  UNL     1       4.534   3.799  -0.266  1.00  0.00     0.042 C 
HETATM   14  C3  UNL     1       2.963   4.471   1.610  1.00  0.00     0.042 C 
ENDBRANCH  10  11
ENDBRANCH   9  10
BRANCH   9  15
HETATM   15  C15 UNL     1       2.496   8.486   1.529  1.00  0.00     0.001 C 
HETATM   16  C16 UNL     1       2.205   9.950   1.624  1.00  0.00     0.011 C 
HETATM   17  C17 UNL     1       2.012   7.747   2.723  1.00  0.00     0.011 C 
ENDBRANCH   9  15
ENDBRANCH   1   9
BRANCH   7  18
HETATM   18  C8  UNL     1       7.896  10.503   1.609  1.00  0.00     0.163 C 
HETATM   19  C9  UNL     1       8.464  11.686   0.857  1.00  0.00     0.151 C 
HETATM   20  C10 UNL     1       9.533  12.136   1.870  1.00  0.00     0.047 C 
HETATM   21  O1  UNL     1       9.272  11.177  -0.148  1.00  0.00    -0.353 OA
HETATM   22  C11 UNL     1      10.258  10.817   1.939  1.00  0.00     0.080 C 
HETATM   23  C12 UNL     1      10.195  10.361   0.507  1.00  0.00     0.268 C 
HETATM   24  C13 UNL     1       9.171   9.807   2.046  1.00  0.00     0.092 C 
HETATM   25  O2  UNL     1       9.720   9.144   0.951  1.00  0.00    -0.347 OA
HETATM   26  C14 UNL     1       9.082   9.036   3.315  1.00  0.00     0.049 C 
ENDBRANCH   7  18
TORSDOF 5
ENDMDL
MODEL 2
REMARK VINA RESULT: -6.334510863      1.348      3.242
REMARK  5 active torsions:
REMARK  status: ('A' for Active; 'I' for Inactive)
REMARK    1  A    between atoms: C4_4  and  C5_5 
REMARK    2  A    between atoms: C5_5  and  C6_6 
REMARK    3  A    between atoms: C6_6  and  N1_7 
REMARK    4  A    between atoms: C6_6  and  C15_24 
REMARK       I    between atoms: N1_7  and  C7_9 
REMARK       I    between atoms: C7_9  and  N3_13 
REMARK    5  A    between atoms: N3_13  and  C8_15 
ROOT
HETATM    1  N1  UNL     1       4.945  10.102   1.596  1.00  0.00    -0.222 N 
ATOM      2  H1  UNL     1       5.018  10.831   2.306  1.00  0.00     0.178 HD
HETATM    3  C7  UNL     1       5.804  10.224   0.500  1.00  0.00     0.668 C 
HETATM    4  N2  UNL     1       5.361  10.545  -0.646  1.00  0.00    -0.235 N 
ATOM      5  H21 UNL     1       5.988  10.634  -1.446  1.00  0.00     0.174 HD
ATOM      6  H22 UNL     1       4.364  10.715  -0.770  1.00  0.00     0.174 HD
HETATM    7  N3  UNL     1       7.178   9.989   0.670  1.00  0.00    -0.217 N 
ATOM      8  H3  UNL     1       7.538   9.062   0.441  1.00  0.00     0.178 HD
ENDROOT
BRANCH   1   9
HETATM    9  C6  UNL     1       3.985   9.089   1.842  1.00  0.00     0.106 C 
BRANCH   9  10
HETATM   10  C5  UNL     1       2.582   9.582   1.559  1.00  0.00     0.053 C 
BRANCH  10  11
HETATM   11  C4  UNL     1       2.066  10.402   2.711  1.00  0.00    -0.023 C 
HETATM   12  C2  UNL     1       1.301   9.897   3.647  1.00  0.00    -0.091 C 
HETATM   13  C1  UNL     1       0.828  10.767   4.755  1.00  0.00     0.042 C 
HETATM   14  C3  UNL     1       0.862   8.473   3.672  1.00  0.00     0.042 C 
ENDBRANCH  10  11
ENDBRANCH   9  10
BRANCH   9  15
HETATM   15  C15 UNL     1       4.251   7.778   1.153  1.00  0.00     0.001 C 
HETATM   16  C16 UNL     1       3.042   6.898   1.149  1.00  0.00     0.011 C 
HETATM   17  C17 UNL     1       5.459   7.055   1.629  1.00  0.00     0.011 C 
ENDBRANCH   9  15
ENDBRANCH   1   9
BRANCH   7  18
HETATM   18  C8  UNL     1       8.112  10.978   1.148  1.00  0.00     0.163 C 
HETATM   19  C9  UNL     1       8.918  11.592   0.025  1.00  0.00     0.151 C 
HETATM   20  C10 UNL     1      10.062  12.214   0.847  1.00  0.00     0.047 C 
HETATM   21  O1  UNL     1       9.595  10.556  -0.601  1.00  0.00    -0.353 OA
HETATM   22  C11 UNL     1      10.487  10.936   1.525  1.00  0.00     0.080 C 
HETATM   23  C12 UNL     1      10.325   9.935   0.414  1.00  0.00     0.268 C 
HETATM   24  C13 UNL     1       9.209  10.301   1.946  1.00  0.00     0.092 C 
HETATM   25  O2  UNL     1       9.601   9.142   1.281  1.00  0.00    -0.347 OA
HETATM   26  C14 UNL     1       8.962  10.179   3.409  1.00  0.00     0.049 C 
ENDBRANCH   7  18
TORSDOF 5
ENDMDL
MODEL 3
REMARK VINA RESULT: -6.175002219      1.469      2.423
REMARK  5 active torsions:
REMARK  status: ('A' for Active; 'I' for Inactive)
REMARK    1  A    between atoms: C4_4  and  C5_5 
REMARK    2  A    between atoms: C5_5  and  C6_6 
REMARK    3  A    between atoms: C6_6  and  N1_7 
REMARK    4  A    between atoms: C6_6  and  C15_24 
REMARK       I    between atoms: N1_7  and  C7_9 
REMARK       I    between atoms: C7_9  and  N3_13 
REMARK    5  A    between atoms: N3_13  and  C8_15 
ROOT
HETATM    1  N1  UNL     1       6.179   8.381   0.867  1.00  0.00    -0.222 N 
ATOM      2  H1  UNL     1       6.566   8.359  -0.077  1.00  0.00     0.178 HD
HETATM    3  C7  UNL     1       6.958   9.022   1.836  1.00  0.00     0.668 C 
HETATM    4  N2  UNL     1       7.551   8.360   2.743  1.00  0.00    -0.235 N 
ATOM      5  H21 UNL     1       8.119   8.828   3.449  1.00  0.00     0.174 HD
ATOM      6  H22 UNL     1       7.457   7.345   2.766  1.00  0.00     0.174 HD
HETATM    7  N3  UNL     1       7.088  10.421   1.803  1.00  0.00    -0.217 N 
ATOM      8  H3  UNL     1       6.468  10.973   2.397  1.00  0.00     0.178 HD
ENDROOT
BRANCH   1   9
HETATM    9  C6  UNL     1       4.918   7.758   1.036  1.00  0.00     0.106 C 
BRANCH   9  10
HETATM   10  C5  UNL     1       5.063   6.382   1.649  1.00  0.00     0.053 C 
BRANCH  10  11
HETATM   11  C4  UNL     1       5.154   5.331   0.575  1.00  0.00    -0.023 C 
HETATM   12  C2  UNL     1       4.290   4.350   0.477  1.00  0.00    -0.091 C 
HETATM   13  C1  UNL     1       4.441   3.347  -0.610  1.00  0.00     0.042 C 
HETATM   14  C3  UNL     1       3.139   4.170   1.407  1.00  0.00     0.042 C 
ENDBRANCH  10  11
ENDBRANCH   9  10
BRANCH   9  15
HETATM   15  C15 UNL     1       3.896   8.579   1.776  1.00  0.00     0.001 C 
HETATM   16  C16 UNL     1       2.618   7.828   1.970  1.00  0.00     0.011 C 
HETATM   17  C17 UNL     1       3.661   9.936   1.218  1.00  0.00     0.011 C 
ENDBRANCH   9  15
ENDBRANCH   1   9
BRANCH   7  18
HETATM   18  C8  UNL     1       8.042  11.123   0.982  1.00  0.00     0.163 C 
HETATM   19  C9  UNL     1       9.443  10.576   1.141  1.00  0.00     0.151 C 
HETATM   20  C10 UNL     1      10.240  11.751   0.544  1.00  0.00     0.047 C 
HETATM   21  O1  UNL     1       9.778  10.703   2.481  1.00  0.00    -0.353 OA
HETATM   22  C11 UNL     1       9.690  12.806   1.468  1.00  0.00     0.080 C 
HETATM   23  C12 UNL     1       9.608  12.057   2.770  1.00  0.00     0.268 C 
HETATM   24  C13 UNL     1       8.228  12.533   1.508  1.00  0.00     0.092 C 
HETATM   25  O2  UNL     1       8.304  12.490   2.898  1.00  0.00    -0.347 OA
HETATM   26  C14 UNL     1       7.329  13.564   0.921  1.00  0.00     0.049 C 
ENDBRANCH   7  18
TORSDOF 5
ENDMDL
MODEL 4
REMARK VINA RESULT: -6.004527345      4.025      6.646
REMARK  5 active torsions:
REMARK  status: ('A' for Active; 'I' for Inactive)
REMARK    1  A    between atoms: C4_4  and  C5_5 
REMARK    2  A    between atoms: C5_5  and  C6_6 
REMARK    3  A    between atoms: C6_6  and  N1_7 
REMARK    4  A    between atoms: C6_6  and  C15_24 
REMARK       I    between atoms: N1_7  and  C7_9 
REMARK       I    between atoms: C7_9  and  N3_13 
REMARK    5  A    between atoms: N3_13  and  C8_15 
ROOT
HETATM    1  N1  UNL     1       7.299  11.001   0.007  1.00  0.00    -0.222 N 
ATOM      2  H1  UNL     1       7.869  11.839  -0.113  1.00  0.00     0.178 HD
HETATM    3  C7  UNL     1       6.045  11.018  -0.613  1.00  0.00     0.668 C 
HETATM    4  N2  UNL     1       4.978  11.113   0.068  1.00  0.00    -0.235 N 
ATOM      5  H21 UNL     1       4.064  11.126  -0.384  1.00  0.00     0.174 HD
ATOM      6  H22 UNL     1       5.036  11.176   1.084  1.00  0.00     0.174 HD
HETATM    7  N3  UNL     1       5.966  10.932  -2.014  1.00  0.00    -0.217 N 
ATOM      8  H3  UNL     1       5.802  10.014  -2.428  1.00  0.00     0.178 HD
ENDROOT
BRANCH   1   9
HETATM    9  C6  UNL     1       7.873   9.963   0.781  1.00  0.00     0.106 C 
BRANCH   9  10
HETATM   10  C5  UNL     1       9.366   9.871   0.554  1.00  0.00     0.053 C 
BRANCH  10  11
HETATM   11  C4  UNL     1       9.927  11.211   0.162  1.00  0.00    -0.023 C 
HETATM   12  C2  UNL     1      10.694  11.914   0.959  1.00  0.00    -0.091 C 
HETATM   13  C1  UNL     1      11.213  13.230   0.505  1.00  0.00     0.042 C 
HETATM   14  C3  UNL     1      11.090  11.467   2.325  1.00  0.00     0.042 C 
ENDBRANCH  10  11
ENDBRANCH   9  10
BRANCH   9  15
HETATM   15  C15 UNL     1       7.546  10.009   2.250  1.00  0.00     0.001 C 
HETATM   16  C16 UNL     1       7.436  11.415   2.749  1.00  0.00     0.011 C 
HETATM   17  C17 UNL     1       8.430   9.183   3.113  1.00  0.00     0.011 C 
ENDBRANCH   9  15
ENDBRANCH   1   9
BRANCH   7  18
HETATM   18  C8  UNL     1       6.103  12.061  -2.901  1.00  0.00     0.163 C 
HETATM   19  C9  UNL     1       5.087  12.032  -4.020  1.00  0.00     0.151 C 
HETATM   20  C10 UNL     1       5.748  13.034  -4.985  1.00  0.00     0.047 C 
HETATM   21  O1  UNL     1       5.284  10.848  -4.716  1.00  0.00    -0.353 OA
HETATM   22  C11 UNL     1       7.066  12.312  -5.090  1.00  0.00     0.080 C 
HETATM   23  C12 UNL     1       6.625  10.874  -5.100  1.00  0.00     0.268 C 
HETATM   24  C13 UNL     1       7.394  11.940  -3.687  1.00  0.00     0.092 C 
HETATM   25  O2  UNL     1       7.545  10.620  -4.104  1.00  0.00    -0.347 OA
HETATM   26  C14 UNL     1       8.586  12.586  -3.073  1.00  0.00     0.049 C 
ENDBRANCH   7  18
TORSDOF 5
ENDMDL
MODEL 5
REMARK VINA RESULT: -5.950622308      1.046      1.398
REMARK  5 active torsions:
REMARK  status: ('A' for Active; 'I' for Inactive)
REMARK    1  A    between atoms: C4_4  and  C5_5 
REMARK    2  A    between atoms: C5_5  and  C6_6 
REMARK    3  A    between atoms: C6_6  and  N1_7 
REMARK    4  A    between atoms: C6_6  and  C15_24 
REMARK       I    between atoms: N1_7  and  C7_9 
REMARK       I    between atoms: C7_9  and  N3_13 
REMARK    5  A    between atoms: N3_13  and  C8_15 
ROOT
HETATM    1  N1  UNL     1       4.950   9.209   1.511  1.00  0.00    -0.222 N 
ATOM      2  H1  UNL     1       5.081   9.437   2.496  1.00  0.00     0.178 HD
HETATM    3  C7  UNL     1       5.684   9.975   0.600  1.00  0.00     0.668 C 
HETATM    4  N2  UNL     1       5.114  10.832  -0.144  1.00  0.00    -0.235 N 
ATOM      5  H21 UNL     1       5.650  11.391  -0.808  1.00  0.00     0.174 HD
ATOM      6  H22 UNL     1       4.105  10.963  -0.077  1.00  0.00     0.174 HD
HETATM    7  N3  UNL     1       7.074   9.795   0.508  1.00  0.00    -0.217 N 
ATOM      8  H3  UNL     1       7.429   9.173  -0.219  1.00  0.00     0.178 HD
ENDROOT
BRANCH   1   9
HETATM    9  C6  UNL     1       4.046   8.154   1.232  1.00  0.00     0.106 C 
BRANCH   9  10
HETATM   10  C5  UNL     1       4.513   6.854   1.850  1.00  0.00     0.053 C 
BRANCH  10  11
HETATM   11  C4  UNL     1       4.807   5.834   0.783  1.00  0.00    -0.023 C 
HETATM   12  C2  UNL     1       4.148   4.705   0.688  1.00  0.00    -0.091 C 
HETATM   13  C1  UNL     1       4.493   3.745  -0.393  1.00  0.00     0.042 C 
HETATM   14  C3  UNL     1       3.048   4.313   1.615  1.00  0.00     0.042 C 
ENDBRANCH  10  11
ENDBRANCH   9  10
BRANCH   9  15
HETATM   15  C15 UNL     1       2.609   8.438   1.577  1.00  0.00     0.001 C 
HETATM   16  C16 UNL     1       2.376   9.894   1.822  1.00  0.00     0.011 C 
HETATM   17  C17 UNL     1       2.049   7.596   2.666  1.00  0.00     0.011 C 
ENDBRANCH   9  15
ENDBRANCH   1   9
BRANCH   7  18
HETATM   18  C8  UNL     1       8.030  10.434   1.379  1.00  0.00     0.163 C 
HETATM   19  C9  UNL     1       7.542  11.778   1.872  1.00  0.00     0.151 C 
HETATM   20  C10 UNL     1       8.879  12.368   2.356  1.00  0.00     0.047 C 
HETATM   21  O1  UNL     1       7.314  12.562   0.751  1.00  0.00    -0.353 OA
HETATM   22  C11 UNL     1       9.606  12.219   1.044  1.00  0.00     0.080 C 
HETATM   23  C12 UNL     1       8.525  12.562   0.057  1.00  0.00     0.268 C 
HETATM   24  C13 UNL     1       9.249  10.851   0.580  1.00  0.00     0.092 C 
HETATM   25  O2  UNL     1       8.830  11.403  -0.628  1.00  0.00    -0.347 OA
HETATM   26  C14 UNL     1      10.347   9.849   0.509  1.00  0.00     0.049 C 
ENDBRANCH   7  18
TORSDOF 5
ENDMDL
