MODEL 1
REMARK VINA RESULT: -7.214135117      0.000      0.000
REMARK  6 active torsions:
REMARK  status: ('A' for Active; 'I' for Inactive)
REMARK    1  A    between atoms: C2_2  and  C3_3 
REMARK    2  A    between atoms: C2_2  and  C6_12 
REMARK    3  A    between atoms: C3_3  and  C4_4 
REMARK    4  A    between atoms: N1_5  and  N2_7 
REMARK    5  A    between atoms: C10_16  and  C12_18 
REMARK    6  A    between atoms: C12_18  and  O1_19 
ROOT
HETATM    1  C6  UNL     1       6.110   9.752   2.038  1.00  0.00    -0.002 C 
HETATM    2  C7  UNL     1       7.291   8.811   2.335  1.00  0.00     0.006 C 
HETATM    3  C8  UNL     1       8.446   9.484   1.661  1.00  0.00     0.007 C 
HETATM    4  C9  UNL     1       8.098  10.948   1.808  1.00  0.00     0.004 C 
HETATM    5  C10 UNL     1       8.983  11.896   1.138  1.00  0.00    -0.018 C 
HETATM    6  C11 UNL     1       9.351  13.001   2.148  1.00  0.00     0.018 C 
HETATM    7  C13 UNL     1       8.522  12.572  -0.105  1.00  0.00     0.012 C 
HETATM    8  C14 UNL     1       7.071  12.502  -0.399  1.00  0.00     0.002 C 
HETATM    9  C15 UNL     1       6.624  11.054  -0.100  1.00  0.00     0.010 C 
HETATM   10  C16 UNL     1       6.640  10.920   1.362  1.00  0.00    -0.036 C 
HETATM   11  C17 UNL     1       6.022  12.194   1.957  1.00  0.00     0.016 C 
ENDROOT
BRANCH   1  12
HETATM   12  C2  UNL     1       5.003   8.930   1.551  1.00  0.00    -0.009 C 
HETATM   13  C1  UNL     1       3.606   9.448   1.627  1.00  0.00     0.011 C 
BRANCH  12  14
HETATM   14  C3  UNL     1       5.106   7.444   1.625  1.00  0.00     0.050 C 
BRANCH  14  15
HETATM   15  C4  UNL     1       5.414   6.849   0.320  1.00  0.00     0.080 C 
HETATM   16  N1  UNL     1       5.607   5.586   0.124  1.00  0.00    -0.314 N 
ATOM     17  H1  UNL     1       5.816   5.259  -0.819  1.00  0.00     0.185 HD
BRANCH  16  18
HETATM   18  N2  UNL     1       5.540   4.654   1.165  1.00  0.00    -0.277 N 
HETATM   19  C5  UNL     1       4.772   3.629   1.002  1.00  0.00     0.215 C 
HETATM   20  N3  UNL     1       4.666   2.638   2.044  1.00  0.00    -0.065 NA
HETATM   21  N4  UNL     1       4.007   3.406  -0.165  1.00  0.00    -0.065 NA
ATOM     22  H2  UNL     1       6.079   4.780   2.022  1.00  0.00     0.189 HD
ENDBRANCH  16  18
ENDBRANCH  14  15
ENDBRANCH  12  14
ENDBRANCH   1  12
BRANCH   5  23
HETATM   23  C12 UNL     1      10.333  11.275   0.797  1.00  0.00     0.173 C 
BRANCH  23  24
HETATM   24  O1  UNL     1      11.377  12.161   0.797  1.00  0.00    -0.400 OA
ATOM     25  H1  UNL     1      12.233  11.756   0.724  1.00  0.00     0.209 HD
ENDBRANCH  23  24
ENDBRANCH   5  23
TORSDOF 6
ENDMDL
MODEL 2
REMARK VINA RESULT: -7.212428112      1.013      1.313
REMARK  6 active torsions:
REMARK  status: ('A' for Active; 'I' for Inactive)
REMARK    1  A    between atoms: C2_2  and  C3_3 
REMARK    2  A    between atoms: C2_2  and  C6_12 
REMARK    3  A    between atoms: C3_3  and  C4_4 
REMARK    4  A    between atoms: N1_5  and  N2_7 
REMARK    5  A    between atoms: C10_16  and  C12_18 
REMARK    6  A    between atoms: C12_18  and  O1_19 
ROOT
HETATM    1  C6  UNL     1       5.536   9.768   1.751  1.00  0.00    -0.002 C 
HETATM    2  C7  UNL     1       6.671   8.753   1.975  1.00  0.00     0.006 C 
HETATM    3  C8  UNL     1       7.848   9.401   1.314  1.00  0.00     0.007 C 
HETATM    4  C9  UNL     1       7.580  10.871   1.546  1.00  0.00     0.004 C 
HETATM    5  C10 UNL     1       8.501  11.807   0.909  1.00  0.00    -0.018 C 
HETATM    6  C11 UNL     1       8.943  12.836   1.969  1.00  0.00     0.018 C 
HETATM    7  C13 UNL     1       8.055  12.572  -0.287  1.00  0.00     0.012 C 
HETATM    8  C14 UNL     1       6.598  12.592  -0.556  1.00  0.00     0.002 C 
HETATM    9  C15 UNL     1       6.081  11.155  -0.326  1.00  0.00     0.010 C 
HETATM   10  C16 UNL     1       6.115  10.942   1.127  1.00  0.00    -0.036 C 
HETATM   11  C17 UNL     1       5.574  12.212   1.801  1.00  0.00     0.016 C 
ENDROOT
BRANCH   1  12
HETATM   12  C2  UNL     1       4.379   9.031   1.243  1.00  0.00    -0.009 C 
HETATM   13  C1  UNL     1       3.001   9.474   1.604  1.00  0.00     0.011 C 
BRANCH  12  14
HETATM   14  C3  UNL     1       4.500   7.568   0.982  1.00  0.00     0.050 C 
BRANCH  14  15
HETATM   15  C4  UNL     1       3.444   6.801   1.652  1.00  0.00     0.080 C 
HETATM   16  N1  UNL     1       3.010   5.653   1.247  1.00  0.00    -0.314 N 
ATOM     17  H1  UNL     1       2.272   5.189   1.776  1.00  0.00     0.185 HD
BRANCH  16  18
HETATM   18  N2  UNL     1       3.521   5.026   0.106  1.00  0.00    -0.277 N 
HETATM   19  C5  UNL     1       4.036   3.850   0.248  1.00  0.00     0.215 C 
HETATM   20  N3  UNL     1       4.576   3.160  -0.896  1.00  0.00    -0.065 NA
HETATM   21  N4  UNL     1       4.104   3.174   1.486  1.00  0.00    -0.065 NA
ATOM     22  H2  UNL     1       3.488   5.482  -0.806  1.00  0.00     0.189 HD
ENDBRANCH  16  18
ENDBRANCH  14  15
ENDBRANCH  12  14
ENDBRANCH   1  12
BRANCH   5  23
HETATM   23  C12 UNL     1       9.811  11.137   0.509  1.00  0.00     0.173 C 
BRANCH  23  24
HETATM   24  O1  UNL     1      10.896  11.972   0.518  1.00  0.00    -0.400 OA
ATOM     25  H1  UNL     1      11.362  12.017  -0.308  1.00  0.00     0.209 HD
ENDBRANCH  23  24
ENDBRANCH   5  23
TORSDOF 6
ENDMDL
MODEL 3
REMARK VINA RESULT: -7.059954595      1.559      2.689
REMARK  6 active torsions:
REMARK  status: ('A' for Active; 'I' for Inactive)
REMARK    1  A    between atoms: C2_2  and  C3_3 
REMARK    2  A    between atoms: C2_2  and  C6_12 
REMARK    3  A    between atoms: C3_3  and  C4_4 
REMARK    4  A    between atoms: N1_5  and  N2_7 
REMARK    5  A    between atoms: C10_16  and  C12_18 
REMARK    6  A    between atoms: C12_18  and  O1_19 
ROOT
HETATM    1  C6  UNL     1       6.266  10.260   0.788  1.00  0.00    -0.002 C 
HETATM    2  C7  UNL     1       5.659  11.643   1.083  1.00  0.00     0.006 C 
HETATM    3  C8  UNL     1       6.566  12.199   2.137  1.00  0.00     0.007 C 
HETATM    4  C9  UNL     1       7.904  11.606   1.758  1.00  0.00     0.004 C 
HETATM    5  C10 UNL     1       9.010  11.862   2.675  1.00  0.00    -0.018 C 
HETATM    6  C11 UNL     1      10.215  12.347   1.844  1.00  0.00     0.018 C 
HETATM    7  C13 UNL     1       9.497  10.767   3.557  1.00  0.00     0.012 C 
HETATM    8  C14 UNL     1       9.058   9.394   3.213  1.00  0.00     0.002 C 
HETATM    9  C15 UNL     1       7.560   9.481   2.851  1.00  0.00     0.010 C 
HETATM   10  C16 UNL     1       7.497  10.151   1.546  1.00  0.00    -0.036 C 
HETATM   11  C17 UNL     1       8.604   9.559   0.660  1.00  0.00     0.016 C 
ENDROOT
BRANCH   1  12
HETATM   12  C2  UNL     1       5.175   9.286   0.814  1.00  0.00    -0.009 C 
HETATM   13  C1  UNL     1       4.025   9.485   1.742  1.00  0.00     0.011 C 
BRANCH  12  14
HETATM   14  C3  UNL     1       5.463   7.857   0.499  1.00  0.00     0.050 C 
BRANCH  14  15
HETATM   15  C4  UNL     1       5.195   6.977   1.643  1.00  0.00     0.080 C 
HETATM   16  N1  UNL     1       5.103   5.690   1.564  1.00  0.00    -0.314 N 
ATOM     17  H1  UNL     1       4.915   5.156   2.412  1.00  0.00     0.185 HD
BRANCH  16  18
HETATM   18  N2  UNL     1       5.254   5.007   0.353  1.00  0.00    -0.277 N 
HETATM   19  C5  UNL     1       4.479   3.998   0.134  1.00  0.00     0.215 C 
HETATM   20  N3  UNL     1       4.592   3.259  -1.098  1.00  0.00    -0.065 NA
HETATM   21  N4  UNL     1       3.496   3.557   1.049  1.00  0.00    -0.065 NA
ATOM     22  H2  UNL     1       5.951   5.297  -0.334  1.00  0.00     0.189 HD
ENDBRANCH  16  18
ENDBRANCH  14  15
ENDBRANCH  12  14
ENDBRANCH   1  12
BRANCH   5  23
HETATM   23  C12 UNL     1       8.728  13.043   3.597  1.00  0.00     0.173 C 
BRANCH  23  24
HETATM   24  O1  UNL     1       9.054  12.825   4.908  1.00  0.00    -0.400 OA
ATOM     25  H1  UNL     1       9.254  11.921   5.117  1.00  0.00     0.209 HD
ENDBRANCH  23  24
ENDBRANCH   5  23
TORSDOF 6
ENDMDL
MODEL 4
REMARK VINA RESULT: -6.597999766      4.262      6.587
REMARK  6 active torsions:
REMARK  status: ('A' for Active; 'I' for Inactive)
REMARK    1  A    between atoms: C2_2  and  C3_3 
REMARK    2  A    between atoms: C2_2  and  C6_12 
REMARK    3  A    between atoms: C3_3  and  C4_4 
REMARK    4  A    between atoms: N1_5  and  N2_7 
REMARK    5  A    between atoms: C10_16  and  C12_18 
REMARK    6  A    between atoms: C12_18  and  O1_19 
ROOT
HETATM    1  C6  UNL     1       2.314   8.786   1.881  1.00  0.00    -0.002 C 
HETATM    2  C7  UNL     1       1.853   7.607   2.755  1.00  0.00     0.006 C 
HETATM    3  C8  UNL     1       1.000   8.263   3.796  1.00  0.00     0.007 C 
HETATM    4  C9  UNL     1       0.387   9.415   3.033  1.00  0.00     0.004 C 
HETATM    5  C10 UNL     1      -0.427  10.347   3.807  1.00  0.00    -0.018 C 
HETATM    6  C11 UNL     1      -1.753  10.564   3.050  1.00  0.00     0.018 C 
HETATM    7  C13 UNL     1       0.116  11.693   4.136  1.00  0.00     0.012 C 
HETATM    8  C14 UNL     1       1.308  12.131   3.373  1.00  0.00     0.002 C 
HETATM    9  C15 UNL     1       2.259  10.917   3.292  1.00  0.00     0.010 C 
HETATM   10  C16 UNL     1       1.633   9.976   2.355  1.00  0.00    -0.036 C 
HETATM   11  C17 UNL     1       1.102  10.784   1.161  1.00  0.00     0.016 C 
ENDROOT
BRANCH   1  12
HETATM   12  C2  UNL     1       3.760   8.663   1.700  1.00  0.00    -0.009 C 
HETATM   13  C1  UNL     1       4.480   9.617   0.808  1.00  0.00     0.011 C 
BRANCH  12  14
HETATM   14  C3  UNL     1       4.398   7.318   1.795  1.00  0.00     0.050 C 
BRANCH  14  15
HETATM   15  C4  UNL     1       5.122   6.966   0.568  1.00  0.00     0.080 C 
HETATM   16  N1  UNL     1       5.637   5.803   0.337  1.00  0.00    -0.314 N 
ATOM     17  H1  UNL     1       6.124   5.645  -0.546  1.00  0.00     0.185 HD
BRANCH  16  18
HETATM   18  N2  UNL     1       5.548   4.754   1.258  1.00  0.00    -0.277 N 
HETATM   19  C5  UNL     1       4.794   3.752   0.953  1.00  0.00     0.215 C 
HETATM   20  N3  UNL     1       4.667   2.644   1.867  1.00  0.00    -0.065 NA
HETATM   21  N4  UNL     1       4.063   3.664  -0.253  1.00  0.00    -0.065 NA
ATOM     22  H2  UNL     1       6.062   4.780   2.139  1.00  0.00     0.189 HD
ENDBRANCH  16  18
ENDBRANCH  14  15
ENDBRANCH  12  14
ENDBRANCH   1  12
BRANCH   5  23
HETATM   23  C12 UNL     1      -0.879   9.746   5.133  1.00  0.00     0.173 C 
BRANCH  23  24
HETATM   24  O1  UNL     1      -0.940  10.641   6.166  1.00  0.00    -0.400 OA
ATOM     25  H1  UNL     1      -1.548  10.403   6.856  1.00  0.00     0.209 HD
ENDBRANCH  23  24
ENDBRANCH   5  23
TORSDOF 6
ENDMDL
MODEL 5
REMARK VINA RESULT: -6.554886873      2.029      3.295
REMARK  6 active torsions:
REMARK  status: ('A' for Active; 'I' for Inactive)
REMARK    1  A    between atoms: C2_2  and  C3_3 
REMARK    2  A    between atoms: C2_2  and  C6_12 
REMARK    3  A    between atoms: C3_3  and  C4_4 
REMARK    4  A    between atoms: N1_5  and  N2_7 
REMARK    5  A    between atoms: C10_16  and  C12_18 
REMARK    6  A    between atoms: C12_18  and  O1_19 
ROOT
HETATM    1  C6  UNL     1       8.963  11.117   1.537  1.00  0.00    -0.002 C 
HETATM    2  C7  UNL     1       9.419  10.231   0.365  1.00  0.00     0.006 C 
HETATM    3  C8  UNL     1       9.153  11.084  -0.836  1.00  0.00     0.007 C 
HETATM    4  C9  UNL     1       9.404  12.477  -0.305  1.00  0.00     0.004 C 
HETATM    5  C10 UNL     1       9.112  13.581  -1.214  1.00  0.00    -0.018 C 
HETATM    6  C11 UNL     1      10.321  14.538  -1.207  1.00  0.00     0.018 C 
HETATM    7  C13 UNL     1       7.896  14.409  -0.990  1.00  0.00     0.012 C 
HETATM    8  C14 UNL     1       7.239  14.280   0.332  1.00  0.00     0.002 C 
HETATM    9  C15 UNL     1       7.218  12.775   0.675  1.00  0.00     0.010 C 
HETATM   10  C16 UNL     1       8.605  12.413   0.993  1.00  0.00    -0.036 C 
HETATM   11  C17 UNL     1       9.192  13.528   1.871  1.00  0.00     0.016 C 
ENDROOT
BRANCH   1  12
HETATM   12  C2  UNL     1       8.107  10.303   2.399  1.00  0.00    -0.009 C 
HETATM   13  C1  UNL     1       8.399  10.211   3.859  1.00  0.00     0.011 C 
BRANCH  12  14
HETATM   14  C3  UNL     1       7.434   9.098   1.835  1.00  0.00     0.050 C 
BRANCH  14  15
HETATM   15  C4  UNL     1       6.130   9.422   1.246  1.00  0.00     0.080 C 
HETATM   16  N1  UNL     1       5.361   8.561   0.666  1.00  0.00    -0.314 N 
ATOM     17  H1  UNL     1       4.469   8.874   0.283  1.00  0.00     0.185 HD
BRANCH  16  18
HETATM   18  N2  UNL     1       5.713   7.213   0.545  1.00  0.00    -0.277 N 
HETATM   19  C5  UNL     1       4.959   6.342   1.130  1.00  0.00     0.215 C 
HETATM   20  N3  UNL     1       5.277   4.939   1.036  1.00  0.00    -0.065 NA
HETATM   21  N4  UNL     1       3.809   6.683   1.876  1.00  0.00    -0.065 NA
ATOM     22  H2  UNL     1       6.535   6.927   0.013  1.00  0.00     0.189 HD
ENDBRANCH  16  18
ENDBRANCH  14  15
ENDBRANCH  12  14
ENDBRANCH   1  12
BRANCH   5  23
HETATM   23  C12 UNL     1       9.041  13.123  -2.666  1.00  0.00     0.173 C 
BRANCH  23  24
HETATM   24  O1  UNL     1       9.186  14.130  -3.583  1.00  0.00    -0.400 OA
ATOM     25  H1  UNL     1       8.824  13.934  -4.439  1.00  0.00     0.209 HD
ENDBRANCH  23  24
ENDBRANCH   5  23
TORSDOF 6
ENDMDL
