MODEL 1
REMARK VINA RESULT: -6.493257091      0.000      0.000
REMARK  6 active torsions:
REMARK  status: ('A' for Active; 'I' for Inactive)
REMARK       I    between atoms: C2_2  and  N1_4 
REMARK    1  A    between atoms: N1_4  and  C3_6 
REMARK    2  A    between atoms: C6_9  and  O2_10 
REMARK    3  A    between atoms: O2_10  and  C7_11 
REMARK    4  A    between atoms: C8_13  and  C9_14 
REMARK    5  A    between atoms: C9_14  and  C10_15 
REMARK    6  A    between atoms: C11_17  and  C12_18 
ROOT
HETATM    1  C7  UNL     1      -0.927 -11.387   7.161  1.00  0.00     0.295 C 
HETATM    2  O3  UNL     1      -2.256 -10.851   7.069  1.00  0.00    -0.350 OA
HETATM    3  C8  UNL     1      -3.098 -11.926   6.910  1.00  0.00     0.165 C 
HETATM    4  C11 UNL     1      -2.894 -13.045   7.892  1.00  0.00     0.252 C 
HETATM    5  O6  UNL     1      -1.662 -13.163   8.448  1.00  0.00    -0.356 OA
HETATM    6  C13 UNL     1      -0.912 -11.995   8.534  1.00  0.00     0.115 C 
HETATM    7  C14 UNL     1      -1.562 -11.001   9.491  1.00  0.00     0.069 C 
HETATM    8  C15 UNL     1      -1.099 -11.360  10.888  1.00  0.00     0.170 C 
HETATM    9  O7  UNL     1       0.205 -10.908  11.040  1.00  0.00    -0.391 OA
HETATM   10  C16 UNL     1       0.976 -11.155   9.908  1.00  0.00     0.170 C 
HETATM   11  C17 UNL     1       0.427 -12.315   9.100  1.00  0.00     0.069 C 
ENDROOT
BRANCH   1  12
HETATM   12  O2  UNL     1       0.010 -10.428   7.005  1.00  0.00    -0.350 OA
BRANCH  12  13
HETATM   13  C6  UNL     1      -0.396  -9.202   6.522  1.00  0.00     0.159 C 
HETATM   14  C5  UNL     1       0.176  -8.852   5.207  1.00  0.00     0.037 C 
HETATM   15  C4  UNL     1       0.373  -7.423   4.898  1.00  0.00     0.028 C 
HETATM   16  C3  UNL     1      -0.554  -6.467   5.587  1.00  0.00     0.087 C 
HETATM   17  C19 UNL     1      -0.857  -6.838   7.009  1.00  0.00     0.065 C 
HETATM   18  C18 UNL     1      -0.118  -8.065   7.475  1.00  0.00     0.201 C 
HETATM   19  F1  UNL     1      -0.538  -8.321   8.766  1.00  0.00    -0.247 F 
BRANCH  16  20
HETATM   20  N1  UNL     1       0.107  -5.174   5.620  1.00  0.00    -0.357 N 
HETATM   21  C2  UNL     1      -0.603  -3.947   5.553  1.00  0.00     0.213 C 
HETATM   22  C1  UNL     1       0.063  -2.627   5.586  1.00  0.00     0.117 C 
HETATM   23  O1  UNL     1      -1.854  -4.000   5.462  1.00  0.00    -0.274 OA
ATOM     24  H1  UNL     1       1.124  -5.146   5.694  1.00  0.00     0.162 HD
ENDBRANCH  16  20
ENDBRANCH  12  13
ENDBRANCH   1  12
BRANCH   3  25
HETATM   25  C9  UNL     1      -4.548 -11.490   7.065  1.00  0.00     0.046 C 
BRANCH  25  26
HETATM   26  C10 UNL     1      -5.255 -11.254   5.768  1.00  0.00     0.088 C 
HETATM   27 BR1  UNL     1      -7.042 -10.604   6.063  1.00  0.00    -0.096 Br
ENDBRANCH  25  26
ENDBRANCH   3  25
BRANCH   4  28
HETATM   28  C12 UNL     1      -3.173 -14.328   7.146  1.00  0.00     0.205 C 
HETATM   29  O4  UNL     1      -2.671 -14.506   6.030  1.00  0.00    -0.646 OA
HETATM   30  O5  UNL     1      -3.974 -15.335   7.656  1.00  0.00    -0.646 OA
ENDBRANCH   4  28
TORSDOF 6
ENDMDL
MODEL 2
REMARK VINA RESULT: -6.405799654      3.651      6.714
REMARK  6 active torsions:
REMARK  status: ('A' for Active; 'I' for Inactive)
REMARK       I    between atoms: C2_2  and  N1_4 
REMARK    1  A    between atoms: N1_4  and  C3_6 
REMARK    2  A    between atoms: C6_9  and  O2_10 
REMARK    3  A    between atoms: O2_10  and  C7_11 
REMARK    4  A    between atoms: C8_13  and  C9_14 
REMARK    5  A    between atoms: C9_14  and  C10_15 
REMARK    6  A    between atoms: C11_17  and  C12_18 
ROOT
HETATM    1  C7  UNL     1      -0.421 -10.008   8.905  1.00  0.00     0.295 C 
HETATM    2  O3  UNL     1      -0.840  -8.659   8.649  1.00  0.00    -0.350 OA
HETATM    3  C8  UNL     1      -0.542  -8.404   7.331  1.00  0.00     0.165 C 
HETATM    4  C11 UNL     1      -1.013  -9.447   6.358  1.00  0.00     0.252 C 
HETATM    5  O6  UNL     1      -1.180 -10.707   6.835  1.00  0.00    -0.356 OA
HETATM    6  C13 UNL     1      -1.465 -10.818   8.192  1.00  0.00     0.115 C 
HETATM    7  C14 UNL     1      -2.826 -10.210   8.513  1.00  0.00     0.069 C 
HETATM    8  C15 UNL     1      -3.866 -11.279   8.242  1.00  0.00     0.170 C 
HETATM    9  O7  UNL     1      -3.836 -12.185   9.294  1.00  0.00    -0.391 OA
HETATM   10  C16 UNL     1      -2.536 -12.487   9.685  1.00  0.00     0.170 C 
HETATM   11  C17 UNL     1      -1.547 -12.259   8.557  1.00  0.00     0.069 C 
ENDROOT
BRANCH   1  12
HETATM   12  O2  UNL     1      -0.370 -10.272  10.228  1.00  0.00    -0.350 OA
BRANCH  12  13
HETATM   13  C6  UNL     1       0.869 -10.470  10.800  1.00  0.00     0.159 C 
HETATM   14  C5  UNL     1       1.978  -9.821  10.075  1.00  0.00     0.037 C 
HETATM   15  C4  UNL     1       3.313 -10.446  10.153  1.00  0.00     0.028 C 
HETATM   16  C3  UNL     1       3.595 -11.243  11.391  1.00  0.00     0.087 C 
HETATM   17  C19 UNL     1       2.420 -12.042  11.876  1.00  0.00     0.065 C 
HETATM   18  C18 UNL     1       1.213 -11.929  10.983  1.00  0.00     0.201 C 
HETATM   19  F1  UNL     1       0.201 -12.656  11.580  1.00  0.00    -0.247 F 
BRANCH  16  20
HETATM   20  N1  UNL     1       4.644 -12.192  11.063  1.00  0.00    -0.357 N 
HETATM   21  C2  UNL     1       6.002 -11.987  11.420  1.00  0.00     0.213 C 
HETATM   22  C1  UNL     1       7.077 -12.949  11.090  1.00  0.00     0.117 C 
HETATM   23  O1  UNL     1       6.292 -10.937  12.045  1.00  0.00    -0.274 OA
ATOM     24  H1  UNL     1       4.395 -13.041  10.556  1.00  0.00     0.162 HD
ENDBRANCH  16  20
ENDBRANCH  12  13
ENDBRANCH   1  12
BRANCH   3  25
HETATM   25  C9  UNL     1      -1.183  -7.096   6.888  1.00  0.00     0.046 C 
BRANCH  25  26
HETATM   26  C10 UNL     1      -0.262  -5.919   6.941  1.00  0.00     0.088 C 
HETATM   27 BR1  UNL     1      -0.305  -4.933   5.288  1.00  0.00    -0.096 Br
ENDBRANCH  25  26
ENDBRANCH   3  25
BRANCH   4  28
HETATM   28  C12 UNL     1       0.026  -9.517   5.265  1.00  0.00     0.205 C 
HETATM   29  O4  UNL     1       0.306 -10.610   4.760  1.00  0.00    -0.646 OA
HETATM   30  O5  UNL     1       0.693  -8.402   4.790  1.00  0.00    -0.646 OA
ENDBRANCH   4  28
TORSDOF 6
ENDMDL
MODEL 3
REMARK VINA RESULT: -6.082080610      3.567      7.180
REMARK  6 active torsions:
REMARK  status: ('A' for Active; 'I' for Inactive)
REMARK       I    between atoms: C2_2  and  N1_4 
REMARK    1  A    between atoms: N1_4  and  C3_6 
REMARK    2  A    between atoms: C6_9  and  O2_10 
REMARK    3  A    between atoms: O2_10  and  C7_11 
REMARK    4  A    between atoms: C8_13  and  C9_14 
REMARK    5  A    between atoms: C9_14  and  C10_15 
REMARK    6  A    between atoms: C11_17  and  C12_18 
ROOT
HETATM    1  C7  UNL     1      -1.684  -9.795   7.526  1.00  0.00     0.295 C 
HETATM    2  O3  UNL     1      -0.868  -9.997   6.363  1.00  0.00    -0.350 OA
HETATM    3  C8  UNL     1      -0.549  -8.746   5.891  1.00  0.00     0.165 C 
HETATM    4  C11 UNL     1      -0.019  -7.792   6.923  1.00  0.00     0.252 C 
HETATM    5  O6  UNL     1      -0.381  -8.011   8.212  1.00  0.00    -0.356 OA
HETATM    6  C13 UNL     1      -0.690  -9.325   8.548  1.00  0.00     0.115 C 
HETATM    7  C14 UNL     1       0.543 -10.217   8.444  1.00  0.00     0.069 C 
HETATM    8  C15 UNL     1       1.293 -10.093   9.755  1.00  0.00     0.170 C 
HETATM    9  O7  UNL     1       0.622 -10.848  10.709  1.00  0.00    -0.391 OA
HETATM   10  C16 UNL     1      -0.758 -10.694  10.618  1.00  0.00     0.170 C 
HETATM   11  C17 UNL     1      -1.130  -9.374   9.970  1.00  0.00     0.069 C 
ENDROOT
BRANCH   1  12
HETATM   12  O2  UNL     1      -2.316 -10.930   7.896  1.00  0.00    -0.350 OA
BRANCH  12  13
HETATM   13  C6  UNL     1      -3.479 -11.265   7.237  1.00  0.00     0.159 C 
HETATM   14  C5  UNL     1      -4.678 -11.280   8.097  1.00  0.00     0.037 C 
HETATM   15  C4  UNL     1      -5.774 -12.200   7.737  1.00  0.00     0.028 C 
HETATM   16  C3  UNL     1      -5.895 -12.542   6.282  1.00  0.00     0.087 C 
HETATM   17  C19 UNL     1      -4.575 -12.727   5.593  1.00  0.00     0.065 C 
HETATM   18  C18 UNL     1      -3.395 -12.591   6.520  1.00  0.00     0.201 C 
HETATM   19  F1  UNL     1      -2.258 -12.721   5.746  1.00  0.00    -0.247 F 
BRANCH  16  20
HETATM   20  N1  UNL     1      -6.598 -13.810   6.195  1.00  0.00    -0.357 N 
HETATM   21  C2  UNL     1      -7.985 -13.900   5.912  1.00  0.00     0.213 C 
HETATM   22  C1  UNL     1      -8.708 -15.187   5.820  1.00  0.00     0.117 C 
HETATM   23  O1  UNL     1      -8.617 -12.830   5.732  1.00  0.00    -0.274 OA
ATOM     24  H1  UNL     1      -6.073 -14.672   6.343  1.00  0.00     0.162 HD
ENDBRANCH  16  20
ENDBRANCH  12  13
ENDBRANCH   1  12
BRANCH   3  25
HETATM   25  C9  UNL     1       0.526  -8.844   4.817  1.00  0.00     0.046 C 
BRANCH  25  26
HETATM   26  C10 UNL     1       0.646 -10.200   4.197  1.00  0.00     0.088 C 
HETATM   27 BR1  UNL     1       1.991 -10.214   2.821  1.00  0.00    -0.096 Br
ENDBRANCH  25  26
ENDBRANCH   3  25
BRANCH   4  28
HETATM   28  C12 UNL     1      -0.526  -6.421   6.543  1.00  0.00     0.205 C 
HETATM   29  O4  UNL     1      -1.647  -6.061   6.918  1.00  0.00    -0.646 OA
HETATM   30  O5  UNL     1       0.213  -5.531   5.783  1.00  0.00    -0.646 OA
ENDBRANCH   4  28
TORSDOF 6
ENDMDL
MODEL 4
REMARK VINA RESULT: -6.069459198      2.635      3.325
REMARK  6 active torsions:
REMARK  status: ('A' for Active; 'I' for Inactive)
REMARK       I    between atoms: C2_2  and  N1_4 
REMARK    1  A    between atoms: N1_4  and  C3_6 
REMARK    2  A    between atoms: C6_9  and  O2_10 
REMARK    3  A    between atoms: O2_10  and  C7_11 
REMARK    4  A    between atoms: C8_13  and  C9_14 
REMARK    5  A    between atoms: C9_14  and  C10_15 
REMARK    6  A    between atoms: C11_17  and  C12_18 
ROOT
HETATM    1  C7  UNL     1      -1.389 -10.046   6.590  1.00  0.00     0.295 C 
HETATM    2  O3  UNL     1      -2.822  -9.958   6.557  1.00  0.00    -0.350 OA
HETATM    3  C8  UNL     1      -3.288 -11.250   6.501  1.00  0.00     0.165 C 
HETATM    4  C11 UNL     1      -2.698 -12.185   7.518  1.00  0.00     0.252 C 
HETATM    5  O6  UNL     1      -1.467 -11.878   8.001  1.00  0.00    -0.356 OA
HETATM    6  C13 UNL     1      -1.121 -10.530   7.985  1.00  0.00     0.115 C 
HETATM    7  C14 UNL     1      -2.006  -9.730   8.935  1.00  0.00     0.069 C 
HETATM    8  C15 UNL     1      -1.390  -9.838  10.315  1.00  0.00     0.170 C 
HETATM    9  O7  UNL     1      -0.288  -8.993  10.363  1.00  0.00    -0.391 OA
HETATM   10  C16 UNL     1       0.468  -9.058   9.197  1.00  0.00     0.170 C 
HETATM   11  C17 UNL     1       0.275 -10.381   8.480  1.00  0.00     0.069 C 
ENDROOT
BRANCH   1  12
HETATM   12  O2  UNL     1      -0.809  -8.854   6.331  1.00  0.00    -0.350 OA
BRANCH  12  13
HETATM   13  C6  UNL     1      -0.276  -8.655   5.075  1.00  0.00     0.159 C 
HETATM   14  C5  UNL     1       0.483  -9.806   4.552  1.00  0.00     0.037 C 
HETATM   15  C4  UNL     1       1.590  -9.535   3.614  1.00  0.00     0.028 C 
HETATM   16  C3  UNL     1       1.465  -8.288   2.792  1.00  0.00     0.087 C 
HETATM   17  C19 UNL     1       0.886  -7.125   3.543  1.00  0.00     0.065 C 
HETATM   18  C18 UNL     1       0.604  -7.431   4.991  1.00  0.00     0.201 C 
HETATM   19  F1  UNL     1       0.022  -6.302   5.535  1.00  0.00    -0.247 F 
BRANCH  16  20
HETATM   20  N1  UNL     1       2.806  -7.903   2.386  1.00  0.00    -0.357 N 
HETATM   21  C2  UNL     1       3.336  -8.206   1.106  1.00  0.00     0.213 C 
HETATM   22  C1  UNL     1       4.699  -7.817   0.685  1.00  0.00     0.117 C 
HETATM   23  O1  UNL     1       2.603  -8.833   0.302  1.00  0.00    -0.274 OA
ATOM     24  H1  UNL     1       3.390  -7.394   3.049  1.00  0.00     0.162 HD
ENDBRANCH  16  20
ENDBRANCH  12  13
ENDBRANCH   1  12
BRANCH   3  25
HETATM   25  C9  UNL     1      -4.794 -11.278   6.727  1.00  0.00     0.046 C 
BRANCH  25  26
HETATM   26  C10 UNL     1      -5.599 -11.205   5.469  1.00  0.00     0.088 C 
HETATM   27 BR1  UNL     1      -7.380 -10.567   5.826  1.00  0.00    -0.096 Br
ENDBRANCH  25  26
ENDBRANCH   3  25
BRANCH   4  28
HETATM   28  C12 UNL     1      -2.592 -13.536   6.851  1.00  0.00     0.205 C 
HETATM   29  O4  UNL     1      -2.099 -13.620   5.721  1.00  0.00    -0.646 OA
HETATM   30  O5  UNL     1      -3.025 -14.705   7.450  1.00  0.00    -0.646 OA
ENDBRANCH   4  28
TORSDOF 6
ENDMDL
MODEL 5
REMARK VINA RESULT: -6.012836923      3.726      5.526
REMARK  6 active torsions:
REMARK  status: ('A' for Active; 'I' for Inactive)
REMARK       I    between atoms: C2_2  and  N1_4 
REMARK    1  A    between atoms: N1_4  and  C3_6 
REMARK    2  A    between atoms: C6_9  and  O2_10 
REMARK    3  A    between atoms: O2_10  and  C7_11 
REMARK    4  A    between atoms: C8_13  and  C9_14 
REMARK    5  A    between atoms: C9_14  and  C10_15 
REMARK    6  A    between atoms: C11_17  and  C12_18 
ROOT
HETATM    1  C7  UNL     1      -0.685 -10.524   6.466  1.00  0.00     0.295 C 
HETATM    2  O3  UNL     1       0.446 -10.429   7.346  1.00  0.00    -0.350 OA
HETATM    3  C8  UNL     1       0.024  -9.717   8.444  1.00  0.00     0.165 C 
HETATM    4  C11 UNL     1      -1.263 -10.193   9.056  1.00  0.00     0.252 C 
HETATM    5  O6  UNL     1      -2.126 -10.856   8.245  1.00  0.00    -0.356 OA
HETATM    6  C13 UNL     1      -1.562 -11.523   7.162  1.00  0.00     0.115 C 
HETATM    7  C14 UNL     1      -0.676 -12.672   7.634  1.00  0.00     0.069 C 
HETATM    8  C15 UNL     1      -1.580 -13.868   7.858  1.00  0.00     0.170 C 
HETATM    9  O7  UNL     1      -1.900 -14.404   6.617  1.00  0.00    -0.391 OA
HETATM   10  C16 UNL     1      -2.184 -13.415   5.681  1.00  0.00     0.170 C 
HETATM   11  C17 UNL     1      -2.647 -12.133   6.346  1.00  0.00     0.069 C 
ENDROOT
BRANCH   1  12
HETATM   12  O2  UNL     1      -0.321 -10.922   5.228  1.00  0.00    -0.350 OA
BRANCH  12  13
HETATM   13  C6  UNL     1       0.673 -10.213   4.588  1.00  0.00     0.159 C 
HETATM   14  C5  UNL     1       0.438  -8.757   4.536  1.00  0.00     0.037 C 
HETATM   15  C4  UNL     1       1.003  -8.007   3.397  1.00  0.00     0.028 C 
HETATM   16  C3  UNL     1       2.237  -8.587   2.774  1.00  0.00     0.087 C 
HETATM   17  C19 UNL     1       2.221 -10.085   2.684  1.00  0.00     0.065 C 
HETATM   18  C18 UNL     1       0.940 -10.699   3.184  1.00  0.00     0.201 C 
HETATM   19  F1  UNL     1       1.091 -12.070   3.101  1.00  0.00    -0.247 F 
BRANCH  16  20
HETATM   20  N1  UNL     1       2.310  -8.083   1.414  1.00  0.00    -0.357 N 
HETATM   21  C2  UNL     1       3.540  -7.851   0.747  1.00  0.00     0.213 C 
HETATM   22  C1  UNL     1       3.623  -7.339  -0.638  1.00  0.00     0.117 C 
HETATM   23  O1  UNL     1       4.601  -8.097   1.373  1.00  0.00    -0.274 OA
ATOM     24  H1  UNL     1       1.441  -7.888   0.917  1.00  0.00     0.162 HD
ENDBRANCH  16  20
ENDBRANCH  12  13
ENDBRANCH   1  12
BRANCH   3  25
HETATM   25  C9  UNL     1       1.066  -9.786   9.552  1.00  0.00     0.046 C 
BRANCH  25  26
HETATM   26  C10 UNL     1       0.925 -10.975  10.447  1.00  0.00     0.088 C 
HETATM   27 BR1  UNL     1       2.336 -12.246  10.135  1.00  0.00    -0.096 Br
ENDBRANCH  25  26
ENDBRANCH   3  25
BRANCH   4  28
HETATM   28  C12 UNL     1      -1.980  -8.964   9.561  1.00  0.00     0.205 C 
HETATM   29  O4  UNL     1      -1.812  -7.881   8.989  1.00  0.00    -0.646 OA
HETATM   30  O5  UNL     1      -2.832  -8.986  10.652  1.00  0.00    -0.646 OA
ENDBRANCH   4  28
TORSDOF 6
ENDMDL
