MODEL 1
REMARK VINA RESULT: -7.779053812      0.000      0.000
REMARK  7 active torsions:
REMARK  status: ('A' for Active; 'I' for Inactive)
REMARK    1  A    between atoms: C2_2  and  C4_4 
REMARK    2  A    between atoms: N1_7  and  C7_8 
REMARK    3  A    between atoms: C8_11  and  N3_12 
REMARK    4  A    between atoms: N3_12  and  C9_14 
REMARK    5  A    between atoms: N4_16  and  S1_17 
REMARK    6  A    between atoms: S1_17  and  C11_20 
REMARK    7  A    between atoms: C16_27  and  C17_28 
ROOT
HETATM    1  C7  UNL     1       1.143 -10.002   9.871  1.00  0.00     0.682 A 
HETATM    2  N2  UNL     1       1.066  -9.029   8.946  1.00  0.00    -0.177 N 
ATOM      3  H2  UNL     1       1.935  -8.598   8.630  1.00  0.00     0.185 HD
HETATM    4  C8  UNL     1      -0.081  -8.592   8.415  1.00  0.00     0.119 A 
HETATM    5  C15 UNL     1      -1.268  -9.162   8.828  1.00  0.00     0.074 A 
HETATM    6  C16 UNL     1      -1.226 -10.162   9.773  1.00  0.00     0.034 A 
HETATM    7  N6  UNL     1      -0.031 -10.545  10.259  1.00  0.00    -0.195 N 
ATOM      8  H6  UNL     1      -0.011 -11.287  10.958  1.00  0.00     0.184 HD
ENDROOT
BRANCH   4   9
HETATM    9  N3  UNL     1      -0.154  -7.666   7.535  1.00  0.00    -0.370 N 
ATOM     10  H3  UNL     1       0.369  -6.810   7.721  1.00  0.00     0.161 HD
BRANCH   9  11
HETATM   11  C9  UNL     1      -0.899  -7.716   6.318  1.00  0.00     0.102 C 
HETATM   12  C10 UNL     1      -0.293  -8.761   5.384  1.00  0.00     0.133 C 
HETATM   13  N4  UNL     1       0.749  -8.098   4.681  1.00  0.00    -0.204 NA
HETATM   14  C12 UNL     1       0.397  -6.728   4.519  1.00  0.00     0.113 C 
HETATM   15  C13 UNL     1      -0.675  -6.426   5.553  1.00  0.00     0.019 C 
HETATM   16  C14 UNL     1      -0.318  -5.278   6.439  1.00  0.00     0.013 C 
BRANCH  13  17
HETATM   17  S1  UNL     1       1.424  -8.887   3.358  1.00  0.00     0.273 S 
HETATM   18  O1  UNL     1       1.604 -10.363   3.566  1.00  0.00    -0.205 OA
HETATM   19  O2  UNL     1       0.455  -8.735   2.188  1.00  0.00    -0.205 OA
BRANCH  17  20
HETATM   20  C11 UNL     1       2.978  -8.222   2.899  1.00  0.00     0.488 C 
HETATM   21  F1  UNL     1       2.935  -7.654   1.644  1.00  0.00    -0.196 F 
HETATM   22  F2  UNL     1       4.025  -9.118   2.991  1.00  0.00    -0.196 F 
ENDBRANCH  17  20
ENDBRANCH  13  17
ENDBRANCH   9  11
ENDBRANCH   4   9
BRANCH   1  23
HETATM   23  N1  UNL     1       2.388 -10.432  10.405  1.00  0.00    -0.217 N 
HETATM   24  C6  UNL     1       2.509 -11.269  11.582  1.00  0.00     0.141 C 
HETATM   25  C5  UNL     1       3.960 -11.211  11.975  1.00  0.00     0.027 C 
HETATM   26  C4  UNL     1       4.643 -11.087  10.620  1.00  0.00     0.009 C 
HETATM   27  C22 UNL     1       3.715 -10.131   9.905  1.00  0.00     0.146 C 
BRANCH  26  28
HETATM   28  C2  UNL     1       6.035 -10.509  10.762  1.00  0.00    -0.017 C 
HETATM   29  C1  UNL     1       6.445  -9.720   9.552  1.00  0.00     0.010 C 
HETATM   30  C3  UNL     1       5.994  -9.546  11.939  1.00  0.00     0.010 C 
ENDBRANCH  26  28
ENDBRANCH   1  23
BRANCH   6  31
HETATM   31  C17 UNL     1      -2.502 -10.776  10.218  1.00  0.00     0.039 C 
HETATM   32  C18 UNL     1      -2.177 -11.802  11.262  1.00  0.00     0.038 C 
HETATM   33  C19 UNL     1      -2.537 -13.194  10.783  1.00  0.00     0.233 C 
HETATM   34  N5  UNL     1      -3.992 -13.140  10.568  1.00  0.00    -0.075 N 
HETATM   35  C20 UNL     1      -4.198 -12.440   9.341  1.00  0.00     0.233 C 
ATOM     36  H52 UNL     1      -4.437 -14.058  10.589  1.00  0.00     0.277 HD
ATOM     37  H51 UNL     1      -4.501 -12.734  11.354  1.00  0.00     0.277 HD
HETATM   38  C21 UNL     1      -3.310 -11.298   9.074  1.00  0.00     0.038 C 
ENDBRANCH   6  31
TORSDOF 7
ENDMDL
MODEL 2
REMARK VINA RESULT: -7.658436995      0.853      1.726
REMARK  7 active torsions:
REMARK  status: ('A' for Active; 'I' for Inactive)
REMARK    1  A    between atoms: C2_2  and  C4_4 
REMARK    2  A    between atoms: N1_7  and  C7_8 
REMARK    3  A    between atoms: C8_11  and  N3_12 
REMARK    4  A    between atoms: N3_12  and  C9_14 
REMARK    5  A    between atoms: N4_16  and  S1_17 
REMARK    6  A    between atoms: S1_17  and  C11_20 
REMARK    7  A    between atoms: C16_27  and  C17_28 
ROOT
HETATM    1  C7  UNL     1       0.978 -10.197  10.001  1.00  0.00     0.682 A 
HETATM    2  N2  UNL     1       1.029  -9.278   9.020  1.00  0.00    -0.177 N 
ATOM      3  H2  UNL     1       1.941  -8.895   8.769  1.00  0.00     0.185 HD
HETATM    4  C8  UNL     1      -0.043  -8.835   8.354  1.00  0.00     0.119 A 
HETATM    5  C15 UNL     1      -1.285  -9.341   8.679  1.00  0.00     0.074 A 
HETATM    6  C16 UNL     1      -1.374 -10.284   9.677  1.00  0.00     0.034 A 
HETATM    7  N6  UNL     1      -0.248 -10.677  10.299  1.00  0.00    -0.195 N 
ATOM      8  H6  UNL     1      -0.325 -11.377  11.038  1.00  0.00     0.184 HD
ENDROOT
BRANCH   4   9
HETATM    9  N3  UNL     1       0.006  -7.961   7.422  1.00  0.00    -0.370 N 
ATOM     10  H3  UNL     1       0.647  -7.179   7.555  1.00  0.00     0.161 HD
BRANCH   9  11
HETATM   11  C9  UNL     1      -0.753  -7.975   6.212  1.00  0.00     0.102 C 
HETATM   12  C10 UNL     1      -0.127  -8.956   5.222  1.00  0.00     0.133 C 
HETATM   13  N4  UNL     1       0.886  -8.229   4.541  1.00  0.00    -0.204 NA
HETATM   14  C12 UNL     1       0.491  -6.864   4.449  1.00  0.00     0.113 C 
HETATM   15  C13 UNL     1      -0.576  -6.644   5.507  1.00  0.00     0.019 C 
HETATM   16  C14 UNL     1      -0.243  -5.529   6.444  1.00  0.00     0.013 C 
BRANCH  13  17
HETATM   17  S1  UNL     1       1.568  -8.933   3.174  1.00  0.00     0.273 S 
HETATM   18  O1  UNL     1       1.842 -10.401   3.327  1.00  0.00    -0.205 OA
HETATM   19  O2  UNL     1       0.558  -8.803   2.036  1.00  0.00    -0.205 OA
BRANCH  17  20
HETATM   20  C11 UNL     1       3.065  -8.160   2.694  1.00  0.00     0.488 C 
HETATM   21  F1  UNL     1       3.035  -7.776   1.371  1.00  0.00    -0.196 F 
HETATM   22  F2  UNL     1       4.196  -8.909   2.959  1.00  0.00    -0.196 F 
ENDBRANCH  17  20
ENDBRANCH  13  17
ENDBRANCH   9  11
ENDBRANCH   4   9
BRANCH   1  23
HETATM   23  N1  UNL     1       2.148 -10.635  10.680  1.00  0.00    -0.217 N 
HETATM   24  C6  UNL     1       3.466 -10.081  10.444  1.00  0.00     0.141 C 
HETATM   25  C5  UNL     1       4.430 -11.027  11.109  1.00  0.00     0.027 C 
HETATM   26  C4  UNL     1       3.619 -11.505  12.305  1.00  0.00     0.009 C 
HETATM   27  C22 UNL     1       2.247 -11.671  11.689  1.00  0.00     0.146 C 
BRANCH  26  28
HETATM   28  C2  UNL     1       4.152 -12.818  12.836  1.00  0.00    -0.017 C 
HETATM   29  C1  UNL     1       3.465 -13.236  14.105  1.00  0.00     0.010 C 
HETATM   30  C3  UNL     1       3.847 -13.875  11.785  1.00  0.00     0.010 C 
ENDBRANCH  26  28
ENDBRANCH   1  23
BRANCH   6  31
HETATM   31  C17 UNL     1      -2.711 -10.828  10.026  1.00  0.00     0.039 C 
HETATM   32  C18 UNL     1      -2.502 -12.020  10.913  1.00  0.00     0.038 C 
HETATM   33  C19 UNL     1      -2.986 -13.287  10.237  1.00  0.00     0.233 C 
HETATM   34  N5  UNL     1      -4.426 -13.062  10.029  1.00  0.00    -0.075 N 
HETATM   35  C20 UNL     1      -4.544 -12.177   8.915  1.00  0.00     0.233 C 
ATOM     36  H52 UNL     1      -4.957 -13.926   9.916  1.00  0.00     0.277 HD
ATOM     37  H51 UNL     1      -4.906 -12.725  10.864  1.00  0.00     0.277 HD
HETATM   38  C21 UNL     1      -3.546 -11.101   8.817  1.00  0.00     0.038 C 
ENDBRANCH   6  31
TORSDOF 7
ENDMDL
MODEL 3
REMARK VINA RESULT: -7.588598225      4.669      7.457
REMARK  7 active torsions:
REMARK  status: ('A' for Active; 'I' for Inactive)
REMARK    1  A    between atoms: C2_2  and  C4_4 
REMARK    2  A    between atoms: N1_7  and  C7_8 
REMARK    3  A    between atoms: C8_11  and  N3_12 
REMARK    4  A    between atoms: N3_12  and  C9_14 
REMARK    5  A    between atoms: N4_16  and  S1_17 
REMARK    6  A    between atoms: S1_17  and  C11_20 
REMARK    7  A    between atoms: C16_27  and  C17_28 
ROOT
HETATM    1  C7  UNL     1      -0.900  -9.377   6.674  1.00  0.00     0.682 A 
HETATM    2  N2  UNL     1      -2.168  -9.814   6.569  1.00  0.00    -0.177 N 
ATOM      3  H2  UNL     1      -2.654  -9.666   5.684  1.00  0.00     0.185 HD
HETATM    4  C8  UNL     1      -2.830 -10.430   7.554  1.00  0.00     0.119 A 
HETATM    5  C15 UNL     1      -2.190 -10.641   8.758  1.00  0.00     0.074 A 
HETATM    6  C16 UNL     1      -0.892 -10.207   8.901  1.00  0.00     0.034 A 
HETATM    7  N6  UNL     1      -0.296  -9.595   7.862  1.00  0.00    -0.195 N 
ATOM      8  H6  UNL     1       0.667  -9.278   7.978  1.00  0.00     0.184 HD
ENDROOT
BRANCH   4   9
HETATM    9  N3  UNL     1      -4.036 -10.845   7.453  1.00  0.00    -0.370 N 
ATOM     10  H3  UNL     1      -4.739 -10.360   8.010  1.00  0.00     0.161 HD
BRANCH   9  11
HETATM   11  C9  UNL     1      -4.491 -11.924   6.635  1.00  0.00     0.102 C 
HETATM   12  C10 UNL     1      -5.305 -11.377   5.464  1.00  0.00     0.133 C 
HETATM   13  N4  UNL     1      -6.632 -11.226   5.948  1.00  0.00    -0.204 NA
HETATM   14  C12 UNL     1      -6.881 -12.227   6.928  1.00  0.00     0.113 C 
HETATM   15  C13 UNL     1      -5.526 -12.721   7.406  1.00  0.00     0.019 C 
HETATM   16  C14 UNL     1      -5.359 -12.613   8.887  1.00  0.00     0.013 C 
BRANCH  13  17
HETATM   17  S1  UNL     1      -7.843 -10.924   4.821  1.00  0.00     0.273 S 
HETATM   18  O1  UNL     1      -8.517 -12.167   4.314  1.00  0.00    -0.205 OA
HETATM   19  O2  UNL     1      -8.927 -10.104   5.517  1.00  0.00    -0.205 OA
BRANCH  17  20
HETATM   20  C11 UNL     1      -7.261 -10.031   3.430  1.00  0.00     0.488 C 
HETATM   21  F1  UNL     1      -7.900  -8.817   3.305  1.00  0.00    -0.196 F 
HETATM   22  F2  UNL     1      -7.317 -10.736   2.243  1.00  0.00    -0.196 F 
ENDBRANCH  17  20
ENDBRANCH  13  17
ENDBRANCH   9  11
ENDBRANCH   4   9
BRANCH   1  23
HETATM   23  N1  UNL     1      -0.239  -8.726   5.597  1.00  0.00    -0.217 N 
HETATM   24  C6  UNL     1      -0.192  -7.287   5.438  1.00  0.00     0.141 C 
HETATM   25  C5  UNL     1       0.307  -7.048   4.039  1.00  0.00     0.027 C 
HETATM   26  C4  UNL     1       1.255  -8.223   3.843  1.00  0.00     0.009 C 
HETATM   27  C22 UNL     1       0.480  -9.344   4.500  1.00  0.00     0.146 C 
BRANCH  26  28
HETATM   28  C2  UNL     1       1.488  -8.496   2.372  1.00  0.00    -0.017 C 
HETATM   29  C1  UNL     1       2.908  -8.222   1.965  1.00  0.00     0.010 C 
HETATM   30  C3  UNL     1       1.231  -9.980   2.153  1.00  0.00     0.010 C 
ENDBRANCH  26  28
ENDBRANCH   1  23
BRANCH   6  31
HETATM   31  C17 UNL     1      -0.204 -10.433  10.197  1.00  0.00     0.039 C 
HETATM   32  C18 UNL     1       0.950  -9.478  10.274  1.00  0.00     0.038 C 
HETATM   33  C19 UNL     1       2.269 -10.224  10.293  1.00  0.00     0.233 C 
HETATM   34  N5  UNL     1       2.209 -11.040  11.517  1.00  0.00    -0.075 N 
HETATM   35  C20 UNL     1       1.351 -12.144  11.230  1.00  0.00     0.233 C 
ATOM     36  H52 UNL     1       3.128 -11.320  11.860  1.00  0.00     0.277 HD
ATOM     37  H51 UNL     1       1.922 -10.510  12.340  1.00  0.00     0.277 HD
HETATM   38  C21 UNL     1       0.170 -11.866  10.398  1.00  0.00     0.038 C 
ENDBRANCH   6  31
TORSDOF 7
ENDMDL
MODEL 4
REMARK VINA RESULT: -7.572361804      3.571      6.735
REMARK  7 active torsions:
REMARK  status: ('A' for Active; 'I' for Inactive)
REMARK    1  A    between atoms: C2_2  and  C4_4 
REMARK    2  A    between atoms: N1_7  and  C7_8 
REMARK    3  A    between atoms: C8_11  and  N3_12 
REMARK    4  A    between atoms: N3_12  and  C9_14 
REMARK    5  A    between atoms: N4_16  and  S1_17 
REMARK    6  A    between atoms: S1_17  and  C11_20 
REMARK    7  A    between atoms: C16_27  and  C17_28 
ROOT
HETATM    1  C7  UNL     1       3.315 -12.409  12.799  1.00  0.00     0.682 A 
HETATM    2  N2  UNL     1       2.198 -11.956  12.204  1.00  0.00    -0.177 N 
ATOM      3  H2  UNL     1       1.304 -12.346  12.501  1.00  0.00     0.185 HD
HETATM    4  C8  UNL     1       2.188 -11.024  11.245  1.00  0.00     0.119 A 
HETATM    5  C15 UNL     1       3.387 -10.482  10.829  1.00  0.00     0.074 A 
HETATM    6  C16 UNL     1       4.550 -10.923  11.417  1.00  0.00     0.034 A 
HETATM    7  N6  UNL     1       4.476 -11.864  12.376  1.00  0.00    -0.195 N 
ATOM      8  H6  UNL     1       5.344 -12.183  12.806  1.00  0.00     0.184 HD
ENDROOT
BRANCH   4   9
HETATM    9  N3  UNL     1       1.126 -10.593  10.678  1.00  0.00    -0.370 N 
ATOM     10  H3  UNL     1       0.901  -9.606  10.807  1.00  0.00     0.161 HD
BRANCH   9  11
HETATM   11  C9  UNL     1       0.223 -11.361   9.882  1.00  0.00     0.102 C 
HETATM   12  C10 UNL     1       0.403 -11.005   8.407  1.00  0.00     0.133 C 
HETATM   13  N4  UNL     1      -0.416  -9.866   8.179  1.00  0.00    -0.204 NA
HETATM   14  C12 UNL     1      -1.549  -9.934   9.038  1.00  0.00     0.113 C 
HETATM   15  C13 UNL     1      -1.194 -10.896  10.159  1.00  0.00     0.019 C 
HETATM   16  C14 UNL     1      -1.352 -10.289  11.515  1.00  0.00     0.013 C 
BRANCH  13  17
HETATM   17  S1  UNL     1      -0.677  -9.400   6.584  1.00  0.00     0.273 S 
HETATM   18  O1  UNL     1       0.145 -10.168   5.590  1.00  0.00    -0.205 OA
HETATM   19  O2  UNL     1      -2.137  -9.696   6.251  1.00  0.00    -0.205 OA
BRANCH  17  20
HETATM   20  C11 UNL     1      -0.370  -7.695   6.323  1.00  0.00     0.488 C 
HETATM   21  F1  UNL     1       0.503  -7.492   5.277  1.00  0.00    -0.196 F 
HETATM   22  F2  UNL     1       0.057  -7.020   7.451  1.00  0.00    -0.196 F 
ENDBRANCH  17  20
ENDBRANCH  13  17
ENDBRANCH   9  11
ENDBRANCH   4   9
BRANCH   1  23
HETATM   23  N1  UNL     1       3.273 -13.403  13.815  1.00  0.00    -0.217 N 
HETATM   24  C6  UNL     1       3.565 -13.137  15.209  1.00  0.00     0.141 C 
HETATM   25  C5  UNL     1       3.719 -14.486  15.858  1.00  0.00     0.027 C 
HETATM   26  C4  UNL     1       2.725 -15.325  15.067  1.00  0.00     0.009 C 
HETATM   27  C22 UNL     1       2.948 -14.808  13.663  1.00  0.00     0.146 C 
BRANCH  26  28
HETATM   28  C2  UNL     1       3.050 -16.800  15.174  1.00  0.00    -0.017 C 
HETATM   29  C1  UNL     1       4.239 -17.178  14.338  1.00  0.00     0.010 C 
HETATM   30  C3  UNL     1       3.414 -17.066  16.627  1.00  0.00     0.010 C 
ENDBRANCH  26  28
ENDBRANCH   1  23
BRANCH   6  31
HETATM   31  C17 UNL     1       5.841 -10.340  10.970  1.00  0.00     0.039 C 
HETATM   32  C18 UNL     1       6.435  -9.599  12.130  1.00  0.00     0.038 C 
HETATM   33  C19 UNL     1       6.517  -8.114  11.838  1.00  0.00     0.233 C 
HETATM   34  N5  UNL     1       7.410  -8.021  10.671  1.00  0.00    -0.075 N 
HETATM   35  C20 UNL     1       6.640  -8.412   9.535  1.00  0.00     0.233 C 
ATOM     36  H52 UNL     1       7.844  -7.103  10.568  1.00  0.00     0.277 HD
ATOM     37  H51 UNL     1       8.271  -8.558  10.779  1.00  0.00     0.277 HD
HETATM   38  C21 UNL     1       5.693  -9.522   9.728  1.00  0.00     0.038 C 
ENDBRANCH   6  31
TORSDOF 7
ENDMDL
MODEL 5
REMARK VINA RESULT: -7.329679155      4.242      7.450
REMARK  7 active torsions:
REMARK  status: ('A' for Active; 'I' for Inactive)
REMARK    1  A    between atoms: C2_2  and  C4_4 
REMARK    2  A    between atoms: N1_7  and  C7_8 
REMARK    3  A    between atoms: C8_11  and  N3_12 
REMARK    4  A    between atoms: N3_12  and  C9_14 
REMARK    5  A    between atoms: N4_16  and  S1_17 
REMARK    6  A    between atoms: S1_17  and  C11_20 
REMARK    7  A    between atoms: C16_27  and  C17_28 
ROOT
HETATM    1  C7  UNL     1       4.173 -13.193  13.229  1.00  0.00     0.682 A 
HETATM    2  N2  UNL     1       2.934 -12.970  12.755  1.00  0.00    -0.177 N 
ATOM      3  H2  UNL     1       2.162 -13.498  13.163  1.00  0.00     0.185 HD
HETATM    4  C8  UNL     1       2.652 -12.097  11.782  1.00  0.00     0.119 A 
HETATM    5  C15 UNL     1       3.682 -11.371  11.218  1.00  0.00     0.074 A 
HETATM    6  C16 UNL     1       4.962 -11.573  11.680  1.00  0.00     0.034 A 
HETATM    7  N6  UNL     1       5.163 -12.470  12.662  1.00  0.00    -0.195 N 
ATOM      8  H6  UNL     1       6.116 -12.613  12.997  1.00  0.00     0.184 HD
ENDROOT
BRANCH   4   9
HETATM    9  N3  UNL     1       1.474 -11.885  11.331  1.00  0.00    -0.370 N 
ATOM     10  H3  UNL     1       0.795 -11.490  11.982  1.00  0.00     0.161 HD
BRANCH   9  11
HETATM   11  C9  UNL     1       1.019 -12.149  10.004  1.00  0.00     0.102 C 
HETATM   12  C10 UNL     1       1.069 -10.866   9.176  1.00  0.00     0.133 C 
HETATM   13  N4  UNL     1      -0.155 -10.191   9.427  1.00  0.00    -0.204 NA
HETATM   14  C12 UNL     1      -1.171 -11.156   9.673  1.00  0.00     0.113 C 
HETATM   15  C13 UNL     1      -0.467 -12.450  10.046  1.00  0.00     0.019 C 
HETATM   16  C14 UNL     1      -0.914 -12.994  11.364  1.00  0.00     0.013 C 
BRANCH  13  17
HETATM   17  S1  UNL     1      -0.545  -8.888   8.438  1.00  0.00     0.273 S 
HETATM   18  O1  UNL     1      -1.799  -8.173   8.850  1.00  0.00    -0.205 OA
HETATM   19  O2  UNL     1       0.586  -7.868   8.551  1.00  0.00    -0.205 OA
BRANCH  17  20
HETATM   20  C11 UNL     1      -0.725  -9.351   6.757  1.00  0.00     0.488 C 
HETATM   21  F1  UNL     1       0.071  -8.585   5.933  1.00  0.00    -0.196 F 
HETATM   22  F2  UNL     1      -2.032  -9.349   6.309  1.00  0.00    -0.196 F 
ENDBRANCH  17  20
ENDBRANCH  13  17
ENDBRANCH   9  11
ENDBRANCH   4   9
BRANCH   1  23
HETATM   23  N1  UNL     1       4.421 -14.133  14.266  1.00  0.00    -0.217 N 
HETATM   24  C6  UNL     1       5.740 -14.636  14.593  1.00  0.00     0.141 C 
HETATM   25  C5  UNL     1       5.513 -15.815  15.500  1.00  0.00     0.027 C 
HETATM   26  C4  UNL     1       4.264 -15.387  16.257  1.00  0.00     0.009 C 
HETATM   27  C22 UNL     1       3.452 -14.744  15.155  1.00  0.00     0.146 C 
BRANCH  26  28
HETATM   28  C2  UNL     1       3.549 -16.582  16.849  1.00  0.00    -0.017 C 
HETATM   29  C1  UNL     1       2.902 -17.433  15.794  1.00  0.00     0.010 C 
HETATM   30  C3  UNL     1       4.607 -17.434  17.534  1.00  0.00     0.010 C 
ENDBRANCH  26  28
ENDBRANCH   1  23
BRANCH   6  31
HETATM   31  C17 UNL     1       6.070 -10.793  11.073  1.00  0.00     0.039 C 
HETATM   32  C18 UNL     1       6.471  -9.730  12.052  1.00  0.00     0.038 C 
HETATM   33  C19 UNL     1       6.187  -8.349  11.497  1.00  0.00     0.233 C 
HETATM   34  N5  UNL     1       7.026  -8.262  10.290  1.00  0.00    -0.075 N 
HETATM   35  C20 UNL     1       6.370  -9.029   9.280  1.00  0.00     0.233 C 
ATOM     36  H52 UNL     1       7.224  -7.303  10.004  1.00  0.00     0.277 HD
ATOM     37  H51 UNL     1       7.992  -8.549  10.450  1.00  0.00     0.277 HD
HETATM   38  C21 UNL     1       5.723 -10.277   9.714  1.00  0.00     0.038 C 
ENDBRANCH   6  31
TORSDOF 7
ENDMDL
