MODEL 1
REMARK VINA RESULT: -7.325183950      0.000      0.000
REMARK  1 active torsions:
REMARK  status: ('A' for Active; 'I' for Inactive)
REMARK    1  A    between atoms: N5_11  and  C4_13 
ROOT
HETATM    1  C1  UNL     1      -7.101  64.371   7.701  1.00  0.00     0.165 C 
HETATM    2  N1  UNL     1      -6.843  65.122   8.899  1.00  0.00    -0.229 N 
ATOM      3  H1  UNL     1      -7.217  64.780   9.784  1.00  0.00     0.177 HD
HETATM    4  C2  UNL     1      -6.143  66.232   8.893  1.00  0.00     0.705 C 
HETATM    5  N2  UNL     1      -5.601  66.748   7.691  1.00  0.00    -0.115 N 
ATOM      6  H2  UNL     1      -5.405  66.145   6.892  1.00  0.00     0.203 HD
HETATM    7  N3  UNL     1      -5.347  68.116   7.648  1.00  0.00     0.007 NA
HETATM    8  N4  UNL     1      -4.665  68.546   8.772  1.00  0.00    -0.115 N 
ATOM      9  H4  UNL     1      -3.838  69.137   8.687  1.00  0.00     0.203 HD
HETATM   10  C3  UNL     1      -5.157  68.136  10.076  1.00  0.00     0.711 C 
HETATM   11  N5  UNL     1      -4.908  68.844  11.101  1.00  0.00    -0.173 N 
ATOM     12  H5  UNL     1      -4.360  69.691  10.948  1.00  0.00     0.186 HD
HETATM   13  N8  UNL     1      -5.915  66.939  10.103  1.00  0.00    -0.020 N 
ATOM     14  H8  UNL     1      -6.292  66.589  10.983  1.00  0.00     0.203 HD
ENDROOT
BRANCH  11  15
HETATM   15  C4  UNL     1      -5.310  68.584  12.430  1.00  0.00     0.140 A 
HETATM   16  C5  UNL     1      -5.080  69.356  13.542  1.00  0.00     0.144 A 
HETATM   17  N6  UNL     1      -5.635  68.727  14.585  1.00  0.00    -0.310 N 
HETATM   18  C6  UNL     1      -5.601  69.241  15.946  1.00  0.00     0.160 C 
HETATM   19  C7  UNL     1      -6.210  67.586  14.182  1.00  0.00     0.327 A 
HETATM   20  O1  UNL     1      -6.818  66.770  14.945  1.00  0.00    -0.246 OA
HETATM   21  N7  UNL     1      -6.009  67.502  12.866  1.00  0.00    -0.293 N 
ATOM     22  H7  UNL     1      -6.333  66.738  12.273  1.00  0.00     0.172 HD
ENDBRANCH  11  15
TORSDOF 1
ENDMDL
MODEL 2
REMARK VINA RESULT: -7.051297454      1.332      1.598
REMARK  1 active torsions:
REMARK  status: ('A' for Active; 'I' for Inactive)
REMARK    1  A    between atoms: N5_11  and  C4_13 
ROOT
HETATM    1  C1  UNL     1      -7.026  64.590   8.221  1.00  0.00     0.165 C 
HETATM    2  N1  UNL     1      -6.634  65.439   9.312  1.00  0.00    -0.229 N 
ATOM      3  H1  UNL     1      -6.980  65.228  10.248  1.00  0.00     0.177 HD
HETATM    4  C2  UNL     1      -5.847  66.476   9.146  1.00  0.00     0.705 C 
HETATM    5  N2  UNL     1      -5.338  66.810   7.867  1.00  0.00    -0.115 N 
ATOM      6  H2  UNL     1      -5.242  66.110   7.131  1.00  0.00     0.203 HD
HETATM    7  N3  UNL     1      -4.976  68.138   7.658  1.00  0.00     0.007 NA
HETATM    8  N4  UNL     1      -4.194  68.624   8.690  1.00  0.00    -0.115 N 
ATOM      9  H4  UNL     1      -3.328  69.126   8.497  1.00  0.00     0.203 HD
HETATM   10  C3  UNL     1      -4.636  68.401  10.056  1.00  0.00     0.711 C 
HETATM   11  N5  UNL     1      -4.268  69.190  10.981  1.00  0.00    -0.173 N 
ATOM     12  H5  UNL     1      -3.663  69.963  10.706  1.00  0.00     0.186 HD
HETATM   13  N8  UNL     1      -5.487  67.285  10.256  1.00  0.00    -0.020 N 
ATOM     14  H8  UNL     1      -5.838  67.066  11.188  1.00  0.00     0.203 HD
ENDROOT
BRANCH  11  15
HETATM   15  C4  UNL     1      -4.608  69.110  12.349  1.00  0.00     0.140 A 
HETATM   16  C5  UNL     1      -5.496  68.248  12.945  1.00  0.00     0.144 A 
HETATM   17  N6  UNL     1      -5.507  68.528  14.254  1.00  0.00    -0.310 N 
HETATM   18  C6  UNL     1      -6.329  67.819  15.221  1.00  0.00     0.160 C 
HETATM   19  C7  UNL     1      -4.660  69.533  14.516  1.00  0.00     0.327 A 
HETATM   20  O1  UNL     1      -4.452  70.023  15.671  1.00  0.00    -0.246 OA
HETATM   21  N7  UNL     1      -4.114  69.886  13.352  1.00  0.00    -0.293 N 
ATOM     22  H7  UNL     1      -3.426  70.628  13.230  1.00  0.00     0.172 HD
ENDBRANCH  11  15
TORSDOF 1
ENDMDL
MODEL 3
REMARK VINA RESULT: -6.758998594      2.506      5.977
REMARK  1 active torsions:
REMARK  status: ('A' for Active; 'I' for Inactive)
REMARK    1  A    between atoms: N5_11  and  C4_13 
ROOT
HETATM    1  C1  UNL     1      -8.436  68.671  15.689  1.00  0.00     0.165 C 
HETATM    2  N1  UNL     1      -7.855  68.468  14.391  1.00  0.00    -0.229 N 
ATOM      3  H1  UNL     1      -8.391  67.966  13.684  1.00  0.00     0.177 HD
HETATM    4  C2  UNL     1      -6.657  68.907  14.084  1.00  0.00     0.705 C 
HETATM    5  N2  UNL     1      -5.871  69.612  15.028  1.00  0.00    -0.115 N 
ATOM      6  H2  UNL     1      -6.297  70.116  15.806  1.00  0.00     0.203 HD
HETATM    7  N3  UNL     1      -4.491  69.585  14.849  1.00  0.00     0.007 NA
HETATM    8  N4  UNL     1      -4.139  69.867  13.542  1.00  0.00    -0.115 N 
ATOM      9  H4  UNL     1      -3.412  70.552  13.333  1.00  0.00     0.203 HD
HETATM   10  C3  UNL     1      -4.829  69.164  12.473  1.00  0.00     0.711 C 
HETATM   11  N5  UNL     1      -4.262  69.004  11.348  1.00  0.00    -0.173 N 
ATOM     12  H5  UNL     1      -3.323  69.389  11.252  1.00  0.00     0.186 HD
HETATM   13  N8  UNL     1      -6.124  68.683  12.786  1.00  0.00    -0.020 N 
ATOM     14  H8  UNL     1      -6.669  68.180  12.086  1.00  0.00     0.203 HD
ENDROOT
BRANCH  11  15
HETATM   15  C4  UNL     1      -4.795  68.350  10.215  1.00  0.00     0.140 A 
HETATM   16  C5  UNL     1      -5.265  67.062  10.134  1.00  0.00     0.144 A 
HETATM   17  N6  UNL     1      -5.670  66.864   8.874  1.00  0.00    -0.310 N 
HETATM   18  C6  UNL     1      -6.236  65.612   8.397  1.00  0.00     0.160 C 
HETATM   19  C7  UNL     1      -5.478  67.975   8.149  1.00  0.00     0.327 A 
HETATM   20  O1  UNL     1      -5.765  68.096   6.916  1.00  0.00    -0.246 OA
HETATM   21  N7  UNL     1      -4.944  68.879   8.971  1.00  0.00    -0.293 N 
ATOM     22  H7  UNL     1      -4.684  69.829   8.706  1.00  0.00     0.172 HD
ENDBRANCH  11  15
TORSDOF 1
ENDMDL
MODEL 4
REMARK VINA RESULT: -6.684678474      2.382      3.054
REMARK  1 active torsions:
REMARK  status: ('A' for Active; 'I' for Inactive)
REMARK    1  A    between atoms: N5_11  and  C4_13 
ROOT
HETATM    1  C1  UNL     1      -6.870  67.592   5.643  1.00  0.00     0.165 C 
HETATM    2  N1  UNL     1      -6.434  68.046   6.935  1.00  0.00    -0.229 N 
ATOM      3  H1  UNL     1      -6.262  69.041   7.075  1.00  0.00     0.177 HD
HETATM    4  C2  UNL     1      -6.250  67.223   7.940  1.00  0.00     0.705 C 
HETATM    5  N2  UNL     1      -6.476  65.832   7.799  1.00  0.00    -0.115 N 
ATOM      6  H2  UNL     1      -7.111  65.464   7.090  1.00  0.00     0.203 HD
HETATM    7  N3  UNL     1      -5.794  64.988   8.670  1.00  0.00     0.007 NA
HETATM    8  N4  UNL     1      -5.893  65.417   9.981  1.00  0.00    -0.115 N 
ATOM      9  H4  UNL     1      -6.149  64.767  10.725  1.00  0.00     0.203 HD
HETATM   10  C3  UNL     1      -5.625  66.814  10.273  1.00  0.00     0.711 C 
HETATM   11  N5  UNL     1      -5.230  67.158  11.431  1.00  0.00    -0.173 N 
ATOM     12  H5  UNL     1      -5.119  66.410  12.115  1.00  0.00     0.186 HD
HETATM   13  N8  UNL     1      -5.818  67.719   9.199  1.00  0.00    -0.020 N 
ATOM     14  H8  UNL     1      -5.649  68.716   9.329  1.00  0.00     0.203 HD
ENDROOT
BRANCH  11  15
HETATM   15  C4  UNL     1      -4.930  68.466  11.871  1.00  0.00     0.140 A 
HETATM   16  C5  UNL     1      -5.602  69.211  12.809  1.00  0.00     0.144 A 
HETATM   17  N6  UNL     1      -4.973  70.388  12.909  1.00  0.00    -0.310 N 
HETATM   18  C6  UNL     1      -5.392  71.450  13.809  1.00  0.00     0.160 C 
HETATM   19  C7  UNL     1      -3.927  70.423  12.071  1.00  0.00     0.327 A 
HETATM   20  O1  UNL     1      -3.136  71.410  11.939  1.00  0.00    -0.246 OA
HETATM   21  N7  UNL     1      -3.904  69.249  11.440  1.00  0.00    -0.293 N 
ATOM     22  H7  UNL     1      -3.218  68.977  10.737  1.00  0.00     0.172 HD
ENDBRANCH  11  15
TORSDOF 1
ENDMDL
MODEL 5
REMARK VINA RESULT: -6.569556171      1.666      1.877
REMARK  1 active torsions:
REMARK  status: ('A' for Active; 'I' for Inactive)
REMARK    1  A    between atoms: N5_11  and  C4_13 
ROOT
HETATM    1  C1  UNL     1      -6.991  65.031   8.460  1.00  0.00     0.165 C 
HETATM    2  N1  UNL     1      -6.794  65.904   9.585  1.00  0.00    -0.229 N 
ATOM      3  H1  UNL     1      -7.505  65.934  10.316  1.00  0.00     0.177 HD
HETATM    4  C2  UNL     1      -5.731  66.663   9.704  1.00  0.00     0.705 C 
HETATM    5  N2  UNL     1      -4.714  66.658   8.718  1.00  0.00    -0.115 N 
ATOM      6  H2  UNL     1      -4.568  65.855   8.107  1.00  0.00     0.203 HD
HETATM    7  N3  UNL     1      -3.923  67.799   8.620  1.00  0.00     0.007 NA
HETATM    8  N4  UNL     1      -3.468  68.215   9.858  1.00  0.00    -0.115 N 
ATOM      9  H4  UNL     1      -2.484  68.441  10.004  1.00  0.00     0.203 HD
HETATM   10  C3  UNL     1      -4.425  68.323  10.945  1.00  0.00     0.711 C 
HETATM   11  N5  UNL     1      -4.205  69.119  11.910  1.00  0.00    -0.173 N 
ATOM     12  H5  UNL     1      -3.340  69.659  11.867  1.00  0.00     0.186 HD
HETATM   13  N8  UNL     1      -5.580  67.510  10.835  1.00  0.00    -0.020 N 
ATOM     14  H8  UNL     1      -6.297  67.532  11.560  1.00  0.00     0.203 HD
ENDROOT
BRANCH  11  15
HETATM   15  C4  UNL     1      -5.030  69.338  13.035  1.00  0.00     0.140 A 
HETATM   16  C5  UNL     1      -5.432  68.417  13.972  1.00  0.00     0.144 A 
HETATM   17  N6  UNL     1      -6.206  69.059  14.855  1.00  0.00    -0.310 N 
HETATM   18  C6  UNL     1      -6.822  68.414  16.004  1.00  0.00     0.160 C 
HETATM   19  C7  UNL     1      -6.313  70.353  14.519  1.00  0.00     0.327 A 
HETATM   20  O1  UNL     1      -6.983  71.218  15.166  1.00  0.00    -0.246 OA
HETATM   21  N7  UNL     1      -5.594  70.518  13.408  1.00  0.00    -0.293 N 
ATOM     22  H7  UNL     1      -5.483  71.401  12.910  1.00  0.00     0.172 HD
ENDBRANCH  11  15
TORSDOF 1
ENDMDL
