MODEL 1
REMARK VINA RESULT: -6.324065061      0.000      0.000
REMARK  4 active torsions:
REMARK  status: ('A' for Active; 'I' for Inactive)
REMARK    1  A    between atoms: C2_2  and  N1_3 
REMARK    2  A    between atoms: C6_7  and  C7_8 
REMARK    3  A    between atoms: C7_8  and  O1_10 
REMARK    4  A    between atoms: C7_8  and  C9_12 
ROOT
HETATM    1  C7  UNL     1      -4.229   3.051  14.525  1.00  0.00     0.065 C 
HETATM    2  C8  UNL     1      -5.057   4.357  14.703  1.00  0.00     0.047 C 
ENDROOT
BRANCH   1   3
HETATM    3  C6  UNL     1      -3.722   3.007  13.184  1.00  0.00     0.048 C 
HETATM    4  C5  UNL     1      -3.264   4.221  12.475  1.00  0.00     0.011 C 
HETATM    5  C4  UNL     1      -2.329   3.781  11.358  1.00  0.00     0.031 C 
HETATM    6  C3  UNL     1      -3.098   2.928  10.408  1.00  0.00     0.272 C 
HETATM    7  N1  UNL     1      -3.848   1.873  11.017  1.00  0.00     0.088 N 
HETATM    8  C14 UNL     1      -4.601   2.282  12.179  1.00  0.00     0.280 C 
BRANCH   7   9
HETATM    9  C2  UNL     1      -3.104   0.659  11.233  1.00  0.00     0.268 C 
HETATM   10  C1  UNL     1      -3.953  -0.544  11.498  1.00  0.00     0.037 C 
ENDBRANCH   7   9
ENDBRANCH   1   3
BRANCH   1  11
HETATM   11  O1  UNL     1      -3.129   3.274  15.400  1.00  0.00    -0.389 OA
ATOM     12  H1  UNL     1      -3.460   3.271  16.290  1.00  0.00     0.210 HD
ENDBRANCH   1  11
BRANCH   1  13
HETATM   13  C9  UNL     1      -5.091   2.040  15.153  1.00  0.00     0.046 C 
HETATM   14  C10 UNL     1      -6.354   2.438  15.796  1.00  0.00     0.011 C 
HETATM   15  C11 UNL     1      -6.431   2.216  17.283  1.00  0.00     0.028 C 
HETATM   16  C12 UNL     1      -5.745   0.960  17.741  1.00  0.00     0.232 C 
HETATM   17  N2  UNL     1      -5.333   0.164  16.599  1.00  0.00    -0.075 N 
HETATM   18  C13 UNL     1      -4.309   0.985  15.939  1.00  0.00     0.239 C 
ATOM     19  H22 UNL     1      -5.025  -0.779  16.835  1.00  0.00     0.277 HD
ATOM     20  H21 UNL     1      -6.099  -0.119  15.988  1.00  0.00     0.277 HD
ENDBRANCH   1  13
TORSDOF 4
ENDMDL
MODEL 2
REMARK VINA RESULT: -6.172391913      1.160      1.571
REMARK  4 active torsions:
REMARK  status: ('A' for Active; 'I' for Inactive)
REMARK    1  A    between atoms: C2_2  and  N1_3 
REMARK    2  A    between atoms: C6_7  and  C7_8 
REMARK    3  A    between atoms: C7_8  and  O1_10 
REMARK    4  A    between atoms: C7_8  and  C9_12 
ROOT
HETATM    1  C7  UNL     1      -4.701   3.531  14.133  1.00  0.00     0.065 C 
HETATM    2  C8  UNL     1      -6.156   3.857  13.688  1.00  0.00     0.047 C 
ENDROOT
BRANCH   1   3
HETATM    3  C6  UNL     1      -4.014   2.902  13.041  1.00  0.00     0.048 C 
HETATM    4  C5  UNL     1      -2.977   3.604  12.255  1.00  0.00     0.011 C 
HETATM    5  C4  UNL     1      -2.112   2.549  11.582  1.00  0.00     0.031 C 
HETATM    6  C3  UNL     1      -2.969   1.758  10.655  1.00  0.00     0.272 C 
HETATM    7  N1  UNL     1      -4.184   1.266  11.228  1.00  0.00     0.088 N 
HETATM    8  C14 UNL     1      -4.908   2.246  12.002  1.00  0.00     0.280 C 
BRANCH   7   9
HETATM    9  C2  UNL     1      -4.054   0.002  11.907  1.00  0.00     0.268 C 
HETATM   10  C1  UNL     1      -3.302  -1.036  11.136  1.00  0.00     0.037 C 
ENDBRANCH   7   9
ENDBRANCH   1   3
BRANCH   1  11
HETATM   11  O1  UNL     1      -4.144   4.828  14.309  1.00  0.00    -0.389 OA
ATOM     12  H1  UNL     1      -4.817   5.386  14.682  1.00  0.00     0.210 HD
ENDBRANCH   1  11
BRANCH   1  13
HETATM   13  C9  UNL     1      -4.899   2.954  15.471  1.00  0.00     0.046 C 
HETATM   14  C10 UNL     1      -4.081   1.813  15.915  1.00  0.00     0.011 C 
HETATM   15  C11 UNL     1      -4.827   0.530  16.167  1.00  0.00     0.028 C 
HETATM   16  C12 UNL     1      -6.186   0.732  16.775  1.00  0.00     0.232 C 
HETATM   17  N2  UNL     1      -6.370   2.124  17.148  1.00  0.00    -0.075 N 
HETATM   18  C13 UNL     1      -6.373   2.842  15.867  1.00  0.00     0.239 C 
ATOM     19  H22 UNL     1      -7.192   2.296  17.726  1.00  0.00     0.277 HD
ATOM     20  H21 UNL     1      -5.686   2.471  17.820  1.00  0.00     0.277 HD
ENDBRANCH   1  13
TORSDOF 4
ENDMDL
MODEL 3
REMARK VINA RESULT: -5.876538065      1.816      2.528
REMARK  4 active torsions:
REMARK  status: ('A' for Active; 'I' for Inactive)
REMARK    1  A    between atoms: C2_2  and  N1_3 
REMARK    2  A    between atoms: C6_7  and  C7_8 
REMARK    3  A    between atoms: C7_8  and  O1_10 
REMARK    4  A    between atoms: C7_8  and  C9_12 
ROOT
HETATM    1  C7  UNL     1      -4.511   2.819  13.857  1.00  0.00     0.065 C 
HETATM    2  C8  UNL     1      -4.265   1.336  13.454  1.00  0.00     0.047 C 
ENDROOT
BRANCH   1   3
HETATM    3  C6  UNL     1      -3.407   3.611  13.395  1.00  0.00     0.048 C 
HETATM    4  C5  UNL     1      -3.155   4.979  13.897  1.00  0.00     0.011 C 
HETATM    5  C4  UNL     1      -1.691   5.305  13.642  1.00  0.00     0.031 C 
HETATM    6  C3  UNL     1      -1.451   5.277  12.172  1.00  0.00     0.272 C 
HETATM    7  N1  UNL     1      -1.934   4.108  11.503  1.00  0.00     0.088 N 
HETATM    8  C14 UNL     1      -3.272   3.723  11.886  1.00  0.00     0.280 C 
BRANCH   7   9
HETATM    9  C2  UNL     1      -1.014   3.001  11.498  1.00  0.00     0.268 C 
HETATM   10  C1  UNL     1      -1.517   1.787  10.782  1.00  0.00     0.037 C 
ENDBRANCH   7   9
ENDBRANCH   1   3
BRANCH   1  11
HETATM   11  O1  UNL     1      -5.648   3.158  13.073  1.00  0.00    -0.389 OA
ATOM     12  H1  UNL     1      -5.343   3.625  12.304  1.00  0.00     0.210 HD
ENDBRANCH   1  11
BRANCH   1  13
HETATM   13  C9  UNL     1      -4.959   2.700  15.252  1.00  0.00     0.046 C 
HETATM   14  C10 UNL     1      -4.459   1.605  16.100  1.00  0.00     0.011 C 
HETATM   15  C11 UNL     1      -5.491   0.609  16.561  1.00  0.00     0.028 C 
HETATM   16  C12 UNL     1      -6.824   1.224  16.877  1.00  0.00     0.232 C 
HETATM   17  N2  UNL     1      -6.732   2.673  16.840  1.00  0.00    -0.075 N 
HETATM   18  C13 UNL     1      -6.453   2.980  15.431  1.00  0.00     0.239 C 
ATOM     19  H22 UNL     1      -7.549   3.154  17.219  1.00  0.00     0.277 HD
ATOM     20  H21 UNL     1      -6.057   3.067  17.495  1.00  0.00     0.277 HD
ENDBRANCH   1  13
TORSDOF 4
ENDMDL
MODEL 4
REMARK VINA RESULT: -5.874200776      2.201      5.095
REMARK  4 active torsions:
REMARK  status: ('A' for Active; 'I' for Inactive)
REMARK    1  A    between atoms: C2_2  and  N1_3 
REMARK    2  A    between atoms: C6_7  and  C7_8 
REMARK    3  A    between atoms: C7_8  and  O1_10 
REMARK    4  A    between atoms: C7_8  and  C9_12 
ROOT
HETATM    1  C7  UNL     1      -4.095   3.218  11.635  1.00  0.00     0.065 C 
HETATM    2  C8  UNL     1      -2.807   3.997  11.242  1.00  0.00     0.047 C 
ENDROOT
BRANCH   1   3
HETATM    3  C6  UNL     1      -4.829   3.995  12.592  1.00  0.00     0.048 C 
HETATM    4  C5  UNL     1      -5.138   5.424  12.374  1.00  0.00     0.011 C 
HETATM    5  C4  UNL     1      -6.327   5.782  13.253  1.00  0.00     0.031 C 
HETATM    6  C3  UNL     1      -5.937   5.584  14.677  1.00  0.00     0.272 C 
HETATM    7  N1  UNL     1      -5.331   4.320  14.967  1.00  0.00     0.088 N 
HETATM    8  C14 UNL     1      -4.315   3.925  14.020  1.00  0.00     0.280 C 
BRANCH   7   9
HETATM    9  C2  UNL     1      -6.265   3.263  15.257  1.00  0.00     0.268 C 
HETATM   10  C1  UNL     1      -5.672   2.104  15.994  1.00  0.00     0.037 C 
ENDBRANCH   7   9
ENDBRANCH   1   3
BRANCH   1  11
HETATM   11  O1  UNL     1      -4.829   3.219  10.417  1.00  0.00    -0.389 OA
ATOM     12  H1  UNL     1      -4.878   2.323  10.105  1.00  0.00     0.210 HD
ENDBRANCH   1  11
BRANCH   1  13
HETATM   13  C9  UNL     1      -3.590   1.853  11.842  1.00  0.00     0.046 C 
HETATM   14  C10 UNL     1      -2.212   1.505  11.456  1.00  0.00     0.011 C 
HETATM   15  C11 UNL     1      -2.076   0.492  10.352  1.00  0.00     0.028 C 
HETATM   16  C12 UNL     1      -3.114  -0.593  10.398  1.00  0.00     0.232 C 
HETATM   17  N2  UNL     1      -3.889  -0.499  11.622  1.00  0.00    -0.075 N 
HETATM   18  C13 UNL     1      -4.615   0.771  11.492  1.00  0.00     0.239 C 
ATOM     19  H22 UNL     1      -4.487  -1.306  11.803  1.00  0.00     0.277 HD
ATOM     20  H21 UNL     1      -3.335  -0.578  12.475  1.00  0.00     0.277 HD
ENDBRANCH   1  13
TORSDOF 4
ENDMDL
MODEL 5
REMARK VINA RESULT: -5.840313114      1.104      2.449
REMARK  4 active torsions:
REMARK  status: ('A' for Active; 'I' for Inactive)
REMARK    1  A    between atoms: C2_2  and  N1_3 
REMARK    2  A    between atoms: C6_7  and  C7_8 
REMARK    3  A    between atoms: C7_8  and  O1_10 
REMARK    4  A    between atoms: C7_8  and  C9_12 
ROOT
HETATM    1  C7  UNL     1      -4.475   3.072  14.539  1.00  0.00     0.065 C 
HETATM    2  C8  UNL     1      -5.271   4.351  14.932  1.00  0.00     0.047 C 
ENDROOT
BRANCH   1   3
HETATM    3  C6  UNL     1      -4.157   3.139  13.142  1.00  0.00     0.048 C 
HETATM    4  C5  UNL     1      -3.983   1.925  12.316  1.00  0.00     0.011 C 
HETATM    5  C4  UNL     1      -4.193   2.319  10.861  1.00  0.00     0.031 C 
HETATM    6  C3  UNL     1      -3.148   3.313  10.487  1.00  0.00     0.272 C 
HETATM    7  N1  UNL     1      -3.005   4.410  11.394  1.00  0.00     0.088 N 
HETATM    8  C14 UNL     1      -2.973   4.022  12.784  1.00  0.00     0.280 C 
BRANCH   7   9
HETATM    9  C2  UNL     1      -3.896   5.512  11.142  1.00  0.00     0.268 C 
HETATM   10  C1  UNL     1      -3.771   6.640  12.118  1.00  0.00     0.037 C 
ENDBRANCH   7   9
ENDBRANCH   1   3
BRANCH   1  11
HETATM   11  O1  UNL     1      -3.265   3.238  15.270  1.00  0.00    -0.389 OA
ATOM     12  H1  UNL     1      -3.379   3.975  15.859  1.00  0.00     0.210 HD
ENDBRANCH   1  11
BRANCH   1  13
HETATM   13  C9  UNL     1      -5.242   2.005  15.197  1.00  0.00     0.046 C 
HETATM   14  C10 UNL     1      -6.468   2.327  15.947  1.00  0.00     0.011 C 
HETATM   15  C11 UNL     1      -6.420   2.058  17.428  1.00  0.00     0.028 C 
HETATM   16  C12 UNL     1      -5.648   0.822  17.791  1.00  0.00     0.232 C 
HETATM   17  N2  UNL     1      -5.292   0.079  16.596  1.00  0.00    -0.075 N 
HETATM   18  C13 UNL     1      -4.357   0.964  15.887  1.00  0.00     0.239 C 
ATOM     19  H22 UNL     1      -4.926  -0.856  16.777  1.00  0.00     0.277 HD
ATOM     20  H21 UNL     1      -6.090  -0.220  16.036  1.00  0.00     0.277 HD
ENDBRANCH   1  13
TORSDOF 4
ENDMDL
