MODEL 1
REMARK VINA RESULT: -6.894374569      0.000      0.000
REMARK  3 active torsions:
REMARK  status: ('A' for Active; 'I' for Inactive)
REMARK    1  A    between atoms: N1_2  and  C3_4 
REMARK    2  A    between atoms: C3_4  and  C4_5 
REMARK    3  A    between atoms: C9_12  and  C10_13 
ROOT
HETATM    1  C4  UNL     1      -3.746   2.069  12.053  1.00  0.00     0.122 C 
HETATM    2  C5  UNL     1      -3.295   3.128  11.134  1.00  0.00     0.145 C 
HETATM    3  N2  UNL     1      -2.472   4.238  11.697  1.00  0.00    -0.400 N 
ATOM      4  H2  UNL     1      -1.820   4.849  11.207  1.00  0.00     0.158 HD
HETATM    5  C6  UNL     1      -2.791   4.243  13.006  1.00  0.00     0.055 C 
HETATM    6  C7  UNL     1      -2.758   4.638  14.351  1.00  0.00     0.046 C 
HETATM    7  C8  UNL     1      -3.614   3.531  15.052  1.00  0.00     0.030 C 
HETATM    8  C9  UNL     1      -4.627   2.877  14.260  1.00  0.00     0.081 C 
HETATM    9  N3  UNL     1      -4.546   2.092  13.129  1.00  0.00    -0.409 N 
ATOM     10  H3  UNL     1      -5.258   1.363  13.105  1.00  0.00     0.154 HD
ENDROOT
BRANCH   8  11
HETATM   11  C10 UNL     1      -5.421   1.998  15.223  1.00  0.00     0.008 C 
HETATM   12  C11 UNL     1      -4.539   1.341  16.274  1.00  0.00     0.007 C 
HETATM   13  C12 UNL     1      -5.605   0.668  17.135  1.00  0.00     0.000 C 
HETATM   14  C13 UNL     1      -6.875   1.496  16.955  1.00  0.00     0.000 C 
HETATM   15  C14 UNL     1      -6.411   2.678  16.077  1.00  0.00     0.007 C 
ENDBRANCH   8  11
BRANCH   1  16
HETATM   16  C3  UNL     1      -4.407   1.090  11.027  1.00  0.00     0.297 C 
BRANCH  16  17
HETATM   17  N1  UNL     1      -3.605  -0.046  10.805  1.00  0.00     0.082 N 
HETATM   18  C1  UNL     1      -3.988  -1.171  11.623  1.00  0.00     0.309 C 
HETATM   19  C2  UNL     1      -2.186   0.169  10.970  1.00  0.00     0.309 C 
ENDBRANCH  16  17
ENDBRANCH   1  16
TORSDOF 3
ENDMDL
MODEL 2
REMARK VINA RESULT: -6.743710950      0.975      1.261
REMARK  3 active torsions:
REMARK  status: ('A' for Active; 'I' for Inactive)
REMARK    1  A    between atoms: N1_2  and  C3_4 
REMARK    2  A    between atoms: C3_4  and  C4_5 
REMARK    3  A    between atoms: C9_12  and  C10_13 
ROOT
HETATM    1  C4  UNL     1      -4.108   2.647  12.032  1.00  0.00     0.122 C 
HETATM    2  C5  UNL     1      -4.071   3.645  10.949  1.00  0.00     0.145 C 
HETATM    3  N2  UNL     1      -3.786   5.063  11.316  1.00  0.00    -0.400 N 
ATOM      4  H2  UNL     1      -3.407   5.801  10.725  1.00  0.00     0.158 HD
HETATM    5  C6  UNL     1      -4.146   5.139  12.611  1.00  0.00     0.055 C 
HETATM    6  C7  UNL     1      -4.339   5.713  13.877  1.00  0.00     0.046 C 
HETATM    7  C8  UNL     1      -4.719   4.477  14.758  1.00  0.00     0.030 C 
HETATM    8  C9  UNL     1      -5.347   3.360  14.095  1.00  0.00     0.081 C 
HETATM    9  N3  UNL     1      -4.905   2.511  13.103  1.00  0.00    -0.409 N 
ATOM     10  H3  UNL     1      -5.265   1.563  13.206  1.00  0.00     0.154 HD
ENDROOT
BRANCH   8  11
HETATM   11  C10 UNL     1      -5.773   2.394  15.198  1.00  0.00     0.008 C 
HETATM   12  C11 UNL     1      -4.589   1.842  15.979  1.00  0.00     0.007 C 
HETATM   13  C12 UNL     1      -5.326   1.049  17.056  1.00  0.00     0.000 C 
HETATM   14  C13 UNL     1      -6.684   1.726  17.220  1.00  0.00     0.000 C 
HETATM   15  C14 UNL     1      -6.588   2.954  16.291  1.00  0.00     0.007 C 
ENDBRANCH   8  11
BRANCH   1  16
HETATM   16  C3  UNL     1      -4.273   1.341  11.186  1.00  0.00     0.297 C 
BRANCH  16  17
HETATM   17  N1  UNL     1      -3.372   0.340  11.597  1.00  0.00     0.082 N 
HETATM   18  C1  UNL     1      -2.083   0.450  10.957  1.00  0.00     0.309 C 
HETATM   19  C2  UNL     1      -3.847  -1.013  11.426  1.00  0.00     0.309 C 
ENDBRANCH  16  17
ENDBRANCH   1  16
TORSDOF 3
ENDMDL
MODEL 3
REMARK VINA RESULT: -6.645013788      0.863      1.131
REMARK  3 active torsions:
REMARK  status: ('A' for Active; 'I' for Inactive)
REMARK    1  A    between atoms: N1_2  and  C3_4 
REMARK    2  A    between atoms: C3_4  and  C4_5 
REMARK    3  A    between atoms: C9_12  and  C10_13 
ROOT
HETATM    1  C4  UNL     1      -2.520   2.128  12.099  1.00  0.00     0.122 C 
HETATM    2  C5  UNL     1      -2.039   3.066  11.070  1.00  0.00     0.145 C 
HETATM    3  N2  UNL     1      -1.584   4.416  11.514  1.00  0.00    -0.400 N 
ATOM      4  H2  UNL     1      -0.943   5.051  11.039  1.00  0.00     0.158 HD
HETATM    5  C6  UNL     1      -2.219   4.600  12.687  1.00  0.00     0.055 C 
HETATM    6  C7  UNL     1      -2.593   5.241  13.877  1.00  0.00     0.046 C 
HETATM    7  C8  UNL     1      -3.397   4.127  14.626  1.00  0.00     0.030 C 
HETATM    8  C9  UNL     1      -4.052   3.127  13.818  1.00  0.00     0.081 C 
HETATM    9  N3  UNL     1      -3.557   2.179  12.947  1.00  0.00    -0.409 N 
ATOM     10  H3  UNL     1      -4.106   1.320  12.949  1.00  0.00     0.154 HD
ENDROOT
BRANCH   8  11
HETATM   11  C10 UNL     1      -4.902   2.294  14.774  1.00  0.00     0.008 C 
HETATM   12  C11 UNL     1      -4.106   1.778  15.963  1.00  0.00     0.007 C 
HETATM   13  C12 UNL     1      -5.224   1.128  16.772  1.00  0.00     0.000 C 
HETATM   14  C13 UNL     1      -6.503   1.869  16.393  1.00  0.00     0.000 C 
HETATM   15  C14 UNL     1      -6.003   2.993  15.461  1.00  0.00     0.007 C 
ENDBRANCH   8  11
BRANCH   1  16
HETATM   16  C3  UNL     1      -2.725   0.851  11.220  1.00  0.00     0.297 C 
BRANCH  16  17
HETATM   17  N1  UNL     1      -3.970   0.242  11.473  1.00  0.00     0.082 N 
HETATM   18  C1  UNL     1      -3.860  -1.174  11.727  1.00  0.00     0.309 C 
HETATM   19  C2  UNL     1      -4.964   0.441  10.444  1.00  0.00     0.309 C 
ENDBRANCH  16  17
ENDBRANCH   1  16
TORSDOF 3
ENDMDL
MODEL 4
REMARK VINA RESULT: -6.571201119      1.550      1.769
REMARK  3 active torsions:
REMARK  status: ('A' for Active; 'I' for Inactive)
REMARK    1  A    between atoms: N1_2  and  C3_4 
REMARK    2  A    between atoms: C3_4  and  C4_5 
REMARK    3  A    between atoms: C9_12  and  C10_13 
ROOT
HETATM    1  C4  UNL     1      -4.052   3.082  12.633  1.00  0.00     0.122 C 
HETATM    2  C5  UNL     1      -4.207   3.931  11.439  1.00  0.00     0.145 C 
HETATM    3  N2  UNL     1      -4.670   5.336  11.636  1.00  0.00    -0.400 N 
ATOM      4  H2  UNL     1      -4.529   6.136  11.021  1.00  0.00     0.158 HD
HETATM    5  C6  UNL     1      -5.317   5.299  12.816  1.00  0.00     0.055 C 
HETATM    6  C7  UNL     1      -6.032   5.780  13.923  1.00  0.00     0.046 C 
HETATM    7  C8  UNL     1      -6.022   4.553  14.894  1.00  0.00     0.030 C 
HETATM    8  C9  UNL     1      -5.920   3.241  14.302  1.00  0.00     0.081 C 
HETATM    9  N3  UNL     1      -4.932   2.646  13.546  1.00  0.00    -0.409 N 
ATOM     10  H3  UNL     1      -4.852   1.645  13.722  1.00  0.00     0.154 HD
ENDROOT
BRANCH   8  11
HETATM   11  C10 UNL     1      -6.121   2.242  15.439  1.00  0.00     0.008 C 
HETATM   12  C11 UNL     1      -4.805   1.752  16.024  1.00  0.00     0.007 C 
HETATM   13  C12 UNL     1      -5.326   0.909  17.185  1.00  0.00     0.000 C 
HETATM   14  C13 UNL     1      -6.679   1.504  17.562  1.00  0.00     0.000 C 
HETATM   15  C14 UNL     1      -6.793   2.744  16.651  1.00  0.00     0.007 C 
ENDBRANCH   8  11
BRANCH   1  16
HETATM   16  C3  UNL     1      -3.424   1.810  11.976  1.00  0.00     0.297 C 
BRANCH  16  17
HETATM   17  N1  UNL     1      -4.371   0.777  11.837  1.00  0.00     0.082 N 
HETATM   18  C1  UNL     1      -3.910  -0.482  12.369  1.00  0.00     0.309 C 
HETATM   19  C2  UNL     1      -4.833   0.554  10.487  1.00  0.00     0.309 C 
ENDBRANCH  16  17
ENDBRANCH   1  16
TORSDOF 3
ENDMDL
MODEL 5
REMARK VINA RESULT: -6.568294839      2.856      4.664
REMARK  3 active torsions:
REMARK  status: ('A' for Active; 'I' for Inactive)
REMARK    1  A    between atoms: N1_2  and  C3_4 
REMARK    2  A    between atoms: C3_4  and  C4_5 
REMARK    3  A    between atoms: C9_12  and  C10_13 
ROOT
HETATM    1  C4  UNL     1      -4.714   2.615  12.435  1.00  0.00     0.122 C 
HETATM    2  C5  UNL     1      -4.112   1.776  13.485  1.00  0.00     0.145 C 
HETATM    3  N2  UNL     1      -4.734   1.801  14.841  1.00  0.00    -0.400 N 
ATOM      4  H2  UNL     1      -4.685   1.089  15.569  1.00  0.00     0.158 HD
HETATM    5  C6  UNL     1      -5.377   2.984  14.879  1.00  0.00     0.055 C 
HETATM    6  C7  UNL     1      -6.176   4.014  15.396  1.00  0.00     0.046 C 
HETATM    7  C8  UNL     1      -6.367   4.951  14.157  1.00  0.00     0.030 C 
HETATM    8  C9  UNL     1      -5.331   4.940  13.153  1.00  0.00     0.081 C 
HETATM    9  N3  UNL     1      -4.865   3.943  12.322  1.00  0.00    -0.409 N 
ATOM     10  H3  UNL     1      -4.567   4.296  11.413  1.00  0.00     0.154 HD
ENDROOT
BRANCH   8  11
HETATM   11  C10 UNL     1      -5.672   6.062  12.174  1.00  0.00     0.008 C 
HETATM   12  C11 UNL     1      -6.973   6.767  12.527  1.00  0.00     0.007 C 
HETATM   13  C12 UNL     1      -6.963   7.882  11.485  1.00  0.00     0.000 C 
HETATM   14  C13 UNL     1      -5.496   8.131  11.149  1.00  0.00     0.000 C 
HETATM   15  C14 UNL     1      -4.742   7.204  12.126  1.00  0.00     0.007 C 
ENDBRANCH   8  11
BRANCH   1  16
HETATM   16  C3  UNL     1      -3.861   2.158  11.206  1.00  0.00     0.297 C 
BRANCH  16  17
HETATM   17  N1  UNL     1      -3.628   0.769  11.226  1.00  0.00     0.082 N 
HETATM   18  C1  UNL     1      -2.297   0.418  10.795  1.00  0.00     0.309 C 
HETATM   19  C2  UNL     1      -4.571  -0.016  10.464  1.00  0.00     0.309 C 
ENDBRANCH  16  17
ENDBRANCH   1  16
TORSDOF 3
ENDMDL
