MODEL 1
REMARK VINA RESULT: -6.553999259      0.000      0.000
REMARK  5 active torsions:
REMARK  status: ('A' for Active; 'I' for Inactive)
REMARK    1  A    between atoms: O1_2  and  C2_3 
REMARK    2  A    between atoms: C11_14  and  O2_15 
REMARK    3  A    between atoms: C11_14  and  C12_17 
REMARK    4  A    between atoms: C12_17  and  C14_19 
REMARK    5  A    between atoms: C14_19  and  O3_20 
ROOT
HETATM    1  C2  UNL     1      -3.941   3.527  10.597  1.00  0.00     0.200 C 
HETATM    2  C3  UNL     1      -4.010   4.845  11.413  1.00  0.00     0.295 C 
HETATM    3  N1  UNL     1      -3.842   4.349  12.726  1.00  0.00     0.006 N 
HETATM    4  C4  UNL     1      -3.626   5.328  13.750  1.00  0.00     0.264 C 
HETATM    5  C5  UNL     1      -4.402   4.876  14.985  1.00  0.00     0.015 C 
HETATM    6  C6  UNL     1      -5.796   5.416  14.803  1.00  0.00     0.008 C 
HETATM    7  C7  UNL     1      -6.134   4.774  13.449  1.00  0.00     0.036 C 
HETATM    8  C8  UNL     1      -5.089   3.745  13.169  1.00  0.00     0.210 C 
HETATM    9  C9  UNL     1      -4.655   3.406  14.610  1.00  0.00     0.041 C 
HETATM   10  N2  UNL     1      -2.796   3.469  12.616  1.00  0.00    -0.110 NA
HETATM   11  C10 UNL     1      -1.518   4.116  12.753  1.00  0.00     0.147 C 
HETATM   12  C11 UNL     1      -2.885   2.776  11.345  1.00  0.00     0.171 C 
ENDROOT
BRANCH  12  13
HETATM   13  O2  UNL     1      -1.713   2.934  10.591  1.00  0.00    -0.371 OA
ATOM     14  H2  UNL     1      -1.707   2.204   9.983  1.00  0.00     0.212 HD
ENDBRANCH  12  13
BRANCH  12  15
HETATM   15  C12 UNL     1      -3.099   1.310  11.504  1.00  0.00     0.059 C 
HETATM   16  C13 UNL     1      -2.086   0.502  10.673  1.00  0.00     0.017 C 
BRANCH  15  17
HETATM   17  C14 UNL     1      -4.443   0.820  11.015  1.00  0.00     0.172 C 
BRANCH  17  18
HETATM   18  O3  UNL     1      -4.229   0.257   9.731  1.00  0.00    -0.400 OA
ATOM     19  H3  UNL     1      -3.773  -0.566   9.866  1.00  0.00     0.209 HD
ENDBRANCH  17  18
ENDBRANCH  15  17
ENDBRANCH  12  15
BRANCH   1  20
HETATM   20  O1  UNL     1      -3.602   3.840   9.282  1.00  0.00    -0.384 OA
HETATM   21  C1  UNL     1      -3.520   5.182   9.012  1.00  0.00     0.202 C 
ENDBRANCH   1  20
TORSDOF 5
ENDMDL
MODEL 2
REMARK VINA RESULT: -6.150822951      1.450      1.691
REMARK  5 active torsions:
REMARK  status: ('A' for Active; 'I' for Inactive)
REMARK    1  A    between atoms: O1_2  and  C2_3 
REMARK    2  A    between atoms: C11_14  and  O2_15 
REMARK    3  A    between atoms: C11_14  and  C12_17 
REMARK    4  A    between atoms: C12_17  and  C14_19 
REMARK    5  A    between atoms: C14_19  and  O3_20 
ROOT
HETATM    1  C2  UNL     1      -3.366   3.858  10.385  1.00  0.00     0.200 C 
HETATM    2  C3  UNL     1      -2.677   5.163  10.865  1.00  0.00     0.295 C 
HETATM    3  N1  UNL     1      -2.255   4.775  12.158  1.00  0.00     0.006 N 
HETATM    4  C4  UNL     1      -1.367   5.675  12.831  1.00  0.00     0.264 C 
HETATM    5  C5  UNL     1      -1.777   5.708  14.302  1.00  0.00     0.015 C 
HETATM    6  C6  UNL     1      -2.859   6.751  14.394  1.00  0.00     0.008 C 
HETATM    7  C7  UNL     1      -3.847   6.173  13.369  1.00  0.00     0.036 C 
HETATM    8  C8  UNL     1      -3.401   4.783  13.054  1.00  0.00     0.210 C 
HETATM    9  C9  UNL     1      -2.648   4.442  14.356  1.00  0.00     0.041 C 
HETATM   10  N2  UNL     1      -1.697   3.536  11.966  1.00  0.00    -0.110 NA
HETATM   11  C10 UNL     1      -0.309   3.612  11.593  1.00  0.00     0.147 C 
HETATM   12  C11 UNL     1      -2.458   2.818  10.963  1.00  0.00     0.171 C 
ENDROOT
BRANCH  12  13
HETATM   13  O2  UNL     1      -1.644   2.405   9.899  1.00  0.00    -0.371 OA
ATOM     14  H2  UNL     1      -1.193   3.190   9.609  1.00  0.00     0.212 HD
ENDBRANCH  12  13
BRANCH  12  15
HETATM   15  C12 UNL     1      -3.111   1.593  11.504  1.00  0.00     0.059 C 
HETATM   16  C13 UNL     1      -2.399   0.317  11.019  1.00  0.00     0.017 C 
BRANCH  15  17
HETATM   17  C14 UNL     1      -4.543   1.402  11.061  1.00  0.00     0.172 C 
BRANCH  17  18
HETATM   18  O3  UNL     1      -4.496   0.920   9.728  1.00  0.00    -0.400 OA
ATOM     19  H3  UNL     1      -3.789   1.385   9.294  1.00  0.00     0.209 HD
ENDBRANCH  17  18
ENDBRANCH  15  17
ENDBRANCH  12  15
BRANCH   1  20
HETATM   20  O1  UNL     1      -3.413   3.871   8.992  1.00  0.00    -0.384 OA
HETATM   21  C1  UNL     1      -3.093   5.074   8.416  1.00  0.00     0.202 C 
ENDBRANCH   1  20
TORSDOF 5
ENDMDL
MODEL 3
REMARK VINA RESULT: -6.058734183      1.190      2.691
REMARK  5 active torsions:
REMARK  status: ('A' for Active; 'I' for Inactive)
REMARK    1  A    between atoms: O1_2  and  C2_3 
REMARK    2  A    between atoms: C11_14  and  O2_15 
REMARK    3  A    between atoms: C11_14  and  C12_17 
REMARK    4  A    between atoms: C12_17  and  C14_19 
REMARK    5  A    between atoms: C14_19  and  O3_20 
ROOT
HETATM    1  C2  UNL     1      -3.903   1.986  11.465  1.00  0.00     0.200 C 
HETATM    2  C3  UNL     1      -5.213   2.668  11.940  1.00  0.00     0.295 C 
HETATM    3  N1  UNL     1      -4.689   3.755  12.677  1.00  0.00     0.006 N 
HETATM    4  C4  UNL     1      -5.631   4.754  13.088  1.00  0.00     0.264 C 
HETATM    5  C5  UNL     1      -5.248   5.190  14.501  1.00  0.00     0.015 C 
HETATM    6  C6  UNL     1      -5.927   4.211  15.421  1.00  0.00     0.008 C 
HETATM    7  C7  UNL     1      -5.336   2.904  14.871  1.00  0.00     0.036 C 
HETATM    8  C8  UNL     1      -4.210   3.272  13.962  1.00  0.00     0.210 C 
HETATM    9  C9  UNL     1      -3.814   4.636  14.563  1.00  0.00     0.041 C 
HETATM   10  N2  UNL     1      -3.709   4.265  11.863  1.00  0.00    -0.110 NA
HETATM   11  C10 UNL     1      -4.223   5.221  10.918  1.00  0.00     0.147 C 
HETATM   12  C11 UNL     1      -3.041   3.176  11.178  1.00  0.00     0.171 C 
ENDROOT
BRANCH  12  13
HETATM   13  O2  UNL     1      -3.088   3.339   9.786  1.00  0.00    -0.371 OA
ATOM     14  H2  UNL     1      -2.192   3.230   9.491  1.00  0.00     0.212 HD
ENDBRANCH  12  13
BRANCH  12  15
HETATM   15  C12 UNL     1      -1.603   3.059  11.549  1.00  0.00     0.059 C 
HETATM   16  C13 UNL     1      -1.042   4.403  12.049  1.00  0.00     0.017 C 
BRANCH  15  17
HETATM   17  C14 UNL     1      -0.691   2.689  10.401  1.00  0.00     0.172 C 
BRANCH  17  18
HETATM   18  O3  UNL     1      -1.154   1.447   9.897  1.00  0.00    -0.400 OA
ATOM     19  H3  UNL     1      -2.036   1.595   9.574  1.00  0.00     0.209 HD
ENDBRANCH  17  18
ENDBRANCH  15  17
ENDBRANCH  12  15
BRANCH   1  20
HETATM   20  O1  UNL     1      -4.193   1.203  10.349  1.00  0.00    -0.384 OA
HETATM   21  C1  UNL     1      -4.410  -0.125  10.617  1.00  0.00     0.202 C 
ENDBRANCH   1  20
TORSDOF 5
ENDMDL
MODEL 4
REMARK VINA RESULT: -5.980314163      1.716      3.375
REMARK  5 active torsions:
REMARK  status: ('A' for Active; 'I' for Inactive)
REMARK    1  A    between atoms: O1_2  and  C2_3 
REMARK    2  A    between atoms: C11_14  and  O2_15 
REMARK    3  A    between atoms: C11_14  and  C12_17 
REMARK    4  A    between atoms: C12_17  and  C14_19 
REMARK    5  A    between atoms: C14_19  and  O3_20 
ROOT
HETATM    1  C2  UNL     1      -4.474   3.427  12.709  1.00  0.00     0.200 C 
HETATM    2  C3  UNL     1      -4.074   4.901  12.436  1.00  0.00     0.295 C 
HETATM    3  N1  UNL     1      -2.828   4.719  11.795  1.00  0.00     0.006 N 
HETATM    4  C4  UNL     1      -2.253   5.882  11.186  1.00  0.00     0.264 C 
HETATM    5  C5  UNL     1      -0.749   5.839  11.447  1.00  0.00     0.015 C 
HETATM    6  C6  UNL     1      -0.556   6.484  12.794  1.00  0.00     0.008 C 
HETATM    7  C7  UNL     1      -1.473   5.581  13.633  1.00  0.00     0.036 C 
HETATM    8  C8  UNL     1      -1.822   4.395  12.794  1.00  0.00     0.210 C 
HETATM    9  C9  UNL     1      -0.599   4.364  11.855  1.00  0.00     0.041 C 
HETATM   10  N2  UNL     1      -3.065   3.718  10.887  1.00  0.00    -0.110 NA
HETATM   11  C10 UNL     1      -3.576   4.219   9.639  1.00  0.00     0.147 C 
HETATM   12  C11 UNL     1      -3.982   2.755  11.465  1.00  0.00     0.171 C 
ENDROOT
BRANCH  12  13
HETATM   13  O2  UNL     1      -5.120   2.584  10.663  1.00  0.00    -0.371 OA
ATOM     14  H2  UNL     1      -4.802   2.188   9.860  1.00  0.00     0.212 HD
ENDBRANCH  12  13
BRANCH  12  15
HETATM   15  C12 UNL     1      -3.369   1.408  11.636  1.00  0.00     0.059 C 
HETATM   16  C13 UNL     1      -2.097   1.258  10.781  1.00  0.00     0.017 C 
BRANCH  15  17
HETATM   17  C14 UNL     1      -4.247   0.262  11.186  1.00  0.00     0.172 C 
BRANCH  17  18
HETATM   18  O3  UNL     1      -4.167   0.219   9.771  1.00  0.00    -0.400 OA
ATOM     19  H3  UNL     1      -3.501  -0.424   9.554  1.00  0.00     0.209 HD
ENDBRANCH  17  18
ENDBRANCH  15  17
ENDBRANCH  12  15
BRANCH   1  20
HETATM   20  O1  UNL     1      -5.856   3.369  12.886  1.00  0.00    -0.384 OA
HETATM   21  C1  UNL     1      -6.347   4.208  13.854  1.00  0.00     0.202 C 
ENDBRANCH   1  20
TORSDOF 5
ENDMDL
MODEL 5
REMARK VINA RESULT: -5.772222532      1.384      2.889
REMARK  5 active torsions:
REMARK  status: ('A' for Active; 'I' for Inactive)
REMARK    1  A    between atoms: O1_2  and  C2_3 
REMARK    2  A    between atoms: C11_14  and  O2_15 
REMARK    3  A    between atoms: C11_14  and  C12_17 
REMARK    4  A    between atoms: C12_17  and  C14_19 
REMARK    5  A    between atoms: C14_19  and  O3_20 
ROOT
HETATM    1  C2  UNL     1      -3.746   2.159  11.062  1.00  0.00     0.200 C 
HETATM    2  C3  UNL     1      -5.055   2.594  11.772  1.00  0.00     0.295 C 
HETATM    3  N1  UNL     1      -4.614   3.755  12.447  1.00  0.00     0.006 N 
HETATM    4  C4  UNL     1      -5.633   4.567  13.043  1.00  0.00     0.264 C 
HETATM    5  C5  UNL     1      -5.097   5.060  14.386  1.00  0.00     0.015 C 
HETATM    6  C6  UNL     1      -5.426   3.973  15.374  1.00  0.00     0.008 C 
HETATM    7  C7  UNL     1      -4.716   2.795  14.688  1.00  0.00     0.036 C 
HETATM    8  C8  UNL     1      -3.844   3.361  13.617  1.00  0.00     0.210 C 
HETATM    9  C9  UNL     1      -3.599   4.772  14.189  1.00  0.00     0.041 C 
HETATM   10  N2  UNL     1      -3.893   4.435  11.499  1.00  0.00    -0.110 NA
HETATM   11  C10 UNL     1      -4.721   5.285  10.685  1.00  0.00     0.147 C 
HETATM   12  C11 UNL     1      -3.170   3.486  10.675  1.00  0.00     0.171 C 
ENDROOT
BRANCH  12  13
HETATM   13  O2  UNL     1      -3.482   3.642   9.317  1.00  0.00    -0.371 OA
ATOM     14  H2  UNL     1      -3.308   4.556   9.124  1.00  0.00     0.212 HD
ENDBRANCH  12  13
BRANCH  12  15
HETATM   15  C12 UNL     1      -1.692   3.628  10.795  1.00  0.00     0.059 C 
HETATM   16  C13 UNL     1      -1.040   3.891   9.425  1.00  0.00     0.017 C 
BRANCH  15  17
HETATM   17  C14 UNL     1      -0.985   2.392  11.303  1.00  0.00     0.172 C 
BRANCH  17  18
HETATM   18  O3  UNL     1      -0.147   2.811  12.368  1.00  0.00    -0.400 OA
ATOM     19  H3  UNL     1       0.703   2.412  12.219  1.00  0.00     0.209 HD
ENDBRANCH  17  18
ENDBRANCH  15  17
ENDBRANCH  12  15
BRANCH   1  20
HETATM   20  O1  UNL     1      -4.079   1.340   9.984  1.00  0.00    -0.384 OA
HETATM   21  C1  UNL     1      -4.351   0.037  10.314  1.00  0.00     0.202 C 
ENDBRANCH   1  20
TORSDOF 5
ENDMDL
