MODEL 1
REMARK VINA RESULT: -6.362741131      0.000      0.000
REMARK  6 active torsions:
REMARK  status: ('A' for Active; 'I' for Inactive)
REMARK    1  A    between atoms: C3_3  and  C4_4 
REMARK    2  A    between atoms: C4_4  and  O1_5 
REMARK    3  A    between atoms: O1_5  and  C5_6 
REMARK    4  A    between atoms: C5_6  and  C6_7 
REMARK    5  A    between atoms: C17_22  and  C18_23 
REMARK    6  A    between atoms: C20_27  and  O4_28 
ROOT
HETATM    1  C1  UNL     1      -1.144  11.301  72.886  1.00  0.00     0.012 C 
HETATM    2  C2  UNL     1      -0.461  10.399  73.299  1.00  0.00    -0.115 C 
HETATM    3  C3  UNL     1       0.367   9.294  73.777  1.00  0.00     0.119 C 
ENDROOT
BRANCH   3   4
HETATM    4  C4  UNL     1      -0.269   7.951  73.261  1.00  0.00     0.179 C 
BRANCH   4   5
HETATM    5  O1  UNL     1      -1.473   7.783  73.733  1.00  0.00    -0.388 OA
BRANCH   5   6
HETATM    6  C5  UNL     1      -1.934   7.166  74.761  1.00  0.00     0.199 C 
BRANCH   6   7
HETATM    7  C6  UNL     1      -2.390   7.873  76.028  1.00  0.00     0.148 C 
HETATM    8  C7  UNL     1      -3.758   7.376  76.353  1.00  0.00     0.039 C 
HETATM    9  C8  UNL     1      -4.395   7.788  77.644  1.00  0.00    -0.007 C 
HETATM   10  C9  UNL     1      -4.713   6.889  78.747  1.00  0.00     0.035 C 
HETATM   11  C19 UNL     1      -3.379   8.694  78.207  1.00  0.00     0.052 C 
HETATM   12  C10 UNL     1      -4.270   7.377  80.140  1.00  0.00     0.032 C 
HETATM   13  C11 UNL     1      -5.267   8.446  80.627  1.00  0.00     0.039 C 
HETATM   14  C12 UNL     1      -4.405   6.305  81.152  1.00  0.00     0.031 C 
HETATM   15  N2  UNL     1      -2.881   7.902  80.131  1.00  0.00    -0.338 N 
HETATM   16  C13 UNL     1      -3.862   6.491  82.491  1.00  0.00     0.003 C 
HETATM   17  C14 UNL     1      -3.727   7.815  83.101  1.00  0.00     0.007 C 
HETATM   18  C15 UNL     1      -2.633   8.691  82.570  1.00  0.00     0.076 C 
HETATM   19  C16 UNL     1      -2.175   8.382  81.206  1.00  0.00     0.074 C 
HETATM   20  N1  UNL     1      -0.930   8.588  80.954  1.00  0.00    -0.389 N 
ATOM     21  H12 UNL     1      -0.406   8.944  81.753  1.00  0.00     0.157 HD
ATOM     22  H11 UNL     1      -0.613   8.374  80.008  1.00  0.00     0.157 HD
HETATM   23  C17 UNL     1      -2.352   7.864  78.834  1.00  0.00     0.173 C 
HETATM   24  C20 UNL     1      -1.221   8.390  78.095  1.00  0.00     0.298 C 
HETATM   25  O5  UNL     1      -1.356   7.682  76.864  1.00  0.00    -0.351 OA
BRANCH  23  26
HETATM   26  C18 UNL     1      -1.977   6.510  78.792  1.00  0.00     0.208 C 
HETATM   27  O2  UNL     1      -0.876   6.170  79.303  1.00  0.00    -0.646 OA
HETATM   28  O3  UNL     1      -2.457   5.301  78.330  1.00  0.00    -0.646 OA
ENDBRANCH  23  26
BRANCH  24  29
HETATM   29  O4  UNL     1      -1.206   9.717  77.723  1.00  0.00    -0.363 OA
HETATM   30  C21 UNL     1       0.037  10.195  77.386  1.00  0.00     0.204 C 
ENDBRANCH  24  29
ENDBRANCH   6   7
ENDBRANCH   5   6
ENDBRANCH   4   5
ENDBRANCH   3   4
TORSDOF 6
ENDMDL
MODEL 2
REMARK VINA RESULT: -6.344744242      0.891      1.014
REMARK  6 active torsions:
REMARK  status: ('A' for Active; 'I' for Inactive)
REMARK    1  A    between atoms: C3_3  and  C4_4 
REMARK    2  A    between atoms: C4_4  and  O1_5 
REMARK    3  A    between atoms: O1_5  and  C5_6 
REMARK    4  A    between atoms: C5_6  and  C6_7 
REMARK    5  A    between atoms: C17_22  and  C18_23 
REMARK    6  A    between atoms: C20_27  and  O4_28 
ROOT
HETATM    1  C1  UNL     1      -1.486  12.863  72.404  1.00  0.00     0.012 C 
HETATM    2  C2  UNL     1      -1.165  11.713  72.563  1.00  0.00    -0.115 C 
HETATM    3  C3  UNL     1      -0.801  10.311  72.759  1.00  0.00     0.119 C 
ENDROOT
BRANCH   3   4
HETATM    4  C4  UNL     1      -1.568   9.783  74.027  1.00  0.00     0.179 C 
BRANCH   4   5
HETATM    5  O1  UNL     1      -1.638   8.480  74.030  1.00  0.00    -0.388 OA
BRANCH   5   6
HETATM    6  C5  UNL     1      -2.041   7.626  74.901  1.00  0.00     0.199 C 
BRANCH   6   7
HETATM    7  C6  UNL     1      -2.531   8.012  76.289  1.00  0.00     0.148 C 
HETATM    8  C7  UNL     1      -3.791   7.258  76.548  1.00  0.00     0.039 C 
HETATM    9  C8  UNL     1      -4.413   7.325  77.908  1.00  0.00    -0.007 C 
HETATM   10  C9  UNL     1      -4.536   6.203  78.831  1.00  0.00     0.035 C 
HETATM   11  C19 UNL     1      -3.515   8.262  78.606  1.00  0.00     0.052 C 
HETATM   12  C10 UNL     1      -4.097   6.494  80.280  1.00  0.00     0.032 C 
HETATM   13  C11 UNL     1      -5.216   7.288  80.982  1.00  0.00     0.039 C 
HETATM   14  C12 UNL     1      -4.019   5.248  81.076  1.00  0.00     0.031 C 
HETATM   15  N2  UNL     1      -2.805   7.222  80.335  1.00  0.00    -0.338 N 
HETATM   16  C13 UNL     1      -3.440   5.272  82.413  1.00  0.00     0.003 C 
HETATM   17  C14 UNL     1      -3.472   6.467  83.256  1.00  0.00     0.007 C 
HETATM   18  C15 UNL     1      -2.549   7.584  82.872  1.00  0.00     0.076 C 
HETATM   19  C16 UNL     1      -2.123   7.603  81.464  1.00  0.00     0.074 C 
HETATM   20  N1  UNL     1      -0.937   8.042  81.225  1.00  0.00    -0.389 N 
ATOM     21  H12 UNL     1      -0.430   8.325  82.064  1.00  0.00     0.157 HD
ATOM     22  H11 UNL     1      -0.642   8.055  80.249  1.00  0.00     0.157 HD
HETATM   23  C17 UNL     1      -2.345   7.502  79.042  1.00  0.00     0.173 C 
HETATM   24  C20 UNL     1      -1.345   8.323  78.387  1.00  0.00     0.298 C 
HETATM   25  O5  UNL     1      -1.438   7.836  77.049  1.00  0.00    -0.351 OA
BRANCH  23  26
HETATM   26  C18 UNL     1      -1.776   6.253  78.738  1.00  0.00     0.208 C 
HETATM   27  O2  UNL     1      -0.613   6.000  79.154  1.00  0.00    -0.646 OA
HETATM   28  O3  UNL     1      -2.093   5.089  78.068  1.00  0.00    -0.646 OA
ENDBRANCH  23  26
BRANCH  24  29
HETATM   29  O4  UNL     1      -1.547   9.681  78.270  1.00  0.00    -0.363 OA
HETATM   30  C21 UNL     1      -0.394  10.411  78.114  1.00  0.00     0.204 C 
ENDBRANCH  24  29
ENDBRANCH   6   7
ENDBRANCH   5   6
ENDBRANCH   4   5
ENDBRANCH   3   4
TORSDOF 6
ENDMDL
MODEL 3
REMARK VINA RESULT: -5.739506360      1.435      1.955
REMARK  6 active torsions:
REMARK  status: ('A' for Active; 'I' for Inactive)
REMARK    1  A    between atoms: C3_3  and  C4_4 
REMARK    2  A    between atoms: C4_4  and  O1_5 
REMARK    3  A    between atoms: O1_5  and  C5_6 
REMARK    4  A    between atoms: C5_6  and  C6_7 
REMARK    5  A    between atoms: C17_22  and  C18_23 
REMARK    6  A    between atoms: C20_27  and  O4_28 
ROOT
HETATM    1  C1  UNL     1       0.353   7.819  72.500  1.00  0.00     0.012 C 
HETATM    2  C2  UNL     1      -0.007   6.695  72.257  1.00  0.00    -0.115 C 
HETATM    3  C3  UNL     1      -0.466   5.337  71.974  1.00  0.00     0.119 C 
ENDROOT
BRANCH   3   4
HETATM    4  C4  UNL     1      -1.118   4.761  73.284  1.00  0.00     0.179 C 
BRANCH   4   5
HETATM    5  O1  UNL     1      -2.031   5.566  73.753  1.00  0.00    -0.388 OA
BRANCH   5   6
HETATM    6  C5  UNL     1      -2.954   5.425  74.635  1.00  0.00     0.199 C 
BRANCH   6   7
HETATM    7  C6  UNL     1      -3.312   6.500  75.651  1.00  0.00     0.148 C 
HETATM    8  C7  UNL     1      -4.416   5.967  76.501  1.00  0.00     0.039 C 
HETATM    9  C8  UNL     1      -4.865   6.755  77.691  1.00  0.00    -0.007 C 
HETATM   10  C9  UNL     1      -4.718   6.336  79.080  1.00  0.00     0.035 C 
HETATM   11  C19 UNL     1      -4.020   7.959  77.593  1.00  0.00     0.052 C 
HETATM   12  C10 UNL     1      -4.143   7.404  80.031  1.00  0.00     0.032 C 
HETATM   13  C11 UNL     1      -5.260   8.407  80.376  1.00  0.00     0.039 C 
HETATM   14  C12 UNL     1      -3.797   6.819  81.347  1.00  0.00     0.031 C 
HETATM   15  N2  UNL     1      -2.964   8.092  79.448  1.00  0.00    -0.338 N 
HETATM   16  C13 UNL     1      -3.063   7.609  82.326  1.00  0.00     0.003 C 
HETATM   17  C14 UNL     1      -3.149   9.069  82.373  1.00  0.00     0.007 C 
HETATM   18  C15 UNL     1      -2.441   9.819  81.286  1.00  0.00     0.076 C 
HETATM   19  C16 UNL     1      -2.202   9.066  80.045  1.00  0.00     0.074 C 
HETATM   20  N1  UNL     1      -1.126   9.347  79.397  1.00  0.00    -0.389 N 
ATOM     21  H12 UNL     1      -0.560  10.070  79.839  1.00  0.00     0.157 HD
ATOM     22  H11 UNL     1      -0.961   8.824  78.536  1.00  0.00     0.157 HD
HETATM   23  C17 UNL     1      -2.713   7.621  78.153  1.00  0.00     0.173 C 
HETATM   24  C20 UNL     1      -1.923   7.978  76.990  1.00  0.00     0.298 C 
HETATM   25  O5  UNL     1      -2.118   6.824  76.174  1.00  0.00    -0.351 OA
BRANCH  23  26
HETATM   26  C18 UNL     1      -2.023   6.441  78.480  1.00  0.00     0.208 C 
HETATM   27  O2  UNL     1      -0.833   6.527  78.886  1.00  0.00    -0.646 OA
HETATM   28  O3  UNL     1      -2.232   5.077  78.509  1.00  0.00    -0.646 OA
ENDBRANCH  23  26
BRANCH  24  29
HETATM   29  O4  UNL     1      -2.319   9.029  76.192  1.00  0.00    -0.363 OA
HETATM   30  C21 UNL     1      -1.370   9.442  75.290  1.00  0.00     0.204 C 
ENDBRANCH  24  29
ENDBRANCH   6   7
ENDBRANCH   5   6
ENDBRANCH   4   5
ENDBRANCH   3   4
TORSDOF 6
ENDMDL
MODEL 4
REMARK VINA RESULT: -5.585114661      1.594      2.912
REMARK  6 active torsions:
REMARK  status: ('A' for Active; 'I' for Inactive)
REMARK    1  A    between atoms: C3_3  and  C4_4 
REMARK    2  A    between atoms: C4_4  and  O1_5 
REMARK    3  A    between atoms: O1_5  and  C5_6 
REMARK    4  A    between atoms: C5_6  and  C6_7 
REMARK    5  A    between atoms: C17_22  and  C18_23 
REMARK    6  A    between atoms: C20_27  and  O4_28 
ROOT
HETATM    1  C1  UNL     1      -1.427  12.361  72.568  1.00  0.00     0.012 C 
HETATM    2  C2  UNL     1      -1.094  11.290  73.009  1.00  0.00    -0.115 C 
HETATM    3  C3  UNL     1      -0.713   9.982  73.537  1.00  0.00     0.119 C 
ENDROOT
BRANCH   3   4
HETATM    4  C4  UNL     1      -1.936   9.407  74.342  1.00  0.00     0.179 C 
BRANCH   4   5
HETATM    5  O1  UNL     1      -1.721   9.453  75.628  1.00  0.00    -0.388 OA
BRANCH   5   6
HETATM    6  C5  UNL     1      -0.745   9.065  76.368  1.00  0.00     0.199 C 
BRANCH   6   7
HETATM    7  C6  UNL     1      -0.914   8.630  77.817  1.00  0.00     0.148 C 
HETATM    8  C7  UNL     1      -1.400   9.809  78.588  1.00  0.00     0.039 C 
HETATM    9  C8  UNL     1      -1.803   9.629  80.018  1.00  0.00    -0.007 C 
HETATM   10  C9  UNL     1      -3.158   9.785  80.535  1.00  0.00     0.035 C 
HETATM   11  C19 UNL     1      -1.502   8.203  80.240  1.00  0.00     0.052 C 
HETATM   12  C10 UNL     1      -3.646   8.648  81.453  1.00  0.00     0.032 C 
HETATM   13  C11 UNL     1      -3.014   8.837  82.847  1.00  0.00     0.039 C 
HETATM   14  C12 UNL     1      -5.097   8.762  81.723  1.00  0.00     0.031 C 
HETATM   15  N2  UNL     1      -3.330   7.308  80.897  1.00  0.00    -0.338 N 
HETATM   16  C13 UNL     1      -5.799   7.686  82.409  1.00  0.00     0.003 C 
HETATM   17  C14 UNL     1      -5.127   6.796  83.358  1.00  0.00     0.007 C 
HETATM   18  C15 UNL     1      -4.196   5.776  82.777  1.00  0.00     0.076 C 
HETATM   19  C16 UNL     1      -3.653   6.092  81.447  1.00  0.00     0.074 C 
HETATM   20  N1  UNL     1      -3.433   5.098  80.661  1.00  0.00    -0.389 N 
ATOM     21  H12 UNL     1      -3.673   4.194  81.069  1.00  0.00     0.157 HD
ATOM     22  H11 UNL     1      -3.056   5.317  79.739  1.00  0.00     0.157 HD
HETATM   23  C17 UNL     1      -2.618   7.431  79.697  1.00  0.00     0.173 C 
HETATM   24  C20 UNL     1      -1.841   6.606  78.793  1.00  0.00     0.298 C 
HETATM   25  O5  UNL     1      -1.650   7.511  77.707  1.00  0.00    -0.351 OA
BRANCH  23  26
HETATM   26  C18 UNL     1      -3.696   7.680  78.830  1.00  0.00     0.208 C 
HETATM   27  O2  UNL     1      -4.619   6.825  78.751  1.00  0.00    -0.646 OA
HETATM   28  O3  UNL     1      -4.129   8.643  77.941  1.00  0.00    -0.646 OA
ENDBRANCH  23  26
BRANCH  24  29
HETATM   29  O4  UNL     1      -0.565   6.223  79.144  1.00  0.00    -0.363 OA
HETATM   30  C21 UNL     1      -0.400   4.866  79.275  1.00  0.00     0.204 C 
ENDBRANCH  24  29
ENDBRANCH   6   7
ENDBRANCH   5   6
ENDBRANCH   4   5
ENDBRANCH   3   4
TORSDOF 6
ENDMDL
MODEL 5
REMARK VINA RESULT: -5.565661415      1.717      2.828
REMARK  6 active torsions:
REMARK  status: ('A' for Active; 'I' for Inactive)
REMARK    1  A    between atoms: C3_3  and  C4_4 
REMARK    2  A    between atoms: C4_4  and  O1_5 
REMARK    3  A    between atoms: O1_5  and  C5_6 
REMARK    4  A    between atoms: C5_6  and  C6_7 
REMARK    5  A    between atoms: C17_22  and  C18_23 
REMARK    6  A    between atoms: C20_27  and  O4_28 
ROOT
HETATM    1  C1  UNL     1      -1.288  12.728  72.525  1.00  0.00     0.012 C 
HETATM    2  C2  UNL     1      -1.280  11.579  72.889  1.00  0.00    -0.115 C 
HETATM    3  C3  UNL     1      -1.270  10.194  73.354  1.00  0.00     0.119 C 
ENDROOT
BRANCH   3   4
HETATM    4  C4  UNL     1      -0.197  10.073  74.498  1.00  0.00     0.179 C 
BRANCH   4   5
HETATM    5  O1  UNL     1      -0.608   9.284  75.452  1.00  0.00    -0.388 OA
BRANCH   5   6
HETATM    6  C5  UNL     1      -0.763   9.446  76.717  1.00  0.00     0.199 C 
BRANCH   6   7
HETATM    7  C6  UNL     1      -2.041   9.080  77.458  1.00  0.00     0.148 C 
HETATM    8  C7  UNL     1      -2.991   8.507  76.462  1.00  0.00     0.039 C 
HETATM    9  C8  UNL     1      -4.279   7.914  76.940  1.00  0.00    -0.007 C 
HETATM   10  C9  UNL     1      -4.639   6.504  76.849  1.00  0.00     0.035 C 
HETATM   11  C19 UNL     1      -4.209   8.168  78.390  1.00  0.00     0.052 C 
HETATM   12  C10 UNL     1      -5.205   5.886  78.142  1.00  0.00     0.032 C 
HETATM   13  C11 UNL     1      -6.674   6.326  78.295  1.00  0.00     0.039 C 
HETATM   14  C12 UNL     1      -5.305   4.412  78.033  1.00  0.00     0.031 C 
HETATM   15  N2  UNL     1      -4.405   6.259  79.335  1.00  0.00    -0.338 N 
HETATM   16  C13 UNL     1      -5.634   3.613  79.206  1.00  0.00     0.003 C 
HETATM   17  C14 UNL     1      -6.434   4.143  80.311  1.00  0.00     0.007 C 
HETATM   18  C15 UNL     1      -5.761   5.133  81.213  1.00  0.00     0.076 C 
HETATM   19  C16 UNL     1      -4.619   5.853  80.629  1.00  0.00     0.074 C 
HETATM   20  N1  UNL     1      -3.662   6.166  81.431  1.00  0.00    -0.389 N 
ATOM     21  H12 UNL     1      -3.821   5.864  82.393  1.00  0.00     0.157 HD
ATOM     22  H11 UNL     1      -2.870   6.665  81.026  1.00  0.00     0.157 HD
HETATM   23  C17 UNL     1      -3.366   7.127  78.976  1.00  0.00     0.173 C 
HETATM   24  C20 UNL     1      -2.405   8.010  79.609  1.00  0.00     0.298 C 
HETATM   25  O5  UNL     1      -1.586   8.354  78.493  1.00  0.00    -0.351 OA
BRANCH  23  26
HETATM   26  C18 UNL     1      -2.446   6.178  78.497  1.00  0.00     0.208 C 
HETATM   27  O2  UNL     1      -1.556   5.748  79.280  1.00  0.00    -0.646 OA
HETATM   28  O3  UNL     1      -2.158   5.487  77.338  1.00  0.00    -0.646 OA
ENDBRANCH  23  26
BRANCH  24  29
HETATM   29  O4  UNL     1      -2.821   9.223  80.112  1.00  0.00    -0.363 OA
HETATM   30  C21 UNL     1      -2.475   9.438  81.424  1.00  0.00     0.204 C 
ENDBRANCH  24  29
ENDBRANCH   6   7
ENDBRANCH   5   6
ENDBRANCH   4   5
ENDBRANCH   3   4
TORSDOF 6
ENDMDL
