MODEL 1
REMARK VINA RESULT: -7.256070784      0.000      0.000
REMARK  9 active torsions:
REMARK  status: ('A' for Active; 'I' for Inactive)
REMARK    1  A    between atoms: C2_2  and  C3_3 
REMARK    2  A    between atoms: C3_3  and  C4_4 
REMARK    3  A    between atoms: C4_4  and  C5_5 
REMARK    4  A    between atoms: C8_11  and  S1_12 
REMARK    5  A    between atoms: S1_12  and  C9_13 
REMARK    6  A    between atoms: C9_13  and  C10_14 
REMARK       I    between atoms: C10_14  and  N2_16 
REMARK    7  A    between atoms: N2_16  and  C11_18 
REMARK    8  A    between atoms: C13_20  and  C14_21 
REMARK    9  A    between atoms: N5_29  and  C18_30 
ROOT
HETATM    1  C9  UNL     1      -0.090   6.199  71.054  1.00  0.00     0.185 C 
ENDROOT
BRANCH   1   2
HETATM    2  S1  UNL     1       0.835   7.438  71.941  1.00  0.00    -0.084 SA
BRANCH   2   3
HETATM    3  C8  UNL     1      -0.180   8.682  72.685  1.00  0.00     0.150 A 
HETATM    4  N1  UNL     1      -0.911   8.517  73.775  1.00  0.00    -0.304 N 
HETATM    5  C7  UNL     1      -1.670   9.469  74.320  1.00  0.00     0.249 A 
ATOM      6  H1  UNL     1      -0.893   7.604  74.228  1.00  0.00     0.171 HD
HETATM    7  C6  UNL     1      -1.712  10.704  73.734  1.00  0.00     0.099 A 
HETATM    8  O1  UNL     1      -2.349   9.238  75.373  1.00  0.00    -0.268 OA
HETATM    9  C5  UNL     1      -0.947  10.918  72.573  1.00  0.00     0.019 A 
HETATM   10  N5  UNL     1      -0.211   9.916  72.087  1.00  0.00    -0.331 N 
BRANCH   9  11
HETATM   11  C4  UNL     1      -1.022  12.283  72.040  1.00  0.00     0.057 C 
BRANCH  11  12
HETATM   12  C3  UNL     1      -0.508  13.253  73.071  1.00  0.00     0.006 C 
BRANCH  12  13
HETATM   13  C2  UNL     1       0.625  14.104  72.523  1.00  0.00    -0.004 C 
HETATM   14  C1  UNL     1       0.782  15.391  73.281  1.00  0.00     0.005 C 
ENDBRANCH  12  13
ENDBRANCH  11  12
ENDBRANCH   9  11
BRANCH  10  15
HETATM   15  C18 UNL     1       0.585  10.123  70.921  1.00  0.00     0.126 C 
HETATM   16  C19 UNL     1       1.902  10.768  71.168  1.00  0.00     0.027 C 
ENDBRANCH  10  15
ENDBRANCH   2   3
ENDBRANCH   1   2
BRANCH   1  17
HETATM   17  C10 UNL     1      -0.126   6.410  69.600  1.00  0.00     0.233 C 
HETATM   18  O2  UNL     1      -0.995   5.875  68.874  1.00  0.00    -0.272 OA
HETATM   19  N2  UNL     1       0.848   7.237  69.018  1.00  0.00    -0.311 N 
ATOM     20  H2  UNL     1       1.537   7.619  69.665  1.00  0.00     0.170 HD
BRANCH  19  21
HETATM   21  C11 UNL     1       0.996   7.576  67.815  1.00  0.00     0.124 A 
HETATM   22  C12 UNL     1       2.122   7.237  67.058  1.00  0.00     0.077 A 
HETATM   23  C13 UNL     1       1.976   7.756  65.790  1.00  0.00     0.037 A 
HETATM   24  N3  UNL     1       0.797   8.390  65.785  1.00  0.00    -0.302 N 
HETATM   25  N4  UNL     1       0.221   8.283  66.978  1.00  0.00    -0.285 N 
ATOM     26  H3  UNL     1       0.399   8.882  64.985  1.00  0.00     0.186 HD
ATOM     27  H4  UNL     1      -0.684   8.684  67.224  1.00  0.00     0.188 HD
BRANCH  23  28
HETATM   28  C14 UNL     1       2.922   7.645  64.648  1.00  0.00    -0.007 C 
HETATM   29  C15 UNL     1       4.051   6.683  64.973  1.00  0.00     0.021 C 
HETATM   30  C16 UNL     1       2.252   7.125  63.395  1.00  0.00     0.021 C 
HETATM   31  C17 UNL     1       3.500   9.015  64.355  1.00  0.00     0.021 C 
ENDBRANCH  23  28
ENDBRANCH  19  21
ENDBRANCH   1  17
TORSDOF 9
ENDMDL
MODEL 2
REMARK VINA RESULT: -7.055707516      4.757     10.680
REMARK  9 active torsions:
REMARK  status: ('A' for Active; 'I' for Inactive)
REMARK    1  A    between atoms: C2_2  and  C3_3 
REMARK    2  A    between atoms: C3_3  and  C4_4 
REMARK    3  A    between atoms: C4_4  and  C5_5 
REMARK    4  A    between atoms: C8_11  and  S1_12 
REMARK    5  A    between atoms: S1_12  and  C9_13 
REMARK    6  A    between atoms: C9_13  and  C10_14 
REMARK       I    between atoms: C10_14  and  N2_16 
REMARK    7  A    between atoms: N2_16  and  C11_18 
REMARK    8  A    between atoms: C13_20  and  C14_21 
REMARK    9  A    between atoms: N5_29  and  C18_30 
ROOT
HETATM    1  C9  UNL     1      -0.603   9.709  76.818  1.00  0.00     0.185 C 
ENDROOT
BRANCH   1   2
HETATM    2  S1  UNL     1      -1.332   9.117  75.304  1.00  0.00    -0.084 SA
BRANCH   2   3
HETATM    3  C8  UNL     1      -0.939  10.112  73.893  1.00  0.00     0.150 A 
HETATM    4  N1  UNL     1      -1.497  11.275  73.601  1.00  0.00    -0.304 N 
HETATM    5  C7  UNL     1      -1.186  12.009  72.532  1.00  0.00     0.249 A 
ATOM      6  H1  UNL     1      -2.211  11.634  74.235  1.00  0.00     0.171 HD
HETATM    7  C6  UNL     1      -0.231  11.553  71.666  1.00  0.00     0.099 A 
HETATM    8  O1  UNL     1      -1.766  13.122  72.314  1.00  0.00    -0.268 OA
HETATM    9  C5  UNL     1       0.386  10.319  71.943  1.00  0.00     0.019 A 
HETATM   10  N5  UNL     1       0.021   9.641  73.035  1.00  0.00    -0.331 N 
BRANCH   9  11
HETATM   11  C4  UNL     1       1.426   9.931  70.983  1.00  0.00     0.057 C 
BRANCH  11  12
HETATM   12  C3  UNL     1       0.788   9.242  69.805  1.00  0.00     0.006 C 
BRANCH  12  13
HETATM   13  C2  UNL     1       1.464   7.916  69.500  1.00  0.00    -0.004 C 
HETATM   14  C1  UNL     1       0.634   7.054  68.592  1.00  0.00     0.005 C 
ENDBRANCH  12  13
ENDBRANCH  11  12
ENDBRANCH   9  11
BRANCH  10  15
HETATM   15  C18 UNL     1       0.652   8.398  73.339  1.00  0.00     0.126 C 
HETATM   16  C19 UNL     1      -0.002   7.202  72.744  1.00  0.00     0.027 C 
ENDBRANCH  10  15
ENDBRANCH   2   3
ENDBRANCH   1   2
BRANCH   1  17
HETATM   17  C10 UNL     1      -1.552   9.811  77.936  1.00  0.00     0.233 C 
HETATM   18  O2  UNL     1      -1.469  10.718  78.795  1.00  0.00    -0.272 OA
HETATM   19  N2  UNL     1      -2.578   8.858  78.034  1.00  0.00    -0.311 N 
ATOM     20  H2  UNL     1      -2.570   8.135  77.315  1.00  0.00     0.170 HD
BRANCH  19  21
HETATM   21  C11 UNL     1      -3.505   8.763  78.879  1.00  0.00     0.124 A 
HETATM   22  C12 UNL     1      -4.631   7.955  78.691  1.00  0.00     0.077 A 
HETATM   23  C13 UNL     1      -5.450   8.074  79.793  1.00  0.00     0.037 A 
HETATM   24  N3  UNL     1      -4.836   8.930  80.618  1.00  0.00    -0.302 N 
HETATM   25  N4  UNL     1      -3.691   9.335  80.079  1.00  0.00    -0.285 N 
ATOM     26  H3  UNL     1      -5.193   9.228  81.526  1.00  0.00     0.186 HD
ATOM     27  H4  UNL     1      -3.043   9.990  80.516  1.00  0.00     0.188 HD
BRANCH  23  28
HETATM   28  C14 UNL     1      -6.754   7.399  80.034  1.00  0.00    -0.007 C 
HETATM   29  C15 UNL     1      -7.632   8.232  80.951  1.00  0.00     0.021 C 
HETATM   30  C16 UNL     1      -7.535   7.186  78.757  1.00  0.00     0.021 C 
HETATM   31  C17 UNL     1      -6.496   6.051  80.676  1.00  0.00     0.021 C 
ENDBRANCH  23  28
ENDBRANCH  19  21
ENDBRANCH   1  17
TORSDOF 9
ENDMDL
MODEL 3
REMARK VINA RESULT: -6.859561951      5.368      8.336
REMARK  9 active torsions:
REMARK  status: ('A' for Active; 'I' for Inactive)
REMARK    1  A    between atoms: C2_2  and  C3_3 
REMARK    2  A    between atoms: C3_3  and  C4_4 
REMARK    3  A    between atoms: C4_4  and  C5_5 
REMARK    4  A    between atoms: C8_11  and  S1_12 
REMARK    5  A    between atoms: S1_12  and  C9_13 
REMARK    6  A    between atoms: C9_13  and  C10_14 
REMARK       I    between atoms: C10_14  and  N2_16 
REMARK    7  A    between atoms: N2_16  and  C11_18 
REMARK    8  A    between atoms: C13_20  and  C14_21 
REMARK    9  A    between atoms: N5_29  and  C18_30 
ROOT
HETATM    1  C9  UNL     1      -2.272   6.742  75.390  1.00  0.00     0.185 C 
ENDROOT
BRANCH   1   2
HETATM    2  S1  UNL     1      -3.535   7.729  76.170  1.00  0.00    -0.084 SA
BRANCH   2   3
HETATM    3  C8  UNL     1      -2.999   8.511  77.665  1.00  0.00     0.150 A 
HETATM    4  N1  UNL     1      -2.325   9.647  77.732  1.00  0.00    -0.304 N 
HETATM    5  C7  UNL     1      -1.930  10.219  78.871  1.00  0.00     0.249 A 
ATOM      6  H1  UNL     1      -2.091  10.115  76.857  1.00  0.00     0.171 HD
HETATM    7  C6  UNL     1      -2.231   9.613  80.059  1.00  0.00     0.099 A 
HETATM    8  O1  UNL     1      -1.282  11.316  78.859  1.00  0.00    -0.268 OA
HETATM    9  C5  UNL     1      -2.948   8.402  80.028  1.00  0.00     0.019 A 
HETATM   10  N5  UNL     1      -3.309   7.892  78.849  1.00  0.00    -0.331 N 
BRANCH   9  11
HETATM   11  C4  UNL     1      -3.260   7.848  81.352  1.00  0.00     0.057 C 
BRANCH  11  12
HETATM   12  C3  UNL     1      -3.939   8.901  82.188  1.00  0.00     0.006 C 
BRANCH  12  13
HETATM   13  C2  UNL     1      -5.440   8.676  82.258  1.00  0.00    -0.004 C 
HETATM   14  C1  UNL     1      -6.191   9.588  81.330  1.00  0.00     0.005 C 
ENDBRANCH  12  13
ENDBRANCH  11  12
ENDBRANCH   9  11
BRANCH  10  15
HETATM   15  C18 UNL     1      -4.053   6.675  78.803  1.00  0.00     0.126 C 
HETATM   16  C19 UNL     1      -5.529   6.840  78.876  1.00  0.00     0.027 C 
ENDBRANCH  10  15
ENDBRANCH   2   3
ENDBRANCH   1   2
BRANCH   1  17
HETATM   17  C10 UNL     1      -1.476   7.472  74.394  1.00  0.00     0.233 C 
HETATM   18  O2  UNL     1      -1.011   6.911  73.375  1.00  0.00    -0.272 OA
HETATM   19  N2  UNL     1      -1.234   8.839  74.600  1.00  0.00    -0.311 N 
ATOM     20  H2  UNL     1      -1.621   9.225  75.461  1.00  0.00     0.170 HD
BRANCH  19  21
HETATM   21  C11 UNL     1      -0.609   9.660  73.880  1.00  0.00     0.124 A 
HETATM   22  C12 UNL     1      -0.976  11.004  73.756  1.00  0.00     0.077 A 
HETATM   23  C13 UNL     1      -0.094  11.627  72.900  1.00  0.00     0.037 A 
HETATM   24  N3  UNL     1       0.776  10.685  72.518  1.00  0.00    -0.302 N 
HETATM   25  N4  UNL     1       0.472   9.527  73.096  1.00  0.00    -0.285 N 
ATOM     26  H3  UNL     1       1.557  10.833  71.879  1.00  0.00     0.186 HD
ATOM     27  H4  UNL     1       0.989   8.658  72.961  1.00  0.00     0.188 HD
BRANCH  23  28
HETATM   28  C14 UNL     1      -0.094  13.052  72.475  1.00  0.00    -0.007 C 
HETATM   29  C15 UNL     1       1.073  13.338  71.546  1.00  0.00     0.021 C 
HETATM   30  C16 UNL     1      -1.352  13.429  71.725  1.00  0.00     0.021 C 
HETATM   31  C17 UNL     1       0.019  13.931  73.705  1.00  0.00     0.021 C 
ENDBRANCH  23  28
ENDBRANCH  19  21
ENDBRANCH   1  17
TORSDOF 9
ENDMDL
MODEL 4
REMARK VINA RESULT: -6.837865844      5.025     11.069
REMARK  9 active torsions:
REMARK  status: ('A' for Active; 'I' for Inactive)
REMARK    1  A    between atoms: C2_2  and  C3_3 
REMARK    2  A    between atoms: C3_3  and  C4_4 
REMARK    3  A    between atoms: C4_4  and  C5_5 
REMARK    4  A    between atoms: C8_11  and  S1_12 
REMARK    5  A    between atoms: S1_12  and  C9_13 
REMARK    6  A    between atoms: C9_13  and  C10_14 
REMARK       I    between atoms: C10_14  and  N2_16 
REMARK    7  A    between atoms: N2_16  and  C11_18 
REMARK    8  A    between atoms: C13_20  and  C14_21 
REMARK    9  A    between atoms: N5_29  and  C18_30 
ROOT
HETATM    1  C9  UNL     1      -0.028   9.849  76.784  1.00  0.00     0.185 C 
ENDROOT
BRANCH   1   2
HETATM    2  S1  UNL     1      -1.113   9.428  75.434  1.00  0.00    -0.084 SA
BRANCH   2   3
HETATM    3  C8  UNL     1      -0.778  10.329  73.948  1.00  0.00     0.150 A 
HETATM    4  N1  UNL     1      -1.323  11.489  73.620  1.00  0.00    -0.304 N 
HETATM    5  C7  UNL     1      -1.055  12.152  72.494  1.00  0.00     0.249 A 
ATOM      6  H1  UNL     1      -1.990  11.903  74.270  1.00  0.00     0.171 HD
HETATM    7  C6  UNL     1      -0.162  11.621  71.605  1.00  0.00     0.099 A 
HETATM    8  O1  UNL     1      -1.620  13.266  72.244  1.00  0.00    -0.268 OA
HETATM    9  C5  UNL     1       0.439  10.388  71.919  1.00  0.00     0.019 A 
HETATM   10  N5  UNL     1       0.121   9.784  73.067  1.00  0.00    -0.331 N 
BRANCH   9  11
HETATM   11  C4  UNL     1       1.412   9.918  70.926  1.00  0.00     0.057 C 
BRANCH  11  12
HETATM   12  C3  UNL     1       0.697   9.147  69.849  1.00  0.00     0.006 C 
BRANCH  12  13
HETATM   13  C2  UNL     1       1.421   7.854  69.512  1.00  0.00    -0.004 C 
HETATM   14  C1  UNL     1       0.495   6.823  68.931  1.00  0.00     0.005 C 
ENDBRANCH  12  13
ENDBRANCH  11  12
ENDBRANCH   9  11
BRANCH  10  15
HETATM   15  C18 UNL     1       0.737   8.544  73.407  1.00  0.00     0.126 C 
HETATM   16  C19 UNL     1       0.029   7.334  72.908  1.00  0.00     0.027 C 
ENDBRANCH  10  15
ENDBRANCH   2   3
ENDBRANCH   1   2
BRANCH   1  17
HETATM   17  C10 UNL     1      -0.703   9.935  78.086  1.00  0.00     0.233 C 
HETATM   18  O2  UNL     1      -1.115  11.023  78.549  1.00  0.00    -0.272 OA
HETATM   19  N2  UNL     1      -0.887   8.756  78.826  1.00  0.00    -0.311 N 
ATOM     20  H2  UNL     1      -0.506   7.911  78.399  1.00  0.00     0.170 HD
BRANCH  19  21
HETATM   21  C11 UNL     1      -1.451   8.587  79.937  1.00  0.00     0.124 A 
HETATM   22  C12 UNL     1      -2.812   8.836  80.150  1.00  0.00     0.077 A 
HETATM   23  C13 UNL     1      -3.113   8.555  81.464  1.00  0.00     0.037 A 
HETATM   24  N3  UNL     1      -1.968   8.150  82.027  1.00  0.00    -0.302 N 
HETATM   25  N4  UNL     1      -0.991   8.170  81.126  1.00  0.00    -0.285 N 
ATOM     26  H3  UNL     1      -1.861   7.868  83.001  1.00  0.00     0.186 HD
ATOM     27  H4  UNL     1      -0.024   7.905  81.313  1.00  0.00     0.188 HD
BRANCH  23  28
HETATM   28  C14 UNL     1      -4.434   8.670  82.139  1.00  0.00    -0.007 C 
HETATM   29  C15 UNL     1      -4.330   9.531  83.385  1.00  0.00     0.021 C 
HETATM   30  C16 UNL     1      -5.478   9.311  81.251  1.00  0.00     0.021 C 
HETATM   31  C17 UNL     1      -4.910   7.284  82.525  1.00  0.00     0.021 C 
ENDBRANCH  23  28
ENDBRANCH  19  21
ENDBRANCH   1  17
TORSDOF 9
ENDMDL
MODEL 5
REMARK VINA RESULT: -6.804319408      5.051     11.122
REMARK  9 active torsions:
REMARK  status: ('A' for Active; 'I' for Inactive)
REMARK    1  A    between atoms: C2_2  and  C3_3 
REMARK    2  A    between atoms: C3_3  and  C4_4 
REMARK    3  A    between atoms: C4_4  and  C5_5 
REMARK    4  A    between atoms: C8_11  and  S1_12 
REMARK    5  A    between atoms: S1_12  and  C9_13 
REMARK    6  A    between atoms: C9_13  and  C10_14 
REMARK       I    between atoms: C10_14  and  N2_16 
REMARK    7  A    between atoms: N2_16  and  C11_18 
REMARK    8  A    between atoms: C13_20  and  C14_21 
REMARK    9  A    between atoms: N5_29  and  C18_30 
ROOT
HETATM    1  C9  UNL     1      -0.567   9.795  76.849  1.00  0.00     0.185 C 
ENDROOT
BRANCH   1   2
HETATM    2  S1  UNL     1      -1.332   9.185  75.359  1.00  0.00    -0.084 SA
BRANCH   2   3
HETATM    3  C8  UNL     1      -0.932  10.132  73.919  1.00  0.00     0.150 A 
HETATM    4  N1  UNL     1      -1.472  11.296  73.597  1.00  0.00    -0.304 N 
HETATM    5  C7  UNL     1      -1.156  11.994  72.506  1.00  0.00     0.249 A 
ATOM      6  H1  UNL     1      -2.176  11.685  74.225  1.00  0.00     0.171 HD
HETATM    7  C6  UNL     1      -0.215  11.497  71.647  1.00  0.00     0.099 A 
HETATM    8  O1  UNL     1      -1.719  13.110  72.259  1.00  0.00    -0.268 OA
HETATM    9  C5  UNL     1       0.383  10.261  71.956  1.00  0.00     0.019 A 
HETATM   10  N5  UNL     1       0.014   9.621  73.068  1.00  0.00    -0.331 N 
BRANCH   9  11
HETATM   11  C4  UNL     1       1.410   9.829  71.000  1.00  0.00     0.057 C 
BRANCH  11  12
HETATM   12  C3  UNL     1       0.747   9.182  69.812  1.00  0.00     0.006 C 
BRANCH  12  13
HETATM   13  C2  UNL     1       1.396   7.851  69.466  1.00  0.00    -0.004 C 
HETATM   14  C1  UNL     1       0.381   6.808  69.096  1.00  0.00     0.005 C 
ENDBRANCH  12  13
ENDBRANCH  11  12
ENDBRANCH   9  11
BRANCH  10  15
HETATM   15  C18 UNL     1       0.626   8.377  73.403  1.00  0.00     0.126 C 
HETATM   16  C19 UNL     1      -0.035   7.177  72.823  1.00  0.00     0.027 C 
ENDBRANCH  10  15
ENDBRANCH   2   3
ENDBRANCH   1   2
BRANCH   1  17
HETATM   17  C10 UNL     1      -1.492   9.929  77.983  1.00  0.00     0.233 C 
HETATM   18  O2  UNL     1      -1.485  10.935  78.729  1.00  0.00    -0.272 OA
HETATM   19  N2  UNL     1      -2.407   8.893  78.227  1.00  0.00    -0.311 N 
ATOM     20  H2  UNL     1      -2.341   8.096  77.594  1.00  0.00     0.170 HD
BRANCH  19  21
HETATM   21  C11 UNL     1      -3.298   8.803  79.112  1.00  0.00     0.124 A 
HETATM   22  C12 UNL     1      -3.033   8.935  80.479  1.00  0.00     0.077 A 
HETATM   23  C13 UNL     1      -4.213   8.785  81.174  1.00  0.00     0.037 A 
HETATM   24  N3  UNL     1      -5.159   8.567  80.253  1.00  0.00    -0.302 N 
HETATM   25  N4  UNL     1      -4.618   8.578  79.039  1.00  0.00    -0.285 N 
ATOM     26  H3  UNL     1      -6.148   8.415  80.452  1.00  0.00     0.186 HD
ATOM     27  H4  UNL     1      -5.136   8.435  78.172  1.00  0.00     0.188 HD
BRANCH  23  28
HETATM   28  C14 UNL     1      -4.415   8.848  82.647  1.00  0.00    -0.007 C 
HETATM   29  C15 UNL     1      -5.608   9.722  82.991  1.00  0.00     0.021 C 
HETATM   30  C16 UNL     1      -4.683   7.487  83.249  1.00  0.00     0.021 C 
HETATM   31  C17 UNL     1      -3.169   9.425  83.288  1.00  0.00     0.021 C 
ENDBRANCH  23  28
ENDBRANCH  19  21
ENDBRANCH   1  17
TORSDOF 9
ENDMDL
