MODEL 1
REMARK VINA RESULT: -5.705975616      0.000      0.000
REMARK  4 active torsions:
REMARK  status: ('A' for Active; 'I' for Inactive)
REMARK    1  A    between atoms: C6_6  and  C7_7 
REMARK    2  A    between atoms: C8_10  and  C9_11 
REMARK    3  A    between atoms: C9_11  and  C10_12 
REMARK    4  A    between atoms: C13_18  and  C14_19 
ROOT
HETATM    1  C7  UNL     1       0.022  27.772   8.872  1.00  0.00     0.020 A 
HETATM    2  N1  UNL     1       1.193  27.996   8.214  1.00  0.00    -0.360 N 
ATOM      3  H1  UNL     1       1.633  28.912   8.307  1.00  0.00     0.165 HD
HETATM    4  C8  UNL     1       1.800  27.075   7.449  1.00  0.00     0.041 A 
HETATM    5  C11 UNL     1       1.176  25.835   7.342  1.00  0.00     0.057 A 
HETATM    6 CL1  UNL     1       1.953  24.630   6.350  1.00  0.00    -0.082 Cl
HETATM    7  C12 UNL     1      -0.015  25.594   8.005  1.00  0.00     0.035 A 
HETATM    8  C13 UNL     1      -0.625  26.550   8.787  1.00  0.00    -0.029 A 
ENDROOT
BRANCH   1   9
HETATM    9  C6  UNL     1      -0.615  28.858   9.672  1.00  0.00     0.040 C 
HETATM   10  C2  UNL     1       0.427  29.392  10.629  1.00  0.00    -0.009 C 
HETATM   11  C1  UNL     1       0.616  28.478  11.818  1.00  0.00     0.011 C 
HETATM   12  C3  UNL     1      -0.126  30.734  11.037  1.00  0.00     0.005 C 
HETATM   13  C4  UNL     1      -0.901  31.211   9.857  1.00  0.00     0.001 C 
HETATM   14  C5  UNL     1      -0.813  30.102   8.811  1.00  0.00     0.011 C 
ENDBRANCH   1   9
BRANCH   8  15
HETATM   15  C14 UNL     1      -1.894  26.256   9.507  1.00  0.00     0.021 A 
HETATM   16  C15 UNL     1      -2.298  24.896   9.855  1.00  0.00     0.010 A 
HETATM   17  C16 UNL     1      -1.794  25.756  10.928  1.00  0.00     0.010 A 
ENDBRANCH   8  15
BRANCH   4  18
HETATM   18  C9  UNL     1       3.084  27.314   6.720  1.00  0.00     0.172 C 
BRANCH  18  19
HETATM   19  C10 UNL     1       4.160  27.676   7.677  1.00  0.00     0.178 C 
HETATM   20  O1  UNL     1       5.018  26.835   8.092  1.00  0.00    -0.648 OA
HETATM   21  O2  UNL     1       4.271  28.964   8.159  1.00  0.00    -0.648 OA
ENDBRANCH  18  19
ENDBRANCH   4  18
TORSDOF 4
ENDMDL
MODEL 2
REMARK VINA RESULT: -5.413473859      0.745      1.033
REMARK  4 active torsions:
REMARK  status: ('A' for Active; 'I' for Inactive)
REMARK    1  A    between atoms: C6_6  and  C7_7 
REMARK    2  A    between atoms: C8_10  and  C9_11 
REMARK    3  A    between atoms: C9_11  and  C10_12 
REMARK    4  A    between atoms: C13_18  and  C14_19 
ROOT
HETATM    1  C7  UNL     1      -0.365  28.271   9.293  1.00  0.00     0.020 A 
HETATM    2  N1  UNL     1       0.732  28.528   8.529  1.00  0.00    -0.360 N 
ATOM      3  H1  UNL     1       1.121  29.471   8.543  1.00  0.00     0.165 HD
HETATM    4  C8  UNL     1       1.329  27.607   7.758  1.00  0.00     0.041 A 
HETATM    5  C11 UNL     1       0.776  26.330   7.760  1.00  0.00     0.057 A 
HETATM    6 CL1  UNL     1       1.542  25.122   6.762  1.00  0.00    -0.082 Cl
HETATM    7  C12 UNL     1      -0.340  26.054   8.532  1.00  0.00     0.035 A 
HETATM    8  C13 UNL     1      -0.941  27.012   9.318  1.00  0.00    -0.029 A 
ENDROOT
BRANCH   1   9
HETATM    9  C6  UNL     1      -1.000  29.358  10.094  1.00  0.00     0.040 C 
HETATM   10  C2  UNL     1       0.096  30.055  10.868  1.00  0.00    -0.009 C 
HETATM   11  C1  UNL     1       0.520  29.259  12.081  1.00  0.00     0.011 C 
HETATM   12  C3  UNL     1      -0.530  31.372  11.253  1.00  0.00     0.005 C 
HETATM   13  C4  UNL     1      -1.488  31.684  10.155  1.00  0.00     0.001 C 
HETATM   14  C5  UNL     1      -1.424  30.507   9.184  1.00  0.00     0.011 C 
ENDBRANCH   1   9
BRANCH   8  15
HETATM   15  C14 UNL     1      -2.127  26.681  10.156  1.00  0.00     0.021 A 
HETATM   16  C15 UNL     1      -2.367  25.337  10.676  1.00  0.00     0.010 A 
HETATM   17  C16 UNL     1      -1.889  26.357  11.612  1.00  0.00     0.010 A 
ENDBRANCH   8  15
BRANCH   4  18
HETATM   18  C9  UNL     1       2.532  27.882   6.912  1.00  0.00     0.172 C 
BRANCH  18  19
HETATM   19  C10 UNL     1       3.769  27.793   7.731  1.00  0.00     0.178 C 
HETATM   20  O1  UNL     1       4.306  28.811   8.271  1.00  0.00    -0.648 OA
HETATM   21  O2  UNL     1       4.390  26.580   7.941  1.00  0.00    -0.648 OA
ENDBRANCH  18  19
ENDBRANCH   4  18
TORSDOF 4
ENDMDL
MODEL 3
REMARK VINA RESULT: -5.315573735      2.058      4.037
REMARK  4 active torsions:
REMARK  status: ('A' for Active; 'I' for Inactive)
REMARK    1  A    between atoms: C6_6  and  C7_7 
REMARK    2  A    between atoms: C8_10  and  C9_11 
REMARK    3  A    between atoms: C9_11  and  C10_12 
REMARK    4  A    between atoms: C13_18  and  C14_19 
ROOT
HETATM    1  C7  UNL     1      -0.081  27.018   8.975  1.00  0.00     0.020 A 
HETATM    2  N1  UNL     1       0.857  26.053   8.766  1.00  0.00    -0.360 N 
ATOM      3  H1  UNL     1       0.640  25.099   9.053  1.00  0.00     0.165 HD
HETATM    4  C8  UNL     1       2.050  26.292   8.201  1.00  0.00     0.041 A 
HETATM    5  C11 UNL     1       2.315  27.604   7.819  1.00  0.00     0.057 A 
HETATM    6 CL1  UNL     1       3.863  27.928   7.085  1.00  0.00    -0.082 Cl
HETATM    7  C12 UNL     1       1.371  28.595   8.027  1.00  0.00     0.035 A 
HETATM    8  C13 UNL     1       0.150  28.333   8.608  1.00  0.00    -0.029 A 
ENDROOT
BRANCH   1   9
HETATM    9  C6  UNL     1      -1.371  26.685   9.648  1.00  0.00     0.040 C 
HETATM   10  C2  UNL     1      -1.649  25.219   9.403  1.00  0.00    -0.009 C 
HETATM   11  C1  UNL     1      -2.185  24.975   8.011  1.00  0.00     0.011 C 
HETATM   12  C3  UNL     1      -2.664  24.873  10.463  1.00  0.00     0.005 C 
HETATM   13  C4  UNL     1      -2.349  25.769  11.611  1.00  0.00     0.001 C 
HETATM   14  C5  UNL     1      -1.184  26.647  11.161  1.00  0.00     0.011 C 
ENDBRANCH   1   9
BRANCH   8  15
HETATM   15  C14 UNL     1      -0.855  29.415   8.799  1.00  0.00     0.021 A 
HETATM   16  C15 UNL     1      -1.267  29.875  10.123  1.00  0.00     0.010 A 
HETATM   17  C16 UNL     1      -0.369  30.735   9.350  1.00  0.00     0.010 A 
ENDBRANCH   8  15
BRANCH   4  18
HETATM   18  C9  UNL     1       3.087  25.239   7.971  1.00  0.00     0.172 C 
BRANCH  18  19
HETATM   19  C10 UNL     1       3.002  24.728   6.578  1.00  0.00     0.178 C 
HETATM   20  O1  UNL     1       1.894  24.467   6.012  1.00  0.00    -0.648 OA
HETATM   21  O2  UNL     1       4.144  24.515   5.834  1.00  0.00    -0.648 OA
ENDBRANCH  18  19
ENDBRANCH   4  18
TORSDOF 4
ENDMDL
MODEL 4
REMARK VINA RESULT: -5.291845395      1.371      1.591
REMARK  4 active torsions:
REMARK  status: ('A' for Active; 'I' for Inactive)
REMARK    1  A    between atoms: C6_6  and  C7_7 
REMARK    2  A    between atoms: C8_10  and  C9_11 
REMARK    3  A    between atoms: C9_11  and  C10_12 
REMARK    4  A    between atoms: C13_18  and  C14_19 
ROOT
HETATM    1  C7  UNL     1      -1.145  27.748   9.265  1.00  0.00     0.020 A 
HETATM    2  N1  UNL     1      -0.048  28.264   8.646  1.00  0.00    -0.360 N 
ATOM      3  H1  UNL     1       0.138  29.262   8.745  1.00  0.00     0.165 HD
HETATM    4  C8  UNL     1       0.802  27.529   7.912  1.00  0.00     0.041 A 
HETATM    5  C11 UNL     1       0.522  26.171   7.796  1.00  0.00     0.057 A 
HETATM    6 CL1  UNL     1       1.618  25.204   6.845  1.00  0.00    -0.082 Cl
HETATM    7  C12 UNL     1      -0.591  25.633   8.420  1.00  0.00     0.035 A 
HETATM    8  C13 UNL     1      -1.453  26.401   9.170  1.00  0.00    -0.029 A 
ENDROOT
BRANCH   1   9
HETATM    9  C6  UNL     1      -2.069  28.635  10.031  1.00  0.00     0.040 C 
HETATM   10  C2  UNL     1      -1.245  29.366  11.067  1.00  0.00    -0.009 C 
HETATM   11  C1  UNL     1      -0.930  28.486  12.255  1.00  0.00     0.011 C 
HETATM   12  C3  UNL     1      -2.120  30.533  11.451  1.00  0.00     0.005 C 
HETATM   13  C4  UNL     1      -2.903  30.853  10.224  1.00  0.00     0.001 C 
HETATM   14  C5  UNL     1      -2.491  29.824   9.173  1.00  0.00     0.011 C 
ENDBRANCH   1   9
BRANCH   8  15
HETATM   15  C14 UNL     1      -2.630  25.791   9.849  1.00  0.00     0.021 A 
HETATM   16  C15 UNL     1      -2.714  24.360  10.133  1.00  0.00     0.010 A 
HETATM   17  C16 UNL     1      -2.436  25.265  11.251  1.00  0.00     0.010 A 
ENDBRANCH   8  15
BRANCH   4  18
HETATM   18  C9  UNL     1       2.008  28.089   7.225  1.00  0.00     0.172 C 
BRANCH  18  19
HETATM   19  C10 UNL     1       2.841  28.853   8.189  1.00  0.00     0.178 C 
HETATM   20  O1  UNL     1       2.345  29.678   9.020  1.00  0.00    -0.648 OA
HETATM   21  O2  UNL     1       4.211  28.690   8.220  1.00  0.00    -0.648 OA
ENDBRANCH  18  19
ENDBRANCH   4  18
TORSDOF 4
ENDMDL
MODEL 5
REMARK VINA RESULT: -5.174886320      2.522      4.800
REMARK  4 active torsions:
REMARK  status: ('A' for Active; 'I' for Inactive)
REMARK    1  A    between atoms: C6_6  and  C7_7 
REMARK    2  A    between atoms: C8_10  and  C9_11 
REMARK    3  A    between atoms: C9_11  and  C10_12 
REMARK    4  A    between atoms: C13_18  and  C14_19 
ROOT
HETATM    1  C7  UNL     1      -1.381  25.438   9.281  1.00  0.00     0.020 A 
HETATM    2  N1  UNL     1      -0.591  25.433   8.172  1.00  0.00    -0.360 N 
ATOM      3  H1  UNL     1      -0.772  24.731   7.453  1.00  0.00     0.165 HD
HETATM    4  C8  UNL     1       0.412  26.301   7.974  1.00  0.00     0.041 A 
HETATM    5  C11 UNL     1       0.633  27.246   8.972  1.00  0.00     0.057 A 
HETATM    6 CL1  UNL     1       1.934  28.380   8.728  1.00  0.00    -0.082 Cl
HETATM    7  C12 UNL     1      -0.162  27.262  10.105  1.00  0.00     0.035 A 
HETATM    8  C13 UNL     1      -1.189  26.364  10.293  1.00  0.00    -0.029 A 
ENDROOT
BRANCH   1   9
HETATM    9  C6  UNL     1      -2.453  24.413   9.451  1.00  0.00     0.040 C 
HETATM   10  C2  UNL     1      -3.398  24.543   8.277  1.00  0.00    -0.009 C 
HETATM   11  C1  UNL     1      -4.340  25.714   8.442  1.00  0.00     0.011 C 
HETATM   12  C3  UNL     1      -4.136  23.227   8.275  1.00  0.00     0.005 C 
HETATM   13  C4  UNL     1      -3.165  22.236   8.817  1.00  0.00     0.001 C 
HETATM   14  C5  UNL     1      -1.902  23.020   9.166  1.00  0.00     0.011 C 
ENDBRANCH   1   9
BRANCH   8  15
HETATM   15  C14 UNL     1      -2.043  26.419  11.511  1.00  0.00     0.021 A 
HETATM   16  C15 UNL     1      -1.999  27.541  12.447  1.00  0.00     0.010 A 
HETATM   17  C16 UNL     1      -3.150  27.447  11.546  1.00  0.00     0.010 A 
ENDBRANCH   8  15
BRANCH   4  18
HETATM   18  C9  UNL     1       1.287  26.300   6.761  1.00  0.00     0.172 C 
BRANCH  18  19
HETATM   19  C10 UNL     1       2.243  25.163   6.816  1.00  0.00     0.178 C 
HETATM   20  O1  UNL     1       3.168  25.089   7.685  1.00  0.00    -0.648 OA
HETATM   21  O2  UNL     1       2.159  24.127   5.910  1.00  0.00    -0.648 OA
ENDBRANCH  18  19
ENDBRANCH   4  18
TORSDOF 4
ENDMDL
