MODEL 1
REMARK VINA RESULT: -7.611189908      0.000      0.000
REMARK  10 active torsions:
REMARK  status: ('A' for Active; 'I' for Inactive)
REMARK       I    between atoms: C2_2  and  N1_4 
REMARK    1  A    between atoms: N1_4  and  C3_6 
REMARK    2  A    between atoms: C3_6  and  C5_8 
REMARK    3  A    between atoms: C5_8  and  C6_10 
REMARK    4  A    between atoms: C6_10  and  O3_11 
REMARK    5  A    between atoms: C6_10  and  C7_13 
REMARK    6  A    between atoms: C8_15  and  O5_17 
REMARK    7  A    between atoms: C10_19  and  N2_20 
REMARK    8  A    between atoms: N2_20  and  N3_22 
REMARK    9  A    between atoms: N3_22  and  N4_23 
REMARK   10  A    between atoms: C11_26  and  N5_27 
REMARK       I    between atoms: N5_27  and  C12_28 
ROOT
HETATM    1  C7  UNL     1     -17.126  -9.972   9.403  1.00  0.00     0.223 C 
HETATM    2  O4  UNL     1     -16.340 -10.312  10.477  1.00  0.00    -0.338 OA
HETATM    3  C8  UNL     1     -16.251 -11.712  10.373  1.00  0.00     0.185 C 
HETATM    4  C9  UNL     1     -17.632 -12.275  10.574  1.00  0.00     0.081 C 
HETATM    5  C10 UNL     1     -15.889 -11.938   8.933  1.00  0.00     0.214 C 
HETATM    6  C11 UNL     1     -16.585 -10.791   8.231  1.00  0.00     0.232 C 
ENDROOT
BRANCH   1   7
HETATM    7  C6  UNL     1     -17.335  -8.571   9.154  1.00  0.00     0.123 C 
BRANCH   7   8
HETATM    8  C5  UNL     1     -17.634  -7.482  10.024  1.00  0.00     0.203 C 
HETATM    9  O2  UNL     1     -17.127  -7.399  11.154  1.00  0.00    -0.288 OA
BRANCH   8  10
HETATM   10  C3  UNL     1     -18.583  -6.375   9.620  1.00  0.00     0.157 C 
HETATM   11  C4  UNL     1     -18.001  -5.021   9.760  1.00  0.00     0.041 C 
BRANCH  10  12
HETATM   12  N1  UNL     1     -19.850  -6.465  10.279  1.00  0.00    -0.350 N 
HETATM   13  C2  UNL     1     -21.008  -5.791   9.786  1.00  0.00     0.214 C 
HETATM   14  C1  UNL     1     -22.348  -5.800  10.374  1.00  0.00     0.117 C 
HETATM   15  O1  UNL     1     -20.852  -5.095   8.709  1.00  0.00    -0.274 OA
ATOM     16  H1  UNL     1     -19.928  -7.028  11.126  1.00  0.00     0.163 HD
ENDBRANCH  10  12
ENDBRANCH   8  10
ENDBRANCH   7   8
BRANCH   7  17
HETATM   17  O3  UNL     1     -17.239  -8.219   7.895  1.00  0.00    -0.359 OA
ATOM     18  H3  UNL     1     -17.307  -8.950   7.293  1.00  0.00     0.217 HD
ENDBRANCH   7  17
ENDBRANCH   1   7
BRANCH   6  19
HETATM   19  N5  UNL     1     -15.792 -10.141   7.306  1.00  0.00    -0.405 NA
HETATM   20  C12 UNL     1     -15.032  -9.514   6.423  1.00  0.00     0.282 C 
HETATM   21  C13 UNL     1     -14.375 -10.282   5.261  1.00  0.00     0.134 C 
HETATM   22  O6  UNL     1     -14.733  -8.272   6.367  1.00  0.00    -0.258 OA
ENDBRANCH   6  19
BRANCH   3  23
HETATM   23  O5  UNL     1     -15.336 -12.200  11.282  1.00  0.00    -0.364 OA
ATOM     24  H5  UNL     1     -15.653 -12.071  12.168  1.00  0.00     0.213 HD
ENDBRANCH   3  23
BRANCH   5  25
HETATM   25  N2  UNL     1     -16.307 -13.240   8.446  1.00  0.00    -0.239 N 
ATOM     26  H2  UNL     1     -17.144 -13.309   7.868  1.00  0.00     0.197 HD
BRANCH  25  27
HETATM   27  N3  UNL     1     -15.683 -14.251   8.711  1.00  0.00    -0.248 NA
BRANCH  27  28
HETATM   28  N4  UNL     1     -15.301 -15.426   8.933  1.00  0.00    -0.261 N 
ATOM     29  H42 UNL     1     -16.159 -15.648   9.436  1.00  0.00     0.193 HD
ATOM     30  H41 UNL     1     -14.795 -16.309   8.991  1.00  0.00     0.193 HD
ENDBRANCH  27  28
ENDBRANCH  25  27
ENDBRANCH   5  25
TORSDOF 10
ENDMDL
MODEL 2
REMARK VINA RESULT: -7.464516417      0.924      1.024
REMARK  10 active torsions:
REMARK  status: ('A' for Active; 'I' for Inactive)
REMARK       I    between atoms: C2_2  and  N1_4 
REMARK    1  A    between atoms: N1_4  and  C3_6 
REMARK    2  A    between atoms: C3_6  and  C5_8 
REMARK    3  A    between atoms: C5_8  and  C6_10 
REMARK    4  A    between atoms: C6_10  and  O3_11 
REMARK    5  A    between atoms: C6_10  and  C7_13 
REMARK    6  A    between atoms: C8_15  and  O5_17 
REMARK    7  A    between atoms: C10_19  and  N2_20 
REMARK    8  A    between atoms: N2_20  and  N3_22 
REMARK    9  A    between atoms: N3_22  and  N4_23 
REMARK   10  A    between atoms: C11_26  and  N5_27 
REMARK       I    between atoms: N5_27  and  C12_28 
ROOT
HETATM    1  C7  UNL     1     -17.163  -9.873   9.425  1.00  0.00     0.223 C 
HETATM    2  O4  UNL     1     -16.377 -10.225  10.496  1.00  0.00    -0.338 OA
HETATM    3  C8  UNL     1     -16.288 -11.623  10.377  1.00  0.00     0.185 C 
HETATM    4  C9  UNL     1     -17.668 -12.189  10.572  1.00  0.00     0.081 C 
HETATM    5  C10 UNL     1     -15.925 -11.834   8.935  1.00  0.00     0.214 C 
HETATM    6  C11 UNL     1     -16.622 -10.680   8.245  1.00  0.00     0.232 C 
ENDROOT
BRANCH   1   7
HETATM    7  C6  UNL     1     -17.372  -8.469   9.191  1.00  0.00     0.123 C 
BRANCH   7   8
HETATM    8  C5  UNL     1     -17.758  -7.406  10.057  1.00  0.00     0.203 C 
HETATM    9  O2  UNL     1     -17.047  -7.059  11.013  1.00  0.00    -0.288 OA
BRANCH   8  10
HETATM   10  C3  UNL     1     -19.052  -6.646   9.860  1.00  0.00     0.157 C 
HETATM   11  C4  UNL     1     -19.381  -6.403   8.437  1.00  0.00     0.041 C 
BRANCH  10  12
HETATM   12  N1  UNL     1     -19.102  -5.433  10.618  1.00  0.00    -0.350 N 
HETATM   13  C2  UNL     1     -20.338  -4.832  11.002  1.00  0.00     0.214 C 
HETATM   14  C1  UNL     1     -20.516  -3.596  11.764  1.00  0.00     0.117 C 
HETATM   15  O1  UNL     1     -21.414  -5.445  10.631  1.00  0.00    -0.274 OA
ATOM     16  H1  UNL     1     -18.228  -4.984  10.891  1.00  0.00     0.163 HD
ENDBRANCH  10  12
ENDBRANCH   8  10
ENDBRANCH   7   8
BRANCH   7  17
HETATM   17  O3  UNL     1     -17.178  -8.087   7.952  1.00  0.00    -0.359 OA
ATOM     18  H3  UNL     1     -17.551  -8.681   7.311  1.00  0.00     0.217 HD
ENDBRANCH   7  17
ENDBRANCH   1   7
BRANCH   6  19
HETATM   19  N5  UNL     1     -15.828 -10.020   7.327  1.00  0.00    -0.405 NA
HETATM   20  C12 UNL     1     -15.068  -9.384   6.451  1.00  0.00     0.282 C 
HETATM   21  C13 UNL     1     -14.432 -10.134   5.266  1.00  0.00     0.134 C 
HETATM   22  O6  UNL     1     -14.752  -8.145   6.419  1.00  0.00    -0.258 OA
ENDBRANCH   6  19
BRANCH   3  23
HETATM   23  O5  UNL     1     -15.373 -12.120  11.281  1.00  0.00    -0.364 OA
ATOM     24  H5  UNL     1     -15.741 -12.115  12.157  1.00  0.00     0.213 HD
ENDBRANCH   3  23
BRANCH   5  25
HETATM   25  N2  UNL     1     -16.343 -13.131   8.435  1.00  0.00    -0.239 N 
ATOM     26  H2  UNL     1     -17.180 -13.194   7.856  1.00  0.00     0.197 HD
BRANCH  25  27
HETATM   27  N3  UNL     1     -15.719 -14.144   8.689  1.00  0.00    -0.248 NA
BRANCH  27  28
HETATM   28  N4  UNL     1     -15.329 -15.323   8.876  1.00  0.00    -0.261 N 
ATOM     29  H42 UNL     1     -16.115 -15.704   8.348  1.00  0.00     0.193 HD
ATOM     30  H41 UNL     1     -14.835 -16.173   9.148  1.00  0.00     0.193 HD
ENDBRANCH  27  28
ENDBRANCH  25  27
ENDBRANCH   5  25
TORSDOF 10
ENDMDL
MODEL 3
REMARK VINA RESULT: -7.380762791      1.333      1.475
REMARK  10 active torsions:
REMARK  status: ('A' for Active; 'I' for Inactive)
REMARK       I    between atoms: C2_2  and  N1_4 
REMARK    1  A    between atoms: N1_4  and  C3_6 
REMARK    2  A    between atoms: C3_6  and  C5_8 
REMARK    3  A    between atoms: C5_8  and  C6_10 
REMARK    4  A    between atoms: C6_10  and  O3_11 
REMARK    5  A    between atoms: C6_10  and  C7_13 
REMARK    6  A    between atoms: C8_15  and  O5_17 
REMARK    7  A    between atoms: C10_19  and  N2_20 
REMARK    8  A    between atoms: N2_20  and  N3_22 
REMARK    9  A    between atoms: N3_22  and  N4_23 
REMARK   10  A    between atoms: C11_26  and  N5_27 
REMARK       I    between atoms: N5_27  and  C12_28 
ROOT
HETATM    1  C7  UNL     1     -17.179 -10.101   9.174  1.00  0.00     0.223 C 
HETATM    2  O4  UNL     1     -16.425 -10.350  10.295  1.00  0.00    -0.338 OA
HETATM    3  C8  UNL     1     -16.213 -11.739  10.231  1.00  0.00     0.185 C 
HETATM    4  C9  UNL     1     -17.551 -12.414  10.375  1.00  0.00     0.081 C 
HETATM    5  C10 UNL     1     -15.757 -11.963   8.818  1.00  0.00     0.214 C 
HETATM    6  C11 UNL     1     -16.508 -10.894   8.052  1.00  0.00     0.232 C 
ENDROOT
BRANCH   1   7
HETATM    7  C6  UNL     1     -17.491  -8.728   8.879  1.00  0.00     0.123 C 
BRANCH   7   8
HETATM    8  C5  UNL     1     -18.472  -7.839   9.407  1.00  0.00     0.203 C 
HETATM    9  O2  UNL     1     -19.673  -7.951   9.113  1.00  0.00    -0.288 OA
BRANCH   8  10
HETATM   10  C3  UNL     1     -18.104  -6.713  10.349  1.00  0.00     0.157 C 
HETATM   11  C4  UNL     1     -17.260  -7.149  11.485  1.00  0.00     0.041 C 
BRANCH  10  12
HETATM   12  N1  UNL     1     -19.244  -5.977  10.803  1.00  0.00    -0.350 N 
HETATM   13  C2  UNL     1     -19.200  -4.564  11.003  1.00  0.00     0.214 C 
HETATM   14  C1  UNL     1     -20.291  -3.708  11.469  1.00  0.00     0.117 C 
HETATM   15  O1  UNL     1     -18.074  -3.983  10.749  1.00  0.00    -0.274 OA
ATOM     16  H1  UNL     1     -20.113  -6.476  10.989  1.00  0.00     0.163 HD
ENDBRANCH  10  12
ENDBRANCH   8  10
ENDBRANCH   7   8
BRANCH   7  17
HETATM   17  O3  UNL     1     -16.742  -8.183   7.951  1.00  0.00    -0.359 OA
ATOM     18  H3  UNL     1     -16.366  -8.816   7.351  1.00  0.00     0.217 HD
ENDBRANCH   7  17
ENDBRANCH   1   7
BRANCH   6  19
HETATM   19  N5  UNL     1     -15.724 -10.198   7.154  1.00  0.00    -0.405 NA
HETATM   20  C12 UNL     1     -14.972  -9.528   6.296  1.00  0.00     0.282 C 
HETATM   21  C13 UNL     1     -14.323 -10.236   5.093  1.00  0.00     0.134 C 
HETATM   22  O6  UNL     1     -14.676  -8.284   6.298  1.00  0.00    -0.258 OA
ENDBRANCH   6  19
BRANCH   3  23
HETATM   23  O5  UNL     1     -15.311 -12.128  11.198  1.00  0.00    -0.364 OA
ATOM     24  H5  UNL     1     -15.449 -11.630  11.995  1.00  0.00     0.213 HD
ENDBRANCH   3  23
BRANCH   5  25
HETATM   25  N2  UNL     1     -16.037 -13.306   8.343  1.00  0.00    -0.239 N 
ATOM     26  H2  UNL     1     -16.667 -13.431   7.551  1.00  0.00     0.197 HD
BRANCH  25  27
HETATM   27  N3  UNL     1     -15.539 -14.285   8.866  1.00  0.00    -0.248 NA
BRANCH  27  28
HETATM   28  N4  UNL     1     -15.281 -15.424   9.327  1.00  0.00    -0.261 N 
ATOM     29  H42 UNL     1     -15.257 -15.835   8.394  1.00  0.00     0.193 HD
ATOM     30  H41 UNL     1     -15.080 -16.235   9.913  1.00  0.00     0.193 HD
ENDBRANCH  27  28
ENDBRANCH  25  27
ENDBRANCH   5  25
TORSDOF 10
ENDMDL
MODEL 4
REMARK VINA RESULT: -6.383367691      1.458      1.619
REMARK  10 active torsions:
REMARK  status: ('A' for Active; 'I' for Inactive)
REMARK       I    between atoms: C2_2  and  N1_4 
REMARK    1  A    between atoms: N1_4  and  C3_6 
REMARK    2  A    between atoms: C3_6  and  C5_8 
REMARK    3  A    between atoms: C5_8  and  C6_10 
REMARK    4  A    between atoms: C6_10  and  O3_11 
REMARK    5  A    between atoms: C6_10  and  C7_13 
REMARK    6  A    between atoms: C8_15  and  O5_17 
REMARK    7  A    between atoms: C10_19  and  N2_20 
REMARK    8  A    between atoms: N2_20  and  N3_22 
REMARK    9  A    between atoms: N3_22  and  N4_23 
REMARK   10  A    between atoms: C11_26  and  N5_27 
REMARK       I    between atoms: N5_27  and  C12_28 
ROOT
HETATM    1  C7  UNL     1     -17.236 -10.898   9.826  1.00  0.00     0.223 C 
HETATM    2  O4  UNL     1     -16.391 -11.048  10.898  1.00  0.00    -0.338 OA
HETATM    3  C8  UNL     1     -16.206 -12.440  10.963  1.00  0.00     0.185 C 
HETATM    4  C9  UNL     1     -17.536 -13.064  11.292  1.00  0.00     0.081 C 
HETATM    5  C10 UNL     1     -15.880 -12.822   9.547  1.00  0.00     0.214 C 
HETATM    6  C11 UNL     1     -16.680 -11.820   8.741  1.00  0.00     0.232 C 
ENDROOT
BRANCH   1   7
HETATM    7  C6  UNL     1     -17.553  -9.556   9.416  1.00  0.00     0.123 C 
BRANCH   7   8
HETATM    8  C5  UNL     1     -17.515  -8.313  10.112  1.00  0.00     0.203 C 
HETATM    9  O2  UNL     1     -17.065  -8.230  11.266  1.00  0.00    -0.288 OA
BRANCH   8  10
HETATM   10  C3  UNL     1     -18.023  -7.032   9.486  1.00  0.00     0.157 C 
HETATM   11  C4  UNL     1     -17.367  -6.707   8.198  1.00  0.00     0.041 C 
BRANCH  10  12
HETATM   12  N1  UNL     1     -17.978  -5.920  10.386  1.00  0.00    -0.350 N 
HETATM   13  C2  UNL     1     -19.082  -5.030  10.542  1.00  0.00     0.214 C 
HETATM   14  C1  UNL     1     -19.151  -3.861  11.419  1.00  0.00     0.117 C 
HETATM   15  O1  UNL     1     -20.130  -5.282   9.829  1.00  0.00    -0.274 OA
ATOM     16  H1  UNL     1     -17.131  -5.760  10.931  1.00  0.00     0.163 HD
ENDBRANCH  10  12
ENDBRANCH   8  10
ENDBRANCH   7   8
BRANCH   7  17
HETATM   17  O3  UNL     1     -17.955  -9.444   8.174  1.00  0.00    -0.359 OA
ATOM     18  H3  UNL     1     -17.787 -10.219   7.652  1.00  0.00     0.217 HD
ENDBRANCH   7  17
ENDBRANCH   1   7
BRANCH   6  19
HETATM   19  N5  UNL     1     -15.968 -11.240   7.709  1.00  0.00    -0.405 NA
HETATM   20  C12 UNL     1     -15.285 -10.689   6.720  1.00  0.00     0.282 C 
HETATM   21  C13 UNL     1     -15.169  -9.159   6.596  1.00  0.00     0.134 C 
HETATM   22  O6  UNL     1     -14.647 -11.265   5.773  1.00  0.00    -0.258 OA
ENDBRANCH   6  19
BRANCH   3  23
HETATM   23  O5  UNL     1     -15.228 -12.749  11.884  1.00  0.00    -0.364 OA
ATOM     24  H5  UNL     1     -15.349 -13.634  12.208  1.00  0.00     0.213 HD
ENDBRANCH   3  23
BRANCH   5  25
HETATM   25  N2  UNL     1     -16.221 -14.199   9.243  1.00  0.00    -0.239 N 
ATOM     26  H2  UNL     1     -17.117 -14.570   9.559  1.00  0.00     0.197 HD
BRANCH  25  27
HETATM   27  N3  UNL     1     -15.465 -14.922   8.621  1.00  0.00    -0.248 NA
BRANCH  27  28
HETATM   28  N4  UNL     1     -14.937 -15.795   7.890  1.00  0.00    -0.261 N 
ATOM     29  H42 UNL     1     -14.688 -16.369   8.695  1.00  0.00     0.193 HD
ATOM     30  H41 UNL     1     -14.575 -16.356   7.119  1.00  0.00     0.193 HD
ENDBRANCH  27  28
ENDBRANCH  25  27
ENDBRANCH   5  25
TORSDOF 10
ENDMDL
MODEL 5
REMARK VINA RESULT: -5.227542826      1.965      7.122
REMARK  10 active torsions:
REMARK  status: ('A' for Active; 'I' for Inactive)
REMARK       I    between atoms: C2_2  and  N1_4 
REMARK    1  A    between atoms: N1_4  and  C3_6 
REMARK    2  A    between atoms: C3_6  and  C5_8 
REMARK    3  A    between atoms: C5_8  and  C6_10 
REMARK    4  A    between atoms: C6_10  and  O3_11 
REMARK    5  A    between atoms: C6_10  and  C7_13 
REMARK    6  A    between atoms: C8_15  and  O5_17 
REMARK    7  A    between atoms: C10_19  and  N2_20 
REMARK    8  A    between atoms: N2_20  and  N3_22 
REMARK    9  A    between atoms: N3_22  and  N4_23 
REMARK   10  A    between atoms: C11_26  and  N5_27 
REMARK       I    between atoms: N5_27  and  C12_28 
ROOT
HETATM    1  C7  UNL     1     -18.132  -7.198   8.531  1.00  0.00     0.223 C 
HETATM    2  O4  UNL     1     -17.792  -5.929   8.933  1.00  0.00    -0.338 OA
HETATM    3  C8  UNL     1     -19.018  -5.398   9.372  1.00  0.00     0.185 C 
HETATM    4  C9  UNL     1     -19.932  -5.308   8.180  1.00  0.00     0.081 C 
HETATM    5  C10 UNL     1     -19.568  -6.468  10.270  1.00  0.00     0.214 C 
HETATM    6  C11 UNL     1     -19.047  -7.738   9.630  1.00  0.00     0.232 C 
ENDROOT
BRANCH   1   7
HETATM    7  C6  UNL     1     -17.065  -8.066   8.110  1.00  0.00     0.123 C 
BRANCH   7   8
HETATM    8  C5  UNL     1     -17.016  -9.471   7.878  1.00  0.00     0.203 C 
HETATM    9  O2  UNL     1     -18.027 -10.182   7.989  1.00  0.00    -0.288 OA
BRANCH   8  10
HETATM   10  C3  UNL     1     -15.732 -10.170   7.486  1.00  0.00     0.157 C 
HETATM   11  C4  UNL     1     -15.094  -9.596   6.279  1.00  0.00     0.041 C 
BRANCH  10  12
HETATM   12  N1  UNL     1     -15.888 -11.588   7.364  1.00  0.00    -0.350 N 
HETATM   13  C2  UNL     1     -15.417 -12.489   8.366  1.00  0.00     0.214 C 
HETATM   14  C1  UNL     1     -15.512 -13.949   8.349  1.00  0.00     0.117 C 
HETATM   15  O1  UNL     1     -14.842 -11.956   9.393  1.00  0.00    -0.274 OA
ATOM     16  H1  UNL     1     -16.350 -11.965   6.537  1.00  0.00     0.163 HD
ENDBRANCH  10  12
ENDBRANCH   8  10
ENDBRANCH   7   8
BRANCH   7  17
HETATM   17  O3  UNL     1     -15.919  -7.464   7.902  1.00  0.00    -0.359 OA
ATOM     18  H3  UNL     1     -15.449  -7.261   8.702  1.00  0.00     0.217 HD
ENDBRANCH   7  17
ENDBRANCH   1   7
BRANCH   6  19
HETATM   19  N5  UNL     1     -18.506  -8.634  10.532  1.00  0.00    -0.405 NA
HETATM   20  C12 UNL     1     -17.990  -9.489  11.399  1.00  0.00     0.282 C 
HETATM   21  C13 UNL     1     -17.677 -10.939  10.987  1.00  0.00     0.134 C 
HETATM   22  O6  UNL     1     -17.675  -9.292  12.622  1.00  0.00    -0.258 OA
ENDBRANCH   6  19
BRANCH   3  23
HETATM   23  O5  UNL     1     -18.816  -4.178   9.984  1.00  0.00    -0.364 OA
ATOM     24  H5  UNL     1     -19.171  -4.191  10.865  1.00  0.00     0.213 HD
ENDBRANCH   3  23
BRANCH   5  25
HETATM   25  N2  UNL     1     -21.015  -6.432  10.366  1.00  0.00    -0.239 N 
ATOM     26  H2  UNL     1     -21.557  -7.208   9.986  1.00  0.00     0.197 HD
BRANCH  25  27
HETATM   27  N3  UNL     1     -21.598  -5.500  10.888  1.00  0.00    -0.248 NA
BRANCH  27  28
HETATM   28  N4  UNL     1     -21.925  -4.436  11.467  1.00  0.00    -0.261 N 
ATOM     29  H42 UNL     1     -21.854  -3.901  10.602  1.00  0.00     0.193 HD
ATOM     30  H41 UNL     1     -22.202  -3.713  12.132  1.00  0.00     0.193 HD
ENDBRANCH  27  28
ENDBRANCH  25  27
ENDBRANCH   5  25
TORSDOF 10
ENDMDL
