MODEL 1
REMARK VINA RESULT: -7.432942057      0.000      0.000
REMARK  5 active torsions:
REMARK  status: ('A' for Active; 'I' for Inactive)
REMARK    1  A    between atoms: C2_2  and  C3_3 
REMARK    2  A    between atoms: C9_11  and  O3_12 
REMARK    3  A    between atoms: C10_14  and  O4_15 
REMARK    4  A    between atoms: O4_15  and  C11_16 
REMARK    5  A    between atoms: C14_20  and  C16_22 
ROOT
HETATM    1  C16 UNL     1      15.677 -27.076  58.438  1.00  0.00     0.001 C 
HETATM    2  C17 UNL     1      16.203 -26.392  59.373  1.00  0.00     0.015 C 
HETATM    3  C18 UNL     1      17.703 -26.059  59.290  1.00  0.00     0.060 C 
HETATM    4  C19 UNL     1      15.614 -25.857  60.545  1.00  0.00     0.094 C 
HETATM    5  N1  UNL     1      15.155 -25.399  61.537  1.00  0.00    -0.192 NA
ENDROOT
BRANCH   1   6
HETATM    6  C14 UNL     1      14.335 -27.607  58.114  1.00  0.00    -0.011 C 
HETATM    7  C3  UNL     1      14.173 -27.896  56.628  1.00  0.00     0.016 C 
HETATM    8  C4  UNL     1      14.553 -29.224  56.129  1.00  0.00     0.094 C 
HETATM    9  C7  UNL     1      12.743 -27.891  56.212  1.00  0.00     0.104 C 
HETATM   10  C5  UNL     1      15.678 -30.001  56.602  1.00  0.00     0.021 C 
HETATM   11  C6  UNL     1      13.309 -30.054  56.125  1.00  0.00     0.264 C 
HETATM   12  O1  UNL     1      13.114 -31.232  55.765  1.00  0.00    -0.265 OA
HETATM   13  O2  UNL     1      12.336 -29.216  56.633  1.00  0.00    -0.306 OA
HETATM   14  C8  UNL     1      12.434 -27.848  54.765  1.00  0.00     0.050 C 
HETATM   15  C9  UNL     1      11.798 -26.967  56.876  1.00  0.00     0.183 C 
HETATM   16  C10 UNL     1      11.954 -27.199  58.365  1.00  0.00     0.164 C 
HETATM   17  C13 UNL     1      13.336 -26.581  58.589  1.00  0.00     0.049 C 
HETATM   18  C15 UNL     1      14.182 -28.789  59.024  1.00  0.00     0.020 C 
BRANCH   7  19
HETATM   19  C2  UNL     1      15.046 -26.851  56.008  1.00  0.00     0.010 C 
HETATM   20  C1  UNL     1      15.946 -27.146  54.899  1.00  0.00     0.006 C 
ENDBRANCH   7  19
BRANCH  15  21
HETATM   21  O3  UNL     1      10.520 -27.258  56.436  1.00  0.00    -0.390 OA
ATOM     22  H3  UNL     1       9.945 -26.547  56.692  1.00  0.00     0.210 HD
ENDBRANCH  15  21
BRANCH  16  23
HETATM   23  O4  UNL     1      10.950 -26.498  59.049  1.00  0.00    -0.314 OA
BRANCH  23  24
HETATM   24  C11 UNL     1       9.887 -27.143  59.680  1.00  0.00     0.255 C 
HETATM   25  C12 UNL     1       8.940 -26.480  60.585  1.00  0.00     0.126 C 
HETATM   26  O5  UNL     1       9.768 -28.375  59.428  1.00  0.00    -0.266 OA
ENDBRANCH  23  24
ENDBRANCH  16  23
ENDBRANCH   1   6
TORSDOF 5
ENDMDL
MODEL 2
REMARK VINA RESULT: -7.326097951      2.766      5.001
REMARK  5 active torsions:
REMARK  status: ('A' for Active; 'I' for Inactive)
REMARK    1  A    between atoms: C2_2  and  C3_3 
REMARK    2  A    between atoms: C9_11  and  O3_12 
REMARK    3  A    between atoms: C10_14  and  O4_15 
REMARK    4  A    between atoms: O4_15  and  C11_16 
REMARK    5  A    between atoms: C14_20  and  C16_22 
ROOT
HETATM    1  C16 UNL     1      15.828 -29.643  57.978  1.00  0.00     0.001 C 
HETATM    2  C17 UNL     1      15.587 -30.711  57.330  1.00  0.00     0.015 C 
HETATM    3  C18 UNL     1      16.455 -31.951  57.605  1.00  0.00     0.060 C 
HETATM    4  C19 UNL     1      14.606 -30.970  56.342  1.00  0.00     0.094 C 
HETATM    5  N1  UNL     1      13.800 -31.219  55.510  1.00  0.00    -0.192 NA
ENDROOT
BRANCH   1   6
HETATM    6  C14 UNL     1      15.276 -28.271  58.039  1.00  0.00    -0.011 C 
HETATM    7  C3  UNL     1      15.725 -27.525  59.288  1.00  0.00     0.016 C 
HETATM    8  C4  UNL     1      16.976 -26.758  59.232  1.00  0.00     0.094 C 
HETATM    9  C7  UNL     1      14.791 -26.421  59.643  1.00  0.00     0.104 C 
HETATM   10  C5  UNL     1      18.167 -27.159  58.513  1.00  0.00     0.021 C 
HETATM   11  C6  UNL     1      16.604 -25.352  58.883  1.00  0.00     0.264 C 
HETATM   12  O1  UNL     1      17.306 -24.331  58.747  1.00  0.00    -0.265 OA
HETATM   13  O2  UNL     1      15.232 -25.390  58.726  1.00  0.00    -0.306 OA
HETATM   14  C8  UNL     1      14.910 -25.805  60.983  1.00  0.00     0.050 C 
HETATM   15  C9  UNL     1      13.345 -26.581  59.377  1.00  0.00     0.183 C 
HETATM   16  C10 UNL     1      13.222 -26.980  57.921  1.00  0.00     0.164 C 
HETATM   17  C13 UNL     1      13.774 -28.406  57.986  1.00  0.00     0.049 C 
HETATM   18  C15 UNL     1      15.685 -27.656  56.734  1.00  0.00     0.020 C 
BRANCH   7  19
HETATM   19  C2  UNL     1      15.851 -28.632  60.287  1.00  0.00     0.010 C 
HETATM   20  C1  UNL     1      16.975 -28.721  61.212  1.00  0.00     0.006 C 
ENDBRANCH   7  19
BRANCH  15  21
HETATM   21  O3  UNL     1      12.715 -25.378  59.641  1.00  0.00    -0.390 OA
ATOM     22  H3  UNL     1      11.999 -25.540  60.243  1.00  0.00     0.210 HD
ENDBRANCH  15  21
BRANCH  16  23
HETATM   23  O4  UNL     1      11.871 -26.958  57.548  1.00  0.00    -0.314 OA
BRANCH  23  24
HETATM   24  C11 UNL     1      11.465 -26.960  56.213  1.00  0.00     0.255 C 
HETATM   25  C12 UNL     1      10.449 -27.865  55.662  1.00  0.00     0.126 C 
HETATM   26  O5  UNL     1      12.033 -26.114  55.468  1.00  0.00    -0.266 OA
ENDBRANCH  23  24
ENDBRANCH  16  23
ENDBRANCH   1   6
TORSDOF 5
ENDMDL
MODEL 3
REMARK VINA RESULT: -6.960643819      2.498      3.287
REMARK  5 active torsions:
REMARK  status: ('A' for Active; 'I' for Inactive)
REMARK    1  A    between atoms: C2_2  and  C3_3 
REMARK    2  A    between atoms: C9_11  and  O3_12 
REMARK    3  A    between atoms: C10_14  and  O4_15 
REMARK    4  A    between atoms: O4_15  and  C11_16 
REMARK    5  A    between atoms: C14_20  and  C16_22 
ROOT
HETATM    1  C16 UNL     1      15.419 -28.145  58.717  1.00  0.00     0.001 C 
HETATM    2  C17 UNL     1      15.175 -27.323  59.656  1.00  0.00     0.015 C 
HETATM    3  C18 UNL     1      16.157 -27.241  60.839  1.00  0.00     0.060 C 
HETATM    4  C19 UNL     1      14.094 -26.421  59.813  1.00  0.00     0.094 C 
HETATM    5  N1  UNL     1      13.202 -25.659  59.977  1.00  0.00    -0.192 NA
ENDROOT
BRANCH   1   6
HETATM    6  C14 UNL     1      14.784 -28.545  57.442  1.00  0.00    -0.011 C 
HETATM    7  C3  UNL     1      15.784 -29.153  56.466  1.00  0.00     0.016 C 
HETATM    8  C4  UNL     1      16.022 -30.601  56.522  1.00  0.00     0.094 C 
HETATM    9  C7  UNL     1      15.319 -29.047  55.056  1.00  0.00     0.104 C 
HETATM   10  C5  UNL     1      16.061 -31.393  57.733  1.00  0.00     0.021 C 
HETATM   11  C6  UNL     1      15.108 -31.226  55.518  1.00  0.00     0.264 C 
HETATM   12  O1  UNL     1      14.960 -32.417  55.177  1.00  0.00    -0.265 OA
HETATM   13  O2  UNL     1      14.399 -30.164  54.991  1.00  0.00    -0.306 OA
HETATM   14  C8  UNL     1      16.296 -29.305  53.975  1.00  0.00     0.050 C 
HETATM   15  C9  UNL     1      14.527 -27.870  54.640  1.00  0.00     0.183 C 
HETATM   16  C10 UNL     1      13.379 -27.761  55.623  1.00  0.00     0.164 C 
HETATM   17  C13 UNL     1      14.139 -27.307  56.871  1.00  0.00     0.049 C 
HETATM   18  C15 UNL     1      13.660 -29.445  57.862  1.00  0.00     0.020 C 
BRANCH   7  19
HETATM   19  C2  UNL     1      17.041 -28.417  56.806  1.00  0.00     0.010 C 
HETATM   20  C1  UNL     1      18.356 -29.042  56.724  1.00  0.00     0.006 C 
ENDBRANCH   7  19
BRANCH  15  21
HETATM   21  O3  UNL     1      14.084 -28.075  53.346  1.00  0.00    -0.390 OA
ATOM     22  H3  UNL     1      13.239 -27.653  53.247  1.00  0.00     0.210 HD
ENDBRANCH  15  21
BRANCH  16  23
HETATM   23  O4  UNL     1      12.478 -26.785  55.175  1.00  0.00    -0.314 OA
BRANCH  23  24
HETATM   24  C11 UNL     1      11.295 -27.110  54.511  1.00  0.00     0.255 C 
HETATM   25  C12 UNL     1      10.123 -27.708  55.159  1.00  0.00     0.126 C 
HETATM   26  O5  UNL     1      11.276 -26.857  53.273  1.00  0.00    -0.266 OA
ENDBRANCH  23  24
ENDBRANCH  16  23
ENDBRANCH   1   6
TORSDOF 5
ENDMDL
MODEL 4
REMARK VINA RESULT: -6.882089675      1.974      2.659
REMARK  5 active torsions:
REMARK  status: ('A' for Active; 'I' for Inactive)
REMARK    1  A    between atoms: C2_2  and  C3_3 
REMARK    2  A    between atoms: C9_11  and  O3_12 
REMARK    3  A    between atoms: C10_14  and  O4_15 
REMARK    4  A    between atoms: O4_15  and  C11_16 
REMARK    5  A    between atoms: C14_20  and  C16_22 
ROOT
HETATM    1  C16 UNL     1      14.209 -27.020  58.936  1.00  0.00     0.001 C 
HETATM    2  C17 UNL     1      13.799 -26.209  59.826  1.00  0.00     0.015 C 
HETATM    3  C18 UNL     1      14.781 -25.760  60.923  1.00  0.00     0.060 C 
HETATM    4  C19 UNL     1      12.523 -25.618  59.996  1.00  0.00     0.094 C 
HETATM    5  N1  UNL     1      11.467 -25.110  60.168  1.00  0.00    -0.192 NA
ENDROOT
BRANCH   1   6
HETATM    6  C14 UNL     1      13.641 -27.690  57.745  1.00  0.00    -0.011 C 
HETATM    7  C3  UNL     1      14.703 -27.999  56.697  1.00  0.00     0.016 C 
HETATM    8  C4  UNL     1      15.414 -29.281  56.780  1.00  0.00     0.094 C 
HETATM    9  C7  UNL     1      14.116 -28.146  55.337  1.00  0.00     0.104 C 
HETATM   10  C5  UNL     1      15.813 -29.934  58.009  1.00  0.00     0.021 C 
HETATM   11  C6  UNL     1      14.682 -30.238  55.894  1.00  0.00     0.264 C 
HETATM   12  O1  UNL     1      14.913 -31.431  55.613  1.00  0.00    -0.265 OA
HETATM   13  O2  UNL     1      13.619 -29.505  55.403  1.00  0.00    -0.306 OA
HETATM   14  C8  UNL     1      15.031 -28.139  54.174  1.00  0.00     0.050 C 
HETATM   15  C9  UNL     1      12.945 -27.325  54.959  1.00  0.00     0.183 C 
HETATM   16  C10 UNL     1      11.911 -27.534  56.047  1.00  0.00     0.164 C 
HETATM   17  C13 UNL     1      12.576 -26.774  57.197  1.00  0.00     0.049 C 
HETATM   18  C15 UNL     1      12.920 -28.879  58.306  1.00  0.00     0.020 C 
BRANCH   7  19
HETATM   19  C2  UNL     1      15.666 -26.870  56.884  1.00  0.00     0.010 C 
HETATM   20  C1  UNL     1      17.100 -27.025  56.668  1.00  0.00     0.006 C 
ENDBRANCH   7  19
BRANCH  15  21
HETATM   21  O3  UNL     1      12.492 -27.750  53.724  1.00  0.00    -0.390 OA
ATOM     22  H3  UNL     1      13.056 -27.383  53.054  1.00  0.00     0.210 HD
ENDBRANCH  15  21
BRANCH  16  23
HETATM   23  O4  UNL     1      10.703 -26.941  55.656  1.00  0.00    -0.314 OA
BRANCH  23  24
HETATM   24  C11 UNL     1       9.488 -27.626  55.693  1.00  0.00     0.255 C 
HETATM   25  C12 UNL     1       8.994 -28.488  54.613  1.00  0.00     0.126 C 
HETATM   26  O5  UNL     1       8.802 -27.466  56.742  1.00  0.00    -0.266 OA
ENDBRANCH  23  24
ENDBRANCH  16  23
ENDBRANCH   1   6
TORSDOF 5
ENDMDL
MODEL 5
REMARK VINA RESULT: -6.789574811      1.461      1.925
REMARK  5 active torsions:
REMARK  status: ('A' for Active; 'I' for Inactive)
REMARK    1  A    between atoms: C2_2  and  C3_3 
REMARK    2  A    between atoms: C9_11  and  O3_12 
REMARK    3  A    between atoms: C10_14  and  O4_15 
REMARK    4  A    between atoms: O4_15  and  C11_16 
REMARK    5  A    between atoms: C14_20  and  C16_22 
ROOT
HETATM    1  C16 UNL     1      15.681 -26.178  58.298  1.00  0.00     0.001 C 
HETATM    2  C17 UNL     1      15.867 -25.343  59.239  1.00  0.00     0.015 C 
HETATM    3  C18 UNL     1      16.821 -24.160  58.997  1.00  0.00     0.060 C 
HETATM    4  C19 UNL     1      15.320 -25.313  60.545  1.00  0.00     0.094 C 
HETATM    5  N1  UNL     1      14.884 -25.261  61.646  1.00  0.00    -0.192 NA
ENDROOT
BRANCH   1   6
HETATM    6  C14 UNL     1      14.887 -27.410  58.090  1.00  0.00    -0.011 C 
HETATM    7  C3  UNL     1      15.443 -28.270  56.963  1.00  0.00     0.016 C 
HETATM    8  C4  UNL     1      16.465 -29.273  57.288  1.00  0.00     0.094 C 
HETATM    9  C7  UNL     1      14.407 -29.172  56.388  1.00  0.00     0.104 C 
HETATM   10  C5  UNL     1      17.520 -29.101  58.264  1.00  0.00     0.021 C 
HETATM   11  C6  UNL     1      15.745 -30.562  57.521  1.00  0.00     0.264 C 
HETATM   12  O1  UNL     1      16.174 -31.701  57.795  1.00  0.00    -0.265 OA
HETATM   13  O2  UNL     1      14.410 -30.242  57.364  1.00  0.00    -0.306 OA
HETATM   14  C8  UNL     1      14.696 -29.839  55.099  1.00  0.00     0.050 C 
HETATM   15  C9  UNL     1      13.003 -28.713  56.322  1.00  0.00     0.183 C 
HETATM   16  C10 UNL     1      12.640 -28.253  57.720  1.00  0.00     0.164 C 
HETATM   17  C13 UNL     1      13.473 -26.972  57.804  1.00  0.00     0.049 C 
HETATM   18  C15 UNL     1      14.858 -28.056  59.444  1.00  0.00     0.020 C 
BRANCH   7  19
HETATM   19  C2  UNL     1      16.015 -27.243  56.037  1.00  0.00     0.010 C 
HETATM   20  C1  UNL     1      17.215 -27.490  55.246  1.00  0.00     0.006 C 
ENDBRANCH   7  19
BRANCH  15  21
HETATM   21  O3  UNL     1      12.216 -29.770  55.903  1.00  0.00    -0.390 OA
ATOM     22  H3  UNL     1      11.564 -29.438  55.298  1.00  0.00     0.210 HD
ENDBRANCH  15  21
BRANCH  16  23
HETATM   23  O4  UNL     1      11.265 -27.988  57.776  1.00  0.00    -0.314 OA
BRANCH  23  24
HETATM   24  C11 UNL     1      10.600 -27.750  58.979  1.00  0.00     0.255 C 
HETATM   25  C12 UNL     1      10.444 -26.423  59.587  1.00  0.00     0.126 C 
HETATM   26  O5  UNL     1      10.116 -28.769  59.548  1.00  0.00    -0.266 OA
ENDBRANCH  23  24
ENDBRANCH  16  23
ENDBRANCH   1   6
TORSDOF 5
ENDMDL
