MODEL 1
REMARK VINA RESULT: -7.624492157      0.000      0.000
REMARK  3 active torsions:
REMARK  status: ('A' for Active; 'I' for Inactive)
REMARK    1  A    between atoms: C3_4  and  O2_5 
REMARK    2  A    between atoms: O2_5  and  C4_6 
REMARK    3  A    between atoms: C4_6  and  N1_7 
ROOT
HETATM    1  O2  UNL     1      13.640 -26.910  59.734  1.00  0.00    -0.335 OA
ENDROOT
BRANCH   1   2
HETATM    2  C3  UNL     1      14.924 -27.184  59.279  1.00  0.00     0.167 C 
HETATM    3  O1  UNL     1      15.105 -26.111  58.419  1.00  0.00    -0.350 OA
HETATM    4  C2  UNL     1      16.239 -25.851  57.826  1.00  0.00     0.125 C 
HETATM    5  C1  UNL     1      16.852 -24.571  58.386  1.00  0.00     0.040 C 
HETATM    6  C16 UNL     1      17.321 -26.884  57.794  1.00  0.00     0.015 C 
HETATM    7  C15 UNL     1      16.923 -28.181  57.206  1.00  0.00     0.012 C 
HETATM    8  C17 UNL     1      17.990 -26.933  59.110  1.00  0.00     0.012 C 
HETATM    9  C14 UNL     1      16.079 -29.068  58.018  1.00  0.00    -0.009 C 
HETATM   10  C13 UNL     1      16.779 -29.827  59.101  1.00  0.00     0.005 C 
HETATM   11  C18 UNL     1      14.810 -28.485  58.564  1.00  0.00     0.073 C 
HETATM   12  C12 UNL     1      17.492 -29.078  60.123  1.00  0.00     0.005 C 
HETATM   13  C11 UNL     1      17.256 -27.596  60.207  1.00  0.00    -0.009 C 
HETATM   14  C10 UNL     1      15.854 -27.203  60.442  1.00  0.00     0.073 C 
ENDBRANCH   1   2
BRANCH   1  15
HETATM   15  C4  UNL     1      13.117 -25.689  59.639  1.00  0.00     0.328 C 
BRANCH  15  16
HETATM   16  N1  UNL     1      11.691 -25.885  59.319  1.00  0.00    -0.126 N 
HETATM   17  S1  UNL     1      10.305 -25.155  60.132  1.00  0.00     0.044 SA
HETATM   18  C5  UNL     1       9.095 -26.278  59.471  1.00  0.00     0.177 C 
HETATM   19  N2  UNL     1       7.920 -26.463  59.894  1.00  0.00    -0.378 N 
HETATM   20  N3  UNL     1       9.749 -26.906  58.377  1.00  0.00    -0.160 N 
ATOM     21  H22 UNL     1       7.450 -26.012  60.679  1.00  0.00     0.158 HD
ATOM     22  H21 UNL     1       7.225 -27.107  59.515  1.00  0.00     0.158 HD
HETATM   23  C6  UNL     1       9.069 -27.744  57.366  1.00  0.00     0.151 C 
HETATM   24  C9  UNL     1      11.113 -26.707  58.285  1.00  0.00     0.692 C 
HETATM   25  C7  UNL     1       9.798 -27.801  56.067  1.00  0.00     0.041 C 
HETATM   26  C8  UNL     1      11.279 -28.053  56.282  1.00  0.00     0.139 C 
HETATM   27  N4  UNL     1      11.795 -27.237  57.324  1.00  0.00    -0.225 N 
ATOM     28  H4  UNL     1      12.798 -27.051  57.312  1.00  0.00     0.177 HD
ENDBRANCH  15  16
ENDBRANCH   1  15
TORSDOF 3
ENDMDL
MODEL 2
REMARK VINA RESULT: -7.507961902      0.857      2.299
REMARK  3 active torsions:
REMARK  status: ('A' for Active; 'I' for Inactive)
REMARK    1  A    between atoms: C3_4  and  O2_5 
REMARK    2  A    between atoms: O2_5  and  C4_6 
REMARK    3  A    between atoms: C4_6  and  N1_7 
ROOT
HETATM    1  O2  UNL     1      13.611 -27.128  59.816  1.00  0.00    -0.335 OA
ENDROOT
BRANCH   1   2
HETATM    2  C3  UNL     1      14.739 -27.695  59.234  1.00  0.00     0.167 C 
HETATM    3  O1  UNL     1      14.221 -28.929  58.868  1.00  0.00    -0.350 OA
HETATM    4  C2  UNL     1      14.883 -29.801  58.156  1.00  0.00     0.125 C 
HETATM    5  C1  UNL     1      14.257 -29.942  56.771  1.00  0.00     0.040 C 
HETATM    6  C16 UNL     1      16.358 -29.644  57.962  1.00  0.00     0.015 C 
HETATM    7  C15 UNL     1      17.142 -29.567  59.213  1.00  0.00     0.012 C 
HETATM    8  C17 UNL     1      16.611 -28.591  56.958  1.00  0.00     0.012 C 
HETATM    9  C14 UNL     1      17.094 -28.311  59.973  1.00  0.00    -0.009 C 
HETATM   10  C13 UNL     1      17.926 -27.189  59.436  1.00  0.00     0.005 C 
HETATM   11  C18 UNL     1      15.736 -27.789  60.336  1.00  0.00     0.073 C 
HETATM   12  C12 UNL     1      17.676 -26.726  58.082  1.00  0.00     0.005 C 
HETATM   13  C11 UNL     1      16.423 -27.193  57.395  1.00  0.00    -0.009 C 
HETATM   14  C10 UNL     1      15.168 -26.845  58.089  1.00  0.00     0.073 C 
ENDBRANCH   1   2
BRANCH   1  15
HETATM   15  C4  UNL     1      13.192 -25.911  59.473  1.00  0.00     0.328 C 
BRANCH  15  16
HETATM   16  N1  UNL     1      11.750 -26.046  59.193  1.00  0.00    -0.126 N 
HETATM   17  S1  UNL     1      10.420 -25.266  60.051  1.00  0.00     0.044 SA
HETATM   18  C5  UNL     1       9.146 -26.333  59.418  1.00  0.00     0.177 C 
HETATM   19  N2  UNL     1       7.977 -26.473  59.873  1.00  0.00    -0.378 N 
HETATM   20  N3  UNL     1       9.742 -26.979  58.301  1.00  0.00    -0.160 N 
ATOM     21  H22 UNL     1       7.549 -26.009  60.675  1.00  0.00     0.158 HD
ATOM     22  H21 UNL     1       7.245 -27.085  59.510  1.00  0.00     0.158 HD
HETATM   23  C6  UNL     1       8.999 -27.780  57.304  1.00  0.00     0.151 C 
HETATM   24  C9  UNL     1      11.110 -26.835  58.171  1.00  0.00     0.692 C 
HETATM   25  C7  UNL     1       9.688 -27.856  55.984  1.00  0.00     0.041 C 
HETATM   26  C8  UNL     1      11.162 -28.171  56.155  1.00  0.00     0.139 C 
HETATM   27  N4  UNL     1      11.742 -27.385  57.187  1.00  0.00    -0.225 N 
ATOM     28  H4  UNL     1      12.751 -27.241  57.147  1.00  0.00     0.177 HD
ENDBRANCH  15  16
ENDBRANCH   1  15
TORSDOF 3
ENDMDL
MODEL 3
REMARK VINA RESULT: -7.439121897      1.047      2.171
REMARK  3 active torsions:
REMARK  status: ('A' for Active; 'I' for Inactive)
REMARK    1  A    between atoms: C3_4  and  O2_5 
REMARK    2  A    between atoms: O2_5  and  C4_6 
REMARK    3  A    between atoms: C4_6  and  N1_7 
ROOT
HETATM    1  O2  UNL     1      13.580 -26.894  59.903  1.00  0.00    -0.335 OA
ENDROOT
BRANCH   1   2
HETATM    2  C3  UNL     1      14.630 -27.566  59.287  1.00  0.00     0.167 C 
HETATM    3  O1  UNL     1      15.611 -27.408  60.253  1.00  0.00    -0.350 OA
HETATM    4  C2  UNL     1      16.780 -27.987  60.188  1.00  0.00     0.125 C 
HETATM    5  C1  UNL     1      16.907 -29.053  61.274  1.00  0.00     0.040 C 
HETATM    6  C16 UNL     1      17.241 -28.603  58.905  1.00  0.00     0.015 C 
HETATM    7  C15 UNL     1      17.256 -27.684  57.747  1.00  0.00     0.012 C 
HETATM    8  C17 UNL     1      16.558 -29.898  58.712  1.00  0.00     0.012 C 
HETATM    9  C14 UNL     1      15.967 -27.336  57.135  1.00  0.00    -0.009 C 
HETATM   10  C13 UNL     1      15.363 -28.375  56.244  1.00  0.00     0.005 C 
HETATM   11  C18 UNL     1      14.908 -26.791  58.046  1.00  0.00     0.073 C 
HETATM   12  C12 UNL     1      15.083 -29.688  56.800  1.00  0.00     0.005 C 
HETATM   13  C11 UNL     1      15.142 -29.850  58.293  1.00  0.00    -0.009 C 
HETATM   14  C10 UNL     1      14.223 -28.979  59.049  1.00  0.00     0.073 C 
ENDBRANCH   1   2
BRANCH   1  15
HETATM   15  C4  UNL     1      13.137 -25.727  59.438  1.00  0.00     0.328 C 
BRANCH  15  16
HETATM   16  N1  UNL     1      11.698 -25.917  59.177  1.00  0.00    -0.126 N 
HETATM   17  S1  UNL     1      10.351 -25.179  60.046  1.00  0.00     0.044 SA
HETATM   18  C5  UNL     1       9.109 -26.297  59.438  1.00  0.00     0.177 C 
HETATM   19  N2  UNL     1       7.951 -26.476  59.910  1.00  0.00    -0.378 N 
HETATM   20  N3  UNL     1       9.714 -26.930  58.319  1.00  0.00    -0.160 N 
ATOM     21  H22 UNL     1       7.517 -26.022  60.713  1.00  0.00     0.158 HD
ATOM     22  H21 UNL     1       7.238 -27.117  59.561  1.00  0.00     0.158 HD
HETATM   23  C6  UNL     1       8.988 -27.765  57.338  1.00  0.00     0.151 C 
HETATM   24  C9  UNL     1      11.074 -26.737  58.170  1.00  0.00     0.692 C 
HETATM   25  C7  UNL     1       9.663 -27.827  56.009  1.00  0.00     0.041 C 
HETATM   26  C8  UNL     1      11.150 -28.087  56.164  1.00  0.00     0.139 C 
HETATM   27  N4  UNL     1      11.713 -27.271  57.182  1.00  0.00    -0.225 N 
ATOM     28  H4  UNL     1      12.716 -27.091  57.128  1.00  0.00     0.177 HD
ENDBRANCH  15  16
ENDBRANCH   1  15
TORSDOF 3
ENDMDL
MODEL 4
REMARK VINA RESULT: -7.366184413      1.984      3.541
REMARK  3 active torsions:
REMARK  status: ('A' for Active; 'I' for Inactive)
REMARK    1  A    between atoms: C3_4  and  O2_5 
REMARK    2  A    between atoms: O2_5  and  C4_6 
REMARK    3  A    between atoms: C4_6  and  N1_7 
ROOT
HETATM    1  O2  UNL     1      13.980 -26.406  57.325  1.00  0.00    -0.335 OA
ENDROOT
BRANCH   1   2
HETATM    2  C3  UNL     1      14.932 -26.472  58.337  1.00  0.00     0.167 C 
HETATM    3  O1  UNL     1      14.753 -27.785  58.745  1.00  0.00    -0.350 OA
HETATM    4  C2  UNL     1      15.525 -28.375  59.618  1.00  0.00     0.125 C 
HETATM    5  C1  UNL     1      16.356 -29.463  58.944  1.00  0.00     0.040 C 
HETATM    6  C16 UNL     1      16.457 -27.564  60.463  1.00  0.00     0.015 C 
HETATM    7  C15 UNL     1      15.806 -26.499  61.255  1.00  0.00     0.012 C 
HETATM    8  C17 UNL     1      17.627 -27.166  59.656  1.00  0.00     0.012 C 
HETATM    9  C14 UNL     1      15.372 -25.288  60.544  1.00  0.00    -0.009 C 
HETATM   10  C13 UNL     1      16.450 -24.310  60.200  1.00  0.00     0.005 C 
HETATM   11  C18 UNL     1      14.482 -25.482  59.354  1.00  0.00     0.073 C 
HETATM   12  C12 UNL     1      17.556 -24.759  59.372  1.00  0.00     0.005 C 
HETATM   13  C11 UNL     1      17.422 -26.083  58.672  1.00  0.00    -0.009 C 
HETATM   14  C10 UNL     1      16.272 -26.187  57.754  1.00  0.00     0.073 C 
ENDBRANCH   1   2
BRANCH   1  15
HETATM   15  C4  UNL     1      13.899 -27.349  56.387  1.00  0.00     0.328 C 
BRANCH  15  16
HETATM   16  N1  UNL     1      12.463 -27.656  56.249  1.00  0.00    -0.126 N 
HETATM   17  S1  UNL     1      11.623 -28.185  54.790  1.00  0.00     0.044 SA
HETATM   18  C5  UNL     1       9.986 -27.827  55.384  1.00  0.00     0.177 C 
HETATM   19  N2  UNL     1       8.932 -27.726  54.694  1.00  0.00    -0.378 N 
HETATM   20  N3  UNL     1      10.138 -27.683  56.789  1.00  0.00    -0.160 N 
ATOM     21  H22 UNL     1       8.823 -27.830  53.685  1.00  0.00     0.158 HD
ATOM     22  H21 UNL     1       7.993 -27.521  55.035  1.00  0.00     0.158 HD
HETATM   23  C6  UNL     1       9.015 -27.619  57.749  1.00  0.00     0.151 C 
HETATM   24  C9  UNL     1      11.435 -27.593  57.256  1.00  0.00     0.692 C 
HETATM   25  C7  UNL     1       9.398 -28.041  59.127  1.00  0.00     0.041 C 
HETATM   26  C8  UNL     1      10.703 -27.394  59.554  1.00  0.00     0.139 C 
HETATM   27  N4  UNL     1      11.675 -27.462  58.520  1.00  0.00    -0.225 N 
ATOM     28  H4  UNL     1      12.653 -27.401  58.801  1.00  0.00     0.177 HD
ENDBRANCH  15  16
ENDBRANCH   1  15
TORSDOF 3
ENDMDL
MODEL 5
REMARK VINA RESULT: -7.349379514      0.797      2.332
REMARK  3 active torsions:
REMARK  status: ('A' for Active; 'I' for Inactive)
REMARK    1  A    between atoms: C3_4  and  O2_5 
REMARK    2  A    between atoms: O2_5  and  C4_6 
REMARK    3  A    between atoms: C4_6  and  N1_7 
ROOT
HETATM    1  O2  UNL     1      13.698 -26.831  59.668  1.00  0.00    -0.335 OA
ENDROOT
BRANCH   1   2
HETATM    2  C3  UNL     1      15.020 -26.976  59.262  1.00  0.00     0.167 C 
HETATM    3  O1  UNL     1      15.598 -27.352  60.464  1.00  0.00    -0.350 OA
HETATM    4  C2  UNL     1      16.844 -27.731  60.573  1.00  0.00     0.125 C 
HETATM    5  C1  UNL     1      16.920 -29.218  60.906  1.00  0.00     0.040 C 
HETATM    6  C16 UNL     1      17.804 -27.476  59.455  1.00  0.00     0.015 C 
HETATM    7  C15 UNL     1      17.918 -26.060  59.047  1.00  0.00     0.012 C 
HETATM    8  C17 UNL     1      17.571 -28.458  58.377  1.00  0.00     0.012 C 
HETATM    9  C14 UNL     1      16.820 -25.488  58.254  1.00  0.00    -0.009 C 
HETATM   10  C13 UNL     1      16.798 -25.856  56.804  1.00  0.00     0.005 C 
HETATM   11  C18 UNL     1      15.437 -25.617  58.818  1.00  0.00     0.073 C 
HETATM   12  C12 UNL     1      16.720 -27.263  56.447  1.00  0.00     0.005 C 
HETATM   13  C11 UNL     1      16.379 -28.249  57.530  1.00  0.00    -0.009 C 
HETATM   14  C10 UNL     1      15.085 -28.015  58.197  1.00  0.00     0.073 C 
ENDBRANCH   1   2
BRANCH   1  15
HETATM   15  C4  UNL     1      13.123 -25.632  59.740  1.00  0.00     0.328 C 
BRANCH  15  16
HETATM   16  N1  UNL     1      11.706 -25.845  59.390  1.00  0.00    -0.126 N 
HETATM   17  S1  UNL     1      10.297 -25.118  60.165  1.00  0.00     0.044 SA
HETATM   18  C5  UNL     1       9.111 -26.258  59.489  1.00  0.00     0.177 C 
HETATM   19  N2  UNL     1       7.928 -26.449  59.888  1.00  0.00    -0.378 N 
HETATM   20  N3  UNL     1       9.794 -26.892  58.417  1.00  0.00    -0.160 N 
ATOM     21  H22 UNL     1       7.438 -25.994  60.658  1.00  0.00     0.158 HD
ATOM     22  H21 UNL     1       7.247 -27.103  59.501  1.00  0.00     0.158 HD
HETATM   23  C6  UNL     1       9.144 -27.745  57.399  1.00  0.00     0.151 C 
HETATM   24  C9  UNL     1      11.158 -26.681  58.353  1.00  0.00     0.692 C 
HETATM   25  C7  UNL     1       9.902 -27.809  56.117  1.00  0.00     0.041 C 
HETATM   26  C8  UNL     1      11.380 -28.046  56.368  1.00  0.00     0.139 C 
HETATM   27  N4  UNL     1      11.866 -27.215  57.412  1.00  0.00    -0.225 N 
ATOM     28  H4  UNL     1      12.867 -27.021  57.420  1.00  0.00     0.177 HD
ENDBRANCH  15  16
ENDBRANCH   1  15
TORSDOF 3
ENDMDL
