MODEL 1
REMARK VINA RESULT: -7.505651568      0.000      0.000
REMARK  3 active torsions:
REMARK  status: ('A' for Active; 'I' for Inactive)
REMARK    1  A    between atoms: C2_2  and  C3_3 
REMARK    2  A    between atoms: C8_13  and  N4_14 
REMARK    3  A    between atoms: C13_21  and  C14_22 
ROOT
HETATM    1  C1  UNL     1     -32.011  -2.462  -0.913  1.00  0.00     0.078 A 
HETATM    2  C2  UNL     1     -32.425  -2.407   0.402  1.00  0.00     0.036 A 
HETATM    3  N2  UNL     1     -31.532  -3.107   1.116  1.00  0.00    -0.282 N 
ATOM      4  H2  UNL     1     -31.579  -3.243   2.126  1.00  0.00     0.188 HD
HETATM    5  N3  UNL     1     -30.596  -3.593   0.349  1.00  0.00    -0.070 N 
HETATM    6  C8  UNL     1     -29.505  -4.354   0.649  1.00  0.00     0.704 A 
HETATM    7  N5  UNL     1     -28.718  -4.701  -0.365  1.00  0.00    -0.178 N 
ATOM      8  H5  UNL     1     -27.895  -5.272  -0.169  1.00  0.00     0.185 HD
HETATM    9  C13 UNL     1     -28.957  -4.337  -1.630  1.00  0.00     0.103 A 
HETATM   10  N6  UNL     1     -30.043  -3.580  -1.926  1.00  0.00    -0.329 N 
ATOM     11  H6  UNL     1     -30.239  -3.296  -2.886  1.00  0.00     0.168 HD
HETATM   12  C17 UNL     1     -30.859  -3.213  -0.913  1.00  0.00     0.148 A 
ENDROOT
BRANCH   2  13
HETATM   13  C3  UNL     1     -33.604  -1.734   0.982  1.00  0.00     0.054 C 
HETATM   14  C4  UNL     1     -34.163  -2.647   2.056  1.00  0.00     0.014 C 
HETATM   15  C5  UNL     1     -35.562  -2.162   2.369  1.00  0.00     0.020 C 
HETATM   16  C6  UNL     1     -36.423  -2.454   1.168  1.00  0.00     0.113 C 
HETATM   17  N1  UNL     1     -35.754  -2.301  -0.076  1.00  0.00    -0.420 N 
HETATM   18  C7  UNL     1     -34.640  -1.398  -0.058  1.00  0.00     0.124 C 
ATOM     19  H1  UNL     1     -36.045  -2.795  -0.919  1.00  0.00     0.153 HD
ENDBRANCH   2  13
BRANCH   6  20
HETATM   20  N4  UNL     1     -29.268  -4.729   1.997  1.00  0.00    -0.216 N 
HETATM   21  C9  UNL     1     -29.361  -3.933   3.179  1.00  0.00     0.141 C 
HETATM   22  C10 UNL     1     -28.792  -4.778   4.299  1.00  0.00     0.022 C 
HETATM   23  C11 UNL     1     -29.147  -6.179   3.853  1.00  0.00     0.022 C 
HETATM   24  C12 UNL     1     -28.868  -6.096   2.369  1.00  0.00     0.141 C 
ENDBRANCH   6  20
BRANCH   9  25
HETATM   25  C14 UNL     1     -28.006  -4.786  -2.675  1.00  0.00     0.054 A 
HETATM   26  C15 UNL     1     -26.825  -3.836  -2.923  1.00  0.00     0.013 A 
HETATM   27  C16 UNL     1     -26.627  -5.122  -2.239  1.00  0.00     0.013 A 
ENDBRANCH   9  25
TORSDOF 3
ENDMDL
MODEL 2
REMARK VINA RESULT: -7.377044697      0.961      1.267
REMARK  3 active torsions:
REMARK  status: ('A' for Active; 'I' for Inactive)
REMARK    1  A    between atoms: C2_2  and  C3_3 
REMARK    2  A    between atoms: C8_13  and  N4_14 
REMARK    3  A    between atoms: C13_21  and  C14_22 
ROOT
HETATM    1  C1  UNL     1     -31.985  -2.660  -1.240  1.00  0.00     0.078 A 
HETATM    2  C2  UNL     1     -32.463  -2.543   0.050  1.00  0.00     0.036 A 
HETATM    3  N2  UNL     1     -31.566  -3.139   0.847  1.00  0.00    -0.282 N 
ATOM      4  H2  UNL     1     -31.652  -3.209   1.862  1.00  0.00     0.188 HD
HETATM    5  N3  UNL     1     -30.569  -3.617   0.158  1.00  0.00    -0.070 N 
HETATM    6  C8  UNL     1     -29.452  -4.291   0.556  1.00  0.00     0.704 A 
HETATM    7  N5  UNL     1     -28.599  -4.657  -0.396  1.00  0.00    -0.178 N 
ATOM      8  H5  UNL     1     -27.756  -5.163  -0.126  1.00  0.00     0.185 HD
HETATM    9  C13 UNL     1     -28.799  -4.394  -1.693  1.00  0.00     0.103 A 
HETATM   10  N6  UNL     1     -29.912  -3.724  -2.087  1.00  0.00    -0.329 N 
ATOM     11  H6  UNL     1     -30.078  -3.517  -3.072  1.00  0.00     0.168 HD
HETATM   12  C17 UNL     1     -30.793  -3.340  -1.138  1.00  0.00     0.148 A 
ENDROOT
BRANCH   2  13
HETATM   13  C3  UNL     1     -33.703  -1.904   0.529  1.00  0.00     0.054 C 
HETATM   14  C4  UNL     1     -33.314  -0.583   1.165  1.00  0.00     0.014 C 
HETATM   15  C5  UNL     1     -34.495  -0.121   1.991  1.00  0.00     0.020 C 
HETATM   16  C6  UNL     1     -34.623  -1.057   3.164  1.00  0.00     0.113 C 
HETATM   17  N1  UNL     1     -34.302  -2.408   2.864  1.00  0.00    -0.420 N 
HETATM   18  C7  UNL     1     -34.465  -2.779   1.488  1.00  0.00     0.124 C 
ATOM     19  H1  UNL     1     -33.979  -3.065   3.574  1.00  0.00     0.153 HD
ENDBRANCH   2  13
BRANCH   6  20
HETATM   20  N4  UNL     1     -29.258  -4.560   1.936  1.00  0.00    -0.216 N 
HETATM   21  C9  UNL     1     -29.328  -3.661   3.044  1.00  0.00     0.141 C 
HETATM   22  C10 UNL     1     -28.823  -4.434   4.244  1.00  0.00     0.022 C 
HETATM   23  C11 UNL     1     -29.243  -5.849   3.911  1.00  0.00     0.022 C 
HETATM   24  C12 UNL     1     -28.936  -5.908   2.431  1.00  0.00     0.141 C 
ENDBRANCH   6  20
BRANCH   9  25
HETATM   25  C14 UNL     1     -27.776  -4.854  -2.662  1.00  0.00     0.054 A 
HETATM   26  C15 UNL     1     -26.733  -3.795  -3.051  1.00  0.00     0.013 A 
HETATM   27  C16 UNL     1     -26.372  -4.927  -2.184  1.00  0.00     0.013 A 
ENDBRANCH   9  25
TORSDOF 3
ENDMDL
MODEL 3
REMARK VINA RESULT: -7.230749067      2.380      4.146
REMARK  3 active torsions:
REMARK  status: ('A' for Active; 'I' for Inactive)
REMARK    1  A    between atoms: C2_2  and  C3_3 
REMARK    2  A    between atoms: C8_13  and  N4_14 
REMARK    3  A    between atoms: C13_21  and  C14_22 
ROOT
HETATM    1  C1  UNL     1     -31.529  -3.320   0.883  1.00  0.00     0.078 A 
HETATM    2  C2  UNL     1     -32.183  -2.105   0.841  1.00  0.00     0.036 A 
HETATM    3  N2  UNL     1     -31.482  -1.319   0.013  1.00  0.00    -0.282 N 
ATOM      4  H2  UNL     1     -31.727  -0.355  -0.215  1.00  0.00     0.188 HD
HETATM    5  N3  UNL     1     -30.444  -1.947  -0.464  1.00  0.00    -0.070 N 
HETATM    6  C8  UNL     1     -29.473  -1.535  -1.329  1.00  0.00     0.704 A 
HETATM    7  N5  UNL     1     -28.526  -2.418  -1.634  1.00  0.00    -0.178 N 
ATOM      8  H5  UNL     1     -27.787  -2.136  -2.278  1.00  0.00     0.185 HD
HETATM    9  C13 UNL     1     -28.500  -3.659  -1.135  1.00  0.00     0.103 A 
HETATM   10  N6  UNL     1     -29.467  -4.067  -0.274  1.00  0.00    -0.329 N 
ATOM     11  H6  UNL     1     -29.459  -5.009   0.116  1.00  0.00     0.168 HD
HETATM   12  C17 UNL     1     -30.441  -3.188   0.051  1.00  0.00     0.148 A 
ENDROOT
BRANCH   2  13
HETATM   13  C3  UNL     1     -33.412  -1.683   1.542  1.00  0.00     0.054 C 
HETATM   14  C4  UNL     1     -33.889  -2.863   2.367  1.00  0.00     0.014 C 
HETATM   15  C5  UNL     1     -35.322  -2.581   2.761  1.00  0.00     0.020 C 
HETATM   16  C6  UNL     1     -36.160  -2.657   1.512  1.00  0.00     0.113 C 
HETATM   17  N1  UNL     1     -35.511  -2.165   0.348  1.00  0.00    -0.420 N 
HETATM   18  C7  UNL     1     -34.476  -1.202   0.592  1.00  0.00     0.124 C 
ATOM     19  H1  UNL     1     -35.762  -2.473  -0.591  1.00  0.00     0.153 HD
ENDBRANCH   2  13
BRANCH   6  20
HETATM   20  N4  UNL     1     -29.519  -0.216  -1.848  1.00  0.00    -0.216 N 
HETATM   21  C9  UNL     1     -29.226   1.018  -1.191  1.00  0.00     0.141 C 
HETATM   22  C10 UNL     1     -29.649   2.113  -2.147  1.00  0.00     0.022 C 
HETATM   23  C11 UNL     1     -29.410   1.469  -3.495  1.00  0.00     0.022 C 
HETATM   24  C12 UNL     1     -29.904   0.062  -3.242  1.00  0.00     0.141 C 
ENDBRANCH   6  20
BRANCH   9  25
HETATM   25  C14 UNL     1     -27.393  -4.553  -1.550  1.00  0.00     0.054 A 
HETATM   26  C15 UNL     1     -27.572  -5.203  -2.931  1.00  0.00     0.013 A 
HETATM   27  C16 UNL     1     -26.586  -4.133  -2.723  1.00  0.00     0.013 A 
ENDBRANCH   9  25
TORSDOF 3
ENDMDL
MODEL 4
REMARK VINA RESULT: -7.161469319      3.486      4.778
REMARK  3 active torsions:
REMARK  status: ('A' for Active; 'I' for Inactive)
REMARK    1  A    between atoms: C2_2  and  C3_3 
REMARK    2  A    between atoms: C8_13  and  N4_14 
REMARK    3  A    between atoms: C13_21  and  C14_22 
ROOT
HETATM    1  C1  UNL     1     -28.887  -0.089  -2.000  1.00  0.00     0.078 A 
HETATM    2  C2  UNL     1     -29.946   0.616  -1.465  1.00  0.00     0.036 A 
HETATM    3  N2  UNL     1     -30.710  -0.273  -0.815  1.00  0.00    -0.282 N 
ATOM      4  H2  UNL     1     -31.569  -0.040  -0.316  1.00  0.00     0.188 HD
HETATM    5  N3  UNL     1     -30.211  -1.474  -0.903  1.00  0.00    -0.070 N 
HETATM    6  C8  UNL     1     -30.655  -2.661  -0.399  1.00  0.00     0.704 A 
HETATM    7  N5  UNL     1     -29.918  -3.737  -0.661  1.00  0.00    -0.178 N 
ATOM      8  H5  UNL     1     -30.227  -4.639  -0.298  1.00  0.00     0.185 HD
HETATM    9  C13 UNL     1     -28.791  -3.691  -1.381  1.00  0.00     0.103 A 
HETATM   10  N6  UNL     1     -28.353  -2.508  -1.882  1.00  0.00    -0.329 N 
ATOM     11  H6  UNL     1     -27.496  -2.457  -2.434  1.00  0.00     0.168 HD
HETATM   12  C17 UNL     1     -29.083  -1.400  -1.629  1.00  0.00     0.148 A 
ENDROOT
BRANCH   2  13
HETATM   13  C3  UNL     1     -30.243   2.059  -1.550  1.00  0.00     0.054 C 
HETATM   14  C4  UNL     1     -29.209   2.783  -0.709  1.00  0.00     0.014 C 
HETATM   15  C5  UNL     1     -29.729   4.185  -0.472  1.00  0.00     0.020 C 
HETATM   16  C6  UNL     1     -30.922   4.078   0.442  1.00  0.00     0.113 C 
HETATM   17  N1  UNL     1     -31.722   2.926   0.217  1.00  0.00    -0.420 N 
HETATM   18  C7  UNL     1     -31.645   2.382  -1.108  1.00  0.00     0.124 C 
ATOM     19  H1  UNL     1     -32.309   2.516   0.944  1.00  0.00     0.153 HD
ENDBRANCH   2  13
BRANCH   6  20
HETATM   20  N4  UNL     1     -31.851  -2.690   0.363  1.00  0.00    -0.216 N 
HETATM   21  C9  UNL     1     -33.191  -2.436  -0.061  1.00  0.00     0.141 C 
HETATM   22  C10 UNL     1     -34.029  -2.391   1.199  1.00  0.00     0.022 C 
HETATM   23  C11 UNL     1     -33.296  -3.360   2.102  1.00  0.00     0.022 C 
HETATM   24  C12 UNL     1     -31.856  -3.015   1.798  1.00  0.00     0.141 C 
ENDBRANCH   6  20
BRANCH   9  25
HETATM   25  C14 UNL     1     -28.056  -4.958  -1.607  1.00  0.00     0.054 A 
HETATM   26  C15 UNL     1     -27.553  -5.164  -3.044  1.00  0.00     0.013 A 
HETATM   27  C16 UNL     1     -26.616  -4.854  -1.954  1.00  0.00     0.013 A 
ENDBRANCH   9  25
TORSDOF 3
ENDMDL
MODEL 5
REMARK VINA RESULT: -7.070752609      3.391      7.335
REMARK  3 active torsions:
REMARK  status: ('A' for Active; 'I' for Inactive)
REMARK    1  A    between atoms: C2_2  and  C3_3 
REMARK    2  A    between atoms: C8_13  and  N4_14 
REMARK    3  A    between atoms: C13_21  and  C14_22 
ROOT
HETATM    1  C1  UNL     1     -30.931  -2.895  -1.558  1.00  0.00     0.078 A 
HETATM    2  C2  UNL     1     -29.663  -2.525  -1.155  1.00  0.00     0.036 A 
HETATM    3  N2  UNL     1     -29.689  -1.197  -0.976  1.00  0.00    -0.282 N 
ATOM      4  H2  UNL     1     -28.888  -0.640  -0.676  1.00  0.00     0.188 HD
HETATM    5  N3  UNL     1     -30.870  -0.711  -1.235  1.00  0.00    -0.070 N 
HETATM    6  C8  UNL     1     -31.337   0.569  -1.185  1.00  0.00     0.704 A 
HETATM    7  N5  UNL     1     -32.613   0.757  -1.512  1.00  0.00    -0.178 N 
ATOM      8  H5  UNL     1     -32.988   1.705  -1.484  1.00  0.00     0.185 HD
HETATM    9  C13 UNL     1     -33.425  -0.241  -1.876  1.00  0.00     0.103 A 
HETATM   10  N6  UNL     1     -32.958  -1.515  -1.926  1.00  0.00    -0.329 N 
ATOM     11  H6  UNL     1     -33.565  -2.286  -2.204  1.00  0.00     0.168 HD
HETATM   12  C17 UNL     1     -31.665  -1.732  -1.598  1.00  0.00     0.148 A 
ENDROOT
BRANCH   2  13
HETATM   13  C3  UNL     1     -28.470  -3.367  -0.943  1.00  0.00     0.054 C 
HETATM   14  C4  UNL     1     -27.630  -3.285  -2.203  1.00  0.00     0.014 C 
HETATM   15  C5  UNL     1     -26.637  -4.426  -2.152  1.00  0.00     0.020 C 
HETATM   16  C6  UNL     1     -27.409  -5.708  -2.321  1.00  0.00     0.113 C 
HETATM   17  N1  UNL     1     -28.689  -5.698  -1.706  1.00  0.00    -0.420 N 
HETATM   18  C7  UNL     1     -28.826  -4.790  -0.604  1.00  0.00     0.124 C 
ATOM     19  H1  UNL     1     -29.454  -6.293  -2.023  1.00  0.00     0.153 HD
ENDBRANCH   2  13
BRANCH   6  20
HETATM   20  N4  UNL     1     -30.460   1.614  -0.795  1.00  0.00    -0.216 N 
HETATM   21  C9  UNL     1     -30.296   2.215   0.491  1.00  0.00     0.141 C 
HETATM   22  C10 UNL     1     -29.395   3.413   0.282  1.00  0.00     0.022 C 
HETATM   23  C11 UNL     1     -28.525   2.961  -0.871  1.00  0.00     0.022 C 
HETATM   24  C12 UNL     1     -29.538   2.256  -1.746  1.00  0.00     0.141 C 
ENDBRANCH   6  20
BRANCH   9  25
HETATM   25  C14 UNL     1     -34.828   0.092  -2.219  1.00  0.00     0.054 A 
HETATM   26  C15 UNL     1     -35.836  -0.113  -1.077  1.00  0.00     0.013 A 
HETATM   27  C16 UNL     1     -35.446   1.239  -1.505  1.00  0.00     0.013 A 
ENDBRANCH   9  25
TORSDOF 3
ENDMDL
