MODEL 1
REMARK VINA RESULT: -6.492468881      0.000      0.000
REMARK  6 active torsions:
REMARK  status: ('A' for Active; 'I' for Inactive)
REMARK    1  A    between atoms: C2_2  and  C3_3 
REMARK    2  A    between atoms: C3_3  and  C5_5 
REMARK    3  A    between atoms: C5_5  and  C6_6 
REMARK    4  A    between atoms: C5_5  and  N2_16 
REMARK    5  A    between atoms: C6_6  and  N1_7 
REMARK    6  A    between atoms: N1_7  and  C7_9 
ROOT
HETATM    1  C6  UNL     1      -4.578   1.851  13.031  1.00  0.00     0.081 C 
ENDROOT
BRANCH   1   2
HETATM    2  C5  UNL     1      -3.651   1.240  12.048  1.00  0.00     0.120 C 
BRANCH   2   3
HETATM    3  C3  UNL     1      -2.951   2.198  11.105  1.00  0.00     0.009 C 
HETATM    4  C4  UNL     1      -1.446   1.849  11.081  1.00  0.00     0.012 C 
BRANCH   3   5
HETATM    5  C2  UNL     1      -3.025   3.622  11.596  1.00  0.00     0.002 C 
HETATM    6  C1  UNL     1      -1.767   4.148  12.174  1.00  0.00     0.005 C 
ENDBRANCH   3   5
ENDBRANCH   2   3
BRANCH   2   7
HETATM    7  N2  UNL     1      -4.129   0.086  11.385  1.00  0.00    -0.412 N 
HETATM    8  C14 UNL     1      -3.528  -1.153  11.513  1.00  0.00     0.143 C 
HETATM    9  C15 UNL     1      -4.735   0.298  10.121  1.00  0.00     0.143 C 
ENDBRANCH   2   7
ENDBRANCH   1   2
BRANCH   1  10
HETATM   10  N1  UNL     1      -4.421   1.745  14.386  1.00  0.00    -0.396 N 
ATOM     11  H1  UNL     1      -4.143   0.825  14.726  1.00  0.00     0.159 HD
BRANCH  10  12
HETATM   12  C7  UNL     1      -4.587   2.711  15.355  1.00  0.00     0.080 C 
HETATM   13  C8  UNL     1      -5.915   3.443  15.033  1.00  0.00     0.025 C 
HETATM   14  C9  UNL     1      -6.405   4.263  16.173  1.00  0.00     0.002 C 
HETATM   15  C10 UNL     1      -7.174   3.486  17.197  1.00  0.00     0.000 C 
HETATM   16  C11 UNL     1      -7.286   2.019  16.871  1.00  0.00     0.000 C 
HETATM   17  C12 UNL     1      -5.980   1.315  16.787  1.00  0.00     0.002 C 
HETATM   18  C13 UNL     1      -4.780   2.188  16.771  1.00  0.00     0.025 C 
ENDBRANCH  10  12
ENDBRANCH   1  10
TORSDOF 6
ENDMDL
MODEL 2
REMARK VINA RESULT: -6.387879177      0.913      2.731
REMARK  6 active torsions:
REMARK  status: ('A' for Active; 'I' for Inactive)
REMARK    1  A    between atoms: C2_2  and  C3_3 
REMARK    2  A    between atoms: C3_3  and  C5_5 
REMARK    3  A    between atoms: C5_5  and  C6_6 
REMARK    4  A    between atoms: C5_5  and  N2_16 
REMARK    5  A    between atoms: C6_6  and  N1_7 
REMARK    6  A    between atoms: N1_7  and  C7_9 
ROOT
HETATM    1  C6  UNL     1      -4.747   2.030  12.722  1.00  0.00     0.081 C 
ENDROOT
BRANCH   1   2
HETATM    2  C5  UNL     1      -3.841   1.946  11.552  1.00  0.00     0.120 C 
BRANCH   2   3
HETATM    3  C3  UNL     1      -3.737   0.591  10.882  1.00  0.00     0.009 C 
HETATM    4  C4  UNL     1      -4.974   0.397   9.976  1.00  0.00     0.012 C 
BRANCH   3   5
HETATM    5  C2  UNL     1      -3.795  -0.535  11.884  1.00  0.00     0.002 C 
HETATM    6  C1  UNL     1      -3.149  -1.794  11.446  1.00  0.00     0.005 C 
ENDBRANCH   3   5
ENDBRANCH   2   3
BRANCH   2   7
HETATM    7  N2  UNL     1      -2.580   2.568  11.703  1.00  0.00    -0.412 N 
HETATM    8  C14 UNL     1      -2.431   3.938  11.822  1.00  0.00     0.143 C 
HETATM    9  C15 UNL     1      -1.488   1.929  11.064  1.00  0.00     0.143 C 
ENDBRANCH   2   7
ENDBRANCH   1   2
BRANCH   1  10
HETATM   10  N1  UNL     1      -4.312   2.010  14.020  1.00  0.00    -0.396 N 
ATOM     11  H1  UNL     1      -3.791   1.178  14.296  1.00  0.00     0.159 HD
BRANCH  10  12
HETATM   12  C7  UNL     1      -4.482   2.959  15.004  1.00  0.00     0.080 C 
HETATM   13  C8  UNL     1      -5.886   3.578  14.791  1.00  0.00     0.025 C 
HETATM   14  C9  UNL     1      -6.353   4.355  15.970  1.00  0.00     0.002 C 
HETATM   15  C10 UNL     1      -6.972   3.518  17.046  1.00  0.00     0.000 C 
HETATM   16  C11 UNL     1      -6.988   2.046  16.722  1.00  0.00     0.000 C 
HETATM   17  C12 UNL     1      -5.639   1.453  16.532  1.00  0.00     0.002 C 
HETATM   18  C13 UNL     1      -4.520   2.423  16.428  1.00  0.00     0.025 C 
ENDBRANCH  10  12
ENDBRANCH   1  10
TORSDOF 6
ENDMDL
MODEL 3
REMARK VINA RESULT: -6.383412558      1.184      2.624
REMARK  6 active torsions:
REMARK  status: ('A' for Active; 'I' for Inactive)
REMARK    1  A    between atoms: C2_2  and  C3_3 
REMARK    2  A    between atoms: C3_3  and  C5_5 
REMARK    3  A    between atoms: C5_5  and  C6_6 
REMARK    4  A    between atoms: C5_5  and  N2_16 
REMARK    5  A    between atoms: C6_6  and  N1_7 
REMARK    6  A    between atoms: N1_7  and  C7_9 
ROOT
HETATM    1  C6  UNL     1      -4.889   2.564  12.705  1.00  0.00     0.081 C 
ENDROOT
BRANCH   1   2
HETATM    2  C5  UNL     1      -3.914   2.431  11.596  1.00  0.00     0.120 C 
BRANCH   2   3
HETATM    3  C3  UNL     1      -3.087   1.161  11.581  1.00  0.00     0.009 C 
HETATM    4  C4  UNL     1      -2.085   1.244  10.408  1.00  0.00     0.012 C 
BRANCH   3   5
HETATM    5  C2  UNL     1      -3.934  -0.055  11.301  1.00  0.00     0.002 C 
HETATM    6  C1  UNL     1      -3.219  -1.348  11.398  1.00  0.00     0.005 C 
ENDBRANCH   3   5
ENDBRANCH   2   3
BRANCH   2   7
HETATM    7  N2  UNL     1      -3.139   3.580  11.315  1.00  0.00    -0.412 N 
HETATM    8  C14 UNL     1      -2.343   4.196  12.263  1.00  0.00     0.143 C 
HETATM    9  C15 UNL     1      -3.674   4.473  10.353  1.00  0.00     0.143 C 
ENDBRANCH   2   7
ENDBRANCH   1   2
BRANCH   1  10
HETATM   10  N1  UNL     1      -4.619   2.202  13.997  1.00  0.00    -0.396 N 
ATOM     11  H1  UNL     1      -4.293   1.245  14.127  1.00  0.00     0.159 HD
BRANCH  10  12
HETATM   12  C7  UNL     1      -4.727   2.954  15.148  1.00  0.00     0.080 C 
HETATM   13  C8  UNL     1      -6.195   3.446  15.223  1.00  0.00     0.025 C 
HETATM   14  C9  UNL     1      -6.555   3.964  16.569  1.00  0.00     0.002 C 
HETATM   15  C10 UNL     1      -6.945   2.901  17.549  1.00  0.00     0.000 C 
HETATM   16  C11 UNL     1      -6.882   1.509  16.974  1.00  0.00     0.000 C 
HETATM   17  C12 UNL     1      -5.528   1.102  16.516  1.00  0.00     0.002 C 
HETATM   18  C13 UNL     1      -4.520   2.190  16.448  1.00  0.00     0.025 C 
ENDBRANCH  10  12
ENDBRANCH   1  10
TORSDOF 6
ENDMDL
MODEL 4
REMARK VINA RESULT: -6.145523367      1.439      2.177
REMARK  6 active torsions:
REMARK  status: ('A' for Active; 'I' for Inactive)
REMARK    1  A    between atoms: C2_2  and  C3_3 
REMARK    2  A    between atoms: C3_3  and  C5_5 
REMARK    3  A    between atoms: C5_5  and  C6_6 
REMARK    4  A    between atoms: C5_5  and  N2_16 
REMARK    5  A    between atoms: C6_6  and  N1_7 
REMARK    6  A    between atoms: N1_7  and  C7_9 
ROOT
HETATM    1  C6  UNL     1      -4.322   2.547  12.613  1.00  0.00     0.081 C 
ENDROOT
BRANCH   1   2
HETATM    2  C5  UNL     1      -3.062   3.114  12.074  1.00  0.00     0.120 C 
BRANCH   2   3
HETATM    3  C3  UNL     1      -3.004   4.624  11.959  1.00  0.00     0.009 C 
HETATM    4  C4  UNL     1      -2.286   5.183  13.209  1.00  0.00     0.012 C 
BRANCH   3   5
HETATM    5  C2  UNL     1      -4.380   5.240  11.978  1.00  0.00     0.002 C 
HETATM    6  C1  UNL     1      -4.575   6.301  12.993  1.00  0.00     0.005 C 
ENDBRANCH   3   5
ENDBRANCH   2   3
BRANCH   2   7
HETATM    7  N2  UNL     1      -2.533   2.467  10.934  1.00  0.00    -0.412 N 
HETATM    8  C14 UNL     1      -2.173   1.132  10.930  1.00  0.00     0.143 C 
HETATM    9  C15 UNL     1      -1.750   3.271  10.067  1.00  0.00     0.143 C 
ENDBRANCH   2   7
ENDBRANCH   1   2
BRANCH   1  10
HETATM   10  N1  UNL     1      -4.494   2.195  13.924  1.00  0.00    -0.396 N 
ATOM     11  H1  UNL     1      -4.519   1.192  14.110  1.00  0.00     0.159 HD
BRANCH  10  12
HETATM   12  C7  UNL     1      -4.638   3.007  15.028  1.00  0.00     0.080 C 
HETATM   13  C8  UNL     1      -6.096   3.532  15.009  1.00  0.00     0.025 C 
HETATM   14  C9  UNL     1      -6.505   4.128  16.308  1.00  0.00     0.002 C 
HETATM   15  C10 UNL     1      -6.963   3.125  17.321  1.00  0.00     0.000 C 
HETATM   16  C11 UNL     1      -6.906   1.704  16.822  1.00  0.00     0.000 C 
HETATM   17  C12 UNL     1      -5.542   1.247  16.450  1.00  0.00     0.002 C 
HETATM   18  C13 UNL     1      -4.507   2.308  16.373  1.00  0.00     0.025 C 
ENDBRANCH  10  12
ENDBRANCH   1  10
TORSDOF 6
ENDMDL
MODEL 5
REMARK VINA RESULT: -6.110822994      1.801      2.659
REMARK  6 active torsions:
REMARK  status: ('A' for Active; 'I' for Inactive)
REMARK    1  A    between atoms: C2_2  and  C3_3 
REMARK    2  A    between atoms: C3_3  and  C5_5 
REMARK    3  A    between atoms: C5_5  and  C6_6 
REMARK    4  A    between atoms: C5_5  and  N2_16 
REMARK    5  A    between atoms: C6_6  and  N1_7 
REMARK    6  A    between atoms: N1_7  and  C7_9 
ROOT
HETATM    1  C6  UNL     1      -4.617   3.361  12.918  1.00  0.00     0.081 C 
ENDROOT
BRANCH   1   2
HETATM    2  C5  UNL     1      -3.209   3.691  12.592  1.00  0.00     0.120 C 
BRANCH   2   3
HETATM    3  C3  UNL     1      -2.764   5.104  12.910  1.00  0.00     0.009 C 
HETATM    4  C4  UNL     1      -1.851   5.061  14.156  1.00  0.00     0.012 C 
BRANCH   3   5
HETATM    5  C2  UNL     1      -3.926   5.984  13.295  1.00  0.00     0.002 C 
HETATM    6  C1  UNL     1      -3.823   6.601  14.638  1.00  0.00     0.005 C 
ENDBRANCH   3   5
ENDBRANCH   2   3
BRANCH   2   7
HETATM    7  N2  UNL     1      -2.750   3.254  11.328  1.00  0.00    -0.412 N 
HETATM    8  C14 UNL     1      -2.061   2.069  11.151  1.00  0.00     0.143 C 
HETATM    9  C15 UNL     1      -2.379   4.272  10.413  1.00  0.00     0.143 C 
ENDBRANCH   2   7
ENDBRANCH   1   2
BRANCH   1  10
HETATM   10  N1  UNL     1      -5.001   2.740  14.075  1.00  0.00    -0.396 N 
ATOM     11  H1  UNL     1      -5.389   1.804  13.964  1.00  0.00     0.159 HD
BRANCH  10  12
HETATM   12  C7  UNL     1      -4.935   3.206  15.371  1.00  0.00     0.080 C 
HETATM   13  C8  UNL     1      -6.386   3.543  15.798  1.00  0.00     0.025 C 
HETATM   14  C9  UNL     1      -6.521   3.718  17.269  1.00  0.00     0.002 C 
HETATM   15  C10 UNL     1      -6.682   2.435  18.024  1.00  0.00     0.000 C 
HETATM   16  C11 UNL     1      -6.661   1.216  17.138  1.00  0.00     0.000 C 
HETATM   17  C12 UNL     1      -5.394   1.036  16.382  1.00  0.00     0.002 C 
HETATM   18  C13 UNL     1      -4.464   2.193  16.405  1.00  0.00     0.025 C 
ENDBRANCH  10  12
ENDBRANCH   1  10
TORSDOF 6
ENDMDL
