MODEL 1
REMARK VINA RESULT: -5.136846146      0.000      0.000
REMARK  3 active torsions:
REMARK  status: ('A' for Active; 'I' for Inactive)
REMARK    1  A    between atoms: N1_1  and  C1_5 
REMARK    2  A    between atoms: C1_5  and  C2_6 
REMARK    3  A    between atoms: C2_6  and  C3_7 
ROOT
HETATM    1  C3  UNL     1      -4.862   3.827  14.756  1.00  0.00    -0.038 C 
HETATM    2  C4  UNL     1      -4.760   3.407  13.311  1.00  0.00     0.014 C 
HETATM    3  C5  UNL     1      -4.063   4.487  12.521  1.00  0.00    -0.013 C 
HETATM    4  C6  UNL     1      -4.808   5.794  12.539  1.00  0.00     0.009 C 
HETATM    5  C7  UNL     1      -4.942   6.226  13.968  1.00  0.00    -0.013 C 
HETATM    6  C8  UNL     1      -3.581   6.460  14.582  1.00  0.00     0.009 C 
HETATM    7  C9  UNL     1      -2.787   5.204  14.516  1.00  0.00    -0.013 C 
HETATM    8  C10 UNL     1      -2.674   4.769  13.057  1.00  0.00     0.009 C 
HETATM    9  C11 UNL     1      -3.447   4.040  15.236  1.00  0.00     0.014 C 
HETATM   10  C12 UNL     1      -5.625   5.167  14.758  1.00  0.00     0.014 C 
ENDROOT
BRANCH   1  11
HETATM   11  C2  UNL     1      -5.654   2.921  15.610  1.00  0.00     0.036 C 
BRANCH  11  12
HETATM   12  C1  UNL     1      -4.958   2.019  16.548  1.00  0.00     0.230 C 
BRANCH  12  13
HETATM   13  N1  UNL     1      -4.779   0.693  15.998  1.00  0.00    -0.079 N 
ATOM     14  H13 UNL     1      -5.129  -0.022  16.636  1.00  0.00     0.274 HD
ATOM     15  H12 UNL     1      -5.410   0.531  15.213  1.00  0.00     0.274 HD
ATOM     16  H11 UNL     1      -3.810   0.513  15.737  1.00  0.00     0.274 HD
ENDBRANCH  12  13
ENDBRANCH  11  12
ENDBRANCH   1  11
TORSDOF 3
ENDMDL
MODEL 2
REMARK VINA RESULT: -5.120544500      2.080      3.339
REMARK  3 active torsions:
REMARK  status: ('A' for Active; 'I' for Inactive)
REMARK    1  A    between atoms: N1_1  and  C1_5 
REMARK    2  A    between atoms: C1_5  and  C2_6 
REMARK    3  A    between atoms: C2_6  and  C3_7 
ROOT
HETATM    1  C3  UNL     1      -4.711   2.807  13.293  1.00  0.00    -0.038 C 
HETATM    2  C4  UNL     1      -3.550   3.770  13.343  1.00  0.00     0.014 C 
HETATM    3  C5  UNL     1      -3.465   4.384  14.718  1.00  0.00    -0.013 C 
HETATM    4  C6  UNL     1      -4.695   5.171  15.082  1.00  0.00     0.009 C 
HETATM    5  C7  UNL     1      -5.869   4.241  15.021  1.00  0.00    -0.013 C 
HETATM    6  C8  UNL     1      -5.717   3.127  16.030  1.00  0.00     0.009 C 
HETATM    7  C9  UNL     1      -4.468   2.369  15.744  1.00  0.00    -0.013 C 
HETATM    8  C10 UNL     1      -3.285   3.333  15.794  1.00  0.00     0.009 C 
HETATM    9  C11 UNL     1      -4.441   1.764  14.351  1.00  0.00     0.014 C 
HETATM   10  C12 UNL     1      -5.961   3.627  13.670  1.00  0.00     0.014 C 
ENDROOT
BRANCH   1  11
HETATM   11  C2  UNL     1      -4.993   2.246  11.958  1.00  0.00     0.036 C 
BRANCH  11  12
HETATM   12  C1  UNL     1      -4.656   0.836  11.679  1.00  0.00     0.230 C 
BRANCH  12  13
HETATM   13  N1  UNL     1      -5.062   0.431  10.352  1.00  0.00    -0.079 N 
ATOM     14  H13 UNL     1      -5.295  -0.562  10.324  1.00  0.00     0.274 HD
ATOM     15  H12 UNL     1      -5.975   0.817  10.110  1.00  0.00     0.274 HD
ATOM     16  H11 UNL     1      -4.364   0.666   9.647  1.00  0.00     0.274 HD
ENDBRANCH  12  13
ENDBRANCH  11  12
ENDBRANCH   1  11
TORSDOF 3
ENDMDL
MODEL 3
REMARK VINA RESULT: -5.097231720      2.076      3.578
REMARK  3 active torsions:
REMARK  status: ('A' for Active; 'I' for Inactive)
REMARK    1  A    between atoms: N1_1  and  C1_5 
REMARK    2  A    between atoms: C1_5  and  C2_6 
REMARK    3  A    between atoms: C2_6  and  C3_7 
ROOT
HETATM    1  C3  UNL     1      -4.825   2.819  13.385  1.00  0.00    -0.038 C 
HETATM    2  C4  UNL     1      -4.475   1.773  14.415  1.00  0.00     0.014 C 
HETATM    3  C5  UNL     1      -4.245   2.439  15.749  1.00  0.00    -0.013 C 
HETATM    4  C6  UNL     1      -3.103   3.419  15.722  1.00  0.00     0.009 C 
HETATM    5  C7  UNL     1      -3.416   4.460  14.690  1.00  0.00    -0.013 C 
HETATM    6  C8  UNL     1      -4.668   5.218  15.064  1.00  0.00     0.009 C 
HETATM    7  C9  UNL     1      -5.808   4.268  15.171  1.00  0.00    -0.013 C 
HETATM    8  C10 UNL     1      -5.467   3.205  16.214  1.00  0.00     0.009 C 
HETATM    9  C11 UNL     1      -6.073   3.504  13.885  1.00  0.00     0.014 C 
HETATM   10  C12 UNL     1      -3.648   3.815  13.371  1.00  0.00     0.014 C 
ENDROOT
BRANCH   1  11
HETATM   11  C2  UNL     1      -4.932   2.314  12.002  1.00  0.00     0.036 C 
BRANCH  11  12
HETATM   12  C1  UNL     1      -4.635   0.896  11.725  1.00  0.00     0.230 C 
BRANCH  12  13
HETATM   13  N1  UNL     1      -5.058   0.499  10.399  1.00  0.00    -0.079 N 
ATOM     14  H13 UNL     1      -5.173  -0.513  10.335  1.00  0.00     0.274 HD
ATOM     15  H12 UNL     1      -6.022   0.782  10.219  1.00  0.00     0.274 HD
ATOM     16  H11 UNL     1      -4.429   0.845   9.675  1.00  0.00     0.274 HD
ENDBRANCH  12  13
ENDBRANCH  11  12
ENDBRANCH   1  11
TORSDOF 3
ENDMDL
MODEL 4
REMARK VINA RESULT: -5.094632649      0.250      2.071
REMARK  3 active torsions:
REMARK  status: ('A' for Active; 'I' for Inactive)
REMARK    1  A    between atoms: N1_1  and  C1_5 
REMARK    2  A    between atoms: C1_5  and  C2_6 
REMARK    3  A    between atoms: C2_6  and  C3_7 
ROOT
HETATM    1  C3  UNL     1      -4.862   3.876  14.671  1.00  0.00    -0.038 C 
HETATM    2  C4  UNL     1      -5.597   5.190  14.774  1.00  0.00     0.014 C 
HETATM    3  C5  UNL     1      -4.869   6.238  13.970  1.00  0.00    -0.013 C 
HETATM    4  C6  UNL     1      -3.470   6.485  14.465  1.00  0.00     0.009 C 
HETATM    5  C7  UNL     1      -2.722   5.188  14.392  1.00  0.00    -0.013 C 
HETATM    6  C8  UNL     1      -2.628   4.709  12.963  1.00  0.00     0.009 C 
HETATM    7  C9  UNL     1      -3.999   4.522  12.414  1.00  0.00    -0.013 C 
HETATM    8  C10 UNL     1      -4.752   5.847  12.510  1.00  0.00     0.009 C 
HETATM    9  C11 UNL     1      -4.829   3.524  13.203  1.00  0.00     0.014 C 
HETATM   10  C12 UNL     1      -3.433   4.146  15.180  1.00  0.00     0.014 C 
ENDROOT
BRANCH   1  11
HETATM   11  C2  UNL     1      -5.392   2.801  15.532  1.00  0.00     0.036 C 
BRANCH  11  12
HETATM   12  C1  UNL     1      -4.452   1.897  16.221  1.00  0.00     0.230 C 
BRANCH  12  13
HETATM   13  N1  UNL     1      -4.496   0.553  15.687  1.00  0.00    -0.079 N 
ATOM     14  H13 UNL     1      -5.303   0.040  16.043  1.00  0.00     0.274 HD
ATOM     15  H12 UNL     1      -4.733   0.558  14.694  1.00  0.00     0.274 HD
ATOM     16  H11 UNL     1      -3.630   0.043  15.858  1.00  0.00     0.274 HD
ENDBRANCH  12  13
ENDBRANCH  11  12
ENDBRANCH   1  11
TORSDOF 3
ENDMDL
MODEL 5
REMARK VINA RESULT: -5.081581355      2.012      3.499
REMARK  3 active torsions:
REMARK  status: ('A' for Active; 'I' for Inactive)
REMARK    1  A    between atoms: N1_1  and  C1_5 
REMARK    2  A    between atoms: C1_5  and  C2_6 
REMARK    3  A    between atoms: C2_6  and  C3_7 
ROOT
HETATM    1  C3  UNL     1      -4.753   2.979  13.294  1.00  0.00    -0.038 C 
HETATM    2  C4  UNL     1      -6.025   3.654  13.746  1.00  0.00     0.014 C 
HETATM    3  C5  UNL     1      -5.854   4.153  15.159  1.00  0.00    -0.013 C 
HETATM    4  C6  UNL     1      -5.581   3.044  16.140  1.00  0.00     0.009 C 
HETATM    5  C7  UNL     1      -4.332   2.342  15.702  1.00  0.00    -0.013 C 
HETATM    6  C8  UNL     1      -3.154   3.287  15.733  1.00  0.00     0.009 C 
HETATM    7  C9  UNL     1      -3.419   4.438  14.827  1.00  0.00    -0.013 C 
HETATM    8  C10 UNL     1      -4.704   5.132  15.276  1.00  0.00     0.009 C 
HETATM    9  C11 UNL     1      -3.666   4.021  13.387  1.00  0.00     0.014 C 
HETATM   10  C12 UNL     1      -4.487   1.849  14.308  1.00  0.00     0.014 C 
ENDROOT
BRANCH   1  11
HETATM   11  C2  UNL     1      -4.838   2.317  11.978  1.00  0.00     0.036 C 
BRANCH  11  12
HETATM   12  C1  UNL     1      -4.622   0.860  11.885  1.00  0.00     0.230 C 
BRANCH  12  13
HETATM   13  N1  UNL     1      -5.016   0.332  10.597  1.00  0.00    -0.079 N 
ATOM     14  H13 UNL     1      -5.359   1.071   9.984  1.00  0.00     0.274 HD
ATOM     15  H12 UNL     1      -4.203   0.037  10.055  1.00  0.00     0.274 HD
ATOM     16  H11 UNL     1      -5.696  -0.422  10.683  1.00  0.00     0.274 HD
ENDBRANCH  12  13
ENDBRANCH  11  12
ENDBRANCH   1  11
TORSDOF 3
ENDMDL
