MODEL 1
REMARK VINA RESULT: -6.540491591      0.000      0.000
REMARK  5 active torsions:
REMARK  status: ('A' for Active; 'I' for Inactive)
REMARK    1  A    between atoms: S1_2  and  C2_3 
REMARK    2  A    between atoms: C2_3  and  C3_7 
REMARK    3  A    between atoms: C3_7  and  C4_8 
REMARK    4  A    between atoms: C3_7  and  N2_10 
REMARK    5  A    between atoms: N2_10  and  N3_12 
ROOT
HETATM    1  N2  UNL     1       7.535  13.816  24.296  1.00  0.00    -0.324 N 
ATOM      2  H2  UNL     1       8.385  13.717  23.741  1.00  0.00     0.181 HD
ENDROOT
BRANCH   1   3
HETATM    3  C3  UNL     1       7.474  14.761  25.392  1.00  0.00     0.169 C 
BRANCH   3   4
HETATM    4  C2  UNL     1       8.567  14.440  26.337  1.00  0.00     0.065 C 
HETATM    5  N1  UNL     1       8.397  13.692  27.341  1.00  0.00    -0.395 N 
ATOM      6  H12 UNL     1       9.149  13.470  27.993  1.00  0.00     0.156 HD
ATOM      7  H11 UNL     1       7.476  13.290  27.516  1.00  0.00     0.156 HD
BRANCH   4   8
HETATM    8  S1  UNL     1      10.173  15.142  26.033  1.00  0.00    -0.119 SA
HETATM    9  C1  UNL     1      11.356  14.369  27.160  1.00  0.00     0.097 C 
ENDBRANCH   4   8
ENDBRANCH   3   4
BRANCH   3  10
HETATM   10  C4  UNL     1       6.137  14.758  26.090  1.00  0.00     0.148 C 
HETATM   11 CL1  UNL     1       5.088  15.943  25.285  1.00  0.00    -0.128 Cl
ENDBRANCH   3  10
ENDBRANCH   1   3
BRANCH   1  12
HETATM   12  N3  UNL     1       6.422  13.054  24.019  1.00  0.00    -0.312 N 
HETATM   13  C5  UNL     1       6.429  11.813  23.716  1.00  0.00     0.003 C 
HETATM   14  C6  UNL     1       7.714  11.101  23.646  1.00  0.00     0.054 C 
HETATM   15  C10 UNL     1       5.121  11.191  23.457  1.00  0.00     0.054 C 
HETATM   16  C7  UNL     1       7.583   9.724  23.052  1.00  0.00     0.006 C 
HETATM   17  C8  UNL     1       6.502   9.817  21.972  1.00  0.00     0.001 C 
HETATM   18  C9  UNL     1       5.193   9.915  22.682  1.00  0.00     0.006 C 
ATOM     19  H3  UNL     1       5.515  13.519  24.058  1.00  0.00     0.186 HD
ENDBRANCH   1  12
TORSDOF 5
ENDMDL
MODEL 2
REMARK VINA RESULT: -6.490760919      2.523      3.679
REMARK  5 active torsions:
REMARK  status: ('A' for Active; 'I' for Inactive)
REMARK    1  A    between atoms: S1_2  and  C2_3 
REMARK    2  A    between atoms: C2_3  and  C3_7 
REMARK    3  A    between atoms: C3_7  and  C4_8 
REMARK    4  A    between atoms: C3_7  and  N2_10 
REMARK    5  A    between atoms: N2_10  and  N3_12 
ROOT
HETATM    1  N2  UNL     1       8.954  14.601  24.968  1.00  0.00    -0.324 N 
ATOM      2  H2  UNL     1       9.333  15.320  24.351  1.00  0.00     0.181 HD
ENDROOT
BRANCH   1   3
HETATM    3  C3  UNL     1       9.489  14.415  26.300  1.00  0.00     0.169 C 
BRANCH   3   4
HETATM    4  C2  UNL     1      10.957  14.263  26.189  1.00  0.00     0.065 C 
HETATM    5  N1  UNL     1      11.542  14.121  25.078  1.00  0.00    -0.395 N 
ATOM      6  H12 UNL     1      12.554  14.016  25.001  1.00  0.00     0.156 HD
ATOM      7  H11 UNL     1      10.991  14.110  24.220  1.00  0.00     0.156 HD
BRANCH   4   8
HETATM    8  S1  UNL     1      11.918  14.283  27.686  1.00  0.00    -0.119 SA
HETATM    9  C1  UNL     1      13.669  14.336  27.239  1.00  0.00     0.097 C 
ENDBRANCH   4   8
ENDBRANCH   3   4
BRANCH   3  10
HETATM   10  C4  UNL     1       8.876  13.236  27.014  1.00  0.00     0.148 C 
HETATM   11 CL1  UNL     1       7.290  13.730  27.640  1.00  0.00    -0.128 Cl
ENDBRANCH   3  10
ENDBRANCH   1   3
BRANCH   1  12
HETATM   12  N3  UNL     1       7.922  13.790  24.550  1.00  0.00    -0.312 N 
HETATM   13  C5  UNL     1       6.690  14.121  24.501  1.00  0.00     0.003 C 
HETATM   14  C6  UNL     1       6.297  15.476  24.917  1.00  0.00     0.054 C 
HETATM   15  C10 UNL     1       5.750  13.096  24.021  1.00  0.00     0.054 C 
HETATM   16  C7  UNL     1       4.804  15.638  25.029  1.00  0.00     0.006 C 
HETATM   17  C8  UNL     1       4.259  14.304  25.543  1.00  0.00     0.001 C 
HETATM   18  C9  UNL     1       4.327  13.344  24.401  1.00  0.00     0.006 C 
ATOM     19  H3  UNL     1       8.163  12.844  24.255  1.00  0.00     0.186 HD
ENDBRANCH   1  12
TORSDOF 5
ENDMDL
MODEL 3
REMARK VINA RESULT: -6.447247159      1.026      1.732
REMARK  5 active torsions:
REMARK  status: ('A' for Active; 'I' for Inactive)
REMARK    1  A    between atoms: S1_2  and  C2_3 
REMARK    2  A    between atoms: C2_3  and  C3_7 
REMARK    3  A    between atoms: C3_7  and  C4_8 
REMARK    4  A    between atoms: C3_7  and  N2_10 
REMARK    5  A    between atoms: N2_10  and  N3_12 
ROOT
HETATM    1  N2  UNL     1       6.381  13.401  24.504  1.00  0.00    -0.324 N 
ATOM      2  H2  UNL     1       5.389  13.166  24.493  1.00  0.00     0.181 HD
ENDROOT
BRANCH   1   3
HETATM    3  C3  UNL     1       6.820  14.728  24.883  1.00  0.00     0.169 C 
BRANCH   3   4
HETATM    4  C2  UNL     1       7.781  14.592  26.000  1.00  0.00     0.065 C 
HETATM    5  N1  UNL     1       7.431  14.214  27.154  1.00  0.00    -0.395 N 
ATOM      6  H12 UNL     1       8.094  14.120  27.924  1.00  0.00     0.156 HD
ATOM      7  H11 UNL     1       6.452  13.992  27.333  1.00  0.00     0.156 HD
BRANCH   4   8
HETATM    8  S1  UNL     1       9.489  14.980  25.689  1.00  0.00    -0.119 SA
HETATM    9  C1  UNL     1      10.512  13.984  26.800  1.00  0.00     0.097 C 
ENDBRANCH   4   8
ENDBRANCH   3   4
BRANCH   3  10
HETATM   10  C4  UNL     1       5.675  15.634  25.263  1.00  0.00     0.148 C 
HETATM   11 CL1  UNL     1       4.157  14.764  24.961  1.00  0.00    -0.128 Cl
ENDBRANCH   3  10
ENDBRANCH   1   3
BRANCH   1  12
HETATM   12  N3  UNL     1       7.329  12.465  24.158  1.00  0.00    -0.312 N 
HETATM   13  C5  UNL     1       7.087  11.291  23.716  1.00  0.00     0.003 C 
HETATM   14  C6  UNL     1       5.689  10.865  23.548  1.00  0.00     0.054 C 
HETATM   15  C10 UNL     1       8.253  10.449  23.407  1.00  0.00     0.054 C 
HETATM   16  C7  UNL     1       5.563   9.394  23.250  1.00  0.00     0.006 C 
HETATM   17  C8  UNL     1       6.669   8.693  24.044  1.00  0.00     0.001 C 
HETATM   18  C9  UNL     1       7.953   8.987  23.341  1.00  0.00     0.006 C 
ATOM     19  H3  UNL     1       8.308  12.730  24.264  1.00  0.00     0.186 HD
ENDBRANCH   1  12
TORSDOF 5
ENDMDL
MODEL 4
REMARK VINA RESULT: -6.431814352      3.148      6.088
REMARK  5 active torsions:
REMARK  status: ('A' for Active; 'I' for Inactive)
REMARK    1  A    between atoms: S1_2  and  C2_3 
REMARK    2  A    between atoms: C2_3  and  C3_7 
REMARK    3  A    between atoms: C3_7  and  C4_8 
REMARK    4  A    between atoms: C3_7  and  N2_10 
REMARK    5  A    between atoms: N2_10  and  N3_12 
ROOT
HETATM    1  N2  UNL     1       9.126  15.008  25.802  1.00  0.00    -0.324 N 
ATOM      2  H2  UNL     1       9.077  15.669  26.577  1.00  0.00     0.181 HD
ENDROOT
BRANCH   1   3
HETATM    3  C3  UNL     1       7.919  14.435  25.244  1.00  0.00     0.169 C 
BRANCH   3   4
HETATM    4  C2  UNL     1       6.798  14.737  26.162  1.00  0.00     0.065 C 
HETATM    5  N1  UNL     1       6.840  14.463  27.395  1.00  0.00    -0.395 N 
ATOM      6  H12 UNL     1       6.068  14.671  28.029  1.00  0.00     0.156 HD
ATOM      7  H11 UNL     1       7.672  14.017  27.782  1.00  0.00     0.156 HD
BRANCH   4   8
HETATM    8  S1  UNL     1       5.347  15.514  25.489  1.00  0.00    -0.119 SA
HETATM    9  C1  UNL     1       4.234  14.222  24.889  1.00  0.00     0.097 C 
ENDBRANCH   4   8
ENDBRANCH   3   4
BRANCH   3  10
HETATM   10  C4  UNL     1       8.036  12.950  25.005  1.00  0.00     0.148 C 
HETATM   11 CL1  UNL     1       7.032  12.533  23.602  1.00  0.00    -0.128 Cl
ENDBRANCH   3  10
ENDBRANCH   1   3
BRANCH   1  12
HETATM   12  N3  UNL     1      10.340  14.643  25.265  1.00  0.00    -0.312 N 
HETATM   13  C5  UNL     1      11.384  14.333  25.933  1.00  0.00     0.003 C 
HETATM   14  C6  UNL     1      11.325  14.356  27.402  1.00  0.00     0.054 C 
HETATM   15  C10 UNL     1      12.580  13.972  25.156  1.00  0.00     0.054 C 
HETATM   16  C7  UNL     1      12.681  14.201  28.039  1.00  0.00     0.006 C 
HETATM   17  C8  UNL     1      13.675  14.927  27.129  1.00  0.00     0.001 C 
HETATM   18  C9  UNL     1      13.859  14.066  25.923  1.00  0.00     0.006 C 
ATOM     19  H3  UNL     1      10.413  14.618  24.248  1.00  0.00     0.186 HD
ENDBRANCH   1  12
TORSDOF 5
ENDMDL
MODEL 5
REMARK VINA RESULT: -6.348219700      2.503      6.145
REMARK  5 active torsions:
REMARK  status: ('A' for Active; 'I' for Inactive)
REMARK    1  A    between atoms: S1_2  and  C2_3 
REMARK    2  A    between atoms: C2_3  and  C3_7 
REMARK    3  A    between atoms: C3_7  and  C4_8 
REMARK    4  A    between atoms: C3_7  and  N2_10 
REMARK    5  A    between atoms: N2_10  and  N3_12 
ROOT
HETATM    1  N2  UNL     1       9.241  14.753  26.389  1.00  0.00    -0.324 N 
ATOM      2  H2  UNL     1       9.146  15.568  26.995  1.00  0.00     0.181 HD
ENDROOT
BRANCH   1   3
HETATM    3  C3  UNL     1       8.143  13.823  26.226  1.00  0.00     0.169 C 
BRANCH   3   4
HETATM    4  C2  UNL     1       7.698  13.879  24.815  1.00  0.00     0.065 C 
HETATM    5  N1  UNL     1       7.868  14.900  24.091  1.00  0.00    -0.395 N 
ATOM      6  H12 UNL     1       7.562  14.938  23.118  1.00  0.00     0.156 HD
ATOM      7  H11 UNL     1       8.326  15.722  24.483  1.00  0.00     0.156 HD
BRANCH   4   8
HETATM    8  S1  UNL     1       6.898  12.445  24.131  1.00  0.00    -0.119 SA
HETATM    9  C1  UNL     1       5.117  12.753  24.085  1.00  0.00     0.097 C 
ENDBRANCH   4   8
ENDBRANCH   3   4
BRANCH   3  10
HETATM   10  C4  UNL     1       6.996  14.107  27.165  1.00  0.00     0.148 C 
HETATM   11 CL1  UNL     1       5.925  15.291  26.390  1.00  0.00    -0.128 Cl
ENDBRANCH   3  10
ENDBRANCH   1   3
BRANCH   1  12
HETATM   12  N3  UNL     1      10.415  14.515  25.710  1.00  0.00    -0.312 N 
HETATM   13  C5  UNL     1      11.548  14.274  26.247  1.00  0.00     0.003 C 
HETATM   14  C6  UNL     1      11.650  14.239  27.714  1.00  0.00     0.054 C 
HETATM   15  C10 UNL     1      12.677  14.047  25.332  1.00  0.00     0.054 C 
HETATM   16  C7  UNL     1      13.076  14.181  28.195  1.00  0.00     0.006 C 
HETATM   17  C8  UNL     1      13.900  15.022  27.217  1.00  0.00     0.001 C 
HETATM   18  C9  UNL     1      14.021  14.224  25.961  1.00  0.00     0.006 C 
ATOM     19  H3  UNL     1      10.376  14.533  24.691  1.00  0.00     0.186 HD
ENDBRANCH   1  12
TORSDOF 5
ENDMDL
