MODEL 1
REMARK VINA RESULT: -6.374783770      0.000      0.000
REMARK  1 active torsions:
REMARK  status: ('A' for Active; 'I' for Inactive)
REMARK    1  A    between atoms: C5_5  and  C6_6 
ROOT
HETATM    1  C1  UNL     1      32.303   6.179  23.334  1.00  0.00     0.046 C 
HETATM    2  C2  UNL     1      32.390   7.104  24.536  1.00  0.00     0.062 C 
HETATM    3  C3  UNL     1      33.864   7.083  24.959  1.00  0.00     0.046 C 
HETATM    4  C4  UNL     1      31.998   8.471  24.074  1.00  0.00     0.094 C 
HETATM    5  C5  UNL     1      31.204   9.231  25.036  1.00  0.00     0.036 C 
HETATM    6  N2  UNL     1      30.866   8.709  26.129  1.00  0.00    -0.358 N 
ATOM      7  H2  UNL     1      30.312   9.269  26.776  1.00  0.00     0.162 HD
HETATM    8  C10 UNL     1      31.213   7.376  26.520  1.00  0.00     0.297 C 
HETATM    9  S1  UNL     1      32.353   7.494  27.925  1.00  0.00    -0.040 SA
HETATM   10  O2  UNL     1      31.638   6.568  25.525  1.00  0.00    -0.346 OA
ENDROOT
BRANCH   5  11
HETATM   11  C6  UNL     1      30.789  10.626  24.731  1.00  0.00     0.267 C 
HETATM   12  N1  UNL     1      29.648  10.700  23.907  1.00  0.00    -0.372 N 
HETATM   13  C7  UNL     1      29.508  11.419  22.878  1.00  0.00     0.060 C 
ATOM     14  H1  UNL     1      28.855  10.116  24.169  1.00  0.00     0.161 HD
HETATM   15  C8  UNL     1      30.619  12.292  22.442  1.00  0.00     0.070 C 
HETATM   16  C9  UNL     1      31.530  12.509  23.625  1.00  0.00     0.175 C 
HETATM   17  O1  UNL     1      31.863  11.264  24.143  1.00  0.00    -0.361 OA
ENDBRANCH   5  11
TORSDOF 1
ENDMDL
MODEL 2
REMARK VINA RESULT: -6.330979616      1.968      2.477
REMARK  1 active torsions:
REMARK  status: ('A' for Active; 'I' for Inactive)
REMARK    1  A    between atoms: C5_5  and  C6_6 
ROOT
HETATM    1  C1  UNL     1      31.218   7.733  27.066  1.00  0.00     0.046 C 
HETATM    2  C2  UNL     1      31.682   7.972  25.639  1.00  0.00     0.062 C 
HETATM    3  C3  UNL     1      31.125   6.795  24.828  1.00  0.00     0.046 C 
HETATM    4  C4  UNL     1      31.072   9.258  25.182  1.00  0.00     0.094 C 
HETATM    5  C5  UNL     1      31.945  10.081  24.348  1.00  0.00     0.036 C 
HETATM    6  N2  UNL     1      33.123   9.709  24.107  1.00  0.00    -0.358 N 
ATOM      7  H2  UNL     1      33.704  10.309  23.522  1.00  0.00     0.162 HD
HETATM    8  C10 UNL     1      33.696   8.496  24.605  1.00  0.00     0.297 C 
HETATM    9  S1  UNL     1      33.987   7.403  23.189  1.00  0.00    -0.040 SA
HETATM   10  O2  UNL     1      33.034   7.915  25.630  1.00  0.00    -0.346 OA
ENDROOT
BRANCH   5  11
HETATM   11  C6  UNL     1      31.450  11.362  23.778  1.00  0.00     0.267 C 
HETATM   12  N1  UNL     1      30.055  11.380  23.579  1.00  0.00    -0.372 N 
HETATM   13  C7  UNL     1      29.449  11.755  22.535  1.00  0.00     0.060 C 
ATOM     14  H1  UNL     1      29.476  11.059  24.354  1.00  0.00     0.161 HD
HETATM   15  C8  UNL     1      30.227  12.234  21.372  1.00  0.00     0.070 C 
HETATM   16  C9  UNL     1      31.593  12.641  21.864  1.00  0.00     0.175 C 
HETATM   17  O1  UNL     1      32.120  11.580  22.591  1.00  0.00    -0.361 OA
ENDBRANCH   5  11
TORSDOF 1
ENDMDL
MODEL 3
REMARK VINA RESULT: -6.296311200      2.529      5.248
REMARK  1 active torsions:
REMARK  status: ('A' for Active; 'I' for Inactive)
REMARK    1  A    between atoms: C5_5  and  C6_6 
ROOT
HETATM    1  C1  UNL     1      33.411  13.057  24.102  1.00  0.00     0.046 C 
HETATM    2  C2  UNL     1      32.401  12.011  23.662  1.00  0.00     0.062 C 
HETATM    3  C3  UNL     1      31.863  12.509  22.314  1.00  0.00     0.046 C 
HETATM    4  C4  UNL     1      33.140  10.724  23.486  1.00  0.00     0.094 C 
HETATM    5  C5  UNL     1      32.404   9.538  23.921  1.00  0.00     0.036 C 
HETATM    6  N2  UNL     1      31.264   9.657  24.437  1.00  0.00    -0.358 N 
ATOM      7  H2  UNL     1      30.780   8.808  24.729  1.00  0.00     0.162 HD
HETATM    8  C10 UNL     1      30.604  10.911  24.641  1.00  0.00     0.297 C 
HETATM    9  S1  UNL     1      29.159  10.956  23.548  1.00  0.00    -0.040 SA
HETATM   10  O2  UNL     1      31.393  12.005  24.565  1.00  0.00    -0.346 OA
ENDROOT
BRANCH   5  11
HETATM   11  C6  UNL     1      32.997   8.185  23.756  1.00  0.00     0.267 C 
HETATM   12  N1  UNL     1      33.295   7.554  24.980  1.00  0.00    -0.372 N 
HETATM   13  C7  UNL     1      34.375   6.975  25.285  1.00  0.00     0.060 C 
ATOM     14  H1  UNL     1      32.565   7.566  25.692  1.00  0.00     0.161 HD
HETATM   15  C8  UNL     1      35.477   6.919  24.300  1.00  0.00     0.070 C 
HETATM   16  C9  UNL     1      34.886   7.150  22.931  1.00  0.00     0.175 C 
HETATM   17  O1  UNL     1      34.133   8.316  22.981  1.00  0.00    -0.361 OA
ENDBRANCH   5  11
TORSDOF 1
ENDMDL
MODEL 4
REMARK VINA RESULT: -6.164129709      2.496      5.178
REMARK  1 active torsions:
REMARK  status: ('A' for Active; 'I' for Inactive)
REMARK    1  A    between atoms: C5_5  and  C6_6 
ROOT
HETATM    1  C1  UNL     1      33.400  13.108  24.073  1.00  0.00     0.046 C 
HETATM    2  C2  UNL     1      32.438  11.989  23.712  1.00  0.00     0.062 C 
HETATM    3  C3  UNL     1      31.931  12.328  22.305  1.00  0.00     0.046 C 
HETATM    4  C4  UNL     1      33.222  10.717  23.693  1.00  0.00     0.094 C 
HETATM    5  C5  UNL     1      32.509   9.557  24.225  1.00  0.00     0.036 C 
HETATM    6  N2  UNL     1      31.349   9.688  24.692  1.00  0.00    -0.358 N 
ATOM      7  H2  UNL     1      30.882   8.858  25.054  1.00  0.00     0.162 HD
HETATM    8  C10 UNL     1      30.644  10.933  24.744  1.00  0.00     0.297 C 
HETATM    9  S1  UNL     1      29.236  10.816  23.609  1.00  0.00    -0.040 SA
HETATM   10  O2  UNL     1      31.401  12.040  24.580  1.00  0.00    -0.346 OA
ENDROOT
BRANCH   5  11
HETATM   11  C6  UNL     1      33.149   8.215  24.219  1.00  0.00     0.267 C 
HETATM   12  N1  UNL     1      34.402   8.198  23.572  1.00  0.00    -0.372 N 
HETATM   13  C7  UNL     1      34.791   7.364  22.707  1.00  0.00     0.060 C 
ATOM     14  H1  UNL     1      35.060   8.933  23.829  1.00  0.00     0.161 HD
HETATM   15  C8  UNL     1      33.887   6.271  22.289  1.00  0.00     0.070 C 
HETATM   16  C9  UNL     1      32.845   6.094  23.366  1.00  0.00     0.175 C 
HETATM   17  O1  UNL     1      32.273   7.335  23.616  1.00  0.00    -0.361 OA
ENDBRANCH   5  11
TORSDOF 1
ENDMDL
MODEL 5
REMARK VINA RESULT: -6.010160655      2.208      2.961
REMARK  1 active torsions:
REMARK  status: ('A' for Active; 'I' for Inactive)
REMARK    1  A    between atoms: C5_5  and  C6_6 
ROOT
HETATM    1  C1  UNL     1      30.270   8.588  27.822  1.00  0.00     0.046 C 
HETATM    2  C2  UNL     1      31.302   8.254  26.758  1.00  0.00     0.062 C 
HETATM    3  C3  UNL     1      30.873   6.896  26.189  1.00  0.00     0.046 C 
HETATM    4  C4  UNL     1      31.216   9.313  25.707  1.00  0.00     0.094 C 
HETATM    5  C5  UNL     1      32.504   9.715  25.145  1.00  0.00     0.036 C 
HETATM    6  N2  UNL     1      33.570   9.212  25.584  1.00  0.00    -0.358 N 
ATOM      7  H2  UNL     1      34.450   9.516  25.169  1.00  0.00     0.162 HD
HETATM    8  C10 UNL     1      33.622   8.237  26.631  1.00  0.00     0.297 C 
HETATM    9  S1  UNL     1      34.208   6.682  25.907  1.00  0.00    -0.040 SA
HETATM   10  O2  UNL     1      32.500   8.117  27.374  1.00  0.00    -0.346 OA
ENDROOT
BRANCH   5  11
HETATM   11  C6  UNL     1      32.565  10.721  24.052  1.00  0.00     0.267 C 
HETATM   12  N1  UNL     1      33.679  11.579  24.146  1.00  0.00    -0.372 N 
HETATM   13  C7  UNL     1      33.670  12.839  24.048  1.00  0.00     0.060 C 
ATOM     14  H1  UNL     1      34.584  11.139  24.309  1.00  0.00     0.161 HD
HETATM   15  C8  UNL     1      32.391  13.542  23.809  1.00  0.00     0.070 C 
HETATM   16  C9  UNL     1      31.414  12.546  23.237  1.00  0.00     0.175 C 
HETATM   17  O1  UNL     1      31.387  11.441  24.079  1.00  0.00    -0.361 OA
ENDBRANCH   5  11
TORSDOF 1
ENDMDL
