MODEL 1
REMARK VINA RESULT: -6.105599283      0.000      0.000
REMARK  4 active torsions:
REMARK  status: ('A' for Active; 'I' for Inactive)
REMARK    1  A    between atoms: O1_1  and  C1_3 
REMARK    2  A    between atoms: N1_8  and  C4_9 
REMARK    3  A    between atoms: C4_9  and  O3_10 
REMARK    4  A    between atoms: C4_9  and  C5_12 
ROOT
HETATM    1  C4  UNL     1      31.946  11.705  24.209  1.00  0.00     0.264 C 
ENDROOT
BRANCH   1   2
HETATM    2  N1  UNL     1      30.867  11.771  23.239  1.00  0.00    -0.265 N 
HETATM    3  C1  UNL     1      30.897  12.380  22.042  1.00  0.00     0.170 A 
HETATM    4  C2  UNL     1      29.665  12.198  21.449  1.00  0.00     0.201 A 
HETATM    5  O2  UNL     1      28.918  11.500  22.268  1.00  0.00    -0.292 OA
HETATM    6  C3  UNL     1      29.622  11.232  23.349  1.00  0.00     0.225 A 
HETATM    7  S1  UNL     1      29.133  10.389  24.658  1.00  0.00    -0.032 SA
BRANCH   3   8
HETATM    8  O1  UNL     1      31.959  13.084  21.458  1.00  0.00    -0.344 OA
ATOM      9  H1  UNL     1      32.872  12.963  21.689  1.00  0.00     0.219 HD
ENDBRANCH   3   8
ENDBRANCH   1   2
BRANCH   1  10
HETATM   10  O3  UNL     1      32.628  12.941  24.145  1.00  0.00    -0.372 OA
ATOM     11  H3  UNL     1      33.430  12.787  23.659  1.00  0.00     0.212 HD
ENDBRANCH   1  10
BRANCH   1  12
HETATM   12  C5  UNL     1      32.961  10.673  23.869  1.00  0.00    -0.010 A 
HETATM   13  C6  UNL     1      32.660   9.330  23.952  1.00  0.00     0.011 A 
HETATM   14  C7  UNL     1      33.585   8.335  23.640  1.00  0.00     0.001 A 
HETATM   15  C8  UNL     1      34.855   8.684  23.232  1.00  0.00     0.000 A 
HETATM   16  C9  UNL     1      35.156  10.029  23.149  1.00  0.00     0.001 A 
HETATM   17  C10 UNL     1      34.229  11.021  23.461  1.00  0.00     0.011 A 
ENDBRANCH   1  12
TORSDOF 4
ENDMDL
MODEL 2
REMARK VINA RESULT: -6.075921846      1.709      2.445
REMARK  4 active torsions:
REMARK  status: ('A' for Active; 'I' for Inactive)
REMARK    1  A    between atoms: O1_1  and  C1_3 
REMARK    2  A    between atoms: N1_8  and  C4_9 
REMARK    3  A    between atoms: C4_9  and  O3_10 
REMARK    4  A    between atoms: C4_9  and  C5_12 
ROOT
HETATM    1  C4  UNL     1      33.001   9.952  24.848  1.00  0.00     0.264 C 
ENDROOT
BRANCH   1   2
HETATM    2  N1  UNL     1      31.818  10.667  24.402  1.00  0.00    -0.265 N 
HETATM    3  C1  UNL     1      31.703  11.422  23.297  1.00  0.00     0.170 A 
HETATM    4  C2  UNL     1      30.415  11.913  23.258  1.00  0.00     0.201 A 
HETATM    5  O2  UNL     1      29.776  11.464  24.310  1.00  0.00    -0.292 OA
HETATM    6  C3  UNL     1      30.602  10.713  25.010  1.00  0.00     0.225 A 
HETATM    7  S1  UNL     1      30.276   9.929  26.405  1.00  0.00    -0.032 SA
BRANCH   3   8
HETATM    8  O1  UNL     1      32.682  11.693  22.332  1.00  0.00    -0.344 OA
ATOM      9  H1  UNL     1      33.343  12.370  22.416  1.00  0.00     0.219 HD
ENDBRANCH   3   8
ENDBRANCH   1   2
BRANCH   1  10
HETATM   10  O3  UNL     1      34.104  10.802  24.614  1.00  0.00    -0.372 OA
ATOM     11  H3  UNL     1      34.307  11.222  25.441  1.00  0.00     0.212 HD
ENDBRANCH   1  10
BRANCH   1  12
HETATM   12  C5  UNL     1      33.266   8.726  24.049  1.00  0.00    -0.010 A 
HETATM   13  C6  UNL     1      34.491   8.521  23.452  1.00  0.00     0.011 A 
HETATM   14  C7  UNL     1      34.775   7.383  22.697  1.00  0.00     0.001 A 
HETATM   15  C8  UNL     1      33.808   6.414  22.529  1.00  0.00     0.000 A 
HETATM   16  C9  UNL     1      32.582   6.621  23.127  1.00  0.00     0.001 A 
HETATM   17  C10 UNL     1      32.301   7.758  23.881  1.00  0.00     0.011 A 
ENDBRANCH   1  12
TORSDOF 4
ENDMDL
MODEL 3
REMARK VINA RESULT: -6.071257916      1.712      2.164
REMARK  4 active torsions:
REMARK  status: ('A' for Active; 'I' for Inactive)
REMARK    1  A    between atoms: O1_1  and  C1_3 
REMARK    2  A    between atoms: N1_8  and  C4_9 
REMARK    3  A    between atoms: C4_9  and  O3_10 
REMARK    4  A    between atoms: C4_9  and  C5_12 
ROOT
HETATM    1  C4  UNL     1      32.994   9.957  24.867  1.00  0.00     0.264 C 
ENDROOT
BRANCH   1   2
HETATM    2  N1  UNL     1      31.810  10.666  24.418  1.00  0.00    -0.265 N 
HETATM    3  C1  UNL     1      31.694  11.419  23.310  1.00  0.00     0.170 A 
HETATM    4  C2  UNL     1      30.404  11.904  23.267  1.00  0.00     0.201 A 
HETATM    5  O2  UNL     1      29.764  11.455  24.319  1.00  0.00    -0.292 OA
HETATM    6  C3  UNL     1      30.591  10.709  25.023  1.00  0.00     0.225 A 
HETATM    7  S1  UNL     1      30.266   9.927  26.418  1.00  0.00    -0.032 SA
BRANCH   3   8
HETATM    8  O1  UNL     1      32.673  11.692  22.347  1.00  0.00    -0.344 OA
ATOM      9  H1  UNL     1      33.533  11.289  22.328  1.00  0.00     0.219 HD
ENDBRANCH   3   8
ENDBRANCH   1   2
BRANCH   1  10
HETATM   10  O3  UNL     1      34.094  10.814  24.640  1.00  0.00    -0.372 OA
ATOM     11  H3  UNL     1      34.692  10.346  24.069  1.00  0.00     0.212 HD
ENDBRANCH   1  10
BRANCH   1  12
HETATM   12  C5  UNL     1      33.269   8.735  24.068  1.00  0.00    -0.010 A 
HETATM   13  C6  UNL     1      32.304   7.765  23.901  1.00  0.00     0.011 A 
HETATM   14  C7  UNL     1      32.526   6.607  23.156  1.00  0.00     0.001 A 
HETATM   15  C8  UNL     1      33.751   6.404  22.556  1.00  0.00     0.000 A 
HETATM   16  C9  UNL     1      34.717   7.376  22.723  1.00  0.00     0.001 A 
HETATM   17  C10 UNL     1      34.492   8.531  23.467  1.00  0.00     0.011 A 
ENDBRANCH   1  12
TORSDOF 4
ENDMDL
MODEL 4
REMARK VINA RESULT: -6.055218128      2.782      4.957
REMARK  4 active torsions:
REMARK  status: ('A' for Active; 'I' for Inactive)
REMARK    1  A    between atoms: O1_1  and  C1_3 
REMARK    2  A    between atoms: N1_8  and  C4_9 
REMARK    3  A    between atoms: C4_9  and  O3_10 
REMARK    4  A    between atoms: C4_9  and  C5_12 
ROOT
HETATM    1  C4  UNL     1      32.097  10.644  24.504  1.00  0.00     0.264 C 
ENDROOT
BRANCH   1   2
HETATM    2  N1  UNL     1      32.718   9.415  24.045  1.00  0.00    -0.265 N 
HETATM    3  C1  UNL     1      32.158   8.193  24.014  1.00  0.00     0.170 A 
HETATM    4  C2  UNL     1      33.095   7.316  23.509  1.00  0.00     0.201 A 
HETATM    5  O2  UNL     1      34.186   7.993  23.245  1.00  0.00    -0.292 OA
HETATM    6  C3  UNL     1      33.980   9.256  23.560  1.00  0.00     0.225 A 
HETATM    7  S1  UNL     1      35.036  10.491  23.414  1.00  0.00    -0.032 SA
BRANCH   3   8
HETATM    8  O1  UNL     1      30.866   7.827  24.411  1.00  0.00    -0.344 OA
ATOM      9  H1  UNL     1      30.365   7.121  24.019  1.00  0.00     0.219 HD
ENDBRANCH   3   8
ENDBRANCH   1   2
BRANCH   1  10
HETATM   10  O3  UNL     1      31.187  10.287  25.522  1.00  0.00    -0.372 OA
ATOM     11  H3  UNL     1      31.696   9.891  26.219  1.00  0.00     0.212 HD
ENDBRANCH   1  10
BRANCH   1  12
HETATM   12  C5  UNL     1      31.279  11.301  23.450  1.00  0.00    -0.010 A 
HETATM   13  C6  UNL     1      31.865  12.103  22.495  1.00  0.00     0.011 A 
HETATM   14  C7  UNL     1      31.130  12.733  21.492  1.00  0.00     0.001 A 
HETATM   15  C8  UNL     1      29.763  12.562  21.435  1.00  0.00     0.000 A 
HETATM   16  C9  UNL     1      29.176  11.759  22.392  1.00  0.00     0.001 A 
HETATM   17  C10 UNL     1      29.914  11.130  23.393  1.00  0.00     0.011 A 
ENDBRANCH   1  12
TORSDOF 4
ENDMDL
MODEL 5
REMARK VINA RESULT: -6.042500846      3.584      4.926
REMARK  4 active torsions:
REMARK  status: ('A' for Active; 'I' for Inactive)
REMARK    1  A    between atoms: O1_1  and  C1_3 
REMARK    2  A    between atoms: N1_8  and  C4_9 
REMARK    3  A    between atoms: C4_9  and  O3_10 
REMARK    4  A    between atoms: C4_9  and  C5_12 
ROOT
HETATM    1  C4  UNL     1      31.361   8.662  24.688  1.00  0.00     0.264 C 
ENDROOT
BRANCH   1   2
HETATM    2  N1  UNL     1      31.572   8.174  26.039  1.00  0.00    -0.265 N 
HETATM    3  C1  UNL     1      32.403   7.188  26.419  1.00  0.00     0.170 A 
HETATM    4  C2  UNL     1      32.292   7.050  27.786  1.00  0.00     0.201 A 
HETATM    5  O2  UNL     1      31.418   7.928  28.215  1.00  0.00    -0.292 OA
HETATM    6  C3  UNL     1      30.974   8.614  27.180  1.00  0.00     0.225 A 
HETATM    7  S1  UNL     1      29.875   9.820  27.198  1.00  0.00    -0.032 SA
BRANCH   3   8
HETATM    8  O1  UNL     1      33.247   6.413  25.612  1.00  0.00    -0.344 OA
ATOM      9  H1  UNL     1      34.188   6.527  25.558  1.00  0.00     0.219 HD
ENDBRANCH   3   8
ENDBRANCH   1   2
BRANCH   1  10
HETATM   10  O3  UNL     1      31.577   7.569  23.821  1.00  0.00    -0.372 OA
ATOM     11  H3  UNL     1      32.401   7.729  23.376  1.00  0.00     0.212 HD
ENDBRANCH   1  10
BRANCH   1  12
HETATM   12  C5  UNL     1      32.358   9.690  24.288  1.00  0.00    -0.010 A 
HETATM   13  C6  UNL     1      32.068  11.034  24.388  1.00  0.00     0.011 A 
HETATM   14  C7  UNL     1      32.979  12.026  24.024  1.00  0.00     0.001 A 
HETATM   15  C8  UNL     1      34.222  11.671  23.543  1.00  0.00     0.000 A 
HETATM   16  C9  UNL     1      34.511  10.324  23.443  1.00  0.00     0.001 A 
HETATM   17  C10 UNL     1      33.599   9.336  23.808  1.00  0.00     0.011 A 
ENDBRANCH   1  12
TORSDOF 4
ENDMDL
