MODEL 1
REMARK VINA RESULT: -5.625658125      0.000      0.000
REMARK  3 active torsions:
REMARK  status: ('A' for Active; 'I' for Inactive)
REMARK    1  A    between atoms: C7_8  and  C8_9 
REMARK    2  A    between atoms: C8_9  and  O1_10 
REMARK    3  A    between atoms: C8_9  and  C9_12 
ROOT
HETATM    1  C1  UNL     1      -5.889   2.542  18.335  1.00  0.00     0.016 C 
HETATM    2  C2  UNL     1      -6.356   2.706  16.915  1.00  0.00    -0.033 C 
HETATM    3  C3  UNL     1      -7.287   1.557  16.562  1.00  0.00     0.016 C 
HETATM    4  C4  UNL     1      -7.180   3.979  16.762  1.00  0.00     0.011 C 
HETATM    5  C5  UNL     1      -6.317   5.197  16.595  1.00  0.00     0.011 C 
HETATM    6  C6  UNL     1      -6.054   5.349  15.089  1.00  0.00     0.074 C 
HETATM    7  S1  UNL     1      -5.609   3.659  14.523  1.00  0.00    -0.161 SA
HETATM    8  C7  UNL     1      -5.148   2.761  16.023  1.00  0.00     0.086 C 
ENDROOT
BRANCH   8   9
HETATM    9  C8  UNL     1      -4.554   1.415  15.746  1.00  0.00     0.161 C 
BRANCH   9  10
HETATM   10  O1  UNL     1      -3.341   1.324  16.424  1.00  0.00    -0.392 OA
ATOM     11  H1  UNL     1      -3.033   0.427  16.366  1.00  0.00     0.210 HD
ENDBRANCH   9  10
BRANCH   9  12
HETATM   12  C9  UNL     1      -4.289   1.171  14.291  1.00  0.00     0.255 C 
HETATM   13  F1  UNL     1      -4.295  -0.179  14.002  1.00  0.00    -0.253 F 
ENDBRANCH   9  12
ENDBRANCH   8   9
TORSDOF 3
ENDMDL
MODEL 2
REMARK VINA RESULT: -5.099991511      2.429      3.562
REMARK  3 active torsions:
REMARK  status: ('A' for Active; 'I' for Inactive)
REMARK    1  A    between atoms: C7_8  and  C8_9 
REMARK    2  A    between atoms: C8_9  and  O1_10 
REMARK    3  A    between atoms: C8_9  and  C9_12 
ROOT
HETATM    1  C1  UNL     1      -4.341   1.069  14.280  1.00  0.00     0.016 C 
HETATM    2  C2  UNL     1      -4.500   2.404  14.955  1.00  0.00    -0.033 C 
HETATM    3  C3  UNL     1      -3.432   2.548  16.027  1.00  0.00     0.016 C 
HETATM    4  C4  UNL     1      -4.263   3.539  13.966  1.00  0.00     0.011 C 
HETATM    5  C5  UNL     1      -5.482   3.837  13.141  1.00  0.00     0.011 C 
HETATM    6  C6  UNL     1      -6.303   4.872  13.924  1.00  0.00     0.074 C 
HETATM    7  S1  UNL     1      -6.330   4.237  15.647  1.00  0.00    -0.161 SA
HETATM    8  C7  UNL     1      -5.891   2.487  15.515  1.00  0.00     0.086 C 
ENDROOT
BRANCH   8   9
HETATM    9  C8  UNL     1      -6.059   1.739  16.801  1.00  0.00     0.161 C 
BRANCH   9  10
HETATM   10  O1  UNL     1      -6.988   0.722  16.597  1.00  0.00    -0.392 OA
ATOM     11  H1  UNL     1      -6.546  -0.007  16.176  1.00  0.00     0.210 HD
ENDBRANCH   9  10
BRANCH   9  12
HETATM   12  C9  UNL     1      -6.553   2.596  17.928  1.00  0.00     0.255 C 
HETATM   13  F1  UNL     1      -5.773   2.436  19.056  1.00  0.00    -0.253 F 
ENDBRANCH   9  12
ENDBRANCH   8   9
TORSDOF 3
ENDMDL
MODEL 3
REMARK VINA RESULT: -4.946858481      2.790      3.985
REMARK  3 active torsions:
REMARK  status: ('A' for Active; 'I' for Inactive)
REMARK    1  A    between atoms: C7_8  and  C8_9 
REMARK    2  A    between atoms: C8_9  and  O1_10 
REMARK    3  A    between atoms: C8_9  and  C9_12 
ROOT
HETATM    1  C1  UNL     1      -6.899   5.494  13.230  1.00  0.00     0.016 C 
HETATM    2  C2  UNL     1      -5.661   4.980  13.912  1.00  0.00    -0.033 C 
HETATM    3  C3  UNL     1      -4.491   5.886  13.565  1.00  0.00     0.016 C 
HETATM    4  C4  UNL     1      -5.813   5.046  15.426  1.00  0.00     0.011 C 
HETATM    5  C5  UNL     1      -6.573   3.871  15.973  1.00  0.00     0.011 C 
HETATM    6  C6  UNL     1      -5.540   2.771  16.260  1.00  0.00     0.074 C 
HETATM    7  S1  UNL     1      -4.475   2.731  14.764  1.00  0.00    -0.161 SA
HETATM    8  C7  UNL     1      -5.436   3.561  13.475  1.00  0.00     0.086 C 
ENDROOT
BRANCH   8   9
HETATM    9  C8  UNL     1      -4.818   3.449  12.116  1.00  0.00     0.161 C 
BRANCH   9  10
HETATM   10  O1  UNL     1      -5.731   2.821  11.271  1.00  0.00    -0.392 OA
ATOM     11  H1  UNL     1      -5.245   2.322  10.624  1.00  0.00     0.210 HD
ENDBRANCH   9  10
BRANCH   9  12
HETATM   12  C9  UNL     1      -3.551   2.647  12.102  1.00  0.00     0.255 C 
HETATM   13  F1  UNL     1      -2.441   3.469  12.090  1.00  0.00    -0.253 F 
ENDBRANCH   9  12
ENDBRANCH   8   9
TORSDOF 3
ENDMDL
MODEL 4
REMARK VINA RESULT: -4.925506607      3.388      4.755
REMARK  3 active torsions:
REMARK  status: ('A' for Active; 'I' for Inactive)
REMARK    1  A    between atoms: C7_8  and  C8_9 
REMARK    2  A    between atoms: C8_9  and  O1_10 
REMARK    3  A    between atoms: C8_9  and  C9_12 
ROOT
HETATM    1  C1  UNL     1      -4.147   5.087  11.688  1.00  0.00     0.016 C 
HETATM    2  C2  UNL     1      -3.583   3.936  12.475  1.00  0.00    -0.033 C 
HETATM    3  C3  UNL     1      -2.268   3.503  11.848  1.00  0.00     0.016 C 
HETATM    4  C4  UNL     1      -3.252   4.366  13.898  1.00  0.00     0.011 C 
HETATM    5  C5  UNL     1      -4.459   4.353  14.792  1.00  0.00     0.011 C 
HETATM    6  C6  UNL     1      -4.555   2.941  15.386  1.00  0.00     0.074 C 
HETATM    7  S1  UNL     1      -4.292   1.817  13.957  1.00  0.00    -0.161 SA
HETATM    8  C7  UNL     1      -4.601   2.831  12.491  1.00  0.00     0.086 C 
ENDROOT
BRANCH   8   9
HETATM    9  C8  UNL     1      -4.637   2.038  11.223  1.00  0.00     0.161 C 
BRANCH   9  10
HETATM   10  O1  UNL     1      -5.882   2.224  10.626  1.00  0.00    -0.392 OA
ATOM     11  H1  UNL     1      -6.259   1.369  10.450  1.00  0.00     0.210 HD
ENDBRANCH   9  10
BRANCH   9  12
HETATM   12  C9  UNL     1      -4.442   0.567  11.435  1.00  0.00     0.255 C 
HETATM   13  F1  UNL     1      -3.148   0.186  11.139  1.00  0.00    -0.253 F 
ENDBRANCH   9  12
ENDBRANCH   8   9
TORSDOF 3
ENDMDL
MODEL 5
REMARK VINA RESULT: -4.818133276      2.922      4.155
REMARK  3 active torsions:
REMARK  status: ('A' for Active; 'I' for Inactive)
REMARK    1  A    between atoms: C7_8  and  C8_9 
REMARK    2  A    between atoms: C8_9  and  O1_10 
REMARK    3  A    between atoms: C8_9  and  C9_12 
ROOT
HETATM    1  C1  UNL     1      -5.854   5.367  12.677  1.00  0.00     0.016 C 
HETATM    2  C2  UNL     1      -4.832   4.474  13.326  1.00  0.00    -0.033 C 
HETATM    3  C3  UNL     1      -3.446   4.876  12.846  1.00  0.00     0.016 C 
HETATM    4  C4  UNL     1      -4.829   4.667  14.837  1.00  0.00     0.011 C 
HETATM    5  C5  UNL     1      -5.913   3.877  15.513  1.00  0.00     0.011 C 
HETATM    6  C6  UNL     1      -5.323   2.494  15.825  1.00  0.00     0.074 C 
HETATM    7  S1  UNL     1      -4.466   1.995  14.279  1.00  0.00    -0.161 SA
HETATM    8  C7  UNL     1      -5.165   3.050  12.986  1.00  0.00     0.086 C 
ENDROOT
BRANCH   8   9
HETATM    9  C8  UNL     1      -4.740   2.653  11.607  1.00  0.00     0.161 C 
BRANCH   9  10
HETATM   10  O1  UNL     1      -5.879   2.531  10.815  1.00  0.00    -0.392 OA
ATOM     11  H1  UNL     1      -5.983   1.617  10.579  1.00  0.00     0.210 HD
ENDBRANCH   9  10
BRANCH   9  12
HETATM   12  C9  UNL     1      -4.007   1.346  11.564  1.00  0.00     0.255 C 
HETATM   13  F1  UNL     1      -4.854   0.310  11.222  1.00  0.00    -0.253 F 
ENDBRANCH   9  12
ENDBRANCH   8   9
TORSDOF 3
ENDMDL
