MODEL 1
REMARK VINA RESULT: -9.147993862      0.000      0.000
REMARK  8 active torsions:
REMARK  status: ('A' for Active; 'I' for Inactive)
REMARK    1  A    between atoms: O1_2  and  C2_3 
REMARK    2  A    between atoms: C2_3  and  C3_5 
REMARK    3  A    between atoms: C5_8  and  C6_9 
REMARK    4  A    between atoms: C7_10  and  C8_12 
REMARK    5  A    between atoms: C9_13  and  C10_14 
REMARK       I    between atoms: C10_14  and  N1_16 
REMARK    6  A    between atoms: C13_19  and  C14_20 
REMARK    7  A    between atoms: C14_20  and  C15_21 
REMARK    8  A    between atoms: C15_21  and  C16_22 
ROOT
HETATM    1  C10 UNL     1      16.375  64.928  31.225  1.00  0.00     0.243 C 
HETATM    2  O3  UNL     1      15.543  65.647  31.832  1.00  0.00    -0.268 OA
HETATM    3  N1  UNL     1      16.132  64.581  29.886  1.00  0.00    -0.349 N 
HETATM    4  C11 UNL     1      14.909  65.069  29.222  1.00  0.00     0.126 C 
HETATM    5  C12 UNL     1      14.828  64.483  27.842  1.00  0.00     0.024 C 
HETATM    6  C13 UNL     1      14.953  62.987  27.893  1.00  0.00    -0.012 C 
HETATM    7  C21 UNL     1      16.253  62.563  28.506  1.00  0.00     0.024 C 
HETATM    8  C22 UNL     1      16.994  63.766  29.068  1.00  0.00     0.126 C 
ENDROOT
BRANCH   1   9
HETATM    9  C9  UNL     1      17.544  64.495  31.941  1.00  0.00     0.075 C 
HETATM   10  C8  UNL     1      17.461  63.867  33.125  1.00  0.00     0.024 C 
BRANCH  10  11
HETATM   11  C7  UNL     1      18.649  63.444  33.821  1.00  0.00     0.013 C 
HETATM   12  C6  UNL     1      18.998  62.179  33.794  1.00  0.00     0.056 C 
HETATM   13 BR1  UNL     1      19.687  64.725  34.767  1.00  0.00    -0.051 Br
BRANCH  12  14
HETATM   14  C5  UNL     1      20.228  61.808  34.531  1.00  0.00     0.075 A 
HETATM   15  S1  UNL     1      21.861  61.915  34.039  1.00  0.00    -0.082 SA
HETATM   16  C4  UNL     1      22.591  61.297  35.453  1.00  0.00     0.087 A 
HETATM   17  C3  UNL     1      21.498  61.038  36.241  1.00  0.00     0.115 A 
HETATM   18  N3  UNL     1      20.330  61.305  35.751  1.00  0.00    -0.345 N 
ATOM     19  H3  UNL     1      19.491  61.128  36.302  1.00  0.00     0.167 HD
BRANCH  17  20
HETATM   20  C2  UNL     1      21.675  60.472  37.608  1.00  0.00     0.310 C 
HETATM   21  O2  UNL     1      20.910  59.583  38.061  1.00  0.00    -0.258 OA
BRANCH  20  22
HETATM   22  O1  UNL     1      22.691  60.899  38.443  1.00  0.00    -0.321 OA
HETATM   23  C1  UNL     1      23.623  59.959  38.971  1.00  0.00     0.213 C 
ENDBRANCH  20  22
ENDBRANCH  17  20
ENDBRANCH  12  14
ENDBRANCH  10  11
ENDBRANCH   1   9
BRANCH   6  24
HETATM   24  C14 UNL     1      14.727  62.367  26.532  1.00  0.00     0.005 C 
BRANCH  24  25
HETATM   25  C15 UNL     1      13.389  61.697  26.408  1.00  0.00     0.005 C 
BRANCH  25  26
HETATM   26  C16 UNL     1      12.690  62.113  25.153  1.00  0.00    -0.012 C 
HETATM   27  C17 UNL     1      12.670  63.618  24.985  1.00  0.00     0.024 C 
HETATM   28  C18 UNL     1      12.101  63.954  23.624  1.00  0.00     0.114 C 
HETATM   29  N2  UNL     1      11.514  62.829  22.970  1.00  0.00    -0.421 N 
HETATM   30  C19 UNL     1      10.660  62.021  23.802  1.00  0.00     0.114 C 
ATOM     31  H2  UNL     1      11.688  62.613  21.988  1.00  0.00     0.153 HD
HETATM   32  C20 UNL     1      11.247  61.652  25.124  1.00  0.00     0.024 C 
ENDBRANCH  25  26
ENDBRANCH  24  25
ENDBRANCH   6  24
TORSDOF 8
ENDMDL
MODEL 2
REMARK VINA RESULT: -9.036986801      1.709      1.932
REMARK  8 active torsions:
REMARK  status: ('A' for Active; 'I' for Inactive)
REMARK    1  A    between atoms: O1_2  and  C2_3 
REMARK    2  A    between atoms: C2_3  and  C3_5 
REMARK    3  A    between atoms: C5_8  and  C6_9 
REMARK    4  A    between atoms: C7_10  and  C8_12 
REMARK    5  A    between atoms: C9_13  and  C10_14 
REMARK       I    between atoms: C10_14  and  N1_16 
REMARK    6  A    between atoms: C13_19  and  C14_20 
REMARK    7  A    between atoms: C14_20  and  C15_21 
REMARK    8  A    between atoms: C15_21  and  C16_22 
ROOT
HETATM    1  C10 UNL     1      16.607  64.723  31.733  1.00  0.00     0.243 C 
HETATM    2  O3  UNL     1      15.943  65.660  32.245  1.00  0.00    -0.268 OA
HETATM    3  N1  UNL     1      16.488  64.473  30.357  1.00  0.00    -0.349 N 
HETATM    4  C11 UNL     1      15.590  65.313  29.543  1.00  0.00     0.126 C 
HETATM    5  C12 UNL     1      15.559  64.785  28.138  1.00  0.00     0.024 C 
HETATM    6  C13 UNL     1      15.218  63.322  28.128  1.00  0.00    -0.012 C 
HETATM    7  C21 UNL     1      16.216  62.519  28.908  1.00  0.00     0.024 C 
HETATM    8  C22 UNL     1      17.184  63.436  29.637  1.00  0.00     0.126 C 
ENDROOT
BRANCH   1   9
HETATM    9  C9  UNL     1      17.461  63.952  32.594  1.00  0.00     0.075 C 
HETATM   10  C8  UNL     1      18.546  64.482  33.182  1.00  0.00     0.024 C 
BRANCH  10  11
HETATM   11  C7  UNL     1      19.384  63.686  34.041  1.00  0.00     0.013 C 
HETATM   12  C6  UNL     1      19.711  64.142  35.228  1.00  0.00     0.056 C 
HETATM   13 BR1  UNL     1      20.003  61.993  33.439  1.00  0.00    -0.051 Br
BRANCH  12  14
HETATM   14  C5  UNL     1      20.576  63.276  36.062  1.00  0.00     0.075 A 
HETATM   15  S1  UNL     1      20.141  62.142  37.264  1.00  0.00    -0.082 SA
HETATM   16  C4  UNL     1      21.708  61.619  37.696  1.00  0.00     0.087 A 
HETATM   17  C3  UNL     1      22.494  62.374  36.862  1.00  0.00     0.115 A 
HETATM   18  N3  UNL     1      21.897  63.194  36.057  1.00  0.00    -0.345 N 
ATOM     19  H3  UNL     1      22.443  63.774  35.420  1.00  0.00     0.167 HD
BRANCH  17  20
HETATM   20  C2  UNL     1      23.977  62.236  36.900  1.00  0.00     0.310 C 
HETATM   21  O2  UNL     1      24.673  62.813  37.774  1.00  0.00    -0.258 OA
BRANCH  20  22
HETATM   22  O1  UNL     1      24.658  61.466  35.975  1.00  0.00    -0.321 OA
HETATM   23  C1  UNL     1      24.235  60.132  35.708  1.00  0.00     0.213 C 
ENDBRANCH  20  22
ENDBRANCH  17  20
ENDBRANCH  12  14
ENDBRANCH  10  11
ENDBRANCH   1   9
BRANCH   6  24
HETATM   24  C14 UNL     1      15.037  62.806  26.718  1.00  0.00     0.005 C 
BRANCH  24  25
HETATM   25  C15 UNL     1      13.908  61.825  26.595  1.00  0.00     0.005 C 
BRANCH  25  26
HETATM   26  C16 UNL     1      13.060  62.123  25.399  1.00  0.00    -0.012 C 
HETATM   27  C17 UNL     1      13.019  63.605  25.087  1.00  0.00     0.024 C 
HETATM   28  C18 UNL     1      12.288  63.812  23.778  1.00  0.00     0.114 C 
HETATM   29  N2  UNL     1      11.626  62.635  23.315  1.00  0.00    -0.421 N 
HETATM   30  C19 UNL     1      10.880  61.923  24.321  1.00  0.00     0.114 C 
ATOM     31  H2  UNL     1      11.678  62.322  22.346  1.00  0.00     0.153 HD
HETATM   32  C20 UNL     1      11.624  61.679  25.592  1.00  0.00     0.024 C 
ENDBRANCH  25  26
ENDBRANCH  24  25
ENDBRANCH   6  24
TORSDOF 8
ENDMDL
MODEL 3
REMARK VINA RESULT: -9.006648489      3.768      4.859
REMARK  8 active torsions:
REMARK  status: ('A' for Active; 'I' for Inactive)
REMARK    1  A    between atoms: O1_2  and  C2_3 
REMARK    2  A    between atoms: C2_3  and  C3_5 
REMARK    3  A    between atoms: C5_8  and  C6_9 
REMARK    4  A    between atoms: C7_10  and  C8_12 
REMARK    5  A    between atoms: C9_13  and  C10_14 
REMARK       I    between atoms: C10_14  and  N1_16 
REMARK    6  A    between atoms: C13_19  and  C14_20 
REMARK    7  A    between atoms: C14_20  and  C15_21 
REMARK    8  A    between atoms: C15_21  and  C16_22 
ROOT
HETATM    1  C10 UNL     1      16.666  64.741  30.901  1.00  0.00     0.243 C 
HETATM    2  O3  UNL     1      17.061  64.442  29.746  1.00  0.00    -0.268 OA
HETATM    3  N1  UNL     1      15.402  65.331  31.060  1.00  0.00    -0.349 N 
HETATM    4  C11 UNL     1      14.566  65.585  29.872  1.00  0.00     0.126 C 
HETATM    5  C12 UNL     1      13.319  66.309  30.290  1.00  0.00     0.024 C 
HETATM    6  C13 UNL     1      13.660  67.537  31.084  1.00  0.00    -0.012 C 
HETATM    7  C21 UNL     1      14.440  67.197  32.318  1.00  0.00     0.024 C 
HETATM    8  C22 UNL     1      14.821  65.725  32.318  1.00  0.00     0.126 C 
ENDROOT
BRANCH   1   9
HETATM    9  C9  UNL     1      17.539  64.458  32.007  1.00  0.00     0.075 C 
HETATM   10  C8  UNL     1      18.289  63.346  32.056  1.00  0.00     0.024 C 
BRANCH  10  11
HETATM   11  C7  UNL     1      19.155  63.088  33.178  1.00  0.00     0.013 C 
HETATM   12  C6  UNL     1      19.729  61.913  33.295  1.00  0.00     0.056 C 
HETATM   13 BR1  UNL     1      19.452  64.453  34.466  1.00  0.00    -0.051 Br
BRANCH  12  14
HETATM   14  C5  UNL     1      20.607  61.710  34.470  1.00  0.00     0.075 A 
HETATM   15  S1  UNL     1      22.257  62.104  34.672  1.00  0.00    -0.082 SA
HETATM   16  C4  UNL     1      22.456  61.544  36.273  1.00  0.00     0.087 A 
HETATM   17  C3  UNL     1      21.199  61.074  36.562  1.00  0.00     0.115 A 
HETATM   18  N3  UNL     1      20.297  61.172  35.638  1.00  0.00    -0.345 N 
ATOM     19  H3  UNL     1      19.350  60.835  35.811  1.00  0.00     0.167 HD
BRANCH  17  20
HETATM   20  C2  UNL     1      20.909  60.478  37.896  1.00  0.00     0.310 C 
HETATM   21  O2  UNL     1      21.225  59.294  38.175  1.00  0.00    -0.258 OA
BRANCH  20  22
HETATM   22  O1  UNL     1      20.278  61.201  38.892  1.00  0.00    -0.321 OA
HETATM   23  C1  UNL     1      20.898  62.366  39.429  1.00  0.00     0.213 C 
ENDBRANCH  20  22
ENDBRANCH  17  20
ENDBRANCH  12  14
ENDBRANCH  10  11
ENDBRANCH   1   9
BRANCH   6  24
HETATM   24  C14 UNL     1      12.427  68.358  31.390  1.00  0.00     0.005 C 
BRANCH  24  25
HETATM   25  C15 UNL     1      11.192  67.521  31.554  1.00  0.00     0.005 C 
BRANCH  25  26
HETATM   26  C16 UNL     1      10.066  68.047  30.723  1.00  0.00    -0.012 C 
HETATM   27  C17 UNL     1       9.667  67.080  29.628  1.00  0.00     0.024 C 
HETATM   28  C18 UNL     1       8.423  67.601  28.941  1.00  0.00     0.114 C 
HETATM   29  N2  UNL     1       8.101  68.941  29.310  1.00  0.00    -0.421 N 
HETATM   30  C19 UNL     1       9.215  69.853  29.319  1.00  0.00     0.114 C 
ATOM     31  H2  UNL     1       7.152  69.231  29.549  1.00  0.00     0.153 HD
HETATM   32  C20 UNL     1      10.422  69.353  30.041  1.00  0.00     0.024 C 
ENDBRANCH  25  26
ENDBRANCH  24  25
ENDBRANCH   6  24
TORSDOF 8
ENDMDL
MODEL 4
REMARK VINA RESULT: -8.995829461      4.071      5.009
REMARK  8 active torsions:
REMARK  status: ('A' for Active; 'I' for Inactive)
REMARK    1  A    between atoms: O1_2  and  C2_3 
REMARK    2  A    between atoms: C2_3  and  C3_5 
REMARK    3  A    between atoms: C5_8  and  C6_9 
REMARK    4  A    between atoms: C7_10  and  C8_12 
REMARK    5  A    between atoms: C9_13  and  C10_14 
REMARK       I    between atoms: C10_14  and  N1_16 
REMARK    6  A    between atoms: C13_19  and  C14_20 
REMARK    7  A    between atoms: C14_20  and  C15_21 
REMARK    8  A    between atoms: C15_21  and  C16_22 
ROOT
HETATM    1  C10 UNL     1      17.017  64.461  30.697  1.00  0.00     0.243 C 
HETATM    2  O3  UNL     1      17.565  64.582  29.572  1.00  0.00    -0.268 OA
HETATM    3  N1  UNL     1      15.745  65.017  30.902  1.00  0.00    -0.349 N 
HETATM    4  C11 UNL     1      15.078  65.728  29.796  1.00  0.00     0.126 C 
HETATM    5  C12 UNL     1      13.787  66.314  30.291  1.00  0.00     0.024 C 
HETATM    6  C13 UNL     1      14.020  67.151  31.517  1.00  0.00    -0.012 C 
HETATM    7  C21 UNL     1      14.626  66.346  32.627  1.00  0.00     0.024 C 
HETATM    8  C22 UNL     1      15.000  64.957  32.134  1.00  0.00     0.126 C 
ENDROOT
BRANCH   1   9
HETATM    9  C9  UNL     1      17.732  63.751  31.722  1.00  0.00     0.075 C 
HETATM   10  C8  UNL     1      18.624  64.359  32.520  1.00  0.00     0.024 C 
BRANCH  10  11
HETATM   11  C7  UNL     1      19.325  63.623  33.540  1.00  0.00     0.013 C 
HETATM   12  C6  UNL     1      19.888  64.271  34.534  1.00  0.00     0.056 C 
HETATM   13 BR1  UNL     1      19.424  61.729  33.429  1.00  0.00    -0.051 Br
BRANCH  12  14
HETATM   14  C5  UNL     1      20.595  63.457  35.549  1.00  0.00     0.075 A 
HETATM   15  S1  UNL     1      19.954  62.498  36.809  1.00  0.00    -0.082 SA
HETATM   16  C4  UNL     1      21.423  61.934  37.470  1.00  0.00     0.087 A 
HETATM   17  C3  UNL     1      22.347  62.539  36.653  1.00  0.00     0.115 A 
HETATM   18  N3  UNL     1      21.900  63.295  35.702  1.00  0.00    -0.345 N 
ATOM     19  H3  UNL     1      22.551  63.764  35.073  1.00  0.00     0.167 HD
BRANCH  17  20
HETATM   20  C2  UNL     1      23.803  62.318  36.874  1.00  0.00     0.310 C 
HETATM   21  O2  UNL     1      24.423  62.876  37.815  1.00  0.00    -0.258 OA
BRANCH  20  22
HETATM   22  O1  UNL     1      24.543  61.486  36.054  1.00  0.00    -0.321 OA
HETATM   23  C1  UNL     1      24.298  60.082  36.054  1.00  0.00     0.213 C 
ENDBRANCH  20  22
ENDBRANCH  17  20
ENDBRANCH  12  14
ENDBRANCH  10  11
ENDBRANCH   1   9
BRANCH   6  24
HETATM   24  C14 UNL     1      12.760  67.867  31.945  1.00  0.00     0.005 C 
BRANCH  24  25
HETATM   25  C15 UNL     1      11.548  66.980  31.929  1.00  0.00     0.005 C 
BRANCH  25  26
HETATM   26  C16 UNL     1      10.456  67.571  31.096  1.00  0.00    -0.012 C 
HETATM   27  C17 UNL     1      10.010  66.633  29.994  1.00  0.00     0.024 C 
HETATM   28  C18 UNL     1       8.799  67.224  29.304  1.00  0.00     0.114 C 
HETATM   29  N2  UNL     1       8.548  68.578  29.679  1.00  0.00    -0.421 N 
HETATM   30  C19 UNL     1       9.710  69.428  29.698  1.00  0.00     0.114 C 
ATOM     31  H2  UNL     1       7.615  68.917  29.916  1.00  0.00     0.153 HD
HETATM   32  C20 UNL     1      10.885  68.860  30.423  1.00  0.00     0.024 C 
ENDBRANCH  25  26
ENDBRANCH  24  25
ENDBRANCH   6  24
TORSDOF 8
ENDMDL
MODEL 5
REMARK VINA RESULT: -8.970089221      1.014      1.249
REMARK  8 active torsions:
REMARK  status: ('A' for Active; 'I' for Inactive)
REMARK    1  A    between atoms: O1_2  and  C2_3 
REMARK    2  A    between atoms: C2_3  and  C3_5 
REMARK    3  A    between atoms: C5_8  and  C6_9 
REMARK    4  A    between atoms: C7_10  and  C8_12 
REMARK    5  A    between atoms: C9_13  and  C10_14 
REMARK       I    between atoms: C10_14  and  N1_16 
REMARK    6  A    between atoms: C13_19  and  C14_20 
REMARK    7  A    between atoms: C14_20  and  C15_21 
REMARK    8  A    between atoms: C15_21  and  C16_22 
ROOT
HETATM    1  C10 UNL     1      16.418  65.080  31.927  1.00  0.00     0.243 C 
HETATM    2  O3  UNL     1      15.491  65.643  32.562  1.00  0.00    -0.268 OA
HETATM    3  N1  UNL     1      16.271  64.867  30.547  1.00  0.00    -0.349 N 
HETATM    4  C11 UNL     1      15.035  65.309  29.873  1.00  0.00     0.126 C 
HETATM    5  C12 UNL     1      15.076  64.879  28.436  1.00  0.00     0.024 C 
HETATM    6  C13 UNL     1      15.349  63.406  28.329  1.00  0.00    -0.012 C 
HETATM    7  C21 UNL     1      16.657  63.041  28.964  1.00  0.00     0.024 C 
HETATM    8  C22 UNL     1      17.246  64.237  29.694  1.00  0.00     0.126 C 
ENDROOT
BRANCH   1   9
HETATM    9  C9  UNL     1      17.592  64.683  32.655  1.00  0.00     0.075 C 
HETATM   10  C8  UNL     1      17.628  63.558  33.387  1.00  0.00     0.024 C 
BRANCH  10  11
HETATM   11  C7  UNL     1      18.818  63.183  34.108  1.00  0.00     0.013 C 
HETATM   12  C6  UNL     1      19.226  61.935  34.078  1.00  0.00     0.056 C 
HETATM   13 BR1  UNL     1      19.774  64.501  35.087  1.00  0.00    -0.051 Br
BRANCH  12  14
HETATM   14  C5  UNL     1      20.455  61.615  34.840  1.00  0.00     0.075 A 
HETATM   15  S1  UNL     1      22.090  61.732  34.360  1.00  0.00    -0.082 SA
HETATM   16  C4  UNL     1      22.817  61.181  35.803  1.00  0.00     0.087 A 
HETATM   17  C3  UNL     1      21.719  60.932  36.590  1.00  0.00     0.115 A 
HETATM   18  N3  UNL     1      20.552  61.159  36.078  1.00  0.00    -0.345 N 
ATOM     19  H3  UNL     1      19.711  60.988  36.628  1.00  0.00     0.167 HD
BRANCH  17  20
HETATM   20  C2  UNL     1      21.893  60.420  37.979  1.00  0.00     0.310 C 
HETATM   21  O2  UNL     1      21.038  59.674  38.520  1.00  0.00    -0.258 OA
BRANCH  20  22
HETATM   22  O1  UNL     1      23.003  60.743  38.737  1.00  0.00    -0.321 OA
HETATM   23  C1  UNL     1      23.933  59.729  39.108  1.00  0.00     0.213 C 
ENDBRANCH  20  22
ENDBRANCH  17  20
ENDBRANCH  12  14
ENDBRANCH  10  11
ENDBRANCH   1   9
BRANCH   6  24
HETATM   24  C14 UNL     1      15.248  62.927  26.899  1.00  0.00     0.005 C 
BRANCH  24  25
HETATM   25  C15 UNL     1      14.249  61.821  26.720  1.00  0.00     0.005 C 
BRANCH  25  26
HETATM   26  C16 UNL     1      12.895  62.363  26.390  1.00  0.00    -0.012 C 
HETATM   27  C17 UNL     1      11.997  62.433  27.607  1.00  0.00     0.024 C 
HETATM   28  C18 UNL     1      10.714  63.142  27.232  1.00  0.00     0.114 C 
HETATM   29  N2  UNL     1      10.570  63.331  25.826  1.00  0.00    -0.421 N 
HETATM   30  C19 UNL     1      10.882  62.177  25.023  1.00  0.00     0.114 C 
ATOM     31  H2  UNL     1      10.270  64.217  25.419  1.00  0.00     0.153 HD
HETATM   32  C20 UNL     1      12.173  61.511  25.365  1.00  0.00     0.024 C 
ENDBRANCH  25  26
ENDBRANCH  24  25
ENDBRANCH   6  24
TORSDOF 8
ENDMDL
