MODEL 1
REMARK VINA RESULT: -8.163640955      0.000      0.000
REMARK  9 active torsions:
REMARK  status: ('A' for Active; 'I' for Inactive)
REMARK    1  A    between atoms: C2_2  and  O1_3 
REMARK    2  A    between atoms: O1_3  and  C3_4 
REMARK    3  A    between atoms: C3_4  and  C4_6 
REMARK    4  A    between atoms: N1_9  and  C7_10 
REMARK    5  A    between atoms: C7_10  and  C8_11 
REMARK    6  A    between atoms: C9_12  and  C10_13 
REMARK    7  A    between atoms: C14_20  and  C16_22 
REMARK       I    between atoms: C16_22  and  N3_24 
REMARK    8  A    between atoms: N3_24  and  C17_26 
REMARK    9  A    between atoms: C17_26  and  C18_27 
ROOT
HETATM    1  C4  UNL     1      12.713  67.354  31.128  1.00  0.00     0.128 C 
HETATM    2  C5  UNL     1      13.741  68.418  31.417  1.00  0.00     0.062 C 
HETATM    3  C6  UNL     1      14.896  67.610  31.994  1.00  0.00     0.066 C 
HETATM    4  N1  UNL     1      14.603  66.254  31.974  1.00  0.00    -0.350 N 
HETATM    5  C14 UNL     1      13.210  66.102  31.834  1.00  0.00     0.126 C 
HETATM    6  C15 UNL     1      12.643  66.154  33.326  1.00  0.00     0.050 C 
ENDROOT
BRANCH   5   7
HETATM    7  C16 UNL     1      12.599  64.883  31.344  1.00  0.00     0.247 C 
HETATM    8  O4  UNL     1      12.406  63.920  32.120  1.00  0.00    -0.271 OA
HETATM    9  N3  UNL     1      12.182  64.746  29.943  1.00  0.00    -0.359 N 
ATOM     10  H3  UNL     1      12.375  65.464  29.244  1.00  0.00     0.162 HD
BRANCH   9  11
HETATM   11  C17 UNL     1      11.481  63.523  29.623  1.00  0.00     0.127 C 
BRANCH  11  12
HETATM   12  C18 UNL     1      12.061  62.879  28.399  1.00  0.00     0.004 C 
HETATM   13  C19 UNL     1      13.129  61.934  28.916  1.00  0.00     0.006 C 
HETATM   14  C20 UNL     1      14.516  62.214  28.473  1.00  0.00     0.002 C 
HETATM   15  C21 UNL     1      14.619  62.320  26.968  1.00  0.00     0.016 C 
HETATM   16  C22 UNL     1      13.479  63.064  26.364  1.00  0.00     0.058 C 
HETATM   17 BR1  UNL     1      12.286  61.869  25.414  1.00  0.00    -0.091 Br
HETATM   18  C23 UNL     1      12.655  63.844  27.407  1.00  0.00     0.022 C 
ENDBRANCH  11  12
ENDBRANCH   9  11
ENDBRANCH   5   7
BRANCH   1  19
HETATM   19  C3  UNL     1      11.409  67.833  31.618  1.00  0.00     0.266 C 
HETATM   20  O2  UNL     1      11.348  68.831  32.337  1.00  0.00    -0.265 OA
BRANCH  19  21
HETATM   21  O1  UNL     1      10.274  67.149  31.243  1.00  0.00    -0.321 OA
BRANCH  21  22
HETATM   22  C2  UNL     1       9.624  67.454  30.045  1.00  0.00     0.174 C 
HETATM   23  C1  UNL     1       8.814  66.256  29.580  1.00  0.00     0.034 C 
ENDBRANCH  21  22
ENDBRANCH  19  21
ENDBRANCH   1  19
BRANCH   4  24
HETATM   24  C7  UNL     1      15.380  65.278  32.542  1.00  0.00     0.107 C 
BRANCH  24  25
HETATM   25  C8  UNL     1      16.505  64.743  31.711  1.00  0.00     0.035 A 
HETATM   26  C9  UNL     1      17.641  64.240  32.335  1.00  0.00     0.046 A 
HETATM   27  N2  UNL     1      18.500  63.923  31.333  1.00  0.00    -0.264 N 
HETATM   28  O3  UNL     1      17.966  64.195  30.219  1.00  0.00    -0.242 OA
ATOM     29  H2  UNL     1      19.432  63.527  31.458  1.00  0.00     0.194 HD
HETATM   30  C12 UNL     1      16.741  64.713  30.370  1.00  0.00     0.086 A 
HETATM   31  C13 UNL     1      15.909  65.143  29.194  1.00  0.00     0.080 C 
BRANCH  26  32
HETATM   32  C10 UNL     1      17.996  64.176  33.770  1.00  0.00     0.055 C 
HETATM   33  C11 UNL     1      19.350  64.949  33.876  1.00  0.00     0.011 C 
ENDBRANCH  26  32
ENDBRANCH  24  25
ENDBRANCH   4  24
TORSDOF 9
ENDMDL
MODEL 2
REMARK VINA RESULT: -7.977920920      0.945      1.323
REMARK  9 active torsions:
REMARK  status: ('A' for Active; 'I' for Inactive)
REMARK    1  A    between atoms: C2_2  and  O1_3 
REMARK    2  A    between atoms: O1_3  and  C3_4 
REMARK    3  A    between atoms: C3_4  and  C4_6 
REMARK    4  A    between atoms: N1_9  and  C7_10 
REMARK    5  A    between atoms: C7_10  and  C8_11 
REMARK    6  A    between atoms: C9_12  and  C10_13 
REMARK    7  A    between atoms: C14_20  and  C16_22 
REMARK       I    between atoms: C16_22  and  N3_24 
REMARK    8  A    between atoms: N3_24  and  C17_26 
REMARK    9  A    between atoms: C17_26  and  C18_27 
ROOT
HETATM    1  C4  UNL     1      12.806  67.523  31.303  1.00  0.00     0.128 C 
HETATM    2  C5  UNL     1      13.817  68.446  31.934  1.00  0.00     0.062 C 
HETATM    3  C6  UNL     1      14.889  67.478  32.417  1.00  0.00     0.066 C 
HETATM    4  N1  UNL     1      14.576  66.176  32.050  1.00  0.00    -0.350 N 
HETATM    5  C14 UNL     1      13.203  66.121  31.741  1.00  0.00     0.126 C 
HETATM    6  C15 UNL     1      12.481  65.849  33.140  1.00  0.00     0.050 C 
ENDROOT
BRANCH   5   7
HETATM    7  C16 UNL     1      12.625  65.076  30.920  1.00  0.00     0.247 C 
HETATM    8  O4  UNL     1      12.401  63.945  31.407  1.00  0.00    -0.271 OA
HETATM    9  N3  UNL     1      12.279  65.312  29.513  1.00  0.00    -0.359 N 
ATOM     10  H3  UNL     1      12.500  66.186  29.036  1.00  0.00     0.162 HD
BRANCH   9  11
HETATM   11  C17 UNL     1      11.603  64.219  28.850  1.00  0.00     0.127 C 
BRANCH  11  12
HETATM   12  C18 UNL     1      12.395  63.736  27.672  1.00  0.00     0.004 C 
HETATM   13  C19 UNL     1      11.401  63.660  26.529  1.00  0.00     0.006 C 
HETATM   14  C20 UNL     1      11.183  62.315  25.943  1.00  0.00     0.002 C 
HETATM   15  C21 UNL     1      12.482  61.660  25.529  1.00  0.00     0.016 C 
HETATM   16  C22 UNL     1      13.575  61.875  26.518  1.00  0.00     0.058 C 
HETATM   17 BR1  UNL     1      14.897  63.120  25.843  1.00  0.00    -0.091 Br
HETATM   18  C23 UNL     1      13.061  62.399  27.872  1.00  0.00     0.022 C 
ENDBRANCH  11  12
ENDBRANCH   9  11
ENDBRANCH   5   7
BRANCH   1  19
HETATM   19  C3  UNL     1      11.467  67.929  31.760  1.00  0.00     0.266 C 
HETATM   20  O2  UNL     1      11.345  68.813  32.610  1.00  0.00    -0.265 OA
BRANCH  19  21
HETATM   21  O1  UNL     1      10.367  67.310  31.208  1.00  0.00    -0.321 OA
BRANCH  21  22
HETATM   22  C2  UNL     1       9.713  67.871  30.109  1.00  0.00     0.174 C 
HETATM   23  C1  UNL     1       8.809  66.834  29.464  1.00  0.00     0.034 C 
ENDBRANCH  21  22
ENDBRANCH  19  21
ENDBRANCH   1  19
BRANCH   4  24
HETATM   24  C7  UNL     1      15.270  65.063  32.446  1.00  0.00     0.107 C 
BRANCH  24  25
HETATM   25  C8  UNL     1      16.485  64.706  31.646  1.00  0.00     0.035 A 
HETATM   26  C9  UNL     1      17.678  64.420  32.301  1.00  0.00     0.046 A 
HETATM   27  N2  UNL     1      18.597  64.228  31.320  1.00  0.00    -0.264 N 
HETATM   28  O3  UNL     1      18.045  64.377  30.192  1.00  0.00    -0.242 OA
ATOM     29  H2  UNL     1      19.580  64.000  31.470  1.00  0.00     0.194 HD
HETATM   30  C12 UNL     1      16.747  64.683  30.311  1.00  0.00     0.086 A 
HETATM   31  C13 UNL     1      15.877  64.935  29.111  1.00  0.00     0.080 C 
BRANCH  26  32
HETATM   32  C10 UNL     1      18.011  64.454  33.742  1.00  0.00     0.055 C 
HETATM   33  C11 UNL     1      19.500  64.926  33.790  1.00  0.00     0.011 C 
ENDBRANCH  26  32
ENDBRANCH  24  25
ENDBRANCH   4  24
TORSDOF 9
ENDMDL
MODEL 3
REMARK VINA RESULT: -7.956493410      0.674      1.921
REMARK  9 active torsions:
REMARK  status: ('A' for Active; 'I' for Inactive)
REMARK    1  A    between atoms: C2_2  and  O1_3 
REMARK    2  A    between atoms: O1_3  and  C3_4 
REMARK    3  A    between atoms: C3_4  and  C4_6 
REMARK    4  A    between atoms: N1_9  and  C7_10 
REMARK    5  A    between atoms: C7_10  and  C8_11 
REMARK    6  A    between atoms: C9_12  and  C10_13 
REMARK    7  A    between atoms: C14_20  and  C16_22 
REMARK       I    between atoms: C16_22  and  N3_24 
REMARK    8  A    between atoms: N3_24  and  C17_26 
REMARK    9  A    between atoms: C17_26  and  C18_27 
ROOT
HETATM    1  C4  UNL     1      12.783  67.418  31.194  1.00  0.00     0.128 C 
HETATM    2  C5  UNL     1      13.865  68.368  31.643  1.00  0.00     0.062 C 
HETATM    3  C6  UNL     1      14.953  67.420  32.132  1.00  0.00     0.066 C 
HETATM    4  N1  UNL     1      14.580  66.099  31.926  1.00  0.00    -0.350 N 
HETATM    5  C14 UNL     1      13.184  66.056  31.739  1.00  0.00     0.126 C 
HETATM    6  C15 UNL     1      12.578  65.947  33.212  1.00  0.00     0.050 C 
ENDROOT
BRANCH   5   7
HETATM    7  C16 UNL     1      12.516  64.952  31.079  1.00  0.00     0.247 C 
HETATM    8  O4  UNL     1      12.219  63.921  31.722  1.00  0.00    -0.271 OA
HETATM    9  N3  UNL     1      12.160  65.015  29.655  1.00  0.00    -0.359 N 
ATOM     10  H3  UNL     1      12.435  65.794  29.058  1.00  0.00     0.162 HD
BRANCH   9  11
HETATM   11  C17 UNL     1      11.393  63.894  29.159  1.00  0.00     0.127 C 
BRANCH  11  12
HETATM   12  C18 UNL     1      11.900  63.450  27.820  1.00  0.00     0.004 C 
HETATM   13  C19 UNL     1      12.657  62.163  28.089  1.00  0.00     0.006 C 
HETATM   14  C20 UNL     1      14.103  62.177  27.761  1.00  0.00     0.002 C 
HETATM   15  C21 UNL     1      14.357  62.626  26.339  1.00  0.00     0.016 C 
HETATM   16  C22 UNL     1      13.489  63.766  25.932  1.00  0.00     0.058 C 
HETATM   17 BR1  UNL     1      12.125  63.198  24.678  1.00  0.00    -0.091 Br
HETATM   18  C23 UNL     1      12.795  64.445  27.129  1.00  0.00     0.022 C 
ENDBRANCH  11  12
ENDBRANCH   9  11
ENDBRANCH   5   7
BRANCH   1  19
HETATM   19  C3  UNL     1      11.497  67.909  31.716  1.00  0.00     0.266 C 
HETATM   20  O2  UNL     1      11.474  68.824  32.541  1.00  0.00    -0.265 OA
BRANCH  19  21
HETATM   21  O1  UNL     1      10.336  67.334  31.252  1.00  0.00    -0.321 OA
BRANCH  21  22
HETATM   22  C2  UNL     1       9.809  67.698  30.010  1.00  0.00     0.174 C 
HETATM   23  C1  UNL     1       8.839  66.632  29.530  1.00  0.00     0.034 C 
ENDBRANCH  21  22
ENDBRANCH  19  21
ENDBRANCH   1  19
BRANCH   4  24
HETATM   24  C7  UNL     1      15.280  65.010  32.375  1.00  0.00     0.107 C 
BRANCH  24  25
HETATM   25  C8  UNL     1      16.656  64.817  31.818  1.00  0.00     0.035 A 
HETATM   26  C9  UNL     1      16.829  64.693  30.443  1.00  0.00     0.046 A 
HETATM   27  N2  UNL     1      18.151  64.442  30.261  1.00  0.00    -0.264 N 
HETATM   28  O3  UNL     1      18.732  64.411  31.385  1.00  0.00    -0.242 OA
ATOM     29  H2  UNL     1      18.605  64.300  29.360  1.00  0.00     0.194 HD
HETATM   30  C12 UNL     1      17.875  64.623  32.392  1.00  0.00     0.086 A 
HETATM   31  C13 UNL     1      18.319  64.610  33.828  1.00  0.00     0.080 C 
BRANCH  26  32
HETATM   32  C10 UNL     1      15.831  64.664  29.351  1.00  0.00     0.055 C 
HETATM   33  C11 UNL     1      16.652  64.979  28.060  1.00  0.00     0.011 C 
ENDBRANCH  26  32
ENDBRANCH  24  25
ENDBRANCH   4  24
TORSDOF 9
ENDMDL
MODEL 4
REMARK VINA RESULT: -7.871389369      3.057      7.422
REMARK  9 active torsions:
REMARK  status: ('A' for Active; 'I' for Inactive)
REMARK    1  A    between atoms: C2_2  and  O1_3 
REMARK    2  A    between atoms: O1_3  and  C3_4 
REMARK    3  A    between atoms: C3_4  and  C4_6 
REMARK    4  A    between atoms: N1_9  and  C7_10 
REMARK    5  A    between atoms: C7_10  and  C8_11 
REMARK    6  A    between atoms: C9_12  and  C10_13 
REMARK    7  A    between atoms: C14_20  and  C16_22 
REMARK       I    between atoms: C16_22  and  N3_24 
REMARK    8  A    between atoms: N3_24  and  C17_26 
REMARK    9  A    between atoms: C17_26  and  C18_27 
ROOT
HETATM    1  C4  UNL     1      15.536  63.911  27.146  1.00  0.00     0.128 C 
HETATM    2  C5  UNL     1      14.489  63.329  26.231  1.00  0.00     0.062 C 
HETATM    3  C6  UNL     1      13.419  62.865  27.211  1.00  0.00     0.066 C 
HETATM    4  N1  UNL     1      13.767  63.199  28.512  1.00  0.00    -0.350 N 
HETATM    5  C14 UNL     1      15.151  63.462  28.547  1.00  0.00     0.126 C 
HETATM    6  C15 UNL     1      15.831  62.036  28.782  1.00  0.00     0.050 C 
ENDROOT
BRANCH   5   7
HETATM    7  C16 UNL     1      15.774  64.246  29.595  1.00  0.00     0.247 C 
HETATM    8  O4  UNL     1      15.355  65.396  29.854  1.00  0.00    -0.271 OA
HETATM    9  N3  UNL     1      16.893  63.716  30.384  1.00  0.00    -0.359 N 
ATOM     10  H3  UNL     1      17.328  62.816  30.178  1.00  0.00     0.162 HD
BRANCH   9  11
HETATM   11  C17 UNL     1      17.337  64.558  31.472  1.00  0.00     0.127 C 
BRANCH  11  12
HETATM   12  C18 UNL     1      18.349  63.847  32.320  1.00  0.00     0.004 C 
HETATM   13  C19 UNL     1      17.635  63.549  33.625  1.00  0.00     0.006 C 
HETATM   14  C20 UNL     1      18.209  64.174  34.840  1.00  0.00     0.002 C 
HETATM   15  C21 UNL     1      19.684  63.873  34.990  1.00  0.00     0.016 C 
HETATM   16  C22 UNL     1      20.419  63.943  33.696  1.00  0.00     0.058 C 
HETATM   17 BR1  UNL     1      20.922  62.176  33.078  1.00  0.00    -0.091 Br
HETATM   18  C23 UNL     1      19.607  64.633  32.584  1.00  0.00     0.022 C 
ENDBRANCH  11  12
ENDBRANCH   9  11
ENDBRANCH   5   7
BRANCH   1  19
HETATM   19  C3  UNL     1      16.853  63.418  26.707  1.00  0.00     0.266 C 
HETATM   20  O2  UNL     1      16.975  62.262  26.302  1.00  0.00    -0.265 OA
BRANCH  19  21
HETATM   21  O1  UNL     1      17.926  64.280  26.750  1.00  0.00    -0.321 OA
BRANCH  21  22
HETATM   22  C2  UNL     1      17.930  65.448  25.983  1.00  0.00     0.174 C 
HETATM   23  C1  UNL     1      18.023  65.094  24.508  1.00  0.00     0.034 C 
ENDBRANCH  21  22
ENDBRANCH  19  21
ENDBRANCH   1  19
BRANCH   4  24
HETATM   24  C7  UNL     1      13.081  62.806  29.631  1.00  0.00     0.107 C 
BRANCH  24  25
HETATM   25  C8  UNL     1      11.925  63.662  30.048  1.00  0.00     0.035 A 
HETATM   26  C9  UNL     1      12.021  64.428  31.205  1.00  0.00     0.046 A 
HETATM   27  N2  UNL     1      10.804  65.010  31.361  1.00  0.00    -0.264 N 
HETATM   28  O3  UNL     1      10.042  64.650  30.417  1.00  0.00    -0.242 OA
ATOM     29  H2  UNL     1      10.544  65.639  32.120  1.00  0.00     0.194 HD
HETATM   30  C12 UNL     1      10.658  63.812  29.574  1.00  0.00     0.086 A 
HETATM   31  C13 UNL     1       9.954  63.222  28.384  1.00  0.00     0.080 C 
BRANCH  26  32
HETATM   32  C10 UNL     1      13.110  64.525  32.202  1.00  0.00     0.055 C 
HETATM   33  C11 UNL     1      12.645  65.649  33.183  1.00  0.00     0.011 C 
ENDBRANCH  26  32
ENDBRANCH  24  25
ENDBRANCH   4  24
TORSDOF 9
ENDMDL
MODEL 5
REMARK VINA RESULT: -7.690658726      2.746      5.686
REMARK  9 active torsions:
REMARK  status: ('A' for Active; 'I' for Inactive)
REMARK    1  A    between atoms: C2_2  and  O1_3 
REMARK    2  A    between atoms: O1_3  and  C3_4 
REMARK    3  A    between atoms: C3_4  and  C4_6 
REMARK    4  A    between atoms: N1_9  and  C7_10 
REMARK    5  A    between atoms: C7_10  and  C8_11 
REMARK    6  A    between atoms: C9_12  and  C10_13 
REMARK    7  A    between atoms: C14_20  and  C16_22 
REMARK       I    between atoms: C16_22  and  N3_24 
REMARK    8  A    between atoms: N3_24  and  C17_26 
REMARK    9  A    between atoms: C17_26  and  C18_27 
ROOT
HETATM    1  C4  UNL     1      10.680  64.599  27.312  1.00  0.00     0.128 C 
HETATM    2  C5  UNL     1       9.587  65.610  27.079  1.00  0.00     0.062 C 
HETATM    3  C6  UNL     1       9.336  66.151  28.481  1.00  0.00     0.066 C 
HETATM    4  N1  UNL     1      10.216  65.581  29.391  1.00  0.00    -0.350 N 
HETATM    5  C14 UNL     1      10.747  64.408  28.820  1.00  0.00     0.126 C 
HETATM    6  C15 UNL     1       9.698  63.263  29.190  1.00  0.00     0.050 C 
ENDROOT
BRANCH   5   7
HETATM    7  C16 UNL     1      11.987  63.808  29.270  1.00  0.00     0.247 C 
HETATM    8  O4  UNL     1      11.968  62.861  30.087  1.00  0.00    -0.271 OA
HETATM    9  N3  UNL     1      13.288  64.280  28.778  1.00  0.00    -0.359 N 
ATOM     10  H3  UNL     1      13.378  65.092  28.167  1.00  0.00     0.162 HD
BRANCH   9  11
HETATM   11  C17 UNL     1      14.432  63.514  29.220  1.00  0.00     0.127 C 
BRANCH  11  12
HETATM   12  C18 UNL     1      15.579  63.669  28.267  1.00  0.00     0.004 C 
HETATM   13  C19 UNL     1      16.797  63.184  29.030  1.00  0.00     0.006 C 
HETATM   14  C20 UNL     1      17.867  64.186  29.257  1.00  0.00     0.002 C 
HETATM   15  C21 UNL     1      18.306  64.846  27.969  1.00  0.00     0.016 C 
HETATM   16  C22 UNL     1      17.164  65.165  27.067  1.00  0.00     0.058 C 
HETATM   17 BR1  UNL     1      17.131  63.983  25.532  1.00  0.00    -0.091 Br
HETATM   18  C23 UNL     1      15.800  65.077  27.777  1.00  0.00     0.022 C 
ENDBRANCH  11  12
ENDBRANCH   9  11
ENDBRANCH   5   7
BRANCH   1  19
HETATM   19  C3  UNL     1      10.333  63.372  26.575  1.00  0.00     0.266 C 
HETATM   20  O2  UNL     1       9.221  63.255  26.058  1.00  0.00    -0.265 OA
BRANCH  19  21
HETATM   21  O1  UNL     1      11.280  62.378  26.469  1.00  0.00    -0.321 OA
BRANCH  21  22
HETATM   22  C2  UNL     1      11.966  62.174  25.270  1.00  0.00     0.174 C 
HETATM   23  C1  UNL     1      13.356  62.782  25.362  1.00  0.00     0.034 C 
ENDBRANCH  21  22
ENDBRANCH  19  21
ENDBRANCH   1  19
BRANCH   4  24
HETATM   24  C7  UNL     1      10.162  65.760  30.748  1.00  0.00     0.107 C 
BRANCH  24  25
HETATM   25  C8  UNL     1      10.953  66.901  31.310  1.00  0.00     0.035 A 
HETATM   26  C9  UNL     1      11.965  66.647  32.230  1.00  0.00     0.046 A 
HETATM   27  N2  UNL     1      12.424  67.866  32.614  1.00  0.00    -0.264 N 
HETATM   28  O3  UNL     1      11.777  68.769  32.009  1.00  0.00    -0.242 OA
ATOM     29  H2  UNL     1      13.174  68.028  33.286  1.00  0.00     0.194 HD
HETATM   30  C12 UNL     1      10.847  68.253  31.196  1.00  0.00     0.086 A 
HETATM   31  C13 UNL     1       9.929  69.124  30.384  1.00  0.00     0.080 C 
BRANCH  26  32
HETATM   32  C10 UNL     1      12.406  65.374  32.841  1.00  0.00     0.055 C 
HETATM   33  C11 UNL     1      13.886  65.204  32.369  1.00  0.00     0.011 C 
ENDBRANCH  26  32
ENDBRANCH  24  25
ENDBRANCH   4  24
TORSDOF 9
ENDMDL
