MODEL 1
REMARK VINA RESULT: -7.280584110      0.000      0.000
REMARK  11 active torsions:
REMARK  status: ('A' for Active; 'I' for Inactive)
REMARK    1  A    between atoms: C2_2  and  O1_3 
REMARK    2  A    between atoms: C2_2  and  C3_5 
REMARK    3  A    between atoms: C3_5  and  O2_6 
REMARK    4  A    between atoms: C3_5  and  C4_8 
REMARK    5  A    between atoms: C4_8  and  N1_9 
REMARK    6  A    between atoms: C4_8  and  C5_13 
REMARK    7  A    between atoms: C5_13  and  O3_14 
REMARK    8  A    between atoms: C5_13  and  C6_16 
REMARK    9  A    between atoms: C6_16  and  N2_19 
REMARK   10  A    between atoms: N2_19  and  C9_21 
REMARK   11  A    between atoms: C15_30  and  O6_31 
ROOT
HETATM    1  C6  UNL     1     -22.317   6.301  25.342  1.00  0.00     0.046 C 
HETATM    2  C7  UNL     1     -22.785   7.023  24.085  1.00  0.00     0.040 C 
HETATM    3  C8  UNL     1     -21.696   4.998  24.778  1.00  0.00     0.040 C 
ENDROOT
BRANCH   1   4
HETATM    4  C5  UNL     1     -23.572   5.986  26.129  1.00  0.00     0.178 C 
BRANCH   4   5
HETATM    5  C4  UNL     1     -23.900   6.866  27.258  1.00  0.00     0.245 C 
BRANCH   5   6
HETATM    6  C3  UNL     1     -23.939   6.345  28.637  1.00  0.00     0.179 C 
BRANCH   6   7
HETATM    7  C2  UNL     1     -25.267   6.166  29.288  1.00  0.00     0.145 C 
HETATM    8  C1  UNL     1     -25.269   5.131  30.412  1.00  0.00     0.042 C 
BRANCH   7   9
HETATM    9  O1  UNL     1     -25.912   7.285  29.721  1.00  0.00    -0.393 OA
ATOM     10  H1  UNL     1     -25.808   7.969  29.071  1.00  0.00     0.210 HD
ENDBRANCH   7   9
ENDBRANCH   6   7
BRANCH   6  11
HETATM   11  O2  UNL     1     -23.319   7.386  29.431  1.00  0.00    -0.391 OA
ATOM     12  H2  UNL     1     -22.597   6.936  29.855  1.00  0.00     0.210 HD
ENDBRANCH   6  11
ENDBRANCH   5   6
BRANCH   5  13
HETATM   13  N1  UNL     1     -25.164   7.598  27.028  1.00  0.00    -0.070 N 
ATOM     14  H13 UNL     1     -25.798   7.562  27.827  1.00  0.00     0.274 HD
ATOM     15  H12 UNL     1     -25.040   8.611  27.004  1.00  0.00     0.274 HD
ATOM     16  H11 UNL     1     -25.579   7.227  26.173  1.00  0.00     0.274 HD
ENDBRANCH   5  13
ENDBRANCH   4   5
BRANCH   4  17
HETATM   17  O3  UNL     1     -23.701   4.625  26.347  1.00  0.00    -0.391 OA
ATOM     18  H3  UNL     1     -22.961   4.083  26.099  1.00  0.00     0.210 HD
ENDBRANCH   4  17
ENDBRANCH   1   4
BRANCH   1  19
HETATM   19  N2  UNL     1     -21.293   6.888  26.071  1.00  0.00    -0.404 N 
ATOM     20  H2  UNL     1     -20.799   6.301  26.743  1.00  0.00     0.154 HD
BRANCH  19  21
HETATM   21  C9  UNL     1     -20.878   8.235  25.955  1.00  0.00     0.108 C 
HETATM   22  C10 UNL     1     -19.595   8.376  25.254  1.00  0.00     0.052 C 
HETATM   23  C11 UNL     1     -18.878   9.689  25.413  1.00  0.00     0.059 C 
HETATM   24  C12 UNL     1     -18.571  10.308  24.045  1.00  0.00     0.032 C 
HETATM   25  C13 UNL     1     -17.519   9.500  26.058  1.00  0.00     0.032 C 
HETATM   26  S1  UNL     1     -19.785  10.916  26.298  1.00  0.00     0.154 S 
HETATM   27  O4  UNL     1     -20.554  11.792  25.339  1.00  0.00    -0.227 OA
HETATM   28  O5  UNL     1     -18.767  11.830  26.966  1.00  0.00    -0.227 OA
HETATM   29  C14 UNL     1     -20.917  10.260  27.458  1.00  0.00     0.174 C 
HETATM   30  C15 UNL     1     -20.902   8.769  27.376  1.00  0.00     0.154 C 
BRANCH  30  31
HETATM   31  O6  UNL     1     -19.965   8.160  28.206  1.00  0.00    -0.393 OA
ATOM     32  H6  UNL     1     -19.179   8.679  28.326  1.00  0.00     0.210 HD
ENDBRANCH  30  31
ENDBRANCH  19  21
ENDBRANCH   1  19
TORSDOF 11
ENDMDL
MODEL 2
REMARK VINA RESULT: -7.276420599      2.838      4.052
REMARK  11 active torsions:
REMARK  status: ('A' for Active; 'I' for Inactive)
REMARK    1  A    between atoms: C2_2  and  O1_3 
REMARK    2  A    between atoms: C2_2  and  C3_5 
REMARK    3  A    between atoms: C3_5  and  O2_6 
REMARK    4  A    between atoms: C3_5  and  C4_8 
REMARK    5  A    between atoms: C4_8  and  N1_9 
REMARK    6  A    between atoms: C4_8  and  C5_13 
REMARK    7  A    between atoms: C5_13  and  O3_14 
REMARK    8  A    between atoms: C5_13  and  C6_16 
REMARK    9  A    between atoms: C6_16  and  N2_19 
REMARK   10  A    between atoms: N2_19  and  C9_21 
REMARK   11  A    between atoms: C15_30  and  O6_31 
ROOT
HETATM    1  C6  UNL     1     -22.163   7.909  27.229  1.00  0.00     0.046 C 
HETATM    2  C7  UNL     1     -20.746   8.156  27.731  1.00  0.00     0.040 C 
HETATM    3  C8  UNL     1     -22.892   9.226  27.596  1.00  0.00     0.040 C 
ENDROOT
BRANCH   1   4
HETATM    4  C5  UNL     1     -22.701   6.763  28.060  1.00  0.00     0.178 C 
BRANCH   4   5
HETATM    5  C4  UNL     1     -24.150   6.725  28.301  1.00  0.00     0.245 C 
BRANCH   5   6
HETATM    6  C3  UNL     1     -24.692   6.221  29.576  1.00  0.00     0.179 C 
BRANCH   6   7
HETATM    7  C2  UNL     1     -24.930   4.758  29.714  1.00  0.00     0.145 C 
HETATM    8  C1  UNL     1     -24.662   4.219  31.118  1.00  0.00     0.042 C 
BRANCH   7   9
HETATM    9  O1  UNL     1     -26.125   4.270  29.278  1.00  0.00    -0.393 OA
ATOM     10  H1  UNL     1     -26.102   4.207  28.330  1.00  0.00     0.210 HD
ENDBRANCH   7   9
ENDBRANCH   6   7
BRANCH   6  11
HETATM   11  O2  UNL     1     -26.027   6.782  29.644  1.00  0.00    -0.391 OA
ATOM     12  H2  UNL     1     -25.998   7.489  29.010  1.00  0.00     0.210 HD
ENDBRANCH   6  11
ENDBRANCH   5   6
BRANCH   5  13
HETATM   13  N1  UNL     1     -24.865   6.025  27.211  1.00  0.00    -0.070 N 
ATOM     14  H13 UNL     1     -25.289   5.147  27.512  1.00  0.00     0.274 HD
ATOM     15  H12 UNL     1     -25.724   6.498  26.930  1.00  0.00     0.274 HD
ATOM     16  H11 UNL     1     -24.205   5.906  26.443  1.00  0.00     0.274 HD
ENDBRANCH   5  13
ENDBRANCH   4   5
BRANCH   4  17
HETATM   17  O3  UNL     1     -21.886   6.503  29.148  1.00  0.00    -0.391 OA
ATOM     18  H3  UNL     1     -20.972   6.321  28.960  1.00  0.00     0.210 HD
ENDBRANCH   4  17
ENDBRANCH   1   4
BRANCH   1  19
HETATM   19  N2  UNL     1     -22.341   7.783  25.859  1.00  0.00    -0.404 N 
ATOM     20  H2  UNL     1     -23.269   7.983  25.486  1.00  0.00     0.154 HD
BRANCH  19  21
HETATM   21  C9  UNL     1     -21.338   7.398  24.938  1.00  0.00     0.108 C 
HETATM   22  C10 UNL     1     -21.135   8.388  23.873  1.00  0.00     0.052 C 
HETATM   23  C11 UNL     1     -20.396   7.922  22.648  1.00  0.00     0.059 C 
HETATM   24  C12 UNL     1     -19.191   8.827  22.367  1.00  0.00     0.032 C 
HETATM   25  C13 UNL     1     -21.257   8.038  21.407  1.00  0.00     0.032 C 
HETATM   26  S1  UNL     1     -19.746   6.286  22.764  1.00  0.00     0.154 S 
HETATM   27  O4  UNL     1     -18.317   6.323  23.249  1.00  0.00    -0.227 OA
HETATM   28  O5  UNL     1     -19.687   5.727  21.349  1.00  0.00    -0.227 OA
HETATM   29  C14 UNL     1     -20.652   5.238  23.831  1.00  0.00     0.174 C 
HETATM   30  C15 UNL     1     -21.756   6.016  24.468  1.00  0.00     0.154 C 
BRANCH  30  31
HETATM   31  O6  UNL     1     -22.945   6.020  23.746  1.00  0.00    -0.393 OA
ATOM     32  H6  UNL     1     -23.449   5.222  23.851  1.00  0.00     0.210 HD
ENDBRANCH  30  31
ENDBRANCH  19  21
ENDBRANCH   1  19
TORSDOF 11
ENDMDL
MODEL 3
REMARK VINA RESULT: -7.269461468      2.877      4.276
REMARK  11 active torsions:
REMARK  status: ('A' for Active; 'I' for Inactive)
REMARK    1  A    between atoms: C2_2  and  O1_3 
REMARK    2  A    between atoms: C2_2  and  C3_5 
REMARK    3  A    between atoms: C3_5  and  O2_6 
REMARK    4  A    between atoms: C3_5  and  C4_8 
REMARK    5  A    between atoms: C4_8  and  N1_9 
REMARK    6  A    between atoms: C4_8  and  C5_13 
REMARK    7  A    between atoms: C5_13  and  O3_14 
REMARK    8  A    between atoms: C5_13  and  C6_16 
REMARK    9  A    between atoms: C6_16  and  N2_19 
REMARK   10  A    between atoms: N2_19  and  C9_21 
REMARK   11  A    between atoms: C15_30  and  O6_31 
ROOT
HETATM    1  C6  UNL     1     -21.403   8.541  27.039  1.00  0.00     0.046 C 
HETATM    2  C7  UNL     1     -19.885   8.436  27.117  1.00  0.00     0.040 C 
HETATM    3  C8  UNL     1     -21.650  10.062  27.204  1.00  0.00     0.040 C 
ENDROOT
BRANCH   1   4
HETATM    4  C5  UNL     1     -21.931   7.790  28.242  1.00  0.00     0.178 C 
BRANCH   4   5
HETATM    5  C4  UNL     1     -22.922   6.733  27.998  1.00  0.00     0.245 C 
BRANCH   5   6
HETATM    6  C3  UNL     1     -24.012   6.480  28.958  1.00  0.00     0.179 C 
BRANCH   6   7
HETATM    7  C2  UNL     1     -24.794   5.220  28.824  1.00  0.00     0.145 C 
HETATM    8  C1  UNL     1     -24.801   4.361  30.087  1.00  0.00     0.042 C 
BRANCH   7   9
HETATM    9  O1  UNL     1     -26.068   5.316  28.352  1.00  0.00    -0.393 OA
ATOM     10  H1  UNL     1     -26.283   6.234  28.236  1.00  0.00     0.210 HD
ENDBRANCH   7   9
ENDBRANCH   6   7
BRANCH   6  11
HETATM   11  O2  UNL     1     -24.991   7.509  28.668  1.00  0.00    -0.391 OA
ATOM     12  H2  UNL     1     -25.553   7.497  29.434  1.00  0.00     0.210 HD
ENDBRANCH   6  11
ENDBRANCH   5   6
BRANCH   5  13
HETATM   13  N1  UNL     1     -22.274   5.434  27.715  1.00  0.00    -0.070 N 
ATOM     14  H13 UNL     1     -22.836   4.829  27.117  1.00  0.00     0.274 HD
ATOM     15  H12 UNL     1     -21.466   5.518  27.097  1.00  0.00     0.274 HD
ATOM     16  H11 UNL     1     -22.046   5.007  28.613  1.00  0.00     0.274 HD
ENDBRANCH   5  13
ENDBRANCH   4   5
BRANCH   4  17
HETATM   17  O3  UNL     1     -22.190   8.648  29.297  1.00  0.00    -0.391 OA
ATOM     18  H3  UNL     1     -21.670   8.522  30.084  1.00  0.00     0.210 HD
ENDBRANCH   4  17
ENDBRANCH   1   4
BRANCH   1  19
HETATM   19  N2  UNL     1     -22.002   8.221  25.830  1.00  0.00    -0.404 N 
ATOM     20  H2  UNL     1     -23.009   8.367  25.752  1.00  0.00     0.154 HD
BRANCH  19  21
HETATM   21  C9  UNL     1     -21.330   7.707  24.696  1.00  0.00     0.108 C 
HETATM   22  C10 UNL     1     -20.956   8.753  23.735  1.00  0.00     0.052 C 
HETATM   23  C11 UNL     1     -20.598   8.299  22.346  1.00  0.00     0.059 C 
HETATM   24  C12 UNL     1     -19.211   8.815  21.949  1.00  0.00     0.032 C 
HETATM   25  C13 UNL     1     -21.535   8.893  21.314  1.00  0.00     0.032 C 
HETATM   26  S1  UNL     1     -20.532   6.548  22.143  1.00  0.00     0.154 S 
HETATM   27  O4  UNL     1     -19.122   6.050  22.348  1.00  0.00    -0.227 OA
HETATM   28  O5  UNL     1     -20.865   6.254  20.687  1.00  0.00    -0.227 OA
HETATM   29  C14 UNL     1     -21.579   5.669  23.232  1.00  0.00     0.174 C 
HETATM   30  C15 UNL     1     -22.253   6.630  24.155  1.00  0.00     0.154 C 
BRANCH  30  31
HETATM   31  O6  UNL     1     -23.459   7.132  23.678  1.00  0.00    -0.393 OA
ATOM     32  H6  UNL     1     -24.165   7.074  24.311  1.00  0.00     0.210 HD
ENDBRANCH  30  31
ENDBRANCH  19  21
ENDBRANCH   1  19
TORSDOF 11
ENDMDL
MODEL 4
REMARK VINA RESULT: -7.227791919      3.197      4.133
REMARK  11 active torsions:
REMARK  status: ('A' for Active; 'I' for Inactive)
REMARK    1  A    between atoms: C2_2  and  O1_3 
REMARK    2  A    between atoms: C2_2  and  C3_5 
REMARK    3  A    between atoms: C3_5  and  O2_6 
REMARK    4  A    between atoms: C3_5  and  C4_8 
REMARK    5  A    between atoms: C4_8  and  N1_9 
REMARK    6  A    between atoms: C4_8  and  C5_13 
REMARK    7  A    between atoms: C5_13  and  O3_14 
REMARK    8  A    between atoms: C5_13  and  C6_16 
REMARK    9  A    between atoms: C6_16  and  N2_19 
REMARK   10  A    between atoms: N2_19  and  C9_21 
REMARK   11  A    between atoms: C15_30  and  O6_31 
ROOT
HETATM    1  C6  UNL     1     -23.122   7.421  26.782  1.00  0.00     0.046 C 
HETATM    2  C7  UNL     1     -22.028   6.696  27.554  1.00  0.00     0.040 C 
HETATM    3  C8  UNL     1     -23.065   8.854  27.370  1.00  0.00     0.040 C 
ENDROOT
BRANCH   1   4
HETATM    4  C5  UNL     1     -24.420   6.746  27.173  1.00  0.00     0.178 C 
BRANCH   4   5
HETATM    5  C4  UNL     1     -24.534   6.245  28.549  1.00  0.00     0.245 C 
BRANCH   5   6
HETATM    6  C3  UNL     1     -24.896   4.841  28.817  1.00  0.00     0.179 C 
BRANCH   6   7
HETATM    7  C2  UNL     1     -24.623   4.287  30.172  1.00  0.00     0.145 C 
HETATM    8  C1  UNL     1     -23.177   4.461  30.631  1.00  0.00     0.042 C 
BRANCH   7   9
HETATM    9  O1  UNL     1     -25.453   4.662  31.185  1.00  0.00    -0.393 OA
ATOM     10  H1  UNL     1     -26.126   4.000  31.290  1.00  0.00     0.210 HD
ENDBRANCH   7   9
ENDBRANCH   6   7
BRANCH   6  11
HETATM   11  O2  UNL     1     -24.014   4.074  27.961  1.00  0.00    -0.391 OA
ATOM     12  H2  UNL     1     -24.084   4.518  27.124  1.00  0.00     0.210 HD
ENDBRANCH   6  11
ENDBRANCH   5   6
BRANCH   5  13
HETATM   13  N1  UNL     1     -25.430   7.094  29.364  1.00  0.00    -0.070 N 
ATOM     14  H13 UNL     1     -24.953   7.539  30.150  1.00  0.00     0.274 HD
ATOM     15  H12 UNL     1     -25.716   7.948  28.884  1.00  0.00     0.274 HD
ATOM     16  H11 UNL     1     -26.218   6.515  29.653  1.00  0.00     0.274 HD
ENDBRANCH   5  13
ENDBRANCH   4   5
BRANCH   4  17
HETATM   17  O3  UNL     1     -24.872   5.906  26.170  1.00  0.00    -0.391 OA
ATOM     18  H3  UNL     1     -24.476   6.017  25.313  1.00  0.00     0.210 HD
ENDBRANCH   4  17
ENDBRANCH   1   4
BRANCH   1  19
HETATM   19  N2  UNL     1     -22.932   7.597  25.419  1.00  0.00    -0.404 N 
ATOM     20  H2  UNL     1     -23.689   8.034  24.893  1.00  0.00     0.154 HD
BRANCH  19  21
HETATM   21  C9  UNL     1     -21.773   7.220  24.701  1.00  0.00     0.108 C 
HETATM   22  C10 UNL     1     -21.534   8.064  23.524  1.00  0.00     0.052 C 
HETATM   23  C11 UNL     1     -20.582   7.528  22.490  1.00  0.00     0.059 C 
HETATM   24  C12 UNL     1     -19.459   8.535  22.216  1.00  0.00     0.032 C 
HETATM   25  C13 UNL     1     -21.267   7.350  21.150  1.00  0.00     0.032 C 
HETATM   26  S1  UNL     1     -19.776   6.026  22.945  1.00  0.00     0.154 S 
HETATM   27  O4  UNL     1     -18.443   6.321  23.588  1.00  0.00    -0.227 OA
HETATM   28  O5  UNL     1     -19.457   5.283  21.655  1.00  0.00    -0.227 OA
HETATM   29  C14 UNL     1     -20.701   5.033  24.046  1.00  0.00     0.174 C 
HETATM   30  C15 UNL     1     -21.964   5.742  24.411  1.00  0.00     0.154 C 
BRANCH  30  31
HETATM   31  O6  UNL     1     -23.032   5.485  23.557  1.00  0.00    -0.393 OA
ATOM     32  H6  UNL     1     -22.895   5.816  22.678  1.00  0.00     0.210 HD
ENDBRANCH  30  31
ENDBRANCH  19  21
ENDBRANCH   1  19
TORSDOF 11
ENDMDL
MODEL 5
REMARK VINA RESULT: -7.221813726      1.907      2.681
REMARK  11 active torsions:
REMARK  status: ('A' for Active; 'I' for Inactive)
REMARK    1  A    between atoms: C2_2  and  O1_3 
REMARK    2  A    between atoms: C2_2  and  C3_5 
REMARK    3  A    between atoms: C3_5  and  O2_6 
REMARK    4  A    between atoms: C3_5  and  C4_8 
REMARK    5  A    between atoms: C4_8  and  N1_9 
REMARK    6  A    between atoms: C4_8  and  C5_13 
REMARK    7  A    between atoms: C5_13  and  O3_14 
REMARK    8  A    between atoms: C5_13  and  C6_16 
REMARK    9  A    between atoms: C6_16  and  N2_19 
REMARK   10  A    between atoms: N2_19  and  C9_21 
REMARK   11  A    between atoms: C15_30  and  O6_31 
ROOT
HETATM    1  C6  UNL     1     -22.889   6.223  26.149  1.00  0.00     0.046 C 
HETATM    2  C7  UNL     1     -23.393   4.924  25.533  1.00  0.00     0.040 C 
HETATM    3  C8  UNL     1     -21.599   5.778  26.881  1.00  0.00     0.040 C 
ENDROOT
BRANCH   1   4
HETATM    4  C5  UNL     1     -23.944   6.640  27.152  1.00  0.00     0.178 C 
BRANCH   4   5
HETATM    5  C4  UNL     1     -23.543   6.716  28.563  1.00  0.00     0.245 C 
BRANCH   5   6
HETATM    6  C3  UNL     1     -24.459   6.283  29.635  1.00  0.00     0.179 C 
BRANCH   6   7
HETATM    7  C2  UNL     1     -24.878   4.854  29.673  1.00  0.00     0.145 C 
HETATM    8  C1  UNL     1     -24.678   4.189  31.033  1.00  0.00     0.042 C 
BRANCH   7   9
HETATM    9  O1  UNL     1     -26.124   4.551  29.215  1.00  0.00    -0.393 OA
ATOM     10  H1  UNL     1     -26.062   4.300  28.302  1.00  0.00     0.210 HD
ENDBRANCH   7   9
ENDBRANCH   6   7
BRANCH   6  11
HETATM   11  O2  UNL     1     -25.696   6.984  29.353  1.00  0.00    -0.391 OA
ATOM     12  H2  UNL     1     -25.730   6.991  28.403  1.00  0.00     0.210 HD
ENDBRANCH   6  11
ENDBRANCH   5   6
BRANCH   5  13
HETATM   13  N1  UNL     1     -23.055   8.066  28.919  1.00  0.00    -0.070 N 
ATOM     14  H13 UNL     1     -22.476   8.485  28.191  1.00  0.00     0.274 HD
ATOM     15  H12 UNL     1     -23.794   8.769  28.922  1.00  0.00     0.274 HD
ATOM     16  H11 UNL     1     -22.574   7.988  29.815  1.00  0.00     0.274 HD
ENDBRANCH   5  13
ENDBRANCH   4   5
BRANCH   4  17
HETATM   17  O3  UNL     1     -25.160   6.034  26.886  1.00  0.00    -0.391 OA
ATOM     18  H3  UNL     1     -25.704   6.446  26.225  1.00  0.00     0.210 HD
ENDBRANCH   4  17
ENDBRANCH   1   4
BRANCH   1  19
HETATM   19  N2  UNL     1     -22.470   7.220  25.280  1.00  0.00    -0.404 N 
ATOM     20  H2  UNL     1     -23.080   7.445  24.494  1.00  0.00     0.154 HD
BRANCH  19  21
HETATM   21  C9  UNL     1     -21.264   7.950  25.397  1.00  0.00     0.108 C 
HETATM   22  C10 UNL     1     -21.477   9.328  25.858  1.00  0.00     0.052 C 
HETATM   23  C11 UNL     1     -20.343  10.294  25.648  1.00  0.00     0.059 C 
HETATM   24  C12 UNL     1     -19.945  10.958  26.971  1.00  0.00     0.032 C 
HETATM   25  C13 UNL     1     -20.758  11.446  24.755  1.00  0.00     0.032 C 
HETATM   26  S1  UNL     1     -18.865   9.563  25.019  1.00  0.00     0.154 S 
HETATM   27  O4  UNL     1     -17.943   9.189  26.153  1.00  0.00    -0.227 OA
HETATM   28  O5  UNL     1     -18.134  10.641  24.231  1.00  0.00    -0.227 OA
HETATM   29  C14 UNL     1     -19.140   8.134  24.050  1.00  0.00     0.174 C 
HETATM   30  C15 UNL     1     -20.599   7.816  24.039  1.00  0.00     0.154 C 
BRANCH  30  31
HETATM   31  O6  UNL     1     -21.312   8.435  23.017  1.00  0.00    -0.393 OA
ATOM     32  H6  UNL     1     -22.077   8.906  23.327  1.00  0.00     0.210 HD
ENDBRANCH  30  31
ENDBRANCH  19  21
ENDBRANCH   1  19
TORSDOF 11
ENDMDL
