MODEL 1
REMARK VINA RESULT: -10.871911653      0.000      0.000
REMARK  5 active torsions:
REMARK  status: ('A' for Active; 'I' for Inactive)
REMARK       I    between atoms: C2_2  and  N1_4 
REMARK    1  A    between atoms: N1_4  and  N2_6 
REMARK       I    between atoms: N2_6  and  C3_8 
REMARK    2  A    between atoms: C3_8  and  C4_10 
REMARK    3  A    between atoms: C7_13  and  N3_14 
REMARK    4  A    between atoms: C8_15  and  N4_16 
REMARK    5  A    between atoms: C9_17  and  C10_18 
ROOT
HETATM    1  N3  UNL     1       7.005  -5.832  -3.521  1.00  0.00    -0.110 N 
HETATM    2  C8  UNL     1       6.799  -6.900  -2.758  1.00  0.00     0.701 A 
HETATM    3  N6  UNL     1       5.806  -6.815  -1.804  1.00  0.00    -0.190 N 
ATOM      4  H6  UNL     1       5.630  -7.622  -1.207  1.00  0.00     0.184 HD
HETATM    5  C22 UNL     1       5.063  -5.714  -1.632  1.00  0.00     0.065 A 
HETATM    6  C23 UNL     1       4.065  -5.646  -0.667  1.00  0.00     0.031 A 
HETATM    7  C24 UNL     1       3.317  -4.508  -0.509  1.00  0.00     0.002 A 
HETATM    8  C25 UNL     1       3.510  -3.380  -1.290  1.00  0.00     0.001 A 
HETATM    9  C26 UNL     1       4.499  -3.454  -2.245  1.00  0.00     0.019 A 
HETATM   10  C27 UNL     1       5.269  -4.600  -2.419  1.00  0.00     0.060 A 
HETATM   11  C28 UNL     1       6.254  -4.687  -3.364  1.00  0.00     0.279 A 
HETATM   12  O3  UNL     1       6.482  -3.689  -4.113  1.00  0.00    -0.266 OA
ENDROOT
BRANCH   2  13
HETATM   13  N4  UNL     1       7.561  -8.083  -2.858  1.00  0.00    -0.129 N 
HETATM   14  C9  UNL     1       7.382  -9.128  -3.664  1.00  0.00     0.140 A 
HETATM   15  N5  UNL     1       8.393 -10.030  -3.398  1.00  0.00    -0.339 N 
HETATM   16  C16 UNL     1       9.196  -9.567  -2.439  1.00  0.00     0.061 A 
ATOM     17  H5  UNL     1       8.511 -10.927  -3.869  1.00  0.00     0.167 HD
HETATM   18  C17 UNL     1      10.321 -10.055  -1.793  1.00  0.00     0.032 A 
HETATM   19  C21 UNL     1       8.667  -8.340  -2.102  1.00  0.00     0.085 A 
HETATM   20  C18 UNL     1      10.911  -9.314  -0.811  1.00  0.00     0.002 A 
HETATM   21  C19 UNL     1      10.399  -8.092  -0.461  1.00  0.00     0.002 A 
HETATM   22  C20 UNL     1       9.284  -7.623  -1.112  1.00  0.00     0.033 A 
BRANCH  14  23
HETATM   23  C10 UNL     1       6.385  -9.446  -4.666  1.00  0.00     0.009 A 
HETATM   24  C11 UNL     1       6.580  -9.410  -6.022  1.00  0.00     0.015 A 
HETATM   25  C12 UNL     1       5.581  -9.750  -6.934  1.00  0.00     0.001 A 
HETATM   26  C13 UNL     1       4.337 -10.139  -6.505  1.00  0.00     0.000 A 
HETATM   27  C14 UNL     1       4.123 -10.181  -5.153  1.00  0.00     0.001 A 
HETATM   28  C15 UNL     1       5.118  -9.844  -4.244  1.00  0.00     0.015 A 
ENDBRANCH  14  23
ENDBRANCH   2  13
BRANCH   1  29
HETATM   29  C7  UNL     1       8.014  -5.797  -4.527  1.00  0.00     0.060 A 
HETATM   30  C6  UNL     1       7.798  -6.156  -5.841  1.00  0.00     0.032 A 
HETATM   31  C5  UNL     1       8.783  -6.146  -6.812  1.00  0.00     0.019 A 
HETATM   32  C4  UNL     1      10.069  -5.765  -6.501  1.00  0.00     0.033 A 
HETATM   33  C30 UNL     1      10.319  -5.399  -5.191  1.00  0.00     0.019 A 
HETATM   34  C29 UNL     1       9.321  -5.417  -4.243  1.00  0.00     0.032 A 
BRANCH  32  35
HETATM   35  C3  UNL     1      11.138  -5.741  -7.495  1.00  0.00     0.270 C 
HETATM   36  N2  UNL     1      11.048  -5.074  -8.730  1.00  0.00    -0.263 N 
ATOM     37  H2  UNL     1      10.192  -4.572  -8.966  1.00  0.00     0.190 HD
HETATM   38  O2  UNL     1      12.219  -6.359  -7.230  1.00  0.00    -0.266 OA
BRANCH  36  39
HETATM   39  N1  UNL     1      12.102  -5.085  -9.638  1.00  0.00    -0.268 N 
HETATM   40  C2  UNL     1      12.139  -6.061 -10.672  1.00  0.00     0.232 C 
HETATM   41  C1  UNL     1      13.254  -6.065 -11.624  1.00  0.00     0.119 C 
HETATM   42  O1  UNL     1      11.222  -6.923 -10.781  1.00  0.00    -0.272 OA
ATOM     43  H1  UNL     1      12.848  -4.394  -9.563  1.00  0.00     0.190 HD
ENDBRANCH  36  39
ENDBRANCH  32  35
ENDBRANCH   1  29
TORSDOF 5
ENDMDL
MODEL 2
REMARK VINA RESULT: -10.841443462      3.274      6.233
REMARK  5 active torsions:
REMARK  status: ('A' for Active; 'I' for Inactive)
REMARK       I    between atoms: C2_2  and  N1_4 
REMARK    1  A    between atoms: N1_4  and  N2_6 
REMARK       I    between atoms: N2_6  and  C3_8 
REMARK    2  A    between atoms: C3_8  and  C4_10 
REMARK    3  A    between atoms: C7_13  and  N3_14 
REMARK    4  A    between atoms: C8_15  and  N4_16 
REMARK    5  A    between atoms: C9_17  and  C10_18 
ROOT
HETATM    1  N3  UNL     1       8.900  -6.400  -3.969  1.00  0.00    -0.110 N 
HETATM    2  C8  UNL     1      10.111  -6.779  -3.571  1.00  0.00     0.701 A 
HETATM    3  N6  UNL     1      10.959  -5.796  -3.104  1.00  0.00    -0.190 N 
ATOM      4  H6  UNL     1      11.893  -6.063  -2.794  1.00  0.00     0.184 HD
HETATM    5  C22 UNL     1      10.605  -4.506  -3.042  1.00  0.00     0.065 A 
HETATM    6  C23 UNL     1      11.473  -3.529  -2.567  1.00  0.00     0.031 A 
HETATM    7  C24 UNL     1      11.089  -2.215  -2.512  1.00  0.00     0.002 A 
HETATM    8  C25 UNL     1       9.834  -1.792  -2.920  1.00  0.00     0.001 A 
HETATM    9  C26 UNL     1       8.978  -2.764  -3.388  1.00  0.00     0.019 A 
HETATM   10  C27 UNL     1       9.352  -4.103  -3.452  1.00  0.00     0.060 A 
HETATM   11  C28 UNL     1       8.512  -5.078  -3.915  1.00  0.00     0.279 A 
HETATM   12  O3  UNL     1       7.347  -4.759  -4.305  1.00  0.00    -0.266 OA
ENDROOT
BRANCH   2  13
HETATM   13  N4  UNL     1      10.566  -8.112  -3.636  1.00  0.00    -0.129 N 
HETATM   14  C9  UNL     1      11.168  -8.742  -4.642  1.00  0.00     0.140 A 
HETATM   15  N5  UNL     1      11.431 -10.031  -4.221  1.00  0.00    -0.339 N 
HETATM   16  C16 UNL     1      11.000 -10.214  -2.972  1.00  0.00     0.061 A 
ATOM     17  H5  UNL     1      11.891 -10.745  -4.786  1.00  0.00     0.167 HD
HETATM   18  C17 UNL     1      10.993 -11.286  -2.094  1.00  0.00     0.032 A 
HETATM   19  C21 UNL     1      10.455  -9.002  -2.608  1.00  0.00     0.085 A 
HETATM   20  C18 UNL     1      10.440 -11.141  -0.856  1.00  0.00     0.002 A 
HETATM   21  C19 UNL     1       9.892  -9.945  -0.476  1.00  0.00     0.002 A 
HETATM   22  C20 UNL     1       9.908  -8.891  -1.358  1.00  0.00     0.033 A 
BRANCH  14  23
HETATM   23  C10 UNL     1      11.541  -8.337  -5.983  1.00  0.00     0.009 A 
HETATM   24  C11 UNL     1      12.369  -7.291  -6.297  1.00  0.00     0.015 A 
HETATM   25  C12 UNL     1      12.705  -6.967  -7.611  1.00  0.00     0.001 A 
HETATM   26  C13 UNL     1      12.212  -7.696  -8.664  1.00  0.00     0.000 A 
HETATM   27  C14 UNL     1      11.384  -8.745  -8.371  1.00  0.00     0.001 A 
HETATM   28  C15 UNL     1      11.049  -9.069  -7.061  1.00  0.00     0.015 A 
ENDBRANCH  14  23
ENDBRANCH   2  13
BRANCH   1  29
HETATM   29  C7  UNL     1       7.945  -7.322  -4.486  1.00  0.00     0.060 A 
HETATM   30  C6  UNL     1       7.057  -8.025  -3.700  1.00  0.00     0.032 A 
HETATM   31  C5  UNL     1       6.146  -8.940  -4.199  1.00  0.00     0.019 A 
HETATM   32  C4  UNL     1       6.082  -9.199  -5.549  1.00  0.00     0.033 A 
HETATM   33  C30 UNL     1       6.961  -8.510  -6.366  1.00  0.00     0.019 A 
HETATM   34  C29 UNL     1       7.857  -7.605  -5.845  1.00  0.00     0.032 A 
BRANCH  32  35
HETATM   35  C3  UNL     1       5.137 -10.155  -6.117  1.00  0.00     0.270 C 
HETATM   36  N2  UNL     1       3.803 -10.292  -5.691  1.00  0.00    -0.263 N 
ATOM     37  H2  UNL     1       3.457  -9.695  -4.939  1.00  0.00     0.190 HD
HETATM   38  O2  UNL     1       5.541 -10.915  -7.057  1.00  0.00    -0.266 OA
BRANCH  36  39
HETATM   39  N1  UNL     1       2.948 -11.222  -6.271  1.00  0.00    -0.268 N 
HETATM   40  C2  UNL     1       2.279 -10.911  -7.486  1.00  0.00     0.232 C 
HETATM   41  C1  UNL     1       1.379 -11.898  -8.091  1.00  0.00     0.119 C 
HETATM   42  O1  UNL     1       2.451  -9.795  -8.053  1.00  0.00    -0.272 OA
ATOM     43  H1  UNL     1       2.801 -12.127  -5.825  1.00  0.00     0.190 HD
ENDBRANCH  36  39
ENDBRANCH  32  35
ENDBRANCH   1  29
TORSDOF 5
ENDMDL
MODEL 3
REMARK VINA RESULT: -10.432849976      3.395      6.997
REMARK  5 active torsions:
REMARK  status: ('A' for Active; 'I' for Inactive)
REMARK       I    between atoms: C2_2  and  N1_4 
REMARK    1  A    between atoms: N1_4  and  N2_6 
REMARK       I    between atoms: N2_6  and  C3_8 
REMARK    2  A    between atoms: C3_8  and  C4_10 
REMARK    3  A    between atoms: C7_13  and  N3_14 
REMARK    4  A    between atoms: C8_15  and  N4_16 
REMARK    5  A    between atoms: C9_17  and  C10_18 
ROOT
HETATM    1  N3  UNL     1       9.349  -6.401  -4.728  1.00  0.00    -0.110 N 
HETATM    2  C8  UNL     1      10.590  -6.525  -5.190  1.00  0.00     0.701 A 
HETATM    3  N6  UNL     1      11.505  -5.566  -4.809  1.00  0.00    -0.190 N 
ATOM      4  H6  UNL     1      12.463  -5.640  -5.151  1.00  0.00     0.184 HD
HETATM    5  C22 UNL     1      11.187  -4.542  -4.007  1.00  0.00     0.065 A 
HETATM    6  C23 UNL     1      12.123  -3.585  -3.632  1.00  0.00     0.031 A 
HETATM    7  C24 UNL     1      11.774  -2.546  -2.809  1.00  0.00     0.002 A 
HETATM    8  C25 UNL     1      10.490  -2.392  -2.313  1.00  0.00     0.001 A 
HETATM    9  C26 UNL     1       9.567  -3.344  -2.688  1.00  0.00     0.019 A 
HETATM   10  C27 UNL     1       9.903  -4.405  -3.522  1.00  0.00     0.060 A 
HETATM   11  C28 UNL     1       8.997  -5.356  -3.901  1.00  0.00     0.279 A 
HETATM   12  O3  UNL     1       7.802  -5.275  -3.482  1.00  0.00    -0.266 OA
ENDROOT
BRANCH   2  13
HETATM   13  N4  UNL     1      10.992  -7.557  -6.063  1.00  0.00    -0.129 N 
HETATM   14  C9  UNL     1      11.226  -8.839  -5.791  1.00  0.00     0.140 A 
HETATM   15  N5  UNL     1      11.582  -9.453  -6.977  1.00  0.00    -0.339 N 
HETATM   16  C16 UNL     1      11.578  -8.574  -7.980  1.00  0.00     0.061 A 
ATOM     17  H5  UNL     1      11.816 -10.441  -7.072  1.00  0.00     0.167 HD
HETATM   18  C17 UNL     1      11.864  -8.644  -9.334  1.00  0.00     0.032 A 
HETATM   19  C21 UNL     1      11.206  -7.381  -7.399  1.00  0.00     0.085 A 
HETATM   20  C18 UNL     1      11.778  -7.519 -10.101  1.00  0.00     0.002 A 
HETATM   21  C19 UNL     1      11.412  -6.323  -9.542  1.00  0.00     0.002 A 
HETATM   22  C20 UNL     1      11.131  -6.272  -8.198  1.00  0.00     0.033 A 
BRANCH  14  23
HETATM   23  C10 UNL     1      11.184  -9.616  -4.568  1.00  0.00     0.009 A 
HETATM   24  C11 UNL     1      11.729  -9.240  -3.368  1.00  0.00     0.015 A 
HETATM   25  C12 UNL     1      11.635 -10.027  -2.221  1.00  0.00     0.001 A 
HETATM   26  C13 UNL     1      10.982 -11.234  -2.246  1.00  0.00     0.000 A 
HETATM   27  C14 UNL     1      10.431 -11.627  -3.436  1.00  0.00     0.001 A 
HETATM   28  C15 UNL     1      10.524 -10.842  -4.579  1.00  0.00     0.015 A 
ENDBRANCH  14  23
ENDBRANCH   2  13
BRANCH   1  29
HETATM   29  C7  UNL     1       8.315  -7.320  -5.068  1.00  0.00     0.060 A 
HETATM   30  C6  UNL     1       7.877  -8.325  -4.229  1.00  0.00     0.032 A 
HETATM   31  C5  UNL     1       6.890  -9.233  -4.568  1.00  0.00     0.019 A 
HETATM   32  C4  UNL     1       6.279  -9.175  -5.800  1.00  0.00     0.033 A 
HETATM   33  C30 UNL     1       6.695  -8.179  -6.665  1.00  0.00     0.019 A 
HETATM   34  C29 UNL     1       7.679  -7.287  -6.304  1.00  0.00     0.032 A 
BRANCH  32  35
HETATM   35  C3  UNL     1       5.233 -10.113  -6.198  1.00  0.00     0.270 C 
HETATM   36  N2  UNL     1       3.912 -10.069  -5.716  1.00  0.00    -0.263 N 
ATOM     37  H2  UNL     1       3.648  -9.346  -5.047  1.00  0.00     0.190 HD
HETATM   38  O2  UNL     1       5.532 -11.028  -7.032  1.00  0.00    -0.266 OA
BRANCH  36  39
HETATM   39  N1  UNL     1       2.957 -10.992  -6.133  1.00  0.00    -0.268 N 
HETATM   40  C2  UNL     1       2.292 -10.813  -7.376  1.00  0.00     0.232 C 
HETATM   41  C1  UNL     1       1.287 -11.790  -7.807  1.00  0.00     0.119 C 
HETATM   42  O1  UNL     1       2.557  -9.823  -8.116  1.00  0.00    -0.272 OA
ATOM     43  H1  UNL     1       2.735 -11.796  -5.546  1.00  0.00     0.190 HD
ENDBRANCH  36  39
ENDBRANCH  32  35
ENDBRANCH   1  29
TORSDOF 5
ENDMDL
MODEL 4
REMARK VINA RESULT: -10.098427631      3.263      6.390
REMARK  5 active torsions:
REMARK  status: ('A' for Active; 'I' for Inactive)
REMARK       I    between atoms: C2_2  and  N1_4 
REMARK    1  A    between atoms: N1_4  and  N2_6 
REMARK       I    between atoms: N2_6  and  C3_8 
REMARK    2  A    between atoms: C3_8  and  C4_10 
REMARK    3  A    between atoms: C7_13  and  N3_14 
REMARK    4  A    between atoms: C8_15  and  N4_16 
REMARK    5  A    between atoms: C9_17  and  C10_18 
ROOT
HETATM    1  N3  UNL     1       8.948  -5.948  -4.164  1.00  0.00    -0.110 N 
HETATM    2  C8  UNL     1      10.234  -6.204  -3.944  1.00  0.00     0.701 A 
HETATM    3  N6  UNL     1      11.021  -5.157  -3.511  1.00  0.00    -0.190 N 
ATOM      4  H6  UNL     1      12.011  -5.329  -3.336  1.00  0.00     0.184 HD
HETATM    5  C22 UNL     1      10.538  -3.924  -3.311  1.00  0.00     0.065 A 
HETATM    6  C23 UNL     1      11.346  -2.881  -2.873  1.00  0.00     0.031 A 
HETATM    7  C24 UNL     1      10.830  -1.628  -2.674  1.00  0.00     0.002 A 
HETATM    8  C25 UNL     1       9.494  -1.334  -2.895  1.00  0.00     0.001 A 
HETATM    9  C26 UNL     1       8.698  -2.371  -3.328  1.00  0.00     0.019 A 
HETATM   10  C27 UNL     1       9.205  -3.650  -3.536  1.00  0.00     0.060 A 
HETATM   11  C28 UNL     1       8.426  -4.688  -3.965  1.00  0.00     0.279 A 
HETATM   12  O3  UNL     1       7.193  -4.486  -4.187  1.00  0.00    -0.266 OA
ENDROOT
BRANCH   2  13
HETATM   13  N4  UNL     1      10.821  -7.467  -4.162  1.00  0.00    -0.129 N 
HETATM   14  C9  UNL     1      10.733  -8.570  -3.422  1.00  0.00     0.140 A 
HETATM   15  N5  UNL     1      11.472  -9.550  -4.055  1.00  0.00    -0.339 N 
HETATM   16  C16 UNL     1      12.021  -9.076  -5.174  1.00  0.00     0.061 A 
ATOM     17  H5  UNL     1      11.583 -10.505  -3.715  1.00  0.00     0.167 HD
HETATM   18  C17 UNL     1      12.846  -9.606  -6.153  1.00  0.00     0.032 A 
HETATM   19  C21 UNL     1      11.609  -7.762  -5.237  1.00  0.00     0.085 A 
HETATM   20  C18 UNL     1      13.256  -8.821  -7.190  1.00  0.00     0.002 A 
HETATM   21  C19 UNL     1      12.858  -7.512  -7.269  1.00  0.00     0.002 A 
HETATM   22  C20 UNL     1      12.039  -7.002  -6.291  1.00  0.00     0.033 A 
BRANCH  14  23
HETATM   23  C10 UNL     1      10.064  -8.873  -2.173  1.00  0.00     0.009 A 
HETATM   24  C11 UNL     1      10.123  -8.114  -1.034  1.00  0.00     0.015 A 
HETATM   25  C12 UNL     1       9.435  -8.453   0.132  1.00  0.00     0.001 A 
HETATM   26  C13 UNL     1       8.658  -9.582   0.188  1.00  0.00     0.000 A 
HETATM   27  C14 UNL     1       8.586 -10.354  -0.941  1.00  0.00     0.001 A 
HETATM   28  C15 UNL     1       9.270 -10.016  -2.102  1.00  0.00     0.015 A 
ENDBRANCH  14  23
ENDBRANCH   2  13
BRANCH   1  29
HETATM   29  C7  UNL     1       8.042  -6.945  -4.629  1.00  0.00     0.060 A 
HETATM   30  C6  UNL     1       7.212  -7.672  -3.801  1.00  0.00     0.032 A 
HETATM   31  C5  UNL     1       6.350  -8.657  -4.249  1.00  0.00     0.019 A 
HETATM   32  C4  UNL     1       6.279  -8.969  -5.588  1.00  0.00     0.033 A 
HETATM   33  C30 UNL     1       7.099  -8.258  -6.446  1.00  0.00     0.019 A 
HETATM   34  C29 UNL     1       7.948  -7.282  -5.975  1.00  0.00     0.032 A 
BRANCH  32  35
HETATM   35  C3  UNL     1       5.385 -10.001  -6.103  1.00  0.00     0.270 C 
HETATM   36  N2  UNL     1       4.055 -10.174  -5.676  1.00  0.00    -0.263 N 
ATOM     37  H2  UNL     1       3.674  -9.551  -4.964  1.00  0.00     0.190 HD
HETATM   38  O2  UNL     1       5.832 -10.795  -6.993  1.00  0.00    -0.266 OA
BRANCH  36  39
HETATM   39  N1  UNL     1       3.249 -11.177  -6.205  1.00  0.00    -0.268 N 
HETATM   40  C2  UNL     1       2.518 -10.944  -7.402  1.00  0.00     0.232 C 
HETATM   41  C1  UNL     1       1.671 -12.007  -7.952  1.00  0.00     0.119 C 
HETATM   42  O1  UNL     1       2.591  -9.833  -8.000  1.00  0.00    -0.272 OA
ATOM     43  H1  UNL     1       3.182 -12.079  -5.734  1.00  0.00     0.190 HD
ENDBRANCH  36  39
ENDBRANCH  32  35
ENDBRANCH   1  29
TORSDOF 5
ENDMDL
MODEL 5
REMARK VINA RESULT: -9.777516330      2.115      3.994
REMARK  5 active torsions:
REMARK  status: ('A' for Active; 'I' for Inactive)
REMARK       I    between atoms: C2_2  and  N1_4 
REMARK    1  A    between atoms: N1_4  and  N2_6 
REMARK       I    between atoms: N2_6  and  C3_8 
REMARK    2  A    between atoms: C3_8  and  C4_10 
REMARK    3  A    between atoms: C7_13  and  N3_14 
REMARK    4  A    between atoms: C8_15  and  N4_16 
REMARK    5  A    between atoms: C9_17  and  C10_18 
ROOT
HETATM    1  N3  UNL     1       7.300  -5.207  -3.735  1.00  0.00    -0.110 N 
HETATM    2  C8  UNL     1       7.640  -5.795  -2.592  1.00  0.00     0.701 A 
HETATM    3  N6  UNL     1       6.783  -5.641  -1.522  1.00  0.00    -0.190 N 
ATOM      4  H6  UNL     1       7.023  -6.083  -0.635  1.00  0.00     0.184 HD
HETATM    5  C22 UNL     1       5.647  -4.936  -1.602  1.00  0.00     0.065 A 
HETATM    6  C23 UNL     1       4.794  -4.793  -0.514  1.00  0.00     0.031 A 
HETATM    7  C24 UNL     1       3.636  -4.067  -0.619  1.00  0.00     0.002 A 
HETATM    8  C25 UNL     1       3.257  -3.444  -1.798  1.00  0.00     0.001 A 
HETATM    9  C26 UNL     1       4.106  -3.590  -2.873  1.00  0.00     0.019 A 
HETATM   10  C27 UNL     1       5.285  -4.323  -2.784  1.00  0.00     0.060 A 
HETATM   11  C28 UNL     1       6.136  -4.476  -3.843  1.00  0.00     0.279 A 
HETATM   12  O3  UNL     1       5.848  -3.931  -4.952  1.00  0.00    -0.266 OA
ENDROOT
BRANCH   2  13
HETATM   13  N4  UNL     1       8.834  -6.526  -2.422  1.00  0.00    -0.129 N 
HETATM   14  C9  UNL     1      10.093  -6.094  -2.459  1.00  0.00     0.140 A 
HETATM   15  N5  UNL     1      10.908  -7.184  -2.223  1.00  0.00    -0.339 N 
HETATM   16  C16 UNL     1      10.179  -8.286  -2.045  1.00  0.00     0.061 A 
ATOM     17  H5  UNL     1      11.927  -7.151  -2.191  1.00  0.00     0.167 HD
HETATM   18  C17 UNL     1      10.475  -9.618  -1.801  1.00  0.00     0.032 A 
HETATM   19  C21 UNL     1       8.873  -7.867  -2.172  1.00  0.00     0.085 A 
HETATM   20  C18 UNL     1       9.463 -10.525  -1.686  1.00  0.00     0.002 A 
HETATM   21  C19 UNL     1       8.157 -10.128  -1.810  1.00  0.00     0.002 A 
HETATM   22  C20 UNL     1       7.881  -8.803  -2.051  1.00  0.00     0.033 A 
BRANCH  14  23
HETATM   23  C10 UNL     1      10.687  -4.794  -2.697  1.00  0.00     0.009 A 
HETATM   24  C11 UNL     1      10.454  -3.665  -1.956  1.00  0.00     0.015 A 
HETATM   25  C12 UNL     1      11.077  -2.447  -2.227  1.00  0.00     0.001 A 
HETATM   26  C13 UNL     1      11.964  -2.325  -3.267  1.00  0.00     0.000 A 
HETATM   27  C14 UNL     1      12.210  -3.443  -4.019  1.00  0.00     0.001 A 
HETATM   28  C15 UNL     1      11.590  -4.657  -3.749  1.00  0.00     0.015 A 
ENDBRANCH  14  23
ENDBRANCH   2  13
BRANCH   1  29
HETATM   29  C7  UNL     1       8.114  -5.281  -4.902  1.00  0.00     0.060 A 
HETATM   30  C6  UNL     1       8.369  -6.452  -5.585  1.00  0.00     0.032 A 
HETATM   31  C5  UNL     1       9.180  -6.528  -6.704  1.00  0.00     0.019 A 
HETATM   32  C4  UNL     1       9.792  -5.401  -7.202  1.00  0.00     0.033 A 
HETATM   33  C30 UNL     1       9.559  -4.209  -6.539  1.00  0.00     0.019 A 
HETATM   34  C29 UNL     1       8.747  -4.160  -5.429  1.00  0.00     0.032 A 
BRANCH  32  35
HETATM   35  C3  UNL     1      10.656  -5.437  -8.379  1.00  0.00     0.270 C 
HETATM   36  N2  UNL     1      10.403  -6.226  -9.516  1.00  0.00    -0.263 N 
ATOM     37  H2  UNL     1       9.572  -6.817  -9.539  1.00  0.00     0.190 HD
HETATM   38  O2  UNL     1      11.702  -4.710  -8.380  1.00  0.00    -0.266 OA
BRANCH  36  39
HETATM   39  N1  UNL     1      11.263  -6.219 -10.609  1.00  0.00    -0.268 N 
HETATM   40  C2  UNL     1      12.304  -7.182 -10.701  1.00  0.00     0.232 C 
HETATM   41  C1  UNL     1      13.206  -7.167 -11.857  1.00  0.00     0.119 C 
HETATM   42  O1  UNL     1      12.461  -8.054  -9.800  1.00  0.00    -0.272 OA
ATOM     43  H1  UNL     1      11.147  -5.522 -11.345  1.00  0.00     0.190 HD
ENDBRANCH  36  39
ENDBRANCH  32  35
ENDBRANCH   1  29
TORSDOF 5
ENDMDL
