MODEL 1
REMARK VINA RESULT: -11.183757267      0.000      0.000
REMARK  5 active torsions:
REMARK  status: ('A' for Active; 'I' for Inactive)
REMARK    1  A    between atoms: C6_9  and  C7_10 
REMARK    2  A    between atoms: C9_13  and  N3_14 
REMARK    3  A    between atoms: N3_14  and  S2_16 
REMARK    4  A    between atoms: S2_16  and  C10_19 
REMARK    5  A    between atoms: C13_22  and  N4_23 
ROOT
HETATM    1  S2  UNL     1      10.327 -10.962  -1.855  1.00  0.00     0.264 S 
HETATM    2  O1  UNL     1      11.620 -10.133  -1.902  1.00  0.00    -0.200 OA
HETATM    3  O2  UNL     1      10.462 -11.902  -0.704  1.00  0.00    -0.200 OA
ENDROOT
BRANCH   1   4
HETATM    4  N3  UNL     1      10.040 -11.685  -3.349  1.00  0.00    -0.260 N 
ATOM      5  H3  UNL     1       9.366 -12.450  -3.397  1.00  0.00     0.181 HD
BRANCH   4   6
HETATM    6  C9  UNL     1      10.636 -11.314  -4.449  1.00  0.00     0.158 A 
HETATM    7  S1  UNL     1      11.827 -12.176  -5.323  1.00  0.00    -0.063 SA
HETATM    8  C8  UNL     1      12.075 -11.050  -6.578  1.00  0.00     0.083 A 
HETATM    9  C7  UNL     1      11.204 -10.045  -6.248  1.00  0.00     0.051 A 
HETATM   10  N6  UNL     1      10.486 -10.206  -5.161  1.00  0.00    -0.335 N 
ATOM     11  H6  UNL     1       9.822  -9.489  -4.868  1.00  0.00     0.168 HD
BRANCH   9  12
HETATM   12  C6  UNL     1      11.118  -8.836  -7.128  1.00  0.00    -0.007 A 
HETATM   13  C5  UNL     1      10.120  -7.900  -6.961  1.00  0.00     0.016 A 
HETATM   14  C4  UNL     1      10.020  -6.771  -7.760  1.00  0.00     0.033 A 
HETATM   15  C3  UNL     1      10.965  -6.603  -8.747  1.00  0.00     0.060 A 
HETATM   16  N2  UNL     1      11.158  -5.634  -9.686  1.00  0.00    -0.350 N 
HETATM   17  C25 UNL     1      11.980  -7.507  -8.955  1.00  0.00     0.062 A 
HETATM   18  C2  UNL     1      12.228  -5.914 -10.434  1.00  0.00     0.183 A 
ATOM     19  H2  UNL     1      10.568  -4.809  -9.802  1.00  0.00     0.166 HD
HETATM   20  N1  UNL     1      12.742  -7.085  -9.978  1.00  0.00    -0.346 N 
HETATM   21  C1  UNL     1      13.919  -7.767 -10.507  1.00  0.00     0.157 C 
HETATM   22  C24 UNL     1      12.024  -8.618  -8.121  1.00  0.00     0.045 A 
ENDBRANCH   9  12
ENDBRANCH   4   6
ENDBRANCH   1   4
BRANCH   1  23
HETATM   23  C10 UNL     1       9.063  -9.757  -1.582  1.00  0.00     0.080 A 
HETATM   24  C11 UNL     1       9.231  -8.748  -0.636  1.00  0.00     0.027 A 
HETATM   25  C12 UNL     1       8.262  -7.796  -0.402  1.00  0.00     0.031 A 
HETATM   26  C13 UNL     1       7.085  -7.829  -1.118  1.00  0.00     0.032 A 
HETATM   27  C22 UNL     1       6.905  -8.821  -2.057  1.00  0.00     0.031 A 
HETATM   28  C23 UNL     1       7.894  -9.783  -2.289  1.00  0.00     0.027 A 
BRANCH  26  29
HETATM   29  N4  UNL     1       6.101  -6.843  -0.865  1.00  0.00    -0.351 N 
HETATM   30  C14 UNL     1       6.103  -5.707  -1.483  1.00  0.00     0.114 A 
HETATM   31  C15 UNL     1       7.059  -5.268  -2.488  1.00  0.00     0.273 A 
HETATM   32  C21 UNL     1       5.165  -4.605  -1.331  1.00  0.00     0.023 A 
HETATM   33  O3  UNL     1       8.050  -5.869  -2.956  1.00  0.00    -0.266 OA
HETATM   34  N5  UNL     1       6.666  -3.959  -2.886  1.00  0.00    -0.321 N 
HETATM   35  C16 UNL     1       5.489  -3.552  -2.165  1.00  0.00     0.047 A 
ATOM     36  H5  UNL     1       7.150  -3.391  -3.582  1.00  0.00     0.169 HD
HETATM   37  C17 UNL     1       4.749  -2.392  -2.203  1.00  0.00     0.030 A 
HETATM   38  C18 UNL     1       3.651  -2.253  -1.398  1.00  0.00     0.002 A 
HETATM   39  C19 UNL     1       3.326  -3.323  -0.555  1.00  0.00     0.001 A 
HETATM   40  C20 UNL     1       4.058  -4.486  -0.509  1.00  0.00     0.016 A 
ATOM     41  H4  UNL     1       5.372  -7.033  -0.177  1.00  0.00     0.166 HD
ENDBRANCH  26  29
ENDBRANCH   1  23
TORSDOF 5
ENDMDL
MODEL 2
REMARK VINA RESULT: -11.142973950      3.978      8.459
REMARK  5 active torsions:
REMARK  status: ('A' for Active; 'I' for Inactive)
REMARK    1  A    between atoms: C6_9  and  C7_10 
REMARK    2  A    between atoms: C9_13  and  N3_14 
REMARK    3  A    between atoms: N3_14  and  S2_16 
REMARK    4  A    between atoms: S2_16  and  C10_19 
REMARK    5  A    between atoms: C13_22  and  N4_23 
ROOT
HETATM    1  S2  UNL     1       3.389  -5.806  -1.511  1.00  0.00     0.264 S 
HETATM    2  O1  UNL     1       2.141  -6.628  -1.869  1.00  0.00    -0.200 OA
HETATM    3  O2  UNL     1       3.276  -5.465  -0.063  1.00  0.00    -0.200 OA
ENDROOT
BRANCH   1   4
HETATM    4  N3  UNL     1       3.544  -4.492  -2.554  1.00  0.00    -0.260 N 
ATOM      5  H3  UNL     1       3.011  -4.498  -3.424  1.00  0.00     0.181 HD
BRANCH   4   6
HETATM    6  C9  UNL     1       4.312  -3.467  -2.303  1.00  0.00     0.158 A 
HETATM    7  S1  UNL     1       3.919  -2.079  -1.384  1.00  0.00    -0.063 SA
HETATM    8  C8  UNL     1       5.403  -1.255  -1.536  1.00  0.00     0.083 A 
HETATM    9  C7  UNL     1       6.141  -2.116  -2.306  1.00  0.00     0.051 A 
HETATM   10  N6  UNL     1       5.560  -3.232  -2.681  1.00  0.00    -0.335 N 
ATOM     11  H6  UNL     1       6.063  -3.910  -3.255  1.00  0.00     0.168 HD
BRANCH   9  12
HETATM   12  C6  UNL     1       7.545  -1.747  -2.674  1.00  0.00    -0.007 A 
HETATM   13  C5  UNL     1       7.848  -0.501  -3.178  1.00  0.00     0.016 A 
HETATM   14  C4  UNL     1       9.140  -0.134  -3.523  1.00  0.00     0.033 A 
HETATM   15  C3  UNL     1      10.137  -1.067  -3.345  1.00  0.00     0.060 A 
HETATM   16  N2  UNL     1      11.480  -1.039  -3.575  1.00  0.00    -0.350 N 
HETATM   17  C25 UNL     1       9.888  -2.324  -2.846  1.00  0.00     0.062 A 
HETATM   18  C2  UNL     1      12.037  -2.206  -3.240  1.00  0.00     0.183 A 
ATOM     19  H2  UNL     1      11.990  -0.240  -3.951  1.00  0.00     0.166 HD
HETATM   20  N1  UNL     1      11.041  -3.009  -2.785  1.00  0.00    -0.346 N 
HETATM   21  C1  UNL     1      11.197  -4.381  -2.309  1.00  0.00     0.157 C 
HETATM   22  C24 UNL     1       8.571  -2.629  -2.520  1.00  0.00     0.045 A 
ENDBRANCH   9  12
ENDBRANCH   4   6
ENDBRANCH   1   4
BRANCH   1  23
HETATM   23  C10 UNL     1       4.729  -6.913  -1.829  1.00  0.00     0.080 A 
HETATM   24  C11 UNL     1       4.518  -8.116  -2.500  1.00  0.00     0.027 A 
HETATM   25  C12 UNL     1       5.545  -8.998  -2.760  1.00  0.00     0.031 A 
HETATM   26  C13 UNL     1       6.825  -8.696  -2.351  1.00  0.00     0.032 A 
HETATM   27  C22 UNL     1       7.050  -7.510  -1.686  1.00  0.00     0.031 A 
HETATM   28  C23 UNL     1       6.002  -6.620  -1.426  1.00  0.00     0.027 A 
BRANCH  26  29
HETATM   29  N4  UNL     1       7.868  -9.614  -2.627  1.00  0.00    -0.351 N 
HETATM   30  C14 UNL     1       8.617  -9.495  -3.674  1.00  0.00     0.114 A 
HETATM   31  C15 UNL     1       8.527  -8.460  -4.693  1.00  0.00     0.273 A 
HETATM   32  C21 UNL     1       9.718 -10.352  -4.088  1.00  0.00     0.023 A 
HETATM   33  O3  UNL     1       7.736  -7.496  -4.776  1.00  0.00    -0.266 OA
HETATM   34  N5  UNL     1       9.548  -8.731  -5.647  1.00  0.00    -0.321 N 
HETATM   35  C16 UNL     1      10.286  -9.906  -5.266  1.00  0.00     0.047 A 
ATOM     36  H5  UNL     1       9.731  -8.172  -6.480  1.00  0.00     0.169 HD
HETATM   37  C17 UNL     1      11.347 -10.553  -5.859  1.00  0.00     0.030 A 
HETATM   38  C18 UNL     1      11.875 -11.676  -5.282  1.00  0.00     0.002 A 
HETATM   39  C19 UNL     1      11.297 -12.123  -4.088  1.00  0.00     0.001 A 
HETATM   40  C20 UNL     1      10.237 -11.485  -3.486  1.00  0.00     0.016 A 
ATOM     41  H4  UNL     1       8.033 -10.388  -1.984  1.00  0.00     0.166 HD
ENDBRANCH  26  29
ENDBRANCH   1  23
TORSDOF 5
ENDMDL
MODEL 3
REMARK VINA RESULT: -11.115102103      3.857      9.775
REMARK  5 active torsions:
REMARK  status: ('A' for Active; 'I' for Inactive)
REMARK    1  A    between atoms: C6_9  and  C7_10 
REMARK    2  A    between atoms: C9_13  and  N3_14 
REMARK    3  A    between atoms: N3_14  and  S2_16 
REMARK    4  A    between atoms: S2_16  and  C10_19 
REMARK    5  A    between atoms: C13_22  and  N4_23 
ROOT
HETATM    1  S2  UNL     1       8.114  -1.432  -3.334  1.00  0.00     0.264 S 
HETATM    2  O1  UNL     1       8.776  -2.146  -2.145  1.00  0.00    -0.200 OA
HETATM    3  O2  UNL     1       8.371   0.027  -3.156  1.00  0.00    -0.200 OA
ENDROOT
BRANCH   1   4
HETATM    4  N3  UNL     1       6.492  -1.871  -3.451  1.00  0.00    -0.260 N 
ATOM      5  H3  UNL     1       5.886  -1.329  -4.067  1.00  0.00     0.181 HD
BRANCH   4   6
HETATM    6  C9  UNL     1       5.972  -2.871  -2.792  1.00  0.00     0.158 A 
HETATM    7  S1  UNL     1       4.494  -2.889  -1.933  1.00  0.00    -0.063 SA
HETATM    8  C8  UNL     1       4.548  -4.501  -1.383  1.00  0.00     0.083 A 
HETATM    9  C7  UNL     1       5.733  -4.951  -1.905  1.00  0.00     0.051 A 
HETATM   10  N6  UNL     1       6.436  -4.101  -2.617  1.00  0.00    -0.335 N 
ATOM     11  H6  UNL     1       7.326  -4.382  -3.029  1.00  0.00     0.168 HD
BRANCH   9  12
HETATM   12  C6  UNL     1       6.158  -6.362  -1.641  1.00  0.00    -0.007 A 
HETATM   13  C5  UNL     1       5.237  -7.384  -1.565  1.00  0.00     0.016 A 
HETATM   14  C4  UNL     1       5.605  -8.700  -1.325  1.00  0.00     0.033 A 
HETATM   15  C3  UNL     1       6.946  -8.967  -1.162  1.00  0.00     0.060 A 
HETATM   16  N2  UNL     1       7.637 -10.116  -0.918  1.00  0.00    -0.350 N 
HETATM   17  C25 UNL     1       7.905  -7.983  -1.228  1.00  0.00     0.062 A 
HETATM   18  C2  UNL     1       8.946  -9.868  -0.838  1.00  0.00     0.183 A 
ATOM     19  H2  UNL     1       7.213 -11.038  -0.811  1.00  0.00     0.166 HD
HETATM   20  N1  UNL     1       9.114  -8.534  -1.031  1.00  0.00    -0.346 N 
HETATM   21  C1  UNL     1      10.389  -7.822  -1.027  1.00  0.00     0.157 C 
HETATM   22  C24 UNL     1       7.470  -6.685  -1.471  1.00  0.00     0.045 A 
ENDBRANCH   9  12
ENDBRANCH   4   6
ENDBRANCH   1   4
BRANCH   1  23
HETATM   23  C10 UNL     1       8.957  -2.087  -4.742  1.00  0.00     0.080 A 
HETATM   24  C11 UNL     1       8.346  -3.033  -5.564  1.00  0.00     0.027 A 
HETATM   25  C12 UNL     1       8.981  -3.561  -6.668  1.00  0.00     0.031 A 
HETATM   26  C13 UNL     1      10.259  -3.152  -6.982  1.00  0.00     0.032 A 
HETATM   27  C22 UNL     1      10.875  -2.217  -6.179  1.00  0.00     0.031 A 
HETATM   28  C23 UNL     1      10.224  -1.686  -5.060  1.00  0.00     0.027 A 
BRANCH  26  29
HETATM   29  N4  UNL     1      10.896  -3.705  -8.120  1.00  0.00    -0.351 N 
HETATM   30  C14 UNL     1      11.608  -4.781  -8.043  1.00  0.00     0.114 A 
HETATM   31  C15 UNL     1      11.866  -5.568  -6.847  1.00  0.00     0.273 A 
HETATM   32  C21 UNL     1      12.316  -5.462  -9.117  1.00  0.00     0.023 A 
HETATM   33  O3  UNL     1      11.472  -5.383  -5.676  1.00  0.00    -0.266 OA
HETATM   34  N5  UNL     1      12.694  -6.656  -7.241  1.00  0.00    -0.321 N 
HETATM   35  C16 UNL     1      12.971  -6.587  -8.652  1.00  0.00     0.047 A 
ATOM     36  H5  UNL     1      13.042  -7.382  -6.613  1.00  0.00     0.169 HD
HETATM   37  C17 UNL     1      13.711  -7.400  -9.480  1.00  0.00     0.030 A 
HETATM   38  C18 UNL     1      13.818  -7.105 -10.812  1.00  0.00     0.002 A 
HETATM   39  C19 UNL     1      13.153  -5.965 -11.279  1.00  0.00     0.001 A 
HETATM   40  C20 UNL     1      12.411  -5.146 -10.461  1.00  0.00     0.016 A 
ATOM     41  H4  UNL     1      10.790  -3.242  -9.023  1.00  0.00     0.166 HD
ENDBRANCH  26  29
ENDBRANCH   1  23
TORSDOF 5
ENDMDL
MODEL 4
REMARK VINA RESULT: -11.091951700      3.355      7.463
REMARK  5 active torsions:
REMARK  status: ('A' for Active; 'I' for Inactive)
REMARK    1  A    between atoms: C6_9  and  C7_10 
REMARK    2  A    between atoms: C9_13  and  N3_14 
REMARK    3  A    between atoms: N3_14  and  S2_16 
REMARK    4  A    between atoms: S2_16  and  C10_19 
REMARK    5  A    between atoms: C13_22  and  N4_23 
ROOT
HETATM    1  S2  UNL     1       9.557 -10.082  -1.323  1.00  0.00     0.264 S 
HETATM    2  O1  UNL     1       9.709 -11.173  -2.394  1.00  0.00    -0.200 OA
HETATM    3  O2  UNL     1      10.512 -10.421  -0.228  1.00  0.00    -0.200 OA
ENDROOT
BRANCH   1   4
HETATM    4  N3  UNL     1       7.944  -9.938  -0.858  1.00  0.00    -0.260 N 
ATOM      5  H3  UNL     1       7.603 -10.530  -0.100  1.00  0.00     0.181 HD
BRANCH   4   6
HETATM    6  C9  UNL     1       7.109  -9.107  -1.419  1.00  0.00     0.158 A 
HETATM    7  S1  UNL     1       6.330  -9.284  -2.931  1.00  0.00    -0.063 SA
HETATM    8  C8  UNL     1       5.449  -7.825  -2.926  1.00  0.00     0.083 A 
HETATM    9  C7  UNL     1       5.811  -7.266  -1.729  1.00  0.00     0.051 A 
HETATM   10  N6  UNL     1       6.657  -7.939  -0.984  1.00  0.00    -0.335 N 
ATOM     11  H6  UNL     1       6.961  -7.570  -0.083  1.00  0.00     0.168 HD
BRANCH   9  12
HETATM   12  C6  UNL     1       5.236  -5.939  -1.338  1.00  0.00    -0.007 A 
HETATM   13  C5  UNL     1       3.989  -5.843  -0.760  1.00  0.00     0.016 A 
HETATM   14  C4  UNL     1       3.436  -4.627  -0.387  1.00  0.00     0.033 A 
HETATM   15  C3  UNL     1       4.180  -3.491  -0.613  1.00  0.00     0.060 A 
HETATM   16  N2  UNL     1       3.946  -2.170  -0.375  1.00  0.00    -0.350 N 
HETATM   17  C25 UNL     1       5.430  -3.533  -1.187  1.00  0.00     0.062 A 
HETATM   18  C2  UNL     1       4.985  -1.431  -0.774  1.00  0.00     0.183 A 
ATOM     19  H2  UNL     1       3.096  -1.797   0.049  1.00  0.00     0.166 HD
HETATM   20  N1  UNL     1       5.912  -2.283  -1.281  1.00  0.00    -0.346 N 
HETATM   21  C1  UNL     1       7.209  -1.906  -1.835  1.00  0.00     0.157 C 
HETATM   22  C24 UNL     1       5.927  -4.783  -1.538  1.00  0.00     0.045 A 
ENDBRANCH   9  12
ENDBRANCH   4   6
ENDBRANCH   1   4
BRANCH   1  23
HETATM   23  C10 UNL     1      10.014  -8.597  -2.166  1.00  0.00     0.080 A 
HETATM   24  C11 UNL     1      10.113  -7.388  -1.479  1.00  0.00     0.027 A 
HETATM   25  C12 UNL     1      10.466  -6.215  -2.111  1.00  0.00     0.031 A 
HETATM   26  C13 UNL     1      10.732  -6.221  -3.463  1.00  0.00     0.032 A 
HETATM   27  C22 UNL     1      10.639  -7.409  -4.155  1.00  0.00     0.031 A 
HETATM   28  C23 UNL     1      10.280  -8.596  -3.506  1.00  0.00     0.027 A 
BRANCH  26  29
HETATM   29  N4  UNL     1      11.095  -5.007  -4.096  1.00  0.00    -0.351 N 
HETATM   30  C14 UNL     1      10.214  -4.248  -4.662  1.00  0.00     0.114 A 
HETATM   31  C15 UNL     1       8.782  -4.491  -4.744  1.00  0.00     0.273 A 
HETATM   32  C21 UNL     1      10.433  -2.982  -5.346  1.00  0.00     0.023 A 
HETATM   33  O3  UNL     1       8.115  -5.451  -4.303  1.00  0.00    -0.266 OA
HETATM   34  N5  UNL     1       8.218  -3.393  -5.453  1.00  0.00    -0.321 N 
HETATM   35  C16 UNL     1       9.247  -2.458  -5.824  1.00  0.00     0.047 A 
ATOM     36  H5  UNL     1       7.226  -3.285  -5.667  1.00  0.00     0.169 HD
HETATM   37  C17 UNL     1       9.195  -1.265  -6.508  1.00  0.00     0.030 A 
HETATM   38  C18 UNL     1      10.343  -0.554  -6.735  1.00  0.00     0.002 A 
HETATM   39  C19 UNL     1      11.542  -1.088  -6.248  1.00  0.00     0.001 A 
HETATM   40  C20 UNL     1      11.606  -2.279  -5.564  1.00  0.00     0.016 A 
ATOM     41  H4  UNL     1      12.075  -4.724  -4.106  1.00  0.00     0.166 HD
ENDBRANCH  26  29
ENDBRANCH   1  23
TORSDOF 5
ENDMDL
MODEL 5
REMARK VINA RESULT: -11.065426260      1.020      1.509
REMARK  5 active torsions:
REMARK  status: ('A' for Active; 'I' for Inactive)
REMARK    1  A    between atoms: C6_9  and  C7_10 
REMARK    2  A    between atoms: C9_13  and  N3_14 
REMARK    3  A    between atoms: N3_14  and  S2_16 
REMARK    4  A    between atoms: S2_16  and  C10_19 
REMARK    5  A    between atoms: C13_22  and  N4_23 
ROOT
HETATM    1  S2  UNL     1      10.338 -11.013  -1.848  1.00  0.00     0.264 S 
HETATM    2  O1  UNL     1      11.645 -10.204  -1.851  1.00  0.00    -0.200 OA
HETATM    3  O2  UNL     1      10.437 -11.981  -0.716  1.00  0.00    -0.200 OA
ENDROOT
BRANCH   1   4
HETATM    4  N3  UNL     1      10.069 -11.697  -3.363  1.00  0.00    -0.260 N 
ATOM      5  H3  UNL     1       9.362 -12.429  -3.447  1.00  0.00     0.181 HD
BRANCH   4   6
HETATM    6  C9  UNL     1      10.719 -11.337  -4.436  1.00  0.00     0.158 A 
HETATM    7  S1  UNL     1      11.843 -12.269  -5.327  1.00  0.00    -0.063 SA
HETATM    8  C8  UNL     1      12.219 -11.118  -6.528  1.00  0.00     0.083 A 
HETATM    9  C7  UNL     1      11.438 -10.052  -6.168  1.00  0.00     0.051 A 
HETATM   10  N6  UNL     1      10.686 -10.191  -5.101  1.00  0.00    -0.335 N 
ATOM     11  H6  UNL     1      10.085  -9.428  -4.788  1.00  0.00     0.168 HD
BRANCH   9  12
HETATM   12  C6  UNL     1      11.481  -8.804  -6.995  1.00  0.00    -0.007 A 
HETATM   13  C5  UNL     1      11.349  -8.849  -8.366  1.00  0.00     0.016 A 
HETATM   14  C4  UNL     1      11.382  -7.708  -9.154  1.00  0.00     0.033 A 
HETATM   15  C3  UNL     1      11.554  -6.499  -8.518  1.00  0.00     0.060 A 
HETATM   16  N2  UNL     1      11.631  -5.217  -8.974  1.00  0.00    -0.350 N 
HETATM   17  C25 UNL     1      11.691  -6.399  -7.153  1.00  0.00     0.062 A 
HETATM   18  C2  UNL     1      11.805  -4.368  -7.958  1.00  0.00     0.183 A 
ATOM     19  H2  UNL     1      11.566  -4.944  -9.955  1.00  0.00     0.166 HD
HETATM   20  N1  UNL     1      11.842  -5.107  -6.820  1.00  0.00    -0.346 N 
HETATM   21  C1  UNL     1      12.017  -4.587  -5.467  1.00  0.00     0.157 C 
HETATM   22  C24 UNL     1      11.649  -7.580  -6.421  1.00  0.00     0.045 A 
ENDBRANCH   9  12
ENDBRANCH   4   6
ENDBRANCH   1   4
BRANCH   1  23
HETATM   23  C10 UNL     1       9.088  -9.795  -1.571  1.00  0.00     0.080 A 
HETATM   24  C11 UNL     1       9.283  -8.768  -0.649  1.00  0.00     0.027 A 
HETATM   25  C12 UNL     1       8.325  -7.806  -0.413  1.00  0.00     0.031 A 
HETATM   26  C13 UNL     1       7.132  -7.846  -1.102  1.00  0.00     0.032 A 
HETATM   27  C22 UNL     1       6.925  -8.855  -2.018  1.00  0.00     0.031 A 
HETATM   28  C23 UNL     1       7.903  -9.828  -2.251  1.00  0.00     0.027 A 
BRANCH  26  29
HETATM   29  N4  UNL     1       6.159  -6.848  -0.848  1.00  0.00    -0.351 N 
HETATM   30  C14 UNL     1       6.147  -5.730  -1.497  1.00  0.00     0.114 A 
HETATM   31  C15 UNL     1       7.075  -5.323  -2.542  1.00  0.00     0.273 A 
HETATM   32  C21 UNL     1       5.218  -4.620  -1.347  1.00  0.00     0.023 A 
HETATM   33  O3  UNL     1       8.049  -5.941  -3.021  1.00  0.00    -0.266 OA
HETATM   34  N5  UNL     1       6.675  -4.024  -2.963  1.00  0.00    -0.321 N 
HETATM   35  C16 UNL     1       5.522  -3.591  -2.219  1.00  0.00     0.047 A 
ATOM     36  H5  UNL     1       7.140  -3.477  -3.689  1.00  0.00     0.169 HD
HETATM   37  C17 UNL     1       4.785  -2.430  -2.267  1.00  0.00     0.030 A 
HETATM   38  C18 UNL     1       3.712  -2.264  -1.434  1.00  0.00     0.002 A 
HETATM   39  C19 UNL     1       3.408  -3.309  -0.553  1.00  0.00     0.001 A 
HETATM   40  C20 UNL     1       4.137  -4.473  -0.497  1.00  0.00     0.016 A 
ATOM     41  H4  UNL     1       5.450  -7.016  -0.134  1.00  0.00     0.166 HD
ENDBRANCH  26  29
ENDBRANCH   1  23
TORSDOF 5
ENDMDL
