MODEL 1
REMARK VINA RESULT: -8.266107186      0.000      0.000
REMARK  1 active torsions:
REMARK  status: ('A' for Active; 'I' for Inactive)
REMARK    1  A    between atoms: C4_4  and  N1_5 
ROOT
HETATM    1  C1  UNL     1     -11.096  -8.913   0.683  1.00  0.00     0.010 C 
HETATM    2  C2  UNL     1     -12.377  -8.277   1.244  1.00  0.00    -0.011 C 
HETATM    3  C3  UNL     1     -12.172  -8.078   2.689  1.00  0.00     0.037 C 
HETATM    4  C4  UNL     1     -13.019  -7.009   3.316  1.00  0.00     0.193 C 
HETATM    5  C5  UNL     1     -12.761  -5.728   2.539  1.00  0.00     0.084 C 
HETATM    6  C6  UNL     1     -13.392  -4.532   3.174  1.00  0.00     0.018 C 
HETATM    7  C7  UNL     1     -13.329  -5.953   1.149  1.00  0.00     0.249 C 
HETATM    8  F1  UNL     1     -14.702  -6.050   1.283  1.00  0.00    -0.206 F 
HETATM    9  F2  UNL     1     -13.070  -4.781   0.435  1.00  0.00    -0.206 F 
HETATM   10  C8  UNL     1     -12.702  -7.089   0.439  1.00  0.00     0.084 C 
ENDROOT
BRANCH   4  11
HETATM   11  N1  UNL     1     -12.545  -6.849   4.690  1.00  0.00    -0.074 N 
ATOM     12  H13 UNL     1     -11.578  -6.529   4.748  1.00  0.00     0.274 HD
ATOM     13  H12 UNL     1     -12.971  -6.059   5.174  1.00  0.00     0.274 HD
ATOM     14  H11 UNL     1     -12.702  -7.741   5.160  1.00  0.00     0.274 HD
ENDBRANCH   4  11
TORSDOF 1
ENDMDL
MODEL 2
REMARK VINA RESULT: -6.809488464      1.637      3.064
REMARK  1 active torsions:
REMARK  status: ('A' for Active; 'I' for Inactive)
REMARK    1  A    between atoms: C4_4  and  N1_5 
ROOT
HETATM    1  C1  UNL     1     -12.974  -6.804   4.952  1.00  0.00     0.010 C 
HETATM    2  C2  UNL     1     -12.441  -6.467   3.551  1.00  0.00    -0.011 C 
HETATM    3  C3  UNL     1     -12.259  -7.739   2.832  1.00  0.00     0.037 C 
HETATM    4  C4  UNL     1     -12.287  -7.640   1.334  1.00  0.00     0.193 C 
HETATM    5  C5  UNL     1     -13.602  -6.975   0.959  1.00  0.00     0.084 C 
HETATM    6  C6  UNL     1     -13.853  -6.986  -0.513  1.00  0.00     0.018 C 
HETATM    7  C7  UNL     1     -13.519  -5.549   1.474  1.00  0.00     0.249 C 
HETATM    8  F1  UNL     1     -12.542  -4.908   0.735  1.00  0.00    -0.206 F 
HETATM    9  F2  UNL     1     -14.737  -4.953   1.144  1.00  0.00    -0.206 F 
HETATM   10  C8  UNL     1     -13.331  -5.467   2.939  1.00  0.00     0.084 C 
ENDROOT
BRANCH   4  11
HETATM   11  N1  UNL     1     -12.268  -9.009   0.822  1.00  0.00    -0.074 N 
ATOM     12  H13 UNL     1     -12.632  -9.088  -0.128  1.00  0.00     0.274 HD
ATOM     13  H12 UNL     1     -11.328  -9.354   0.628  1.00  0.00     0.274 HD
ATOM     14  H11 UNL     1     -12.776  -9.582   1.496  1.00  0.00     0.274 HD
ENDBRANCH   4  11
TORSDOF 1
ENDMDL
MODEL 3
REMARK VINA RESULT: -5.763931133      2.491      3.968
REMARK  1 active torsions:
REMARK  status: ('A' for Active; 'I' for Inactive)
REMARK    1  A    between atoms: C4_4  and  N1_5 
ROOT
HETATM    1  C1  UNL     1     -12.795  -3.897   3.098  1.00  0.00     0.010 C 
HETATM    2  C2  UNL     1     -13.478  -5.257   2.889  1.00  0.00    -0.011 C 
HETATM    3  C3  UNL     1     -13.799  -5.373   1.457  1.00  0.00     0.037 C 
HETATM    4  C4  UNL     1     -13.947  -6.776   0.943  1.00  0.00     0.193 C 
HETATM    5  C5  UNL     1     -12.659  -7.509   1.283  1.00  0.00     0.084 C 
HETATM    6  C6  UNL     1     -12.587  -8.865   0.660  1.00  0.00     0.018 C 
HETATM    7  C7  UNL     1     -12.619  -7.617   2.796  1.00  0.00     0.249 C 
HETATM    8  F1  UNL     1     -13.649  -8.460   3.170  1.00  0.00    -0.206 F 
HETATM    9  F2  UNL     1     -11.425  -8.273   3.102  1.00  0.00    -0.206 F 
HETATM   10  C8  UNL     1     -12.626  -6.304   3.477  1.00  0.00     0.084 C 
ENDROOT
BRANCH   4  11
HETATM   11  N1  UNL     1     -14.084  -6.679  -0.510  1.00  0.00    -0.074 N 
ATOM     12  H13 UNL     1     -14.396  -5.760  -0.824  1.00  0.00     0.274 HD
ATOM     13  H12 UNL     1     -13.191  -6.687  -1.000  1.00  0.00     0.274 HD
ATOM     14  H11 UNL     1     -14.707  -7.434  -0.796  1.00  0.00     0.274 HD
ENDBRANCH   4  11
TORSDOF 1
ENDMDL
MODEL 4
REMARK VINA RESULT: -5.715230059      2.300      2.896
REMARK  1 active torsions:
REMARK  status: ('A' for Active; 'I' for Inactive)
REMARK    1  A    between atoms: C4_4  and  N1_5 
ROOT
HETATM    1  C1  UNL     1     -12.736  -9.166   0.435  1.00  0.00     0.010 C 
HETATM    2  C2  UNL     1     -12.229  -7.862   1.068  1.00  0.00    -0.011 C 
HETATM    3  C3  UNL     1     -13.187  -6.800   0.716  1.00  0.00     0.037 C 
HETATM    4  C4  UNL     1     -13.208  -5.620   1.644  1.00  0.00     0.193 C 
HETATM    5  C5  UNL     1     -13.469  -6.160   3.041  1.00  0.00     0.084 C 
HETATM    6  C6  UNL     1     -13.708  -5.078   4.042  1.00  0.00     0.018 C 
HETATM    7  C7  UNL     1     -12.242  -6.971   3.418  1.00  0.00     0.249 C 
HETATM    8  F1  UNL     1     -11.190  -6.081   3.542  1.00  0.00    -0.206 F 
HETATM    9  F2  UNL     1     -12.497  -7.480   4.693  1.00  0.00    -0.206 F 
HETATM   10  C8  UNL     1     -11.982  -8.100   2.499  1.00  0.00     0.084 C 
ENDROOT
BRANCH   4  11
HETATM   11  N1  UNL     1     -14.330  -4.779   1.229  1.00  0.00    -0.074 N 
ATOM     12  H13 UNL     1     -14.473  -3.972   1.836  1.00  0.00     0.274 HD
ATOM     13  H12 UNL     1     -14.149  -4.262   0.369  1.00  0.00     0.274 HD
ATOM     14  H11 UNL     1     -15.146  -5.387   1.169  1.00  0.00     0.274 HD
ENDBRANCH   4  11
TORSDOF 1
ENDMDL
MODEL 5
REMARK VINA RESULT: -5.556382875      2.330      3.605
REMARK  1 active torsions:
REMARK  status: ('A' for Active; 'I' for Inactive)
REMARK    1  A    between atoms: C4_4  and  N1_5 
ROOT
HETATM    1  C1  UNL     1     -12.001  -5.454   4.990  1.00  0.00     0.010 C 
HETATM    2  C2  UNL     1     -12.969  -6.224   4.079  1.00  0.00    -0.011 C 
HETATM    3  C3  UNL     1     -13.491  -5.271   3.085  1.00  0.00     0.037 C 
HETATM    4  C4  UNL     1     -13.988  -5.884   1.808  1.00  0.00     0.193 C 
HETATM    5  C5  UNL     1     -12.845  -6.708   1.237  1.00  0.00     0.084 C 
HETATM    6  C6  UNL     1     -13.133  -7.220  -0.136  1.00  0.00     0.018 C 
HETATM    7  C7  UNL     1     -12.631  -7.861   2.201  1.00  0.00     0.249 C 
HETATM    8  F1  UNL     1     -13.754  -8.663   2.129  1.00  0.00    -0.206 F 
HETATM    9  F2  UNL     1     -11.567  -8.601   1.682  1.00  0.00    -0.206 F 
HETATM   10  C8  UNL     1     -12.281  -7.422   3.569  1.00  0.00     0.084 C 
ENDROOT
BRANCH   4  11
HETATM   11  N1  UNL     1     -14.291  -4.777   0.901  1.00  0.00    -0.074 N 
ATOM     12  H13 UNL     1     -15.244  -4.426   0.999  1.00  0.00     0.274 HD
ATOM     13  H12 UNL     1     -13.810  -3.912   1.146  1.00  0.00     0.274 HD
ATOM     14  H11 UNL     1     -14.078  -5.103  -0.042  1.00  0.00     0.274 HD
ENDBRANCH   4  11
TORSDOF 1
ENDMDL
