MODEL 1
REMARK VINA RESULT: -5.006474619      0.000      0.000
REMARK  8 active torsions:
REMARK  status: ('A' for Active; 'I' for Inactive)
REMARK    1  A    between atoms: C2_2  and  C3_3 
REMARK    2  A    between atoms: C3_3  and  N1_4 
REMARK    3  A    between atoms: N1_4  and  C4_6 
REMARK    4  A    between atoms: C4_6  and  C5_7 
REMARK    5  A    between atoms: C5_7  and  N2_8 
REMARK    6  A    between atoms: N2_8  and  C6_10 
REMARK    7  A    between atoms: C9_14  and  N3_15 
REMARK    8  A    between atoms: N3_15  and  C10_17 
ROOT
HETATM    1  C6  UNL     1      -8.524   2.297  -1.365  1.00  0.00     0.054 C 
HETATM    2  C7  UNL     1      -9.778   2.170  -0.785  1.00  0.00     0.087 C 
HETATM    3  C8  UNL     1     -10.137   1.402   0.291  1.00  0.00     0.200 C 
HETATM    4  O1  UNL     1     -11.187   1.754   0.933  1.00  0.00    -0.286 OA
HETATM    5  C9  UNL     1      -9.478   0.263   0.770  1.00  0.00     0.086 C 
HETATM    6  C11 UNL     1      -8.380  -0.335   0.168  1.00  0.00     0.062 C 
HETATM    7  C12 UNL     1      -7.338   0.307  -0.466  1.00  0.00     0.071 C 
HETATM    8  N4  UNL     1      -6.077  -0.329  -0.419  1.00  0.00    -0.101 NA
HETATM    9  C13 UNL     1      -7.408   1.525  -1.146  1.00  0.00     0.095 C 
HETATM   10  C14 UNL     1      -6.162   1.977  -1.648  1.00  0.00     0.103 C 
HETATM   11  N5  UNL     1      -5.150   2.343  -2.063  1.00  0.00    -0.191 NA
ENDROOT
BRANCH   1  12
HETATM   12  N2  UNL     1      -8.361   3.363  -2.311  1.00  0.00    -0.387 N 
ATOM     13  H2  UNL     1      -8.136   3.150  -3.283  1.00  0.00     0.159 HD
BRANCH  12  14
HETATM   14  C5  UNL     1      -8.514   4.752  -1.886  1.00  0.00     0.139 C 
BRANCH  14  15
HETATM   15  C4  UNL     1      -7.418   5.555  -2.586  1.00  0.00     0.133 C 
BRANCH  15  16
HETATM   16  N1  UNL     1      -6.156   5.392  -1.942  1.00  0.00    -0.417 N 
ATOM     17  H1  UNL     1      -5.411   4.844  -2.371  1.00  0.00     0.153 HD
BRANCH  16  18
HETATM   18  C3  UNL     1      -5.977   6.018  -0.686  1.00  0.00     0.140 C 
BRANCH  18  19
HETATM   19  C2  UNL     1      -5.767   5.074   0.403  1.00  0.00    -0.018 C 
HETATM   20  C1  UNL     1      -6.604   4.840   1.366  1.00  0.00     0.008 C 
ENDBRANCH  18  19
ENDBRANCH  16  18
ENDBRANCH  15  16
ENDBRANCH  14  15
ENDBRANCH  12  14
ENDBRANCH   1  12
BRANCH   5  21
HETATM   21  N3  UNL     1     -10.023  -0.289   1.934  1.00  0.00    -0.331 N 
ATOM     22  H3  UNL     1     -10.258   0.360   2.685  1.00  0.00     0.168 HD
BRANCH  21  23
HETATM   23  C10 UNL     1     -10.276  -1.647   2.170  1.00  0.00     0.353 C 
HETATM   24  O2  UNL     1      -9.571  -2.387   2.879  1.00  0.00    -0.283 OA
ENDBRANCH  21  23
ENDBRANCH   5  21
TORSDOF 8
ENDMDL
MODEL 2
REMARK VINA RESULT: -4.924122792      2.725      6.380
REMARK  8 active torsions:
REMARK  status: ('A' for Active; 'I' for Inactive)
REMARK    1  A    between atoms: C2_2  and  C3_3 
REMARK    2  A    between atoms: C3_3  and  N1_4 
REMARK    3  A    between atoms: N1_4  and  C4_6 
REMARK    4  A    between atoms: C4_6  and  C5_7 
REMARK    5  A    between atoms: C5_7  and  N2_8 
REMARK    6  A    between atoms: N2_8  and  C6_10 
REMARK    7  A    between atoms: C9_14  and  N3_15 
REMARK    8  A    between atoms: N3_15  and  C10_17 
ROOT
HETATM    1  C6  UNL     1      -7.749   2.061  -0.178  1.00  0.00     0.054 C 
HETATM    2  C7  UNL     1      -7.587   3.239   0.538  1.00  0.00     0.087 C 
HETATM    3  C8  UNL     1      -7.033   4.417   0.112  1.00  0.00     0.200 C 
HETATM    4  O1  UNL     1      -7.375   5.481   0.737  1.00  0.00    -0.286 OA
HETATM    5  C9  UNL     1      -6.125   4.589  -0.940  1.00  0.00     0.086 C 
HETATM    6  C11 UNL     1      -5.560   3.560  -1.682  1.00  0.00     0.062 C 
HETATM    7  C12 UNL     1      -6.180   2.394  -2.076  1.00  0.00     0.071 C 
HETATM    8  N4  UNL     1      -5.742   1.822  -3.292  1.00  0.00    -0.101 NA
HETATM    9  C13 UNL     1      -7.199   1.727  -1.392  1.00  0.00     0.095 C 
HETATM   10  C14 UNL     1      -7.691   0.581  -2.067  1.00  0.00     0.103 C 
HETATM   11  N5  UNL     1      -8.087  -0.355  -2.611  1.00  0.00    -0.191 NA
ENDROOT
BRANCH   1  12
HETATM   12  N2  UNL     1      -8.594   1.063   0.413  1.00  0.00    -0.387 N 
ATOM     13  H2  UNL     1      -8.266   0.100   0.488  1.00  0.00     0.159 HD
BRANCH  12  14
HETATM   14  C5  UNL     1      -9.921   1.423   0.906  1.00  0.00     0.139 C 
BRANCH  14  15
HETATM   15  C4  UNL     1     -10.594   0.126   1.355  1.00  0.00     0.133 C 
BRANCH  15  16
HETATM   16  N1  UNL     1     -10.763   0.086   2.770  1.00  0.00    -0.417 N 
ATOM     17  H1  UNL     1     -10.933   0.937   3.307  1.00  0.00     0.153 HD
BRANCH  16  18
HETATM   18  C3  UNL     1     -10.685  -1.177   3.403  1.00  0.00     0.140 C 
BRANCH  18  19
HETATM   19  C2  UNL     1      -9.863  -2.135   2.676  1.00  0.00    -0.018 C 
HETATM   20  C1  UNL     1      -9.611  -3.349   3.055  1.00  0.00     0.008 C 
ENDBRANCH  18  19
ENDBRANCH  16  18
ENDBRANCH  15  16
ENDBRANCH  14  15
ENDBRANCH  12  14
ENDBRANCH   1  12
BRANCH   5  21
HETATM   21  N3  UNL     1      -5.774   5.916  -1.207  1.00  0.00    -0.331 N 
ATOM     22  H3  UNL     1      -5.087   6.344  -0.586  1.00  0.00     0.168 HD
BRANCH  21  23
HETATM   23  C10 UNL     1      -6.273   6.715  -2.244  1.00  0.00     0.353 C 
HETATM   24  O2  UNL     1      -7.470   7.024  -2.387  1.00  0.00    -0.283 OA
ENDBRANCH  21  23
ENDBRANCH   5  21
TORSDOF 8
ENDMDL
MODEL 3
REMARK VINA RESULT: -4.841204870      2.696      5.803
REMARK  8 active torsions:
REMARK  status: ('A' for Active; 'I' for Inactive)
REMARK    1  A    between atoms: C2_2  and  C3_3 
REMARK    2  A    between atoms: C3_3  and  N1_4 
REMARK    3  A    between atoms: N1_4  and  C4_6 
REMARK    4  A    between atoms: C4_6  and  C5_7 
REMARK    5  A    between atoms: C5_7  and  N2_8 
REMARK    6  A    between atoms: N2_8  and  C6_10 
REMARK    7  A    between atoms: C9_14  and  N3_15 
REMARK    8  A    between atoms: N3_15  and  C10_17 
ROOT
HETATM    1  C6  UNL     1      -7.509   1.819  -0.232  1.00  0.00     0.054 C 
HETATM    2  C7  UNL     1      -7.531   2.996   0.503  1.00  0.00     0.087 C 
HETATM    3  C8  UNL     1      -7.158   4.251   0.099  1.00  0.00     0.200 C 
HETATM    4  O1  UNL     1      -7.661   5.241   0.736  1.00  0.00    -0.286 OA
HETATM    5  C9  UNL     1      -6.279   4.574  -0.942  1.00  0.00     0.086 C 
HETATM    6  C11 UNL     1      -5.560   3.654  -1.693  1.00  0.00     0.062 C 
HETATM    7  C12 UNL     1      -5.995   2.414  -2.110  1.00  0.00     0.071 C 
HETATM    8  N4  UNL     1      -5.467   1.934  -3.330  1.00  0.00    -0.101 NA
HETATM    9  C13 UNL     1      -6.906   1.591  -1.446  1.00  0.00     0.095 C 
HETATM   10  C14 UNL     1      -7.215   0.395  -2.141  1.00  0.00     0.103 C 
HETATM   11  N5  UNL     1      -7.462  -0.581  -2.703  1.00  0.00    -0.191 NA
ENDROOT
BRANCH   1  12
HETATM   12  N2  UNL     1      -8.197   0.696   0.337  1.00  0.00    -0.387 N 
ATOM     13  H2  UNL     1      -7.685  -0.161   0.547  1.00  0.00     0.159 HD
BRANCH  12  14
HETATM   14  C5  UNL     1      -9.629   0.776   0.614  1.00  0.00     0.139 C 
BRANCH  14  15
HETATM   15  C4  UNL     1     -10.291  -0.385  -0.126  1.00  0.00     0.133 C 
BRANCH  15  16
HETATM   16  N1  UNL     1     -10.536  -0.064  -1.494  1.00  0.00    -0.417 N 
ATOM     17  H1  UNL     1     -10.436  -0.766  -2.228  1.00  0.00     0.153 HD
BRANCH  16  18
HETATM   18  C3  UNL     1     -10.921   1.263  -1.796  1.00  0.00     0.140 C 
BRANCH  18  19
HETATM   19  C2  UNL     1     -10.620   1.651  -3.167  1.00  0.00    -0.018 C 
HETATM   20  C1  UNL     1      -9.768   2.563  -3.520  1.00  0.00     0.008 C 
ENDBRANCH  18  19
ENDBRANCH  16  18
ENDBRANCH  15  16
ENDBRANCH  14  15
ENDBRANCH  12  14
ENDBRANCH   1  12
BRANCH   5  21
HETATM   21  N3  UNL     1      -6.130   5.943  -1.187  1.00  0.00    -0.331 N 
ATOM     22  H3  UNL     1      -5.600   6.479  -0.498  1.00  0.00     0.168 HD
BRANCH  21  23
HETATM   23  C10 UNL     1      -6.637   6.651  -2.284  1.00  0.00     0.353 C 
HETATM   24  O2  UNL     1      -7.841   6.899  -2.473  1.00  0.00    -0.283 OA
ENDBRANCH  21  23
ENDBRANCH   5  21
TORSDOF 8
ENDMDL
MODEL 4
REMARK VINA RESULT: -4.839651694      2.687      6.242
REMARK  8 active torsions:
REMARK  status: ('A' for Active; 'I' for Inactive)
REMARK    1  A    between atoms: C2_2  and  C3_3 
REMARK    2  A    between atoms: C3_3  and  N1_4 
REMARK    3  A    between atoms: N1_4  and  C4_6 
REMARK    4  A    between atoms: C4_6  and  C5_7 
REMARK    5  A    between atoms: C5_7  and  N2_8 
REMARK    6  A    between atoms: N2_8  and  C6_10 
REMARK    7  A    between atoms: C9_14  and  N3_15 
REMARK    8  A    between atoms: N3_15  and  C10_17 
ROOT
HETATM    1  C6  UNL     1      -7.614   1.983  -0.120  1.00  0.00     0.054 C 
HETATM    2  C7  UNL     1      -7.541   3.151   0.624  1.00  0.00     0.087 C 
HETATM    3  C8  UNL     1      -7.102   4.384   0.220  1.00  0.00     0.200 C 
HETATM    4  O1  UNL     1      -7.523   5.398   0.880  1.00  0.00    -0.286 OA
HETATM    5  C9  UNL     1      -6.235   4.662  -0.844  1.00  0.00     0.086 C 
HETATM    6  C11 UNL     1      -5.598   3.707  -1.624  1.00  0.00     0.062 C 
HETATM    7  C12 UNL     1      -6.121   2.501  -2.038  1.00  0.00     0.071 C 
HETATM    8  N4  UNL     1      -5.661   2.000  -3.277  1.00  0.00    -0.101 NA
HETATM    9  C13 UNL     1      -7.063   1.729  -1.353  1.00  0.00     0.095 C 
HETATM   10  C14 UNL     1      -7.466   0.561  -2.049  1.00  0.00     0.103 C 
HETATM   11  N5  UNL     1      -7.790  -0.392  -2.610  1.00  0.00    -0.191 NA
ENDROOT
BRANCH   1  12
HETATM   12  N2  UNL     1      -8.354   0.899   0.460  1.00  0.00    -0.387 N 
ATOM     13  H2  UNL     1      -7.886   0.017   0.669  1.00  0.00     0.159 HD
BRANCH  12  14
HETATM   14  C5  UNL     1      -9.777   1.055   0.751  1.00  0.00     0.139 C 
BRANCH  14  15
HETATM   15  C4  UNL     1     -10.494  -0.140   0.122  1.00  0.00     0.133 C 
BRANCH  15  16
HETATM   16  N1  UNL     1      -9.619  -1.255  -0.030  1.00  0.00    -0.417 N 
ATOM     17  H1  UNL     1      -8.801  -1.206  -0.638  1.00  0.00     0.153 HD
BRANCH  16  18
HETATM   18  C3  UNL     1      -9.927  -2.432   0.691  1.00  0.00     0.140 C 
BRANCH  18  19
HETATM   19  C2  UNL     1      -9.357  -2.451   2.032  1.00  0.00    -0.018 C 
HETATM   20  C1  UNL     1     -10.036  -2.449   3.137  1.00  0.00     0.008 C 
ENDBRANCH  18  19
ENDBRANCH  16  18
ENDBRANCH  15  16
ENDBRANCH  14  15
ENDBRANCH  12  14
ENDBRANCH   1  12
BRANCH   5  21
HETATM   21  N3  UNL     1      -6.008   6.022  -1.083  1.00  0.00    -0.331 N 
ATOM     22  H3  UNL     1      -5.436   6.519  -0.400  1.00  0.00     0.168 HD
BRANCH  21  23
HETATM   23  C10 UNL     1      -6.490   6.767  -2.167  1.00  0.00     0.353 C 
HETATM   24  O2  UNL     1      -7.694   6.946  -2.424  1.00  0.00    -0.283 OA
ENDBRANCH  21  23
ENDBRANCH   5  21
TORSDOF 8
ENDMDL
MODEL 5
REMARK VINA RESULT: -4.756044567      3.762      5.642
REMARK  8 active torsions:
REMARK  status: ('A' for Active; 'I' for Inactive)
REMARK    1  A    between atoms: C2_2  and  C3_3 
REMARK    2  A    between atoms: C3_3  and  N1_4 
REMARK    3  A    between atoms: N1_4  and  C4_6 
REMARK    4  A    between atoms: C4_6  and  C5_7 
REMARK    5  A    between atoms: C5_7  and  N2_8 
REMARK    6  A    between atoms: N2_8  and  C6_10 
REMARK    7  A    between atoms: C9_14  and  N3_15 
REMARK    8  A    between atoms: N3_15  and  C10_17 
ROOT
HETATM    1  C6  UNL     1      -7.523   3.316  -3.605  1.00  0.00     0.054 C 
HETATM    2  C7  UNL     1      -7.678   4.581  -3.055  1.00  0.00     0.087 C 
HETATM    3  C8  UNL     1      -7.111   5.081  -1.913  1.00  0.00     0.200 C 
HETATM    4  O1  UNL     1      -7.010   6.354  -1.821  1.00  0.00    -0.286 OA
HETATM    5  C9  UNL     1      -6.625   4.348  -0.823  1.00  0.00     0.086 C 
HETATM    6  C11 UNL     1      -6.721   2.970  -0.683  1.00  0.00     0.062 C 
HETATM    7  C12 UNL     1      -6.605   2.031  -1.686  1.00  0.00     0.071 C 
HETATM    8  N4  UNL     1      -6.081   0.771  -1.319  1.00  0.00    -0.101 NA
HETATM    9  C13 UNL     1      -6.954   2.207  -3.027  1.00  0.00     0.095 C 
HETATM   10  C14 UNL     1      -6.668   1.086  -3.847  1.00  0.00     0.103 C 
HETATM   11  N5  UNL     1      -6.442   0.174  -4.515  1.00  0.00    -0.191 NA
ENDROOT
BRANCH   1  12
HETATM   12  N2  UNL     1      -8.013   3.134  -4.940  1.00  0.00    -0.387 N 
ATOM     13  H2  UNL     1      -8.729   2.431  -5.127  1.00  0.00     0.159 HD
BRANCH  12  14
HETATM   14  C5  UNL     1      -7.491   3.950  -6.032  1.00  0.00     0.139 C 
BRANCH  14  15
HETATM   15  C4  UNL     1      -6.905   2.988  -7.066  1.00  0.00     0.133 C 
BRANCH  15  16
HETATM   16  N1  UNL     1      -5.577   2.597  -6.725  1.00  0.00    -0.417 N 
ATOM     17  H1  UNL     1      -5.084   3.026  -5.942  1.00  0.00     0.153 HD
BRANCH  16  18
HETATM   18  C3  UNL     1      -4.968   1.593  -7.514  1.00  0.00     0.140 C 
BRANCH  18  19
HETATM   19  C2  UNL     1      -3.824   0.967  -6.865  1.00  0.00    -0.018 C 
HETATM   20  C1  UNL     1      -2.581   1.181  -7.163  1.00  0.00     0.008 C 
ENDBRANCH  18  19
ENDBRANCH  16  18
ENDBRANCH  15  16
ENDBRANCH  14  15
ENDBRANCH  12  14
ENDBRANCH   1  12
BRANCH   5  21
HETATM   21  N3  UNL     1      -6.029   5.112   0.185  1.00  0.00    -0.331 N 
ATOM     22  H3  UNL     1      -5.206   5.655  -0.075  1.00  0.00     0.168 HD
BRANCH  21  23
HETATM   23  C10 UNL     1      -6.451   5.203   1.518  1.00  0.00     0.353 C 
HETATM   24  O2  UNL     1      -7.636   5.304   1.881  1.00  0.00    -0.283 OA
ENDBRANCH  21  23
ENDBRANCH   5  21
TORSDOF 8
ENDMDL
