MODEL 1
REMARK VINA RESULT: -8.968253698      0.000      0.000
REMARK  7 active torsions:
REMARK  status: ('A' for Active; 'I' for Inactive)
REMARK    1  A    between atoms: N1_2  and  C2_4 
REMARK    2  A    between atoms: N7_19  and  C6_20 
REMARK    3  A    between atoms: C7_22  and  C8_23 
REMARK    4  A    between atoms: C8_23  and  O2_24 
REMARK    5  A    between atoms: O2_24  and  C9_25 
REMARK       I    between atoms: C9_25  and  N8_27 
REMARK    6  A    between atoms: N8_27  and  C10_28 
REMARK    7  A    between atoms: C10_28  and  C11_29 
REMARK       I    between atoms: N14_38  and  C12_39 
ROOT
HETATM    1  C6  UNL     1      62.201   8.009  80.501  1.00  0.00     0.387 C 
HETATM    2  O1  UNL     1      61.834   7.230  81.706  1.00  0.00    -0.289 OA
HETATM    3  C7  UNL     1      63.088   6.754  82.136  1.00  0.00     0.161 C 
HETATM    4  N13 UNL     1      64.003   7.627  81.767  1.00  0.00    -0.273 N 
ATOM      5  H13 UNL     1      65.007   7.562  81.934  1.00  0.00     0.189 HD
HETATM    6  N14 UNL     1      63.324   8.678  81.089  1.00  0.00    -0.212 N 
HETATM    7  C12 UNL     1      63.665  10.053  81.056  1.00  0.00     0.206 C 
HETATM    8  N15 UNL     1      63.066  10.863  80.268  1.00  0.00    -0.372 N 
ATOM      9 1H15 UNL     1      63.311  11.853  80.245  1.00  0.00     0.158 HD
ATOM     10 2H15 UNL     1      62.335  10.501  79.656  1.00  0.00     0.158 HD
HETATM   11  N16 UNL     1      64.684  10.559  81.909  1.00  0.00    -0.062 NA
ENDROOT
BRANCH   1  12
HETATM   12  N7  UNL     1      62.478   6.971  79.541  1.00  0.00    -0.209 N 
HETATM   13  C4  UNL     1      63.369   6.864  78.560  1.00  0.00     0.175 A 
HETATM   14  N4  UNL     1      64.330   7.651  78.104  1.00  0.00    -0.173 N 
HETATM   15  C5  UNL     1      63.221   5.641  77.901  1.00  0.00     0.140 A 
HETATM   16  C3  UNL     1      65.135   7.328  77.068  1.00  0.00     0.679 A 
ATOM     17  H4  UNL     1      64.472   8.552  78.560  1.00  0.00     0.186 HD
HETATM   18  N2  UNL     1      64.990   6.133  76.424  1.00  0.00    -0.175 N 
HETATM   19  N3  UNL     1      66.064   8.092  76.628  1.00  0.00    -0.234 N 
HETATM   20  C2  UNL     1      64.036   5.282  76.833  1.00  0.00     0.148 A 
ATOM     21  H2  UNL     1      65.599   5.889  75.642  1.00  0.00     0.186 HD
ATOM     22  H32 UNL     1      66.673   7.848  75.846  1.00  0.00     0.174 HD
ATOM     23  H31 UNL     1      66.173   8.984  77.110  1.00  0.00     0.174 HD
HETATM   24  N5  UNL     1      62.212   5.038  78.532  1.00  0.00    -0.279 N 
HETATM   25  N6  UNL     1      61.785   5.800  79.474  1.00  0.00    -0.234 N 
ATOM     26  H5  UNL     1      61.839   4.116  78.303  1.00  0.00     0.189 HD
ATOM     27  H6  UNL     1      61.015   5.556  80.099  1.00  0.00     0.208 HD
BRANCH  20  28
HETATM   28  N1  UNL     1      63.883   4.163  76.235  1.00  0.00    -0.378 N 
HETATM   29  C1  UNL     1      63.771   3.967  74.824  1.00  0.00     0.147 C 
ATOM     30  H1  UNL     1      63.836   3.329  76.823  1.00  0.00     0.160 HD
ENDBRANCH  20  28
ENDBRANCH   1  12
BRANCH   3  31
HETATM   31  C8  UNL     1      63.424   5.518  82.869  1.00  0.00     0.267 C 
BRANCH  31  32
HETATM   32  O2  UNL     1      64.739   5.111  82.717  1.00  0.00    -0.284 OA
BRANCH  32  33
HETATM   33  C9  UNL     1      65.459   4.306  83.636  1.00  0.00     0.440 C 
HETATM   34  O3  UNL     1      66.325   3.603  83.100  1.00  0.00    -0.221 OA
HETATM   35  N8  UNL     1      65.074   4.449  84.954  1.00  0.00    -0.355 NA
BRANCH  35  36
HETATM   36  C10 UNL     1      64.698   4.587  86.242  1.00  0.00     0.239 C 
BRANCH  36  37
HETATM   37  C11 UNL     1      65.642   5.330  87.132  1.00  0.00     0.160 C 
HETATM   38  N9  UNL     1      66.738   4.906  87.620  1.00  0.00    -0.268 N 
HETATM   39  N10 UNL     1      67.297   5.935  88.398  1.00  0.00    -0.007 NA
ATOM     40  H9  UNL     1      67.140   3.980  87.473  1.00  0.00     0.185 HD
HETATM   41  N11 UNL     1      66.281   6.873  88.700  1.00  0.00    -0.007 NA
HETATM   42  N12 UNL     1      65.439   6.652  87.574  1.00  0.00    -0.268 N 
ATOM     43  H12 UNL     1      64.801   7.331  87.160  1.00  0.00     0.185 HD
ENDBRANCH  36  37
ENDBRANCH  35  36
ENDBRANCH  32  33
ENDBRANCH  31  32
ENDBRANCH   3  31
TORSDOF 7
ENDMDL
MODEL 2
REMARK VINA RESULT: -8.959269298      1.431      2.083
REMARK  7 active torsions:
REMARK  status: ('A' for Active; 'I' for Inactive)
REMARK    1  A    between atoms: N1_2  and  C2_4 
REMARK    2  A    between atoms: N7_19  and  C6_20 
REMARK    3  A    between atoms: C7_22  and  C8_23 
REMARK    4  A    between atoms: C8_23  and  O2_24 
REMARK    5  A    between atoms: O2_24  and  C9_25 
REMARK       I    between atoms: C9_25  and  N8_27 
REMARK    6  A    between atoms: N8_27  and  C10_28 
REMARK    7  A    between atoms: C10_28  and  C11_29 
REMARK       I    between atoms: N14_38  and  C12_39 
ROOT
HETATM    1  C6  UNL     1      62.223   8.013  80.527  1.00  0.00     0.387 C 
HETATM    2  O1  UNL     1      61.821   7.240  81.725  1.00  0.00    -0.289 OA
HETATM    3  C7  UNL     1      63.055   6.718  82.161  1.00  0.00     0.161 C 
HETATM    4  N13 UNL     1      64.002   7.559  81.801  1.00  0.00    -0.273 N 
ATOM      5  H13 UNL     1      65.003   7.457  81.975  1.00  0.00     0.189 HD
HETATM    6  N14 UNL     1      63.366   8.637  81.126  1.00  0.00    -0.212 N 
HETATM    7  C12 UNL     1      63.756  10.000  81.103  1.00  0.00     0.206 C 
HETATM    8  N15 UNL     1      63.191  10.835  80.316  1.00  0.00    -0.372 N 
ATOM      9 1H15 UNL     1      63.472  11.816  80.300  1.00  0.00     0.158 HD
ATOM     10 2H15 UNL     1      62.451  10.502  79.698  1.00  0.00     0.158 HD
HETATM   11  N16 UNL     1      64.787  10.464  81.964  1.00  0.00    -0.062 NA
ENDROOT
BRANCH   1  12
HETATM   12  N7  UNL     1      62.469   6.970  79.563  1.00  0.00    -0.209 N 
HETATM   13  C4  UNL     1      63.346   6.847  78.572  1.00  0.00     0.175 A 
HETATM   14  N4  UNL     1      64.318   7.616  78.106  1.00  0.00    -0.173 N 
HETATM   15  C5  UNL     1      63.167   5.628  77.913  1.00  0.00     0.140 A 
HETATM   16  C3  UNL     1      65.105   7.278  77.061  1.00  0.00     0.679 A 
ATOM     17  H4  UNL     1      64.482   8.513  78.561  1.00  0.00     0.186 HD
HETATM   18  N2  UNL     1      64.929   6.087  76.417  1.00  0.00    -0.175 N 
HETATM   19  N3  UNL     1      66.044   8.024  76.611  1.00  0.00    -0.234 N 
HETATM   20  C2  UNL     1      63.963   5.255  76.835  1.00  0.00     0.148 A 
ATOM     21  H2  UNL     1      65.524   5.833  75.628  1.00  0.00     0.186 HD
ATOM     22  H32 UNL     1      66.639   7.770  75.822  1.00  0.00     0.174 HD
ATOM     23  H31 UNL     1      66.175   8.914  77.093  1.00  0.00     0.174 HD
HETATM   24  N5  UNL     1      62.154   5.044  78.555  1.00  0.00    -0.279 N 
HETATM   25  N6  UNL     1      61.752   5.813  79.503  1.00  0.00    -0.234 N 
ATOM     26  H5  UNL     1      61.760   4.131  78.328  1.00  0.00     0.189 HD
ATOM     27  H6  UNL     1      60.985   5.584  80.135  1.00  0.00     0.208 HD
BRANCH  20  28
HETATM   28  N1  UNL     1      63.781   4.139  76.238  1.00  0.00    -0.378 N 
HETATM   29  C1  UNL     1      63.829   3.919  74.827  1.00  0.00     0.147 C 
ATOM     30  H1  UNL     1      63.584   3.329  76.826  1.00  0.00     0.160 HD
ENDBRANCH  20  28
ENDBRANCH   1  12
BRANCH   3  31
HETATM   31  C8  UNL     1      63.342   5.467  82.889  1.00  0.00     0.267 C 
BRANCH  31  32
HETATM   32  O2  UNL     1      62.995   5.501  84.229  1.00  0.00    -0.284 OA
BRANCH  32  33
HETATM   33  C9  UNL     1      63.649   6.268  85.225  1.00  0.00     0.440 C 
HETATM   34  O3  UNL     1      63.438   7.483  85.127  1.00  0.00    -0.221 OA
HETATM   35  N8  UNL     1      64.399   5.532  86.122  1.00  0.00    -0.355 NA
BRANCH  35  36
HETATM   36  C10 UNL     1      65.131   4.815  86.998  1.00  0.00     0.239 C 
BRANCH  36  37
HETATM   37  C11 UNL     1      65.865   3.637  86.442  1.00  0.00     0.160 C 
HETATM   38  N9  UNL     1      65.759   3.144  85.273  1.00  0.00    -0.268 N 
HETATM   39  N10 UNL     1      66.632   2.046  85.182  1.00  0.00    -0.007 NA
ATOM     40  H9  UNL     1      65.148   3.486  84.532  1.00  0.00     0.185 HD
HETATM   41  N11 UNL     1      66.975   1.634  86.492  1.00  0.00    -0.007 NA
HETATM   42  N12 UNL     1      66.808   2.878  87.162  1.00  0.00    -0.268 N 
ATOM     43  H12 UNL     1      67.286   3.169  88.015  1.00  0.00     0.185 HD
ENDBRANCH  36  37
ENDBRANCH  35  36
ENDBRANCH  32  33
ENDBRANCH  31  32
ENDBRANCH   3  31
TORSDOF 7
ENDMDL
MODEL 3
REMARK VINA RESULT: -8.938552598      2.191      3.957
REMARK  7 active torsions:
REMARK  status: ('A' for Active; 'I' for Inactive)
REMARK    1  A    between atoms: N1_2  and  C2_4 
REMARK    2  A    between atoms: N7_19  and  C6_20 
REMARK    3  A    between atoms: C7_22  and  C8_23 
REMARK    4  A    between atoms: C8_23  and  O2_24 
REMARK    5  A    between atoms: O2_24  and  C9_25 
REMARK       I    between atoms: C9_25  and  N8_27 
REMARK    6  A    between atoms: N8_27  and  C10_28 
REMARK    7  A    between atoms: C10_28  and  C11_29 
REMARK       I    between atoms: N14_38  and  C12_39 
ROOT
HETATM    1  C6  UNL     1      62.489   6.532  79.697  1.00  0.00     0.387 C 
HETATM    2  O1  UNL     1      63.287   5.724  80.649  1.00  0.00    -0.289 OA
HETATM    3  C7  UNL     1      63.146   6.461  81.842  1.00  0.00     0.161 C 
HETATM    4  N13 UNL     1      61.983   7.077  81.805  1.00  0.00    -0.273 N 
ATOM      5  H13 UNL     1      61.596   7.687  82.525  1.00  0.00     0.189 HD
HETATM    6  N14 UNL     1      61.369   6.731  80.569  1.00  0.00    -0.212 N 
HETATM    7  C12 UNL     1      59.986   6.578  80.299  1.00  0.00     0.206 C 
HETATM    8  N15 UNL     1      59.559   6.431  79.102  1.00  0.00    -0.372 N 
ATOM      9 1H15 UNL     1      58.564   6.321  78.908  1.00  0.00     0.158 HD
ATOM     10 2H15 UNL     1      60.235   6.430  78.338  1.00  0.00     0.158 HD
HETATM   11  N16 UNL     1      59.044   6.581  81.363  1.00  0.00    -0.062 NA
ENDROOT
BRANCH   1  12
HETATM   12  N7  UNL     1      63.352   7.662  79.461  1.00  0.00    -0.209 N 
HETATM   13  C4  UNL     1      64.259   7.923  78.525  1.00  0.00     0.175 A 
HETATM   14  N4  UNL     1      64.701   7.265  77.466  1.00  0.00    -0.173 N 
HETATM   15  C5  UNL     1      64.840   9.174  78.748  1.00  0.00     0.140 A 
HETATM   16  C3  UNL     1      65.653   7.737  76.632  1.00  0.00     0.679 A 
ATOM     17  H4  UNL     1      64.300   6.348  77.268  1.00  0.00     0.186 HD
HETATM   18  N2  UNL     1      66.221   8.960  76.850  1.00  0.00    -0.175 N 
HETATM   19  N3  UNL     1      66.079   7.097  75.608  1.00  0.00    -0.234 N 
HETATM   20  C2  UNL     1      65.821   9.686  77.906  1.00  0.00     0.148 A 
ATOM     21  H2  UNL     1      66.939   9.316  76.220  1.00  0.00     0.186 HD
ATOM     22  H32 UNL     1      66.799   7.454  74.978  1.00  0.00     0.174 HD
ATOM     23  H31 UNL     1      65.655   6.184  75.445  1.00  0.00     0.174 HD
HETATM   24  N5  UNL     1      64.240   9.634  79.847  1.00  0.00    -0.279 N 
HETATM   25  N6  UNL     1      63.385   8.766  80.258  1.00  0.00    -0.234 N 
ATOM     26  H5  UNL     1      64.430  10.532  80.292  1.00  0.00     0.189 HD
ATOM     27  H6  UNL     1      62.801   8.890  81.085  1.00  0.00     0.208 HD
BRANCH  20  28
HETATM   28  N1  UNL     1      66.348  10.829  78.127  1.00  0.00    -0.378 N 
HETATM   29  C1  UNL     1      65.809  12.096  77.744  1.00  0.00     0.147 C 
ATOM     30  H1  UNL     1      67.238  10.838  78.625  1.00  0.00     0.160 HD
ENDBRANCH  20  28
ENDBRANCH   1  12
BRANCH   3  31
HETATM   31  C8  UNL     1      64.073   6.587  82.984  1.00  0.00     0.267 C 
BRANCH  31  32
HETATM   32  O2  UNL     1      63.456   6.519  84.222  1.00  0.00    -0.284 OA
BRANCH  32  33
HETATM   33  C9  UNL     1      63.841   7.258  85.369  1.00  0.00     0.440 C 
HETATM   34  O3  UNL     1      63.478   8.441  85.337  1.00  0.00    -0.221 OA
HETATM   35  N8  UNL     1      64.543   6.535  86.314  1.00  0.00    -0.355 NA
BRANCH  35  36
HETATM   36  C10 UNL     1      65.229   5.830  87.236  1.00  0.00     0.239 C 
BRANCH  36  37
HETATM   37  C11 UNL     1      65.571   4.420  86.874  1.00  0.00     0.160 C 
HETATM   38  N9  UNL     1      64.867   3.606  86.196  1.00  0.00    -0.268 N 
HETATM   39  N10 UNL     1      65.573   2.394  86.101  1.00  0.00    -0.007 NA
ATOM     40  H9  UNL     1      63.951   3.798  85.792  1.00  0.00     0.185 HD
HETATM   41  N11 UNL     1      66.567   2.370  87.108  1.00  0.00    -0.007 NA
HETATM   42  N12 UNL     1      66.764   3.773  87.252  1.00  0.00    -0.268 N 
ATOM     43  H12 UNL     1      67.618   4.229  87.572  1.00  0.00     0.185 HD
ENDBRANCH  36  37
ENDBRANCH  35  36
ENDBRANCH  32  33
ENDBRANCH  31  32
ENDBRANCH   3  31
TORSDOF 7
ENDMDL
MODEL 4
REMARK VINA RESULT: -8.850026027      2.474      8.248
REMARK  7 active torsions:
REMARK  status: ('A' for Active; 'I' for Inactive)
REMARK    1  A    between atoms: N1_2  and  C2_4 
REMARK    2  A    between atoms: N7_19  and  C6_20 
REMARK    3  A    between atoms: C7_22  and  C8_23 
REMARK    4  A    between atoms: C8_23  and  O2_24 
REMARK    5  A    between atoms: O2_24  and  C9_25 
REMARK       I    between atoms: C9_25  and  N8_27 
REMARK    6  A    between atoms: N8_27  and  C10_28 
REMARK    7  A    between atoms: C10_28  and  C11_29 
REMARK       I    between atoms: N14_38  and  C12_39 
ROOT
HETATM    1  C6  UNL     1      62.079   7.743  81.672  1.00  0.00     0.387 C 
HETATM    2  O1  UNL     1      62.529   9.070  81.190  1.00  0.00    -0.289 OA
HETATM    3  C7  UNL     1      63.813   8.774  80.687  1.00  0.00     0.161 C 
HETATM    4  N13 UNL     1      63.810   7.524  80.275  1.00  0.00    -0.273 N 
ATOM      5  H13 UNL     1      64.594   7.019  79.861  1.00  0.00     0.189 HD
HETATM    6  N14 UNL     1      62.505   7.010  80.516  1.00  0.00    -0.212 N 
HETATM    7  C12 UNL     1      61.798   6.043  79.759  1.00  0.00     0.206 C 
HETATM    8  N15 UNL     1      60.700   5.544  80.185  1.00  0.00    -0.372 N 
ATOM      9 1H15 UNL     1      60.191   4.848  79.639  1.00  0.00     0.158 HD
ATOM     10 2H15 UNL     1      60.339   5.854  81.086  1.00  0.00     0.158 HD
HETATM   11  N16 UNL     1      62.301   5.611  78.501  1.00  0.00    -0.062 NA
ENDROOT
BRANCH   1  12
HETATM   12  N7  UNL     1      62.848   7.582  82.879  1.00  0.00    -0.209 N 
HETATM   13  C4  UNL     1      63.371   6.517  83.479  1.00  0.00     0.175 A 
HETATM   14  N4  UNL     1      63.394   5.224  83.198  1.00  0.00    -0.173 N 
HETATM   15  C5  UNL     1      64.031   6.895  84.651  1.00  0.00     0.140 A 
HETATM   16  C3  UNL     1      64.003   4.299  83.971  1.00  0.00     0.679 A 
ATOM     17  H4  UNL     1      62.925   4.907  82.349  1.00  0.00     0.186 HD
HETATM   18  N2  UNL     1      64.648   4.669  85.117  1.00  0.00    -0.175 N 
HETATM   19  N3  UNL     1      64.023   3.048  83.697  1.00  0.00    -0.234 N 
HETATM   20  C2  UNL     1      64.667   5.965  85.465  1.00  0.00     0.148 A 
ATOM     21  H2  UNL     1      65.108   3.970  85.700  1.00  0.00     0.186 HD
ATOM     22  H32 UNL     1      64.483   2.349  84.281  1.00  0.00     0.174 HD
ATOM     23  H31 UNL     1      63.541   2.772  82.841  1.00  0.00     0.174 HD
HETATM   24  N5  UNL     1      63.875   8.219  84.713  1.00  0.00    -0.279 N 
HETATM   25  N6  UNL     1      63.195   8.614  83.697  1.00  0.00    -0.234 N 
ATOM     26  H5  UNL     1      64.237   8.821  85.453  1.00  0.00     0.189 HD
ATOM     27  H6  UNL     1      62.945   9.588  83.523  1.00  0.00     0.208 HD
BRANCH  20  28
HETATM   28  N1  UNL     1      65.260   6.326  86.538  1.00  0.00    -0.378 N 
HETATM   29  C1  UNL     1      65.975   5.474  87.436  1.00  0.00     0.147 C 
ATOM     30  H1  UNL     1      65.219   7.317  86.776  1.00  0.00     0.160 HD
ENDBRANCH  20  28
ENDBRANCH   1  12
BRANCH   3  31
HETATM   31  C8  UNL     1      65.008   9.635  80.598  1.00  0.00     0.267 C 
BRANCH  31  32
HETATM   32  O2  UNL     1      65.034  10.451  79.479  1.00  0.00    -0.284 OA
BRANCH  32  33
HETATM   33  C9  UNL     1      65.762  10.188  78.291  1.00  0.00     0.440 C 
HETATM   34  O3  UNL     1      66.548  11.093  77.986  1.00  0.00    -0.221 OA
HETATM   35  N8  UNL     1      65.471   8.979  77.690  1.00  0.00    -0.355 NA
BRANCH  35  36
HETATM   36  C10 UNL     1      65.187   7.799  77.103  1.00  0.00     0.239 C 
BRANCH  36  37
HETATM   37  C11 UNL     1      66.071   7.394  75.966  1.00  0.00     0.160 C 
HETATM   38  N9  UNL     1      67.287   7.721  75.780  1.00  0.00    -0.268 N 
HETATM   39  N10 UNL     1      67.723   7.118  74.588  1.00  0.00    -0.007 NA
ATOM     40  H9  UNL     1      67.846   8.318  76.389  1.00  0.00     0.185 HD
HETATM   41  N11 UNL     1      66.588   6.738  73.833  1.00  0.00    -0.007 NA
HETATM   42  N12 UNL     1      65.664   6.566  74.902  1.00  0.00    -0.268 N 
ATOM     43  H12 UNL     1      64.850   5.952  74.898  1.00  0.00     0.185 HD
ENDBRANCH  36  37
ENDBRANCH  35  36
ENDBRANCH  32  33
ENDBRANCH  31  32
ENDBRANCH   3  31
TORSDOF 7
ENDMDL
MODEL 5
REMARK VINA RESULT: -8.826393817      1.983      7.506
REMARK  7 active torsions:
REMARK  status: ('A' for Active; 'I' for Inactive)
REMARK    1  A    between atoms: N1_2  and  C2_4 
REMARK    2  A    between atoms: N7_19  and  C6_20 
REMARK    3  A    between atoms: C7_22  and  C8_23 
REMARK    4  A    between atoms: C8_23  and  O2_24 
REMARK    5  A    between atoms: O2_24  and  C9_25 
REMARK       I    between atoms: C9_25  and  N8_27 
REMARK    6  A    between atoms: N8_27  and  C10_28 
REMARK    7  A    between atoms: C10_28  and  C11_29 
REMARK       I    between atoms: N14_38  and  C12_39 
ROOT
HETATM    1  C6  UNL     1      63.814   7.343  81.519  1.00  0.00     0.387 C 
HETATM    2  O1  UNL     1      63.390   5.987  81.100  1.00  0.00    -0.289 OA
HETATM    3  C7  UNL     1      62.075   5.927  81.604  1.00  0.00     0.161 C 
HETATM    4  N13 UNL     1      61.590   7.151  81.621  1.00  0.00    -0.273 N 
ATOM      5  H13 UNL     1      60.660   7.431  81.933  1.00  0.00     0.189 HD
HETATM    6  N14 UNL     1      62.609   8.009  81.121  1.00  0.00    -0.212 N 
HETATM    7  C12 UNL     1      62.450   9.201  80.371  1.00  0.00     0.206 C 
HETATM    8  N15 UNL     1      63.446   9.968  80.131  1.00  0.00    -0.372 N 
ATOM      9 1H15 UNL     1      63.331  10.826  79.592  1.00  0.00     0.158 HD
ATOM     10 2H15 UNL     1      64.363   9.707  80.493  1.00  0.00     0.158 HD
HETATM   11  N16 UNL     1      61.172   9.566  79.867  1.00  0.00    -0.062 NA
ENDROOT
BRANCH   1  12
HETATM   12  N7  UNL     1      64.037   7.168  82.932  1.00  0.00    -0.209 N 
HETATM   13  C4  UNL     1      64.534   6.165  83.648  1.00  0.00     0.175 A 
HETATM   14  N4  UNL     1      65.017   4.970  83.344  1.00  0.00    -0.173 N 
HETATM   15  C5  UNL     1      64.531   6.491  85.007  1.00  0.00     0.140 A 
HETATM   16  C3  UNL     1      65.481   4.094  84.261  1.00  0.00     0.679 A 
ATOM     17  H4  UNL     1      65.038   4.696  82.362  1.00  0.00     0.186 HD
HETATM   18  N2  UNL     1      65.477   4.412  85.589  1.00  0.00    -0.175 N 
HETATM   19  N3  UNL     1      65.946   2.938  83.964  1.00  0.00    -0.234 N 
HETATM   20  C2  UNL     1      65.004   5.608  85.972  1.00  0.00     0.148 A 
ATOM     21  H2  UNL     1      65.828   3.750  86.280  1.00  0.00     0.186 HD
ATOM     22  H32 UNL     1      66.297   2.276  84.656  1.00  0.00     0.174 HD
ATOM     23  H31 UNL     1      65.949   2.701  82.972  1.00  0.00     0.174 HD
HETATM   24  N5  UNL     1      64.013   7.719  85.058  1.00  0.00    -0.279 N 
HETATM   25  N6  UNL     1      63.729   8.109  83.867  1.00  0.00    -0.234 N 
ATOM     26  H5  UNL     1      63.866   8.262  85.909  1.00  0.00     0.189 HD
ATOM     27  H6  UNL     1      63.320   9.018  83.648  1.00  0.00     0.208 HD
BRANCH  20  28
HETATM   28  N1  UNL     1      64.987   5.918  87.212  1.00  0.00    -0.378 N 
HETATM   29  C1  UNL     1      66.114   6.305  88.001  1.00  0.00     0.147 C 
ATOM     30  H1  UNL     1      64.082   5.885  87.683  1.00  0.00     0.160 HD
ENDBRANCH  20  28
ENDBRANCH   1  12
BRANCH   3  31
HETATM   31  C8  UNL     1      61.295   4.760  82.059  1.00  0.00     0.267 C 
BRANCH  31  32
HETATM   32  O2  UNL     1      61.057   3.819  81.070  1.00  0.00    -0.284 OA
BRANCH  32  33
HETATM   33  C9  UNL     1      60.283   4.036  79.903  1.00  0.00     0.440 C 
HETATM   34  O3  UNL     1      59.082   4.222  80.137  1.00  0.00    -0.221 OA
HETATM   35  N8  UNL     1      60.996   4.005  78.721  1.00  0.00    -0.355 NA
BRANCH  35  36
HETATM   36  C10 UNL     1      61.692   3.974  77.567  1.00  0.00     0.239 C 
BRANCH  36  37
HETATM   37  C11 UNL     1      62.873   4.888  77.479  1.00  0.00     0.160 C 
HETATM   38  N9  UNL     1      63.106   5.917  78.190  1.00  0.00    -0.268 N 
HETATM   39  N10 UNL     1      64.326   6.473  77.766  1.00  0.00    -0.007 NA
ATOM     40  H9  UNL     1      62.512   6.276  78.937  1.00  0.00     0.185 HD
HETATM   41  N11 UNL     1      64.627   5.970  76.478  1.00  0.00    -0.007 NA
HETATM   42  N12 UNL     1      63.929   4.732  76.560  1.00  0.00    -0.268 N 
ATOM     43  H12 UNL     1      64.154   3.882  76.044  1.00  0.00     0.185 HD
ENDBRANCH  36  37
ENDBRANCH  35  36
ENDBRANCH  32  33
ENDBRANCH  31  32
ENDBRANCH   3  31
TORSDOF 7
ENDMDL
