MODEL 1
REMARK VINA RESULT: -7.714299363      0.000      0.000
REMARK  16 active torsions:
REMARK  status: ('A' for Active; 'I' for Inactive)
REMARK    1  A    between atoms: C2_2  and  O1_4 
REMARK    2  A    between atoms: C2_2  and  C4_6 
REMARK    3  A    between atoms: N2_9  and  C5_10 
REMARK    4  A    between atoms: C6_14  and  O2_15 
REMARK    5  A    between atoms: C9_23  and  N6_24 
REMARK    6  A    between atoms: C11_26  and  C12_27 
REMARK    7  A    between atoms: C12_27  and  O3_28 
REMARK    8  A    between atoms: C13_36  and  N10_37 
REMARK    9  A    between atoms: N10_37  and  C14_38 
REMARK   10  A    between atoms: N10_37  and  C16_42 
REMARK   11  A    between atoms: C14_38  and  C15_39 
REMARK   12  A    between atoms: C15_39  and  O4_40 
REMARK   13  A    between atoms: C16_42  and  C17_43 
REMARK   14  A    between atoms: C17_43  and  O5_44 
REMARK   15  A    between atoms: C18_46  and  N11_47 
REMARK   16  A    between atoms: N11_47  and  C19_49 
ROOT
HETATM    1  C5  UNL     1      28.853   6.189  13.366  1.00  0.00     0.382 C 
HETATM    2  N3  UNL     1      28.681   6.452  14.809  1.00  0.00    -0.002 N 
ATOM      3  H31 UNL     1      28.197   7.328  15.006  1.00  0.00     0.285 HD
ATOM      4  H32 UNL     1      29.554   6.681  15.287  1.00  0.00     0.285 HD
HETATM    5  C6  UNL     1      28.003   5.270  15.365  1.00  0.00     0.429 C 
HETATM    6  N4  UNL     1      28.752   4.056  15.008  1.00  0.00    -0.337 N 
ATOM      7  H4  UNL     1      28.486   3.167  15.431  1.00  0.00     0.164 HD
HETATM    8  C7  UNL     1      29.829   4.087  14.094  1.00  0.00     0.104 A 
HETATM    9  C8  UNL     1      29.931   5.199  13.239  1.00  0.00     0.109 A 
HETATM   10  N5  UNL     1      30.945   5.276  12.379  1.00  0.00    -0.187 N 
ATOM     11  H5  UNL     1      31.009   6.088  11.764  1.00  0.00     0.184 HD
HETATM   12  C9  UNL     1      31.898   4.311  12.293  1.00  0.00     0.706 A 
HETATM   13  N9  UNL     1      31.777   3.234  13.138  1.00  0.00    -0.172 N 
ATOM     14  H9  UNL     1      32.479   2.495  13.097  1.00  0.00     0.186 HD
HETATM   15  C13 UNL     1      30.779   3.123  14.006  1.00  0.00     0.155 A 
ENDROOT
BRANCH   1  16
HETATM   16  N2  UNL     1      28.964   7.362  12.587  1.00  0.00    -0.084 N 
HETATM   17  N1  UNL     1      29.625   8.460  12.837  1.00  0.00    -0.267 N 
HETATM   18  C4  UNL     1      29.503   9.361  11.883  1.00  0.00     0.146 A 
ATOM     19  H1  UNL     1      30.177   8.605  13.682  1.00  0.00     0.189 HD
HETATM   20  N14 UNL     1      28.696   8.815  10.917  1.00  0.00    -0.174 N 
HETATM   21  C18 UNL     1      28.380   7.580  11.382  1.00  0.00     0.705 A 
ATOM     22  H14 UNL     1      28.398   9.243  10.041  1.00  0.00     0.185 HD
BRANCH  18  23
HETATM   23  C2  UNL     1      30.123  10.698  11.739  1.00  0.00     0.110 C 
HETATM   24  C1  UNL     1      29.094  11.731  11.397  1.00  0.00     0.054 C 
HETATM   25  C3  UNL     1      31.184  10.699  10.661  1.00  0.00     0.054 C 
BRANCH  23  26
HETATM   26  O1  UNL     1      30.827  11.027  12.927  1.00  0.00    -0.383 OA
ATOM     27  H1  UNL     1      31.620  10.514  13.022  1.00  0.00     0.211 HD
ENDBRANCH  23  26
ENDBRANCH  18  23
BRANCH  21  28
HETATM   28  N11 UNL     1      27.652   6.731  10.790  1.00  0.00    -0.160 N 
ATOM     29  H11 UNL     1      28.137   6.076  10.176  1.00  0.00     0.187 HD
BRANCH  28  30
HETATM   30  C19 UNL     1      26.256   6.577  10.873  1.00  0.00     0.190 C 
HETATM   31  N12 UNL     1      25.697   6.059  11.962  1.00  0.00    -0.360 N 
HETATM   32  C20 UNL     1      24.283   5.992  11.854  1.00  0.00     0.142 C 
ATOM     33  H12 UNL     1      26.222   5.746  12.779  1.00  0.00     0.162 HD
HETATM   34  C21 UNL     1      23.943   6.628  10.547  1.00  0.00     0.142 C 
HETATM   35  N13 UNL     1      25.251   6.875   9.922  1.00  0.00    -0.360 N 
ATOM     36  H13 UNL     1      25.408   7.203   8.969  1.00  0.00     0.162 HD
ENDBRANCH  28  30
ENDBRANCH  21  28
ENDBRANCH   1  16
BRANCH   5  37
HETATM   37  O2  UNL     1      26.774   5.199  14.721  1.00  0.00    -0.354 OA
ATOM     38  H2  UNL     1      26.223   4.655  15.272  1.00  0.00     0.214 HD
ENDBRANCH   5  37
BRANCH  15  39
HETATM   39  N10 UNL     1      30.630   1.870  14.839  1.00  0.00    -0.317 N 
BRANCH  39  40
HETATM   40  C14 UNL     1      29.458   1.848  15.627  1.00  0.00     0.121 C 
BRANCH  40  41
HETATM   41  C15 UNL     1      29.318   1.055  16.841  1.00  0.00     0.148 C 
BRANCH  41  42
HETATM   42  O4  UNL     1      30.096   1.253  17.934  1.00  0.00    -0.371 OA
ATOM     43  H4  UNL     1      29.881   1.891  18.605  1.00  0.00     0.216 HD
ENDBRANCH  41  42
ENDBRANCH  40  41
ENDBRANCH  39  40
BRANCH  39  44
HETATM   44  C16 UNL     1      31.702   0.990  14.623  1.00  0.00     0.097 C 
BRANCH  44  45
HETATM   45  C17 UNL     1      31.742  -0.049  13.578  1.00  0.00     0.209 C 
BRANCH  45  46
HETATM   46  O5  UNL     1      31.770  -1.368  13.953  1.00  0.00    -0.396 OA
ATOM     47  H5  UNL     1      31.710  -2.038  13.283  1.00  0.00     0.209 HD
ENDBRANCH  45  46
ENDBRANCH  44  45
ENDBRANCH  39  44
ENDBRANCH  15  39
BRANCH  12  48
HETATM   48  N6  UNL     1      32.920   4.388  11.331  1.00  0.00    -0.081 N 
HETATM   49  C10 UNL     1      33.552   5.379  10.707  1.00  0.00     0.165 A 
HETATM   50  C11 UNL     1      34.510   4.799   9.812  1.00  0.00     0.068 A 
HETATM   51  N7  UNL     1      34.365   3.534   9.981  1.00  0.00    -0.286 N 
HETATM   52  N8  UNL     1      33.467   3.233  10.840  1.00  0.00    -0.222 N 
ATOM     53  H7  UNL     1      34.913   2.836   9.478  1.00  0.00     0.188 HD
ATOM     54  H8  UNL     1      33.201   2.287  11.114  1.00  0.00     0.209 HD
BRANCH  50  55
HETATM   55  C12 UNL     1      35.451   5.518   8.928  1.00  0.00     0.224 C 
BRANCH  55  56
HETATM   56  O3  UNL     1      35.763   4.666   7.861  1.00  0.00    -0.395 OA
ATOM     57  H3  UNL     1      35.862   5.203   7.084  1.00  0.00     0.209 HD
ENDBRANCH  55  56
ENDBRANCH  50  55
ENDBRANCH  12  48
TORSDOF 16
ENDMDL
MODEL 2
REMARK VINA RESULT: -7.557332110      2.743      7.280
REMARK  16 active torsions:
REMARK  status: ('A' for Active; 'I' for Inactive)
REMARK    1  A    between atoms: C2_2  and  O1_4 
REMARK    2  A    between atoms: C2_2  and  C4_6 
REMARK    3  A    between atoms: N2_9  and  C5_10 
REMARK    4  A    between atoms: C6_14  and  O2_15 
REMARK    5  A    between atoms: C9_23  and  N6_24 
REMARK    6  A    between atoms: C11_26  and  C12_27 
REMARK    7  A    between atoms: C12_27  and  O3_28 
REMARK    8  A    between atoms: C13_36  and  N10_37 
REMARK    9  A    between atoms: N10_37  and  C14_38 
REMARK   10  A    between atoms: N10_37  and  C16_42 
REMARK   11  A    between atoms: C14_38  and  C15_39 
REMARK   12  A    between atoms: C15_39  and  O4_40 
REMARK   13  A    between atoms: C16_42  and  C17_43 
REMARK   14  A    between atoms: C17_43  and  O5_44 
REMARK   15  A    between atoms: C18_46  and  N11_47 
REMARK   16  A    between atoms: N11_47  and  C19_49 
ROOT
HETATM    1  C5  UNL     1      30.934   8.011  10.687  1.00  0.00     0.382 C 
HETATM    2  N3  UNL     1      30.481   9.312  10.155  1.00  0.00    -0.002 N 
ATOM      3  H31 UNL     1      31.239   9.982  10.025  1.00  0.00     0.285 HD
ATOM      4  H32 UNL     1      29.942   9.860  10.826  1.00  0.00     0.285 HD
HETATM    5  C6  UNL     1      29.744   9.014   8.916  1.00  0.00     0.429 C 
HETATM    6  N4  UNL     1      28.695   8.020   9.191  1.00  0.00    -0.337 N 
ATOM      7  H4  UNL     1      28.010   7.809   8.465  1.00  0.00     0.164 HD
HETATM    8  C7  UNL     1      28.611   7.349  10.431  1.00  0.00     0.104 A 
HETATM    9  C8  UNL     1      29.753   7.346  11.253  1.00  0.00     0.109 A 
HETATM   10  N5  UNL     1      29.706   6.745  12.440  1.00  0.00    -0.187 N 
ATOM     11  H5  UNL     1      30.540   6.750  13.028  1.00  0.00     0.184 HD
HETATM   12  C9  UNL     1      28.586   6.124  12.895  1.00  0.00     0.706 A 
HETATM   13  N9  UNL     1      27.484   6.139  12.075  1.00  0.00    -0.172 N 
ATOM     14  H9  UNL     1      26.628   5.683  12.391  1.00  0.00     0.186 HD
HETATM   15  C13 UNL     1      27.495   6.728  10.885  1.00  0.00     0.155 A 
ENDROOT
BRANCH   1  16
HETATM   16  N2  UNL     1      32.075   8.106  11.516  1.00  0.00    -0.084 N 
HETATM   17  N1  UNL     1      32.453   9.086  12.291  1.00  0.00    -0.267 N 
HETATM   18  C4  UNL     1      33.582   8.835  12.923  1.00  0.00     0.146 A 
ATOM     19  H1  UNL     1      31.930   9.955  12.396  1.00  0.00     0.189 HD
HETATM   20  N14 UNL     1      33.986   7.582  12.537  1.00  0.00    -0.174 N 
HETATM   21  C18 UNL     1      33.034   7.159  11.668  1.00  0.00     0.705 A 
ATOM     22  H14 UNL     1      34.820   7.077  12.838  1.00  0.00     0.185 HD
BRANCH  18  23
HETATM   23  C2  UNL     1      34.321   9.636  13.925  1.00  0.00     0.110 C 
HETATM   24  C1  UNL     1      33.809  11.044  13.968  1.00  0.00     0.054 C 
HETATM   25  C3  UNL     1      35.801   9.672  13.616  1.00  0.00     0.054 C 
BRANCH  23  26
HETATM   26  O1  UNL     1      34.240   9.006  15.194  1.00  0.00    -0.383 OA
ATOM     27  H1  UNL     1      35.058   9.068  15.672  1.00  0.00     0.211 HD
ENDBRANCH  23  26
ENDBRANCH  18  23
BRANCH  21  28
HETATM   28  N11 UNL     1      33.017   6.040  11.076  1.00  0.00    -0.160 N 
ATOM     29  H11 UNL     1      33.129   6.069  10.063  1.00  0.00     0.187 HD
BRANCH  28  30
HETATM   30  C19 UNL     1      32.864   4.761  11.641  1.00  0.00     0.190 C 
HETATM   31  N12 UNL     1      33.812   3.840  11.496  1.00  0.00    -0.360 N 
HETATM   32  C20 UNL     1      33.473   2.622  12.142  1.00  0.00     0.142 C 
ATOM     33  H12 UNL     1      34.680   3.991  10.981  1.00  0.00     0.162 HD
HETATM   34  C21 UNL     1      32.174   2.873  12.833  1.00  0.00     0.142 C 
HETATM   35  N13 UNL     1      31.786   4.218  12.380  1.00  0.00    -0.360 N 
ATOM     36  H13 UNL     1      30.895   4.678  12.565  1.00  0.00     0.162 HD
ENDBRANCH  28  30
ENDBRANCH  21  28
ENDBRANCH   1  16
BRANCH   5  37
HETATM   37  O2  UNL     1      30.661   8.417   8.060  1.00  0.00    -0.354 OA
ATOM     38  H2  UNL     1      30.871   9.072   7.405  1.00  0.00     0.214 HD
ENDBRANCH   5  37
BRANCH  15  39
HETATM   39  N10 UNL     1      26.292   6.626   9.975  1.00  0.00    -0.317 N 
BRANCH  39  40
HETATM   40  C14 UNL     1      26.607   6.217   8.660  1.00  0.00     0.121 C 
BRANCH  40  41
HETATM   41  C15 UNL     1      26.314   4.890   8.137  1.00  0.00     0.148 C 
BRANCH  41  42
HETATM   42  O4  UNL     1      26.786   3.758   8.716  1.00  0.00    -0.371 OA
ATOM     43  H4  UNL     1      27.696   3.493   8.652  1.00  0.00     0.216 HD
ENDBRANCH  41  42
ENDBRANCH  40  41
ENDBRANCH  39  40
BRANCH  39  44
HETATM   44  C16 UNL     1      25.111   6.951  10.660  1.00  0.00     0.097 C 
BRANCH  44  45
HETATM   45  C17 UNL     1      24.360   6.028  11.531  1.00  0.00     0.209 C 
BRANCH  45  46
HETATM   46  O5  UNL     1      24.175   6.360  12.849  1.00  0.00    -0.396 OA
ATOM     47  H5  UNL     1      23.451   5.969  13.324  1.00  0.00     0.209 HD
ENDBRANCH  45  46
ENDBRANCH  44  45
ENDBRANCH  39  44
ENDBRANCH  15  39
BRANCH  12  48
HETATM   48  N6  UNL     1      28.587   5.441  14.125  1.00  0.00    -0.081 N 
HETATM   49  C10 UNL     1      28.266   4.211  14.517  1.00  0.00     0.165 A 
HETATM   50  C11 UNL     1      28.479   4.128  15.932  1.00  0.00     0.068 A 
HETATM   51  N7  UNL     1      28.901   5.299  16.250  1.00  0.00    -0.286 N 
HETATM   52  N8  UNL     1      28.984   6.100  15.257  1.00  0.00    -0.222 N 
ATOM     53  H7  UNL     1      29.146   5.565  17.204  1.00  0.00     0.188 HD
ATOM     54  H8  UNL     1      29.296   7.070  15.300  1.00  0.00     0.209 HD
BRANCH  50  55
HETATM   55  C12 UNL     1      28.273   2.947  16.797  1.00  0.00     0.224 C 
BRANCH  55  56
HETATM   56  O3  UNL     1      28.564   3.329  18.112  1.00  0.00    -0.395 OA
ATOM     57  H3  UNL     1      28.508   4.276  18.155  1.00  0.00     0.209 HD
ENDBRANCH  55  56
ENDBRANCH  50  55
ENDBRANCH  12  48
TORSDOF 16
ENDMDL
MODEL 3
REMARK VINA RESULT: -7.542369017      3.237      8.844
REMARK  16 active torsions:
REMARK  status: ('A' for Active; 'I' for Inactive)
REMARK    1  A    between atoms: C2_2  and  O1_4 
REMARK    2  A    between atoms: C2_2  and  C4_6 
REMARK    3  A    between atoms: N2_9  and  C5_10 
REMARK    4  A    between atoms: C6_14  and  O2_15 
REMARK    5  A    between atoms: C9_23  and  N6_24 
REMARK    6  A    between atoms: C11_26  and  C12_27 
REMARK    7  A    between atoms: C12_27  and  O3_28 
REMARK    8  A    between atoms: C13_36  and  N10_37 
REMARK    9  A    between atoms: N10_37  and  C14_38 
REMARK   10  A    between atoms: N10_37  and  C16_42 
REMARK   11  A    between atoms: C14_38  and  C15_39 
REMARK   12  A    between atoms: C15_39  and  O4_40 
REMARK   13  A    between atoms: C16_42  and  C17_43 
REMARK   14  A    between atoms: C17_43  and  O5_44 
REMARK   15  A    between atoms: C18_46  and  N11_47 
REMARK   16  A    between atoms: N11_47  and  C19_49 
ROOT
HETATM    1  C5  UNL     1      29.682   8.062  11.343  1.00  0.00     0.382 C 
HETATM    2  N3  UNL     1      31.090   7.859  10.943  1.00  0.00    -0.002 N 
ATOM      3  H31 UNL     1      31.313   6.888  10.726  1.00  0.00     0.285 HD
ATOM      4  H32 UNL     1      31.751   7.971  11.712  1.00  0.00     0.285 HD
HETATM    5  C6  UNL     1      31.335   8.782   9.822  1.00  0.00     0.429 C 
HETATM    6  N4  UNL     1      30.957  10.148  10.214  1.00  0.00    -0.337 N 
ATOM      7  H4  UNL     1      31.193  10.924   9.596  1.00  0.00     0.164 HD
HETATM    8  C7  UNL     1      30.277  10.416  11.423  1.00  0.00     0.104 A 
HETATM    9  C8  UNL     1      29.622   9.344  12.057  1.00  0.00     0.109 A 
HETATM   10  N5  UNL     1      28.989   9.551  13.211  1.00  0.00    -0.187 N 
ATOM     11  H5  UNL     1      28.519   8.766  13.662  1.00  0.00     0.184 HD
HETATM   12  C9  UNL     1      28.949  10.771  13.807  1.00  0.00     0.706 A 
HETATM   13  N9  UNL     1      29.596  11.802  13.170  1.00  0.00    -0.172 N 
ATOM     14  H9  UNL     1      29.585  12.729  13.595  1.00  0.00     0.186 HD
HETATM   15  C13 UNL     1      30.235  11.633  12.018  1.00  0.00     0.155 A 
ENDROOT
BRANCH   1  16
HETATM   16  N2  UNL     1      29.112   6.941  11.988  1.00  0.00    -0.084 N 
HETATM   17  N1  UNL     1      29.477   6.349  13.093  1.00  0.00    -0.267 N 
HETATM   18  C4  UNL     1      28.713   5.321  13.402  1.00  0.00     0.146 A 
ATOM     19  H1  UNL     1      30.271   6.651  13.658  1.00  0.00     0.189 HD
HETATM   20  N14 UNL     1      27.758   5.223  12.421  1.00  0.00    -0.174 N 
HETATM   21  C18 UNL     1      28.032   6.239  11.563  1.00  0.00     0.705 A 
ATOM     22  H14 UNL     1      27.006   4.537  12.351  1.00  0.00     0.185 HD
BRANCH  18  23
HETATM   23  C2  UNL     1      28.739   4.424  14.579  1.00  0.00     0.110 C 
HETATM   24  C1  UNL     1      29.866   3.442  14.479  1.00  0.00     0.054 C 
HETATM   25  C3  UNL     1      27.442   3.657  14.714  1.00  0.00     0.054 C 
BRANCH  23  26
HETATM   26  O1  UNL     1      28.816   5.197  15.766  1.00  0.00    -0.383 OA
ATOM     27  H1  UNL     1      28.788   6.129  15.584  1.00  0.00     0.211 HD
ENDBRANCH  23  26
ENDBRANCH  18  23
BRANCH  21  28
HETATM   28  N11 UNL     1      27.383   6.515  10.512  1.00  0.00    -0.160 N 
ATOM     29  H11 UNL     1      27.929   6.882   9.733  1.00  0.00     0.187 HD
BRANCH  28  30
HETATM   30  C19 UNL     1      26.002   6.377  10.285  1.00  0.00     0.190 C 
HETATM   31  N12 UNL     1      25.553   5.855   9.147  1.00  0.00    -0.360 N 
HETATM   32  C20 UNL     1      24.134   5.798   9.112  1.00  0.00     0.142 C 
ATOM     33  H12 UNL     1      26.156   5.534   8.390  1.00  0.00     0.162 HD
HETATM   34  C21 UNL     1      23.672   6.285  10.446  1.00  0.00     0.142 C 
HETATM   35  N13 UNL     1      24.906   6.745  11.101  1.00  0.00    -0.360 N 
ATOM     36  H13 UNL     1      24.962   7.243  11.990  1.00  0.00     0.162 HD
ENDBRANCH  28  30
ENDBRANCH  21  28
ENDBRANCH   1  16
BRANCH   5  37
HETATM   37  O2  UNL     1      30.467   8.390   8.810  1.00  0.00    -0.354 OA
ATOM     38  H2  UNL     1      30.024   9.182   8.527  1.00  0.00     0.214 HD
ENDBRANCH   5  37
BRANCH  15  39
HETATM   39  N10 UNL     1      30.840  12.819  11.302  1.00  0.00    -0.317 N 
BRANCH  39  40
HETATM   40  C14 UNL     1      29.937  13.487  10.446  1.00  0.00     0.121 C 
BRANCH  40  41
HETATM   41  C15 UNL     1      29.999  13.412   8.993  1.00  0.00     0.148 C 
BRANCH  41  42
HETATM   42  O4  UNL     1      30.608  12.390   8.341  1.00  0.00    -0.371 OA
ATOM     43  H4  UNL     1      30.137  11.802   7.761  1.00  0.00     0.216 HD
ENDBRANCH  41  42
ENDBRANCH  40  41
ENDBRANCH  39  40
BRANCH  39  44
HETATM   44  C16 UNL     1      32.182  13.001  11.671  1.00  0.00     0.097 C 
BRANCH  44  45
HETATM   45  C17 UNL     1      33.334  12.850  10.763  1.00  0.00     0.209 C 
BRANCH  45  46
HETATM   46  O5  UNL     1      33.218  12.022   9.676  1.00  0.00    -0.396 OA
ATOM     47  H5  UNL     1      33.997  11.597   9.337  1.00  0.00     0.209 HD
ENDBRANCH  45  46
ENDBRANCH  44  45
ENDBRANCH  39  44
ENDBRANCH  15  39
BRANCH  12  48
HETATM   48  N6  UNL     1      28.218  10.973  14.992  1.00  0.00    -0.081 N 
HETATM   49  C10 UNL     1      27.846  12.038  15.697  1.00  0.00     0.165 A 
HETATM   50  C11 UNL     1      27.110  11.578  16.838  1.00  0.00     0.068 A 
HETATM   51  N7  UNL     1      27.110  10.300  16.710  1.00  0.00    -0.286 N 
HETATM   52  N8  UNL     1      27.730   9.890  15.671  1.00  0.00    -0.222 N 
ATOM     53  H7  UNL     1      26.658   9.672  17.376  1.00  0.00     0.188 HD
ATOM     54  H8  UNL     1      27.843   8.915  15.392  1.00  0.00     0.209 HD
BRANCH  50  55
HETATM   55  C12 UNL     1      26.487  12.409  17.890  1.00  0.00     0.224 C 
BRANCH  55  56
HETATM   56  O3  UNL     1      25.110  12.443  17.641  1.00  0.00    -0.395 OA
ATOM     57  H3  UNL     1      24.722  13.058  18.252  1.00  0.00     0.209 HD
ENDBRANCH  55  56
ENDBRANCH  50  55
ENDBRANCH  12  48
TORSDOF 16
ENDMDL
MODEL 4
REMARK VINA RESULT: -7.536769587      3.240      8.851
REMARK  16 active torsions:
REMARK  status: ('A' for Active; 'I' for Inactive)
REMARK    1  A    between atoms: C2_2  and  O1_4 
REMARK    2  A    between atoms: C2_2  and  C4_6 
REMARK    3  A    between atoms: N2_9  and  C5_10 
REMARK    4  A    between atoms: C6_14  and  O2_15 
REMARK    5  A    between atoms: C9_23  and  N6_24 
REMARK    6  A    between atoms: C11_26  and  C12_27 
REMARK    7  A    between atoms: C12_27  and  O3_28 
REMARK    8  A    between atoms: C13_36  and  N10_37 
REMARK    9  A    between atoms: N10_37  and  C14_38 
REMARK   10  A    between atoms: N10_37  and  C16_42 
REMARK   11  A    between atoms: C14_38  and  C15_39 
REMARK   12  A    between atoms: C15_39  and  O4_40 
REMARK   13  A    between atoms: C16_42  and  C17_43 
REMARK   14  A    between atoms: C17_43  and  O5_44 
REMARK   15  A    between atoms: C18_46  and  N11_47 
REMARK   16  A    between atoms: N11_47  and  C19_49 
ROOT
HETATM    1  C5  UNL     1      29.676   8.053  11.348  1.00  0.00     0.382 C 
HETATM    2  N3  UNL     1      31.083   7.846  10.950  1.00  0.00    -0.002 N 
ATOM      3  H31 UNL     1      31.304   6.874  10.732  1.00  0.00     0.285 HD
ATOM      4  H32 UNL     1      31.743   7.954  11.722  1.00  0.00     0.285 HD
HETATM    5  C6  UNL     1      31.334   8.769   9.832  1.00  0.00     0.429 C 
HETATM    6  N4  UNL     1      30.961  10.136  10.225  1.00  0.00    -0.337 N 
ATOM      7  H4  UNL     1      31.201  10.912   9.608  1.00  0.00     0.164 HD
HETATM    8  C7  UNL     1      30.279  10.404  11.433  1.00  0.00     0.104 A 
HETATM    9  C8  UNL     1      29.618   9.334  12.063  1.00  0.00     0.109 A 
HETATM   10  N5  UNL     1      28.983   9.541  13.215  1.00  0.00    -0.187 N 
ATOM     11  H5  UNL     1      28.509   8.758  13.664  1.00  0.00     0.184 HD
HETATM   12  C9  UNL     1      28.946  10.761  13.814  1.00  0.00     0.706 A 
HETATM   13  N9  UNL     1      29.598  11.791  13.179  1.00  0.00    -0.172 N 
ATOM     14  H9  UNL     1      29.589  12.717  13.606  1.00  0.00     0.186 HD
HETATM   15  C13 UNL     1      30.239  11.621  12.029  1.00  0.00     0.155 A 
ENDROOT
BRANCH   1  16
HETATM   16  N2  UNL     1      29.099   6.933  11.989  1.00  0.00    -0.084 N 
HETATM   17  N1  UNL     1      29.447   6.351  13.105  1.00  0.00    -0.267 N 
HETATM   18  C4  UNL     1      28.683   5.321  13.406  1.00  0.00     0.146 A 
ATOM     19  H1  UNL     1      30.227   6.662  13.683  1.00  0.00     0.189 HD
HETATM   20  N14 UNL     1      27.748   5.210  12.408  1.00  0.00    -0.174 N 
HETATM   21  C18 UNL     1      28.033   6.221  11.548  1.00  0.00     0.705 A 
ATOM     22  H14 UNL     1      27.002   4.519  12.328  1.00  0.00     0.185 HD
BRANCH  18  23
HETATM   23  C2  UNL     1      28.691   4.432  14.591  1.00  0.00     0.110 C 
HETATM   24  C1  UNL     1      29.816   3.445  14.511  1.00  0.00     0.054 C 
HETATM   25  C3  UNL     1      27.391   3.671  14.715  1.00  0.00     0.054 C 
BRANCH  23  26
HETATM   26  O1  UNL     1      28.757   5.214  15.773  1.00  0.00    -0.383 OA
ATOM     27  H1  UNL     1      27.894   5.396  16.125  1.00  0.00     0.211 HD
ENDBRANCH  23  26
ENDBRANCH  18  23
BRANCH  21  28
HETATM   28  N11 UNL     1      27.402   6.485  10.483  1.00  0.00    -0.160 N 
ATOM     29  H11 UNL     1      27.956   6.879   9.722  1.00  0.00     0.187 HD
BRANCH  28  30
HETATM   30  C19 UNL     1      26.033   6.304  10.218  1.00  0.00     0.190 C 
HETATM   31  N12 UNL     1      25.114   6.817  11.030  1.00  0.00    -0.360 N 
HETATM   32  C20 UNL     1      23.795   6.530  10.588  1.00  0.00     0.142 C 
ATOM     33  H12 UNL     1      25.330   7.354  11.870  1.00  0.00     0.162 HD
HETATM   34  C21 UNL     1      23.946   5.808   9.291  1.00  0.00     0.142 C 
HETATM   35  N13 UNL     1      25.397   5.597   9.170  1.00  0.00    -0.360 N 
ATOM     36  H13 UNL     1      25.863   5.037   8.455  1.00  0.00     0.162 HD
ENDBRANCH  28  30
ENDBRANCH  21  28
ENDBRANCH   1  16
BRANCH   5  37
HETATM   37  O2  UNL     1      30.468   8.383   8.817  1.00  0.00    -0.354 OA
ATOM     38  H2  UNL     1      29.828   9.080   8.741  1.00  0.00     0.214 HD
ENDBRANCH   5  37
BRANCH  15  39
HETATM   39  N10 UNL     1      30.850  12.806  11.317  1.00  0.00    -0.317 N 
BRANCH  39  40
HETATM   40  C14 UNL     1      32.211  13.017  11.629  1.00  0.00     0.121 C 
BRANCH  40  41
HETATM   41  C15 UNL     1      33.293  12.856  10.667  1.00  0.00     0.148 C 
BRANCH  41  42
HETATM   42  O4  UNL     1      33.205  12.018   9.604  1.00  0.00    -0.371 OA
ATOM     43  H4  UNL     1      32.451  12.005   9.026  1.00  0.00     0.216 HD
ENDBRANCH  41  42
ENDBRANCH  40  41
ENDBRANCH  39  40
BRANCH  39  44
HETATM   44  C16 UNL     1      29.913  13.429  10.478  1.00  0.00     0.097 C 
BRANCH  44  45
HETATM   45  C17 UNL     1      29.962  13.418   9.004  1.00  0.00     0.209 C 
BRANCH  45  46
HETATM   46  O5  UNL     1      30.552  12.356   8.368  1.00  0.00    -0.396 OA
ATOM     47  H5  UNL     1      30.001  11.695   7.967  1.00  0.00     0.209 HD
ENDBRANCH  45  46
ENDBRANCH  44  45
ENDBRANCH  39  44
ENDBRANCH  15  39
BRANCH  12  48
HETATM   48  N6  UNL     1      28.213  10.964  14.997  1.00  0.00    -0.081 N 
HETATM   49  C10 UNL     1      27.839  12.029  15.700  1.00  0.00     0.165 A 
HETATM   50  C11 UNL     1      27.101  11.570  16.840  1.00  0.00     0.068 A 
HETATM   51  N7  UNL     1      27.102  10.292  16.714  1.00  0.00    -0.286 N 
HETATM   52  N8  UNL     1      27.724   9.880  15.676  1.00  0.00    -0.222 N 
ATOM     53  H7  UNL     1      26.649   9.664  17.379  1.00  0.00     0.188 HD
ATOM     54  H8  UNL     1      27.837   8.905  15.399  1.00  0.00     0.209 HD
BRANCH  50  55
HETATM   55  C12 UNL     1      26.475  12.401  17.890  1.00  0.00     0.224 C 
BRANCH  55  56
HETATM   56  O3  UNL     1      25.101  12.453  17.626  1.00  0.00    -0.395 OA
ATOM     57  H3  UNL     1      24.835  13.364  17.664  1.00  0.00     0.209 HD
ENDBRANCH  55  56
ENDBRANCH  50  55
ENDBRANCH  12  48
TORSDOF 16
ENDMDL
MODEL 5
REMARK VINA RESULT: -7.509477972      2.514      6.570
REMARK  16 active torsions:
REMARK  status: ('A' for Active; 'I' for Inactive)
REMARK    1  A    between atoms: C2_2  and  O1_4 
REMARK    2  A    between atoms: C2_2  and  C4_6 
REMARK    3  A    between atoms: N2_9  and  C5_10 
REMARK    4  A    between atoms: C6_14  and  O2_15 
REMARK    5  A    between atoms: C9_23  and  N6_24 
REMARK    6  A    between atoms: C11_26  and  C12_27 
REMARK    7  A    between atoms: C12_27  and  O3_28 
REMARK    8  A    between atoms: C13_36  and  N10_37 
REMARK    9  A    between atoms: N10_37  and  C14_38 
REMARK   10  A    between atoms: N10_37  and  C16_42 
REMARK   11  A    between atoms: C14_38  and  C15_39 
REMARK   12  A    between atoms: C15_39  and  O4_40 
REMARK   13  A    between atoms: C16_42  and  C17_43 
REMARK   14  A    between atoms: C17_43  and  O5_44 
REMARK   15  A    between atoms: C18_46  and  N11_47 
REMARK   16  A    between atoms: N11_47  and  C19_49 
ROOT
HETATM    1  C5  UNL     1      29.222   8.400  11.508  1.00  0.00     0.382 C 
HETATM    2  N3  UNL     1      29.326   9.480  10.505  1.00  0.00    -0.002 N 
ATOM      3  H31 UNL     1      28.430   9.737  10.093  1.00  0.00     0.285 HD
ATOM      4  H32 UNL     1      29.783   9.189   9.641  1.00  0.00     0.285 HD
HETATM    5  C6  UNL     1      30.005  10.600  11.177  1.00  0.00     0.429 C 
HETATM    6  N4  UNL     1      31.269  10.132  11.766  1.00  0.00    -0.337 N 
ATOM      7  H4  UNL     1      31.920  10.817  12.150  1.00  0.00     0.164 HD
HETATM    8  C7  UNL     1      31.605   8.761  11.816  1.00  0.00     0.104 A 
HETATM    9  C8  UNL     1      30.566   7.826  11.657  1.00  0.00     0.109 A 
HETATM   10  N5  UNL     1      30.845   6.524  11.675  1.00  0.00    -0.187 N 
ATOM     11  H5  UNL     1      30.084   5.855  11.558  1.00  0.00     0.184 HD
HETATM   12  C9  UNL     1      32.110   6.056  11.843  1.00  0.00     0.706 A 
HETATM   13  N9  UNL     1      33.108   6.988  11.997  1.00  0.00    -0.172 N 
ATOM     14  H9  UNL     1      34.067   6.666  12.123  1.00  0.00     0.186 HD
HETATM   15  C13 UNL     1      32.866   8.294  11.986  1.00  0.00     0.155 A 
ENDROOT
BRANCH   1  16
HETATM   16  N2  UNL     1      28.163   7.499  11.260  1.00  0.00    -0.084 N 
HETATM   17  N1  UNL     1      27.614   7.163  10.124  1.00  0.00    -0.267 N 
HETATM   18  C4  UNL     1      26.637   6.289  10.264  1.00  0.00     0.146 A 
ATOM     19  H1  UNL     1      27.910   7.537   9.222  1.00  0.00     0.189 HD
HETATM   20  N14 UNL     1      26.530   6.021  11.605  1.00  0.00    -0.174 N 
HETATM   21  C18 UNL     1      27.486   6.783  12.192  1.00  0.00     0.705 A 
ATOM     22  H14 UNL     1      25.875   5.386  12.062  1.00  0.00     0.185 HD
BRANCH  18  23
HETATM   23  C2  UNL     1      25.802   5.610   9.247  1.00  0.00     0.110 C 
HETATM   24  C1  UNL     1      26.343   5.841   7.869  1.00  0.00     0.054 C 
HETATM   25  C3  UNL     1      24.373   6.101   9.292  1.00  0.00     0.054 C 
BRANCH  23  26
HETATM   26  O1  UNL     1      25.710   4.227   9.553  1.00  0.00    -0.383 OA
ATOM     27  H1  UNL     1      26.239   3.995  10.306  1.00  0.00     0.211 HD
ENDBRANCH  23  26
ENDBRANCH  18  23
BRANCH  21  28
HETATM   28  N11 UNL     1      27.735   6.832  13.433  1.00  0.00    -0.160 N 
ATOM     29  H11 UNL     1      27.847   7.765  13.829  1.00  0.00     0.187 HD
BRANCH  28  30
HETATM   30  C19 UNL     1      27.877   5.760  14.332  1.00  0.00     0.190 C 
HETATM   31  N12 UNL     1      28.693   4.749  14.054  1.00  0.00    -0.360 N 
HETATM   32  C20 UNL     1      28.699   3.772  15.086  1.00  0.00     0.142 C 
ATOM     33  H12 UNL     1      29.249   4.681  13.202  1.00  0.00     0.162 HD
HETATM   34  C21 UNL     1      27.821   4.312  16.165  1.00  0.00     0.142 C 
HETATM   35  N13 UNL     1      27.238   5.527  15.573  1.00  0.00    -0.360 N 
ATOM     36  H13 UNL     1      26.503   6.100  15.986  1.00  0.00     0.162 HD
ENDBRANCH  28  30
ENDBRANCH  21  28
ENDBRANCH   1  16
BRANCH   5  37
HETATM   37  O2  UNL     1      29.175  10.974  12.227  1.00  0.00    -0.354 OA
ATOM     38  H2  UNL     1      29.506  11.809  12.537  1.00  0.00     0.214 HD
ENDBRANCH   5  37
BRANCH  15  39
HETATM   39  N10 UNL     1      33.980   9.277  12.265  1.00  0.00    -0.317 N 
BRANCH  39  40
HETATM   40  C14 UNL     1      34.204   9.506  13.640  1.00  0.00     0.121 C 
BRANCH  40  41
HETATM   41  C15 UNL     1      33.870  10.753  14.315  1.00  0.00     0.148 C 
BRANCH  41  42
HETATM   42  O4  UNL     1      32.751  11.462  14.023  1.00  0.00    -0.371 OA
ATOM     43  H4  UNL     1      32.571  12.312  14.409  1.00  0.00     0.216 HD
ENDBRANCH  41  42
ENDBRANCH  40  41
ENDBRANCH  39  40
BRANCH  39  44
HETATM   44  C16 UNL     1      34.560   9.734  11.071  1.00  0.00     0.097 C 
BRANCH  44  45
HETATM   45  C17 UNL     1      34.495  11.123  10.581  1.00  0.00     0.209 C 
BRANCH  45  46
HETATM   46  O5  UNL     1      33.513  11.951  11.060  1.00  0.00    -0.396 OA
ATOM     47  H5  UNL     1      33.347  12.773  10.614  1.00  0.00     0.209 HD
ENDBRANCH  45  46
ENDBRANCH  44  45
ENDBRANCH  39  44
ENDBRANCH  15  39
BRANCH  12  48
HETATM   48  N6  UNL     1      32.366   4.676  11.923  1.00  0.00    -0.081 N 
HETATM   49  C10 UNL     1      32.012   3.700  12.756  1.00  0.00     0.165 A 
HETATM   50  C11 UNL     1      32.615   2.484  12.295  1.00  0.00     0.068 A 
HETATM   51  N7  UNL     1      33.264   2.840  11.245  1.00  0.00    -0.286 N 
HETATM   52  N8  UNL     1      33.161   4.086  10.978  1.00  0.00    -0.222 N 
ATOM     53  H7  UNL     1      33.809   2.190  10.678  1.00  0.00     0.188 HD
ATOM     54  H8  UNL     1      33.600   4.563  10.190  1.00  0.00     0.209 HD
BRANCH  50  55
HETATM   55  C12 UNL     1      32.484   1.141  12.897  1.00  0.00     0.224 C 
BRANCH  55  56
HETATM   56  O3  UNL     1      31.875   1.295  14.148  1.00  0.00    -0.395 OA
ATOM     57  H3  UNL     1      31.236   0.599  14.245  1.00  0.00     0.209 HD
ENDBRANCH  55  56
ENDBRANCH  50  55
ENDBRANCH  12  48
TORSDOF 16
ENDMDL
