MODEL 1
REMARK VINA RESULT: -5.616702001      0.000      0.000
REMARK  15 active torsions:
REMARK  status: ('A' for Active; 'I' for Inactive)
REMARK    1  A    between atoms: C1_4  and  N2_5 
REMARK    2  A    between atoms: C1_4  and  O8_49 
REMARK    3  A    between atoms: N2_5  and  C2_7 
REMARK    4  A    between atoms: C4_12  and  N4_13 
REMARK    5  A    between atoms: C5_17  and  N5_18 
REMARK    6  A    between atoms: C7_21  and  N6_22 
REMARK    7  A    between atoms: C9_28  and  C10_29 
REMARK    8  A    between atoms: C12_34  and  O4_35 
REMARK    9  A    between atoms: C12_34  and  C13_37 
REMARK   10  A    between atoms: C13_37  and  O5_38 
REMARK   11  A    between atoms: C14_40  and  O6_41 
REMARK   12  A    between atoms: O6_41  and  C15_42 
REMARK   13  A    between atoms: O8_49  and  C17_50 
REMARK   14  A    between atoms: C17_50  and  C18_51 
REMARK   15  A    between atoms: C18_51  and  N10_52 
ROOT
HETATM    1  C2  UNL     1      13.961  -4.205  18.370  1.00  0.00     0.489 C 
HETATM    2  N3  UNL     1      14.910  -3.292  17.768  1.00  0.00    -0.020 N 
ATOM      3  H31 UNL     1      15.629  -2.975  18.419  1.00  0.00     0.282 HD
ATOM      4  H32 UNL     1      14.509  -2.377  17.561  1.00  0.00     0.282 HD
HETATM    5  C3  UNL     1      15.453  -3.952  16.598  1.00  0.00     0.255 C 
HETATM    6  C4  UNL     1      16.685  -4.819  16.889  1.00  0.00     0.240 C 
HETATM    7  C5  UNL     1      16.018  -5.939  16.101  1.00  0.00     0.147 C 
HETATM    8  C16 UNL     1      14.687  -5.247  16.433  1.00  0.00     0.247 C 
HETATM    9  N9  UNL     1      14.241  -5.494  17.784  1.00  0.00    -0.020 N 
ATOM     10  H91 UNL     1      13.453  -6.139  17.836  1.00  0.00     0.282 HD
ATOM     11  H92 UNL     1      14.899  -6.050  18.329  1.00  0.00     0.282 HD
ENDROOT
BRANCH   7  12
HETATM   12  N5  UNL     1      16.321  -5.977  14.725  1.00  0.00    -0.383 N 
HETATM   13  C6  UNL     1      16.786  -6.904  14.028  1.00  0.00     0.054 C 
HETATM   14  C7  UNL     1      17.123  -8.239  14.611  1.00  0.00     0.301 C 
HETATM   15  C14 UNL     1      16.964  -6.559  12.585  1.00  0.00     0.225 C 
HETATM   16  C8  UNL     1      18.107  -8.953  13.736  1.00  0.00     0.182 C 
HETATM   17  O1  UNL     1      17.729  -9.989  13.242  1.00  0.00    -0.294 OA
HETATM   18  C9  UNL     1      19.479  -8.439  13.473  1.00  0.00     0.219 C 
HETATM   19  C11 UNL     1      19.353  -7.025  13.050  1.00  0.00     0.186 C 
HETATM   20  O3  UNL     1      20.219  -6.280  13.504  1.00  0.00    -0.293 OA
HETATM   21  C12 UNL     1      18.381  -6.331  12.179  1.00  0.00     0.172 C 
ATOM     22  H5  UNL     1      16.131  -5.113  14.219  1.00  0.00     0.159 HD
BRANCH  14  23
HETATM   23  N6  UNL     1      17.836  -8.092  15.891  1.00  0.00    -0.063 N 
ATOM     24  H63 UNL     1      18.826  -8.315  15.796  1.00  0.00     0.275 HD
ATOM     25  H62 UNL     1      17.924  -7.112  16.162  1.00  0.00     0.275 HD
ATOM     26  H61 UNL     1      17.393  -8.647  16.623  1.00  0.00     0.275 HD
ENDBRANCH  14  23
BRANCH  18  27
HETATM   27  C10 UNL     1      20.209  -9.239  12.469  1.00  0.00     0.249 C 
HETATM   28  N7  UNL     1      21.090 -10.299  12.849  1.00  0.00    -0.061 NA
HETATM   29  O2  UNL     1      20.086  -9.021  11.256  1.00  0.00    -0.276 OA
ENDBRANCH  18  27
BRANCH  21  30
HETATM   30  O4  UNL     1      18.563  -6.844  10.872  1.00  0.00    -0.377 OA
ATOM     31  H4  UNL     1      18.146  -7.696  10.850  1.00  0.00     0.211 HD
ENDBRANCH  21  30
BRANCH  21  32
HETATM   32  C13 UNL     1      18.708  -4.850  12.057  1.00  0.00     0.213 C 
BRANCH  32  33
HETATM   33  O5  UNL     1      18.324  -4.336  10.840  1.00  0.00    -0.397 OA
ATOM     34  H5  UNL     1      19.069  -4.160  10.276  1.00  0.00     0.209 HD
ENDBRANCH  32  33
ENDBRANCH  21  32
BRANCH  15  35
HETATM   35  O6  UNL     1      16.446  -7.634  11.805  1.00  0.00    -0.291 OA
BRANCH  35  36
HETATM   36  C15 UNL     1      15.154  -7.626  11.302  1.00  0.00     0.373 C 
HETATM   37  N8  UNL     1      14.854  -8.276  10.088  1.00  0.00    -0.032 NA
HETATM   38  O7  UNL     1      14.281  -7.011  11.991  1.00  0.00    -0.242 OA
ENDBRANCH  35  36
ENDBRANCH  15  35
ENDBRANCH   7  12
BRANCH   6  39
HETATM   39  N4  UNL     1      16.737  -5.059  18.320  1.00  0.00    -0.071 N 
ATOM     40  H43 UNL     1      15.831  -5.318  18.710  1.00  0.00     0.274 HD
ATOM     41  H42 UNL     1      17.239  -5.914  18.558  1.00  0.00     0.274 HD
ATOM     42  H41 UNL     1      17.135  -4.231  18.764  1.00  0.00     0.274 HD
ENDBRANCH   6  39
BRANCH   1  43
HETATM   43  N2  UNL     1      14.094  -4.258  19.822  1.00  0.00    -0.307 N 
ATOM     44  H2  UNL     1      14.488  -3.460  20.321  1.00  0.00     0.166 HD
BRANCH  43  45
HETATM   45  C1  UNL     1      13.682  -5.408  20.549  1.00  0.00     0.215 C 
HETATM   46  N1  UNL     1      14.413  -5.825  21.538  1.00  0.00    -0.365 N 
ATOM     47  H12 UNL     1      15.262  -5.302  21.752  1.00  0.00     0.159 HD
ATOM     48  H11 UNL     1      14.117  -6.650  22.060  1.00  0.00     0.159 HD
BRANCH  45  49
HETATM   49  O8  UNL     1      12.527  -6.119  20.258  1.00  0.00    -0.321 OA
BRANCH  49  50
HETATM   50  C17 UNL     1      12.139  -7.207  21.074  1.00  0.00     0.206 C 
BRANCH  50  51
HETATM   51  C18 UNL     1      10.864  -7.828  20.514  1.00  0.00     0.256 C 
BRANCH  51  52
HETATM   52  N10 UNL     1      10.645  -7.270  19.183  1.00  0.00    -0.077 N 
ATOM     53 3H10 UNL     1       9.752  -6.783  19.100  1.00  0.00     0.274 HD
ATOM     54 2H10 UNL     1      11.250  -6.474  18.982  1.00  0.00     0.274 HD
ATOM     55 1H10 UNL     1      10.748  -8.027  18.507  1.00  0.00     0.274 HD
ENDBRANCH  51  52
ENDBRANCH  50  51
ENDBRANCH  49  50
ENDBRANCH  45  49
ENDBRANCH  43  45
ENDBRANCH   1  43
TORSDOF 15
ENDMDL
MODEL 2
REMARK VINA RESULT: -5.506094999      7.238      9.721
REMARK  15 active torsions:
REMARK  status: ('A' for Active; 'I' for Inactive)
REMARK    1  A    between atoms: C1_4  and  N2_5 
REMARK    2  A    between atoms: C1_4  and  O8_49 
REMARK    3  A    between atoms: N2_5  and  C2_7 
REMARK    4  A    between atoms: C4_12  and  N4_13 
REMARK    5  A    between atoms: C5_17  and  N5_18 
REMARK    6  A    between atoms: C7_21  and  N6_22 
REMARK    7  A    between atoms: C9_28  and  C10_29 
REMARK    8  A    between atoms: C12_34  and  O4_35 
REMARK    9  A    between atoms: C12_34  and  C13_37 
REMARK   10  A    between atoms: C13_37  and  O5_38 
REMARK   11  A    between atoms: C14_40  and  O6_41 
REMARK   12  A    between atoms: O6_41  and  C15_42 
REMARK   13  A    between atoms: O8_49  and  C17_50 
REMARK   14  A    between atoms: C17_50  and  C18_51 
REMARK   15  A    between atoms: C18_51  and  N10_52 
ROOT
HETATM    1  C2  UNL     1      20.695   4.775  13.180  1.00  0.00     0.489 C 
HETATM    2  N3  UNL     1      21.524   4.233  14.236  1.00  0.00    -0.020 N 
ATOM      3  H31 UNL     1      21.106   4.329  15.162  1.00  0.00     0.282 HD
ATOM      4  H32 UNL     1      22.362   4.788  14.413  1.00  0.00     0.282 HD
HETATM    5  C3  UNL     1      21.817   2.859  13.885  1.00  0.00     0.255 C 
HETATM    6  C4  UNL     1      20.770   1.853  14.381  1.00  0.00     0.240 C 
HETATM    7  C5  UNL     1      20.748   1.262  12.978  1.00  0.00     0.147 C 
HETATM    8  C16 UNL     1      21.251   2.633  12.499  1.00  0.00     0.247 C 
HETATM    9  N9  UNL     1      20.211   3.632  12.445  1.00  0.00    -0.020 N 
ATOM     10  H91 UNL     1      19.919   3.859  11.494  1.00  0.00     0.282 HD
ATOM     11  H92 UNL     1      19.309   3.291  12.778  1.00  0.00     0.282 HD
ENDROOT
BRANCH   7  12
HETATM   12  N5  UNL     1      21.650   0.204  12.749  1.00  0.00    -0.383 N 
HETATM   13  C6  UNL     1      21.444  -0.955  12.331  1.00  0.00     0.054 C 
HETATM   14  C7  UNL     1      20.072  -1.435  11.979  1.00  0.00     0.301 C 
HETATM   15  C14 UNL     1      22.674  -1.796  12.215  1.00  0.00     0.225 C 
HETATM   16  C8  UNL     1      20.023  -2.933  12.018  1.00  0.00     0.182 C 
HETATM   17  O1  UNL     1      19.779  -3.486  10.971  1.00  0.00    -0.294 OA
HETATM   18  C9  UNL     1      20.254  -3.719  13.260  1.00  0.00     0.219 C 
HETATM   19  C11 UNL     1      21.516  -3.236  13.867  1.00  0.00     0.186 C 
HETATM   20  O3  UNL     1      21.491  -3.152  15.092  1.00  0.00    -0.293 OA
HETATM   21  C12 UNL     1      22.811  -2.833  13.277  1.00  0.00     0.172 C 
ATOM     22  H5  UNL     1      22.625   0.418  12.958  1.00  0.00     0.159 HD
BRANCH  14  23
HETATM   23  N6  UNL     1      19.092  -1.027  12.999  1.00  0.00    -0.063 N 
ATOM     24  H63 UNL     1      19.548  -0.688  13.845  1.00  0.00     0.275 HD
ATOM     25  H62 UNL     1      18.605  -0.171  12.731  1.00  0.00     0.275 HD
ATOM     26  H61 UNL     1      18.437  -1.783  13.202  1.00  0.00     0.275 HD
ENDBRANCH  14  23
BRANCH  18  27
HETATM   27  C10 UNL     1      20.295  -5.176  13.018  1.00  0.00     0.249 C 
HETATM   28  N7  UNL     1      19.106  -5.969  13.011  1.00  0.00    -0.061 NA
HETATM   29  O2  UNL     1      21.364  -5.766  12.812  1.00  0.00    -0.276 OA
ENDBRANCH  18  27
BRANCH  21  30
HETATM   30  O4  UNL     1      23.378  -3.996  12.702  1.00  0.00    -0.377 OA
ATOM     31  H4  UNL     1      24.208  -3.737  12.321  1.00  0.00     0.211 HD
ENDBRANCH  21  30
BRANCH  21  32
HETATM   32  C13 UNL     1      23.803  -2.419  14.355  1.00  0.00     0.213 C 
BRANCH  32  33
HETATM   33  O5  UNL     1      23.550  -1.153  14.829  1.00  0.00    -0.397 OA
ATOM     34  H5  UNL     1      24.261  -0.825  15.367  1.00  0.00     0.209 HD
ENDBRANCH  32  33
ENDBRANCH  21  32
BRANCH  15  35
HETATM   35  O6  UNL     1      22.641  -2.455  10.951  1.00  0.00    -0.291 OA
BRANCH  35  36
HETATM   36  C15 UNL     1      23.502  -2.116   9.919  1.00  0.00     0.373 C 
HETATM   37  N8  UNL     1      24.403  -3.064   9.396  1.00  0.00    -0.032 NA
HETATM   38  O7  UNL     1      23.425  -0.923   9.485  1.00  0.00    -0.242 OA
ENDBRANCH  35  36
ENDBRANCH  15  35
ENDBRANCH   7  12
BRANCH   6  39
HETATM   39  N4  UNL     1      19.569   2.590  14.727  1.00  0.00    -0.071 N 
ATOM     40  H43 UNL     1      19.662   3.109  15.601  1.00  0.00     0.274 HD
ATOM     41  H42 UNL     1      19.403   3.386  14.112  1.00  0.00     0.274 HD
ATOM     42  H41 UNL     1      18.788   1.933  14.741  1.00  0.00     0.274 HD
ENDBRANCH   6  39
BRANCH   1  43
HETATM   43  N2  UNL     1      19.583   5.562  13.703  1.00  0.00    -0.307 N 
ATOM     44  H2  UNL     1      18.798   5.792  13.093  1.00  0.00     0.166 HD
BRANCH  43  45
HETATM   45  C1  UNL     1      19.580   6.013  15.052  1.00  0.00     0.215 C 
HETATM   46  N1  UNL     1      19.769   7.274  15.297  1.00  0.00    -0.365 N 
ATOM     47  H12 UNL     1      19.913   7.894  14.500  1.00  0.00     0.159 HD
ATOM     48  H11 UNL     1      19.767   7.596  16.264  1.00  0.00     0.159 HD
BRANCH  45  49
HETATM   49  O8  UNL     1      19.385   5.169  16.135  1.00  0.00    -0.321 OA
BRANCH  49  50
HETATM   50  C17 UNL     1      20.056   5.415  17.356  1.00  0.00     0.206 C 
BRANCH  50  51
HETATM   51  C18 UNL     1      20.554   4.094  17.933  1.00  0.00     0.256 C 
BRANCH  51  52
HETATM   52  N10 UNL     1      19.388   3.322  18.351  1.00  0.00    -0.077 N 
ATOM     53 3H10 UNL     1      18.604   3.910  18.635  1.00  0.00     0.274 HD
ATOM     54 2H10 UNL     1      18.926   2.850  17.574  1.00  0.00     0.274 HD
ATOM     55 1H10 UNL     1      19.687   2.679  19.084  1.00  0.00     0.274 HD
ENDBRANCH  51  52
ENDBRANCH  50  51
ENDBRANCH  49  50
ENDBRANCH  45  49
ENDBRANCH  43  45
ENDBRANCH   1  43
TORSDOF 15
ENDMDL
MODEL 3
REMARK VINA RESULT: -5.444639948      1.512      2.335
REMARK  15 active torsions:
REMARK  status: ('A' for Active; 'I' for Inactive)
REMARK    1  A    between atoms: C1_4  and  N2_5 
REMARK    2  A    between atoms: C1_4  and  O8_49 
REMARK    3  A    between atoms: N2_5  and  C2_7 
REMARK    4  A    between atoms: C4_12  and  N4_13 
REMARK    5  A    between atoms: C5_17  and  N5_18 
REMARK    6  A    between atoms: C7_21  and  N6_22 
REMARK    7  A    between atoms: C9_28  and  C10_29 
REMARK    8  A    between atoms: C12_34  and  O4_35 
REMARK    9  A    between atoms: C12_34  and  C13_37 
REMARK   10  A    between atoms: C13_37  and  O5_38 
REMARK   11  A    between atoms: C14_40  and  O6_41 
REMARK   12  A    between atoms: O6_41  and  C15_42 
REMARK   13  A    between atoms: O8_49  and  C17_50 
REMARK   14  A    between atoms: C17_50  and  C18_51 
REMARK   15  A    between atoms: C18_51  and  N10_52 
ROOT
HETATM    1  C2  UNL     1      13.799  -4.585  18.573  1.00  0.00     0.489 C 
HETATM    2  N3  UNL     1      14.147  -3.464  17.724  1.00  0.00    -0.020 N 
ATOM      3  H31 UNL     1      14.658  -2.732  18.218  1.00  0.00     0.282 HD
ATOM      4  H32 UNL     1      13.340  -2.901  17.454  1.00  0.00     0.282 HD
HETATM    5  C3  UNL     1      14.872  -3.998  16.590  1.00  0.00     0.255 C 
HETATM    6  C4  UNL     1      16.385  -4.115  16.818  1.00  0.00     0.240 C 
HETATM    7  C5  UNL     1      16.303  -5.541  16.292  1.00  0.00     0.147 C 
HETATM    8  C16 UNL     1      14.825  -5.507  16.712  1.00  0.00     0.247 C 
HETATM    9  N9  UNL     1      14.636  -5.675  18.134  1.00  0.00    -0.020 N 
ATOM     10  H91 UNL     1      14.266  -6.592  18.384  1.00  0.00     0.282 HD
ATOM     11  H92 UNL     1      15.512  -5.744  18.651  1.00  0.00     0.282 HD
ENDROOT
BRANCH   7  12
HETATM   12  N5  UNL     1      16.504  -5.690  14.905  1.00  0.00    -0.383 N 
HETATM   13  C6  UNL     1      16.938  -6.664  14.254  1.00  0.00     0.054 C 
HETATM   14  C7  UNL     1      17.348  -7.939  14.919  1.00  0.00     0.301 C 
HETATM   15  C14 UNL     1      17.002  -6.438  12.778  1.00  0.00     0.225 C 
HETATM   16  C8  UNL     1      18.282  -8.707  14.034  1.00  0.00     0.182 C 
HETATM   17  O1  UNL     1      17.893  -9.788  13.657  1.00  0.00    -0.294 OA
HETATM   18  C9  UNL     1      19.619  -8.194  13.627  1.00  0.00     0.219 C 
HETATM   19  C11 UNL     1      19.429  -6.823  13.099  1.00  0.00     0.186 C 
HETATM   20  O3  UNL     1      20.308  -6.028  13.424  1.00  0.00    -0.293 OA
HETATM   21  C12 UNL     1      18.380  -6.222  12.250  1.00  0.00     0.172 C 
ATOM     22  H5  UNL     1      16.258  -4.875  14.346  1.00  0.00     0.159 HD
BRANCH  14  23
HETATM   23  N6  UNL     1      18.150  -7.673  16.125  1.00  0.00    -0.063 N 
ATOM     24  H63 UNL     1      18.537  -6.729  16.117  1.00  0.00     0.275 HD
ATOM     25  H62 UNL     1      17.564  -7.594  16.956  1.00  0.00     0.275 HD
ATOM     26  H61 UNL     1      18.878  -8.377  16.244  1.00  0.00     0.275 HD
ENDBRANCH  14  23
BRANCH  18  27
HETATM   27  C10 UNL     1      20.291  -9.064  12.641  1.00  0.00     0.249 C 
HETATM   28  N7  UNL     1      21.292 -10.007  13.031  1.00  0.00    -0.061 NA
HETATM   29  O2  UNL     1      20.014  -9.007  11.435  1.00  0.00    -0.276 OA
ENDBRANCH  18  27
BRANCH  21  30
HETATM   30  O4  UNL     1      18.478  -6.839  10.979  1.00  0.00    -0.377 OA
ATOM     31  H4  UNL     1      18.709  -6.158  10.360  1.00  0.00     0.211 HD
ENDBRANCH  21  30
BRANCH  21  32
HETATM   32  C13 UNL     1      18.662  -4.750  11.981  1.00  0.00     0.213 C 
BRANCH  32  33
HETATM   33  O5  UNL     1      18.339  -4.390  10.694  1.00  0.00    -0.397 OA
ATOM     34  H5  UNL     1      18.029  -3.493  10.642  1.00  0.00     0.209 HD
ENDBRANCH  32  33
ENDBRANCH  21  32
BRANCH  15  35
HETATM   35  O6  UNL     1      16.453  -7.584  12.131  1.00  0.00    -0.291 OA
BRANCH  35  36
HETATM   36  C15 UNL     1      15.206  -7.564  11.527  1.00  0.00     0.373 C 
HETATM   37  N8  UNL     1      14.068  -7.146  12.245  1.00  0.00    -0.032 NA
HETATM   38  O7  UNL     1      15.158  -7.936  10.312  1.00  0.00    -0.242 OA
ENDBRANCH  35  36
ENDBRANCH  15  35
ENDBRANCH   7  12
BRANCH   6  39
HETATM   39  N4  UNL     1      16.631  -4.029  18.246  1.00  0.00    -0.071 N 
ATOM     40  H43 UNL     1      16.253  -4.824  18.761  1.00  0.00     0.274 HD
ATOM     41  H42 UNL     1      17.613  -4.165  18.486  1.00  0.00     0.274 HD
ATOM     42  H41 UNL     1      16.264  -3.136  18.576  1.00  0.00     0.274 HD
ENDBRANCH   6  39
BRANCH   1  43
HETATM   43  N2  UNL     1      14.026  -4.296  19.985  1.00  0.00    -0.307 N 
ATOM     44  H2  UNL     1      13.698  -3.413  20.377  1.00  0.00     0.166 HD
BRANCH  43  45
HETATM   45  C1  UNL     1      14.697  -5.230  20.821  1.00  0.00     0.215 C 
HETATM   46  N1  UNL     1      14.050  -5.777  21.804  1.00  0.00    -0.365 N 
ATOM     47  H12 UNL     1      13.074  -5.510  21.935  1.00  0.00     0.159 HD
ATOM     48  H11 UNL     1      14.532  -6.448  22.403  1.00  0.00     0.159 HD
BRANCH  45  49
HETATM   49  O8  UNL     1      16.024  -5.594  20.642  1.00  0.00    -0.321 OA
BRANCH  49  50
HETATM   50  C17 UNL     1      16.953  -5.428  21.696  1.00  0.00     0.206 C 
BRANCH  50  51
HETATM   51  C18 UNL     1      17.331  -3.955  21.808  1.00  0.00     0.256 C 
BRANCH  51  52
HETATM   52  N10 UNL     1      18.651  -3.787  21.205  1.00  0.00    -0.077 N 
ATOM     53 3H10 UNL     1      19.403  -3.778  21.894  1.00  0.00     0.274 HD
ATOM     54 2H10 UNL     1      18.956  -4.609  20.684  1.00  0.00     0.274 HD
ATOM     55 1H10 UNL     1      18.627  -2.942  20.634  1.00  0.00     0.274 HD
ENDBRANCH  51  52
ENDBRANCH  50  51
ENDBRANCH  49  50
ENDBRANCH  45  49
ENDBRANCH  43  45
ENDBRANCH   1  43
TORSDOF 15
ENDMDL
MODEL 4
REMARK VINA RESULT: -5.444468389      4.458      9.456
REMARK  15 active torsions:
REMARK  status: ('A' for Active; 'I' for Inactive)
REMARK    1  A    between atoms: C1_4  and  N2_5 
REMARK    2  A    between atoms: C1_4  and  O8_49 
REMARK    3  A    between atoms: N2_5  and  C2_7 
REMARK    4  A    between atoms: C4_12  and  N4_13 
REMARK    5  A    between atoms: C5_17  and  N5_18 
REMARK    6  A    between atoms: C7_21  and  N6_22 
REMARK    7  A    between atoms: C9_28  and  C10_29 
REMARK    8  A    between atoms: C12_34  and  O4_35 
REMARK    9  A    between atoms: C12_34  and  C13_37 
REMARK   10  A    between atoms: C13_37  and  O5_38 
REMARK   11  A    between atoms: C14_40  and  O6_41 
REMARK   12  A    between atoms: O6_41  and  C15_42 
REMARK   13  A    between atoms: O8_49  and  C17_50 
REMARK   14  A    between atoms: C17_50  and  C18_51 
REMARK   15  A    between atoms: C18_51  and  N10_52 
ROOT
HETATM    1  C2  UNL     1      20.628  -2.746  11.291  1.00  0.00     0.489 C 
HETATM    2  N3  UNL     1      21.293  -3.473  12.352  1.00  0.00    -0.020 N 
ATOM      3  H31 UNL     1      22.048  -2.943  12.788  1.00  0.00     0.282 HD
ATOM      4  H32 UNL     1      21.859  -4.250  12.011  1.00  0.00     0.282 HD
HETATM    5  C3  UNL     1      20.270  -3.884  13.292  1.00  0.00     0.255 C 
HETATM    6  C4  UNL     1      19.971  -2.845  14.380  1.00  0.00     0.240 C 
HETATM    7  C5  UNL     1      18.491  -3.024  14.072  1.00  0.00     0.147 C 
HETATM    8  C16 UNL     1      18.938  -3.501  12.682  1.00  0.00     0.247 C 
HETATM    9  N9  UNL     1      19.321  -2.419  11.807  1.00  0.00    -0.020 N 
ATOM     10  H91 UNL     1      18.635  -2.231  11.076  1.00  0.00     0.282 HD
ATOM     11  H92 UNL     1      19.283  -1.505  12.258  1.00  0.00     0.282 HD
ENDROOT
BRANCH   7  12
HETATM   12  N5  UNL     1      17.827  -4.007  14.833  1.00  0.00    -0.383 N 
HETATM   13  C6  UNL     1      16.973  -3.885  15.738  1.00  0.00     0.054 C 
HETATM   14  C7  UNL     1      16.487  -2.545  16.190  1.00  0.00     0.301 C 
HETATM   15  C14 UNL     1      16.494  -5.180  16.310  1.00  0.00     0.225 C 
HETATM   16  C8  UNL     1      15.908  -2.643  17.569  1.00  0.00     0.182 C 
HETATM   17  O1  UNL     1      14.732  -2.382  17.673  1.00  0.00    -0.294 OA
HETATM   18  C9  UNL     1      16.711  -3.034  18.759  1.00  0.00     0.219 C 
HETATM   19  C11 UNL     1      17.433  -4.283  18.421  1.00  0.00     0.186 C 
HETATM   20  O3  UNL     1      18.584  -4.335  18.845  1.00  0.00    -0.293 OA
HETATM   21  C12 UNL     1      17.031  -5.488  17.666  1.00  0.00     0.172 C 
ATOM     22  H5  UNL     1      18.082  -4.968  14.610  1.00  0.00     0.159 HD
BRANCH  14  23
HETATM   23  N6  UNL     1      17.607  -1.602  16.348  1.00  0.00    -0.063 N 
ATOM     24  H63 UNL     1      17.338  -0.789  16.901  1.00  0.00     0.275 HD
ATOM     25  H62 UNL     1      18.329  -1.976  16.964  1.00  0.00     0.275 HD
ATOM     26  H61 UNL     1      17.989  -1.331  15.442  1.00  0.00     0.275 HD
ENDBRANCH  14  23
BRANCH  18  27
HETATM   27  C10 UNL     1      15.890  -3.199  19.976  1.00  0.00     0.249 C 
HETATM   28  N7  UNL     1      15.926  -2.245  21.040  1.00  0.00    -0.061 NA
HETATM   29  O2  UNL     1      15.138  -4.173  20.121  1.00  0.00    -0.276 OA
ENDBRANCH  18  27
BRANCH  21  30
HETATM   30  O4  UNL     1      16.015  -6.124  18.420  1.00  0.00    -0.377 OA
ATOM     31  H4  UNL     1      16.075  -7.053  18.233  1.00  0.00     0.211 HD
ENDBRANCH  21  30
BRANCH  21  32
HETATM   32  C13 UNL     1      18.160  -6.508  17.612  1.00  0.00     0.213 C 
BRANCH  32  33
HETATM   33  O5  UNL     1      19.117  -6.169  16.684  1.00  0.00    -0.397 OA
ATOM     34  H5  UNL     1      18.743  -6.026  15.822  1.00  0.00     0.209 HD
ENDBRANCH  32  33
ENDBRANCH  21  32
BRANCH  15  35
HETATM   35  O6  UNL     1      15.071  -5.124  16.398  1.00  0.00    -0.291 OA
BRANCH  35  36
HETATM   36  C15 UNL     1      14.257  -6.076  15.805  1.00  0.00     0.373 C 
HETATM   37  N8  UNL     1      13.301  -5.700  14.840  1.00  0.00    -0.032 NA
HETATM   38  O7  UNL     1      14.427  -7.279  16.177  1.00  0.00    -0.242 OA
ENDBRANCH  35  36
ENDBRANCH  15  35
ENDBRANCH   7  12
BRANCH   6  39
HETATM   39  N4  UNL     1      20.512  -1.570  13.944  1.00  0.00    -0.071 N 
ATOM     40  H43 UNL     1      21.371  -1.318  14.433  1.00  0.00     0.274 HD
ATOM     41  H42 UNL     1      20.897  -1.608  13.001  1.00  0.00     0.274 HD
ATOM     42  H41 UNL     1      19.780  -0.866  14.045  1.00  0.00     0.274 HD
ENDBRANCH   6  39
BRANCH   1  43
HETATM   43  N2  UNL     1      21.353  -1.536  10.915  1.00  0.00    -0.307 N 
ATOM     44  H2  UNL     1      20.870  -0.638  10.922  1.00  0.00     0.166 HD
BRANCH  43  45
HETATM   45  C1  UNL     1      22.723  -1.595  10.539  1.00  0.00     0.215 C 
HETATM   46  N1  UNL     1      23.426  -0.503  10.541  1.00  0.00    -0.365 N 
ATOM     47  H12 UNL     1      22.957   0.360  10.815  1.00  0.00     0.159 HD
ATOM     48  H11 UNL     1      24.409  -0.546  10.271  1.00  0.00     0.159 HD
BRANCH  45  49
HETATM   49  O8  UNL     1      23.359  -2.770  10.165  1.00  0.00    -0.321 OA
BRANCH  49  50
HETATM   50  C17 UNL     1      24.551  -2.719   9.405  1.00  0.00     0.206 C 
BRANCH  50  51
HETATM   51  C18 UNL     1      25.430  -3.912   9.767  1.00  0.00     0.256 C 
BRANCH  51  52
HETATM   52  N10 UNL     1      24.925  -5.073   9.041  1.00  0.00    -0.077 N 
ATOM     53 3H10 UNL     1      24.055  -4.883   8.545  1.00  0.00     0.274 HD
ATOM     54 2H10 UNL     1      25.494  -5.311   8.228  1.00  0.00     0.274 HD
ATOM     55 1H10 UNL     1      24.843  -5.844   9.705  1.00  0.00     0.274 HD
ENDBRANCH  51  52
ENDBRANCH  50  51
ENDBRANCH  49  50
ENDBRANCH  45  49
ENDBRANCH  43  45
ENDBRANCH   1  43
TORSDOF 15
ENDMDL
MODEL 5
REMARK VINA RESULT: -5.421971102      1.206      1.582
REMARK  15 active torsions:
REMARK  status: ('A' for Active; 'I' for Inactive)
REMARK    1  A    between atoms: C1_4  and  N2_5 
REMARK    2  A    between atoms: C1_4  and  O8_49 
REMARK    3  A    between atoms: N2_5  and  C2_7 
REMARK    4  A    between atoms: C4_12  and  N4_13 
REMARK    5  A    between atoms: C5_17  and  N5_18 
REMARK    6  A    between atoms: C7_21  and  N6_22 
REMARK    7  A    between atoms: C9_28  and  C10_29 
REMARK    8  A    between atoms: C12_34  and  O4_35 
REMARK    9  A    between atoms: C12_34  and  C13_37 
REMARK   10  A    between atoms: C13_37  and  O5_38 
REMARK   11  A    between atoms: C14_40  and  O6_41 
REMARK   12  A    between atoms: O6_41  and  C15_42 
REMARK   13  A    between atoms: O8_49  and  C17_50 
REMARK   14  A    between atoms: C17_50  and  C18_51 
REMARK   15  A    between atoms: C18_51  and  N10_52 
ROOT
HETATM    1  C2  UNL     1      13.611  -4.579  18.531  1.00  0.00     0.489 C 
HETATM    2  N3  UNL     1      14.236  -3.487  17.817  1.00  0.00    -0.020 N 
ATOM      3  H31 UNL     1      14.855  -2.926  18.404  1.00  0.00     0.282 HD
ATOM      4  H32 UNL     1      13.582  -2.743  17.569  1.00  0.00     0.282 HD
HETATM    5  C3  UNL     1      14.908  -4.058  16.667  1.00  0.00     0.255 C 
HETATM    6  C4  UNL     1      16.346  -4.512  16.949  1.00  0.00     0.240 C 
HETATM    7  C5  UNL     1      16.005  -5.836  16.278  1.00  0.00     0.147 C 
HETATM    8  C16 UNL     1      14.542  -5.527  16.634  1.00  0.00     0.247 C 
HETATM    9  N9  UNL     1      14.231  -5.779  18.021  1.00  0.00    -0.020 N 
ATOM     10  H91 UNL     1      13.664  -6.615  18.161  1.00  0.00     0.282 HD
ATOM     11  H92 UNL     1      15.039  -6.078  18.567  1.00  0.00     0.282 HD
ENDROOT
BRANCH   7  12
HETATM   12  N5  UNL     1      16.260  -5.899  14.894  1.00  0.00    -0.383 N 
HETATM   13  C6  UNL     1      16.719  -6.832  14.201  1.00  0.00     0.054 C 
HETATM   14  C7  UNL     1      17.103  -8.147  14.801  1.00  0.00     0.301 C 
HETATM   15  C14 UNL     1      16.841  -6.515  12.746  1.00  0.00     0.225 C 
HETATM   16  C8  UNL     1      18.071  -8.860  13.907  1.00  0.00     0.182 C 
HETATM   17  O1  UNL     1      17.697  -9.915  13.449  1.00  0.00    -0.294 OA
HETATM   18  C9  UNL     1      19.422  -8.326  13.585  1.00  0.00     0.219 C 
HETATM   19  C11 UNL     1      19.254  -6.925  13.137  1.00  0.00     0.186 C 
HETATM   20  O3  UNL     1      20.119  -6.153  13.544  1.00  0.00    -0.293 OA
HETATM   21  C12 UNL     1      18.238  -6.270  12.286  1.00  0.00     0.172 C 
ATOM     22  H5  UNL     1      16.036  -5.050  14.377  1.00  0.00     0.159 HD
BRANCH  14  23
HETATM   23  N6  UNL     1      17.857  -7.957  16.051  1.00  0.00    -0.063 N 
ATOM     24  H63 UNL     1      17.845  -8.798  16.629  1.00  0.00     0.275 HD
ATOM     25  H62 UNL     1      18.861  -7.902  15.880  1.00  0.00     0.275 HD
ATOM     26  H61 UNL     1      17.518  -7.143  16.564  1.00  0.00     0.275 HD
ENDBRANCH  14  23
BRANCH  18  27
HETATM   27  C10 UNL     1      20.133  -9.135  12.574  1.00  0.00     0.249 C 
HETATM   28  N7  UNL     1      21.049 -10.168  12.946  1.00  0.00    -0.061 NA
HETATM   29  O2  UNL     1      19.964  -8.947  11.362  1.00  0.00    -0.276 OA
ENDBRANCH  18  27
BRANCH  21  30
HETATM   30  O4  UNL     1      18.386  -6.807  10.984  1.00  0.00    -0.377 OA
ATOM     31  H4  UNL     1      17.558  -7.214  10.759  1.00  0.00     0.211 HD
ENDBRANCH  21  30
BRANCH  21  32
HETATM   32  C13 UNL     1      18.531  -4.785  12.120  1.00  0.00     0.213 C 
BRANCH  32  33
HETATM   33  O5  UNL     1      18.275  -4.349  10.841  1.00  0.00    -0.397 OA
ATOM     34  H5  UNL     1      18.989  -3.826  10.494  1.00  0.00     0.209 HD
ENDBRANCH  32  33
ENDBRANCH  21  32
BRANCH  15  35
HETATM   35  O6  UNL     1      16.318  -7.618  12.008  1.00  0.00    -0.291 OA
BRANCH  35  36
HETATM   36  C15 UNL     1      15.071  -7.577  11.403  1.00  0.00     0.373 C 
HETATM   37  N8  UNL     1      14.869  -8.161  10.137  1.00  0.00    -0.032 NA
HETATM   38  O7  UNL     1      14.145  -6.994  12.051  1.00  0.00    -0.242 OA
ENDBRANCH  35  36
ENDBRANCH  15  35
ENDBRANCH   7  12
BRANCH   6  39
HETATM   39  N4  UNL     1      16.512  -4.609  18.388  1.00  0.00    -0.071 N 
ATOM     40  H43 UNL     1      16.484  -3.700  18.851  1.00  0.00     0.274 HD
ATOM     41  H42 UNL     1      15.703  -5.023  18.851  1.00  0.00     0.274 HD
ATOM     42  H41 UNL     1      17.377  -5.118  18.573  1.00  0.00     0.274 HD
ENDBRANCH   6  39
BRANCH   1  43
HETATM   43  N2  UNL     1      13.801  -4.473  19.974  1.00  0.00    -0.307 N 
ATOM     44  H2  UNL     1      13.639  -3.580  20.439  1.00  0.00     0.166 HD
BRANCH  43  45
HETATM   45  C1  UNL     1      14.208  -5.600  20.740  1.00  0.00     0.215 C 
HETATM   46  N1  UNL     1      13.307  -6.308  21.349  1.00  0.00    -0.365 N 
ATOM     47  H12 UNL     1      12.333  -6.022  21.250  1.00  0.00     0.159 HD
ATOM     48  H11 UNL     1      13.600  -7.117  21.899  1.00  0.00     0.159 HD
BRANCH  45  49
HETATM   49  O8  UNL     1      15.533  -5.989  20.874  1.00  0.00    -0.321 OA
BRANCH  49  50
HETATM   50  C17 UNL     1      15.856  -7.355  21.051  1.00  0.00     0.206 C 
BRANCH  50  51
HETATM   51  C18 UNL     1      16.646  -7.847  19.842  1.00  0.00     0.256 C 
BRANCH  51  52
HETATM   52  N10 UNL     1      15.770  -8.718  19.064  1.00  0.00    -0.077 N 
ATOM     53 3H10 UNL     1      14.830  -8.785  19.452  1.00  0.00     0.274 HD
ATOM     54 2H10 UNL     1      15.515  -8.318  18.161  1.00  0.00     0.274 HD
ATOM     55 1H10 UNL     1      16.230  -9.625  18.980  1.00  0.00     0.274 HD
ENDBRANCH  51  52
ENDBRANCH  50  51
ENDBRANCH  49  50
ENDBRANCH  45  49
ENDBRANCH  43  45
ENDBRANCH   1  43
TORSDOF 15
ENDMDL
