MODEL 1
REMARK VINA RESULT: -5.592997354      0.000      0.000
REMARK  17 active torsions:
REMARK  status: ('A' for Active; 'I' for Inactive)
REMARK    1  A    between atoms: C4_7  and  O2_8 
REMARK    2  A    between atoms: C5_11  and  O4_12 
REMARK    3  A    between atoms: O4_12  and  C6_13 
REMARK    4  A    between atoms: C7_14  and  N3_15 
REMARK    5  A    between atoms: C9_20  and  N4_21 
REMARK    6  A    between atoms: N4_21  and  C10_23 
REMARK    7  A    between atoms: C12_27  and  N6_28 
REMARK    8  A    between atoms: C13_34  and  N8_35 
REMARK    9  A    between atoms: N8_35  and  C14_38 
REMARK   10  A    between atoms: C14_38  and  O5_39 
REMARK   11  A    between atoms: C14_38  and  C15_41 
REMARK   12  A    between atoms: C15_41  and  O6_42 
REMARK   13  A    between atoms: C15_41  and  C16_44 
REMARK   14  A    between atoms: C16_44  and  O7_45 
REMARK   15  A    between atoms: C16_44  and  C17_47 
REMARK   16  A    between atoms: C17_47  and  O8_48 
REMARK   17  A    between atoms: C18_50  and  O9_51 
ROOT
HETATM    1  N1  UNL     1      17.463  -3.674  14.797  1.00  0.00    -0.171 NA
HETATM    2  C1  UNL     1      17.393  -3.265  15.887  1.00  0.00     0.191 C 
HETATM    3  N2  UNL     1      17.327  -2.749  17.188  1.00  0.00    -0.202 N 
HETATM    4  C2  UNL     1      16.890  -3.703  18.179  1.00  0.00     0.241 C 
HETATM    5  O1  UNL     1      16.500  -4.836  17.812  1.00  0.00    -0.272 OA
HETATM    6  C3  UNL     1      16.876  -3.407  19.633  1.00  0.00     0.164 C 
HETATM    7  C4  UNL     1      17.135  -1.930  19.805  1.00  0.00     0.270 C 
HETATM    8  O3  UNL     1      16.707  -1.189  18.700  1.00  0.00    -0.312 OA
HETATM    9  C5  UNL     1      17.634  -1.416  17.594  1.00  0.00     0.392 C 
ENDROOT
BRANCH   9  10
HETATM   10  O4  UNL     1      17.226  -0.505  16.670  1.00  0.00    -0.333 OA
BRANCH  10  11
HETATM   11  C6  UNL     1      18.132   0.481  16.282  1.00  0.00     0.187 C 
HETATM   12  C7  UNL     1      19.027   0.943  17.385  1.00  0.00     0.217 C 
HETATM   13  C8  UNL     1      19.961   2.053  16.939  1.00  0.00     0.063 C 
HETATM   14  C9  UNL     1      20.095   2.152  15.466  1.00  0.00     0.120 C 
HETATM   15  C13 UNL     1      19.972   0.931  14.670  1.00  0.00     0.242 C 
HETATM   16  C18 UNL     1      19.018  -0.056  15.189  1.00  0.00     0.182 C 
BRANCH  12  17
HETATM   17  N3  UNL     1      18.327   1.340  18.566  1.00  0.00    -0.072 N 
ATOM     18  H33 UNL     1      18.965   1.394  19.361  1.00  0.00     0.274 HD
ATOM     19  H32 UNL     1      18.045   2.318  18.506  1.00  0.00     0.274 HD
ATOM     20  H31 UNL     1      17.526   0.748  18.788  1.00  0.00     0.274 HD
ENDBRANCH  12  17
BRANCH  14  21
HETATM   21  N4  UNL     1      19.295   3.265  14.924  1.00  0.00    -0.356 N 
ATOM     22  H4  UNL     1      18.425   3.513  15.396  1.00  0.00     0.163 HD
BRANCH  21  23
HETATM   23  C10 UNL     1      19.679   4.011  13.774  1.00  0.00     0.173 C 
HETATM   24  N5  UNL     1      18.889   4.794  13.101  1.00  0.00    -0.359 N 
HETATM   25  C11 UNL     1      19.568   5.412  11.993  1.00  0.00     0.177 C 
ATOM     26  H5  UNL     1      17.907   4.951  13.331  1.00  0.00     0.162 HD
HETATM   27  C12 UNL     1      20.907   4.708  11.954  1.00  0.00     0.302 C 
HETATM   28  N7  UNL     1      20.967   4.016  13.199  1.00  0.00    -0.334 N 
ATOM     29  H7  UNL     1      21.803   3.595  13.605  1.00  0.00     0.164 HD
BRANCH  27  30
HETATM   30  N6  UNL     1      21.998   5.668  11.810  1.00  0.00    -0.057 N 
ATOM     31  H63 UNL     1      22.571   5.466  10.991  1.00  0.00     0.276 HD
ATOM     32  H62 UNL     1      21.656   6.589  11.535  1.00  0.00     0.276 HD
ATOM     33  H61 UNL     1      22.559   5.714  12.661  1.00  0.00     0.276 HD
ENDBRANCH  27  30
ENDBRANCH  21  23
ENDBRANCH  14  21
BRANCH  15  34
HETATM   34  N8  UNL     1      21.250   0.302  14.319  1.00  0.00    -0.038 N 
ATOM     35  H82 UNL     1      22.033   0.850  14.675  1.00  0.00     0.281 HD
ATOM     36  H81 UNL     1      21.391  -0.556  14.853  1.00  0.00     0.281 HD
BRANCH  34  37
HETATM   37  C14 UNL     1      21.395   0.059  12.919  1.00  0.00     0.350 C 
BRANCH  37  38
HETATM   38  O5  UNL     1      20.222   0.383  12.213  1.00  0.00    -0.368 OA
ATOM     39  H5  UNL     1      20.316   0.214  11.282  1.00  0.00     0.212 HD
ENDBRANCH  37  38
BRANCH  37  40
HETATM   40  C15 UNL     1      21.552  -1.449  12.729  1.00  0.00     0.205 C 
BRANCH  40  41
HETATM   41  O6  UNL     1      21.195  -2.103  13.888  1.00  0.00    -0.389 OA
ATOM     42  H6  UNL     1      20.760  -2.920  13.674  1.00  0.00     0.210 HD
ENDBRANCH  40  41
BRANCH  40  43
HETATM   43  C16 UNL     1      20.992  -1.973  11.467  1.00  0.00     0.174 C 
BRANCH  43  44
HETATM   44  O7  UNL     1      22.031  -2.494  10.659  1.00  0.00    -0.391 OA
ATOM     45  H7  UNL     1      21.723  -3.262  10.191  1.00  0.00     0.210 HD
ENDBRANCH  43  44
BRANCH  43  46
HETATM   46  C17 UNL     1      19.908  -2.986  11.620  1.00  0.00     0.198 C 
BRANCH  46  47
HETATM   47  O8  UNL     1      18.704  -2.441  12.056  1.00  0.00    -0.398 OA
ATOM     48  H8  UNL     1      17.956  -2.717  11.538  1.00  0.00     0.209 HD
ENDBRANCH  46  47
ENDBRANCH  43  46
ENDBRANCH  40  43
ENDBRANCH  37  40
ENDBRANCH  34  37
ENDBRANCH  15  34
BRANCH  16  49
HETATM   49  O9  UNL     1      18.280  -0.697  14.181  1.00  0.00    -0.391 OA
ATOM     50  H9  UNL     1      18.836  -1.006  13.475  1.00  0.00     0.210 HD
ENDBRANCH  16  49
ENDBRANCH  10  11
ENDBRANCH   9  10
BRANCH   7  51
HETATM   51  O2  UNL     1      18.445  -1.672  20.160  1.00  0.00    -0.371 OA
ATOM     52  H2  UNL     1      18.508  -1.279  21.023  1.00  0.00     0.212 HD
ENDBRANCH   7  51
TORSDOF 17
ENDMDL
MODEL 2
REMARK VINA RESULT: -5.478928658     13.699     18.260
REMARK  17 active torsions:
REMARK  status: ('A' for Active; 'I' for Inactive)
REMARK    1  A    between atoms: C4_7  and  O2_8 
REMARK    2  A    between atoms: C5_11  and  O4_12 
REMARK    3  A    between atoms: O4_12  and  C6_13 
REMARK    4  A    between atoms: C7_14  and  N3_15 
REMARK    5  A    between atoms: C9_20  and  N4_21 
REMARK    6  A    between atoms: N4_21  and  C10_23 
REMARK    7  A    between atoms: C12_27  and  N6_28 
REMARK    8  A    between atoms: C13_34  and  N8_35 
REMARK    9  A    between atoms: N8_35  and  C14_38 
REMARK   10  A    between atoms: C14_38  and  O5_39 
REMARK   11  A    between atoms: C14_38  and  C15_41 
REMARK   12  A    between atoms: C15_41  and  O6_42 
REMARK   13  A    between atoms: C15_41  and  C16_44 
REMARK   14  A    between atoms: C16_44  and  O7_45 
REMARK   15  A    between atoms: C16_44  and  C17_47 
REMARK   16  A    between atoms: C17_47  and  O8_48 
REMARK   17  A    between atoms: C18_50  and  O9_51 
ROOT
HETATM    1  N1  UNL     1       9.937  -7.252  16.897  1.00  0.00    -0.171 NA
HETATM    2  C1  UNL     1       8.963  -7.817  17.203  1.00  0.00     0.191 C 
HETATM    3  N2  UNL     1       7.810  -8.509  17.596  1.00  0.00    -0.202 N 
HETATM    4  C2  UNL     1       6.790  -8.581  16.578  1.00  0.00     0.241 C 
HETATM    5  O1  UNL     1       6.945  -7.948  15.507  1.00  0.00    -0.272 OA
HETATM    6  C3  UNL     1       5.547  -9.377  16.734  1.00  0.00     0.164 C 
HETATM    7  C4  UNL     1       5.468  -9.828  18.173  1.00  0.00     0.270 C 
HETATM    8  O3  UNL     1       6.125  -8.949  19.037  1.00  0.00    -0.312 OA
HETATM    9  C5  UNL     1       7.567  -9.112  18.867  1.00  0.00     0.392 C 
ENDROOT
BRANCH   9  10
HETATM   10  O4  UNL     1       8.075  -8.363  19.882  1.00  0.00    -0.333 OA
BRANCH  10  11
HETATM   11  C6  UNL     1       8.323  -8.995  21.099  1.00  0.00     0.187 C 
HETATM   12  C7  UNL     1       9.713  -8.794  21.608  1.00  0.00     0.217 C 
HETATM   13  C8  UNL     1       9.963  -9.540  22.906  1.00  0.00     0.063 C 
HETATM   14  C9  UNL     1       8.717  -9.942  23.601  1.00  0.00     0.120 C 
HETATM   15  C13 UNL     1       7.532  -9.098  23.454  1.00  0.00     0.242 C 
HETATM   16  C18 UNL     1       7.386  -8.451  22.145  1.00  0.00     0.182 C 
BRANCH  12  17
HETATM   17  N3  UNL     1      10.728  -9.120  20.655  1.00  0.00    -0.072 N 
ATOM     18  H33 UNL     1      10.338  -9.671  19.890  1.00  0.00     0.274 HD
ATOM     19  H32 UNL     1      11.016  -8.289  20.138  1.00  0.00     0.274 HD
ATOM     20  H31 UNL     1      11.537  -9.590  21.061  1.00  0.00     0.274 HD
ENDBRANCH  12  17
BRANCH  14  21
HETATM   21  N4  UNL     1       8.423 -11.373  23.398  1.00  0.00    -0.356 N 
ATOM     22  H4  UNL     1       9.178 -12.047  23.523  1.00  0.00     0.163 HD
BRANCH  21  23
HETATM   23  C10 UNL     1       7.134 -11.858  23.036  1.00  0.00     0.173 C 
HETATM   24  N5  UNL     1       6.207 -12.199  23.881  1.00  0.00    -0.359 N 
HETATM   25  C11 UNL     1       5.015 -12.646  23.211  1.00  0.00     0.177 C 
ATOM     26  H5  UNL     1       6.313 -12.155  24.895  1.00  0.00     0.162 HD
HETATM   27  C12 UNL     1       5.426 -12.727  21.758  1.00  0.00     0.302 C 
HETATM   28  N7  UNL     1       6.671 -12.034  21.715  1.00  0.00    -0.334 N 
ATOM     29  H7  UNL     1       7.147 -11.718  20.870  1.00  0.00     0.164 HD
BRANCH  27  30
HETATM   30  N6  UNL     1       4.425 -12.105  20.896  1.00  0.00    -0.057 N 
ATOM     31  H63 UNL     1       3.484 -12.428  21.119  1.00  0.00     0.276 HD
ATOM     32  H62 UNL     1       4.304 -11.116  21.112  1.00  0.00     0.276 HD
ATOM     33  H61 UNL     1       4.650 -12.250  19.911  1.00  0.00     0.276 HD
ENDBRANCH  27  30
ENDBRANCH  21  23
ENDBRANCH  14  21
BRANCH  15  34
HETATM   34  N8  UNL     1       7.329  -8.140  24.547  1.00  0.00    -0.038 N 
ATOM     35  H82 UNL     1       8.220  -7.758  24.864  1.00  0.00     0.281 HD
ATOM     36  H81 UNL     1       6.892  -7.284  24.203  1.00  0.00     0.281 HD
BRANCH  34  37
HETATM   37  C14 UNL     1       6.590  -8.681  25.643  1.00  0.00     0.350 C 
BRANCH  37  38
HETATM   38  O5  UNL     1       5.548  -9.518  25.203  1.00  0.00    -0.368 OA
ATOM     39  H5  UNL     1       5.204 -10.050  25.912  1.00  0.00     0.212 HD
ENDBRANCH  37  38
BRANCH  37  40
HETATM   40  C15 UNL     1       5.879  -7.519  26.336  1.00  0.00     0.205 C 
BRANCH  40  41
HETATM   41  O6  UNL     1       4.671  -7.947  26.840  1.00  0.00    -0.389 OA
ATOM     42  H6  UNL     1       4.317  -7.289  27.427  1.00  0.00     0.210 HD
ENDBRANCH  40  41
BRANCH  40  43
HETATM   43  C16 UNL     1       6.735  -6.721  27.238  1.00  0.00     0.174 C 
BRANCH  43  44
HETATM   44  O7  UNL     1       8.099  -7.004  26.983  1.00  0.00    -0.391 OA
ATOM     45  H7  UNL     1       8.636  -6.670  27.691  1.00  0.00     0.210 HD
ENDBRANCH  43  44
BRANCH  43  46
HETATM   46  C17 UNL     1       6.503  -5.248  27.203  1.00  0.00     0.198 C 
BRANCH  46  47
HETATM   47  O8  UNL     1       6.799  -4.674  25.971  1.00  0.00    -0.398 OA
ATOM     48  H8  UNL     1       7.428  -3.964  26.028  1.00  0.00     0.209 HD
ENDBRANCH  46  47
ENDBRANCH  43  46
ENDBRANCH  40  43
ENDBRANCH  37  40
ENDBRANCH  34  37
ENDBRANCH  15  34
BRANCH  16  49
HETATM   49  O9  UNL     1       6.058  -8.409  21.692  1.00  0.00    -0.391 OA
ATOM     50  H9  UNL     1       5.825  -7.552  21.354  1.00  0.00     0.210 HD
ENDBRANCH  16  49
ENDBRANCH  10  11
ENDBRANCH   9  10
BRANCH   7  51
HETATM   51  O2  UNL     1       5.867 -11.142  18.325  1.00  0.00    -0.371 OA
ATOM     52  H2  UNL     1       6.027 -11.362  19.236  1.00  0.00     0.212 HD
ENDBRANCH   7  51
TORSDOF 17
ENDMDL
MODEL 3
REMARK VINA RESULT: -5.418295724      0.875      1.355
REMARK  17 active torsions:
REMARK  status: ('A' for Active; 'I' for Inactive)
REMARK    1  A    between atoms: C4_7  and  O2_8 
REMARK    2  A    between atoms: C5_11  and  O4_12 
REMARK    3  A    between atoms: O4_12  and  C6_13 
REMARK    4  A    between atoms: C7_14  and  N3_15 
REMARK    5  A    between atoms: C9_20  and  N4_21 
REMARK    6  A    between atoms: N4_21  and  C10_23 
REMARK    7  A    between atoms: C12_27  and  N6_28 
REMARK    8  A    between atoms: C13_34  and  N8_35 
REMARK    9  A    between atoms: N8_35  and  C14_38 
REMARK   10  A    between atoms: C14_38  and  O5_39 
REMARK   11  A    between atoms: C14_38  and  C15_41 
REMARK   12  A    between atoms: C15_41  and  O6_42 
REMARK   13  A    between atoms: C15_41  and  C16_44 
REMARK   14  A    between atoms: C16_44  and  O7_45 
REMARK   15  A    between atoms: C16_44  and  C17_47 
REMARK   16  A    between atoms: C17_47  and  O8_48 
REMARK   17  A    between atoms: C18_50  and  O9_51 
ROOT
HETATM    1  N1  UNL     1      17.452  -4.003  14.887  1.00  0.00    -0.171 NA
HETATM    2  C1  UNL     1      17.370  -3.553  15.959  1.00  0.00     0.191 C 
HETATM    3  N2  UNL     1      17.289  -2.987  17.239  1.00  0.00    -0.202 N 
HETATM    4  C2  UNL     1      16.883  -3.912  18.268  1.00  0.00     0.241 C 
HETATM    5  O1  UNL     1      16.529  -5.071  17.948  1.00  0.00    -0.272 OA
HETATM    6  C3  UNL     1      16.860  -3.559  19.709  1.00  0.00     0.164 C 
HETATM    7  C4  UNL     1      17.072  -2.068  19.820  1.00  0.00     0.270 C 
HETATM    8  O3  UNL     1      16.619  -1.387  18.687  1.00  0.00    -0.312 OA
HETATM    9  C5  UNL     1      17.552  -1.628  17.590  1.00  0.00     0.392 C 
ENDROOT
BRANCH   9  10
HETATM   10  O4  UNL     1      17.115  -0.769  16.630  1.00  0.00    -0.333 OA
BRANCH  10  11
HETATM   11  C6  UNL     1      17.967   0.263  16.240  1.00  0.00     0.187 C 
HETATM   12  C7  UNL     1      18.865   0.745  17.333  1.00  0.00     0.217 C 
HETATM   13  C8  UNL     1      19.738   1.904  16.887  1.00  0.00     0.063 C 
HETATM   14  C9  UNL     1      19.835   2.034  15.414  1.00  0.00     0.120 C 
HETATM   15  C13 UNL     1      19.749   0.823  14.599  1.00  0.00     0.242 C 
HETATM   16  C18 UNL     1      18.851  -0.216  15.119  1.00  0.00     0.182 C 
BRANCH  12  17
HETATM   17  N3  UNL     1      18.174   1.090  18.536  1.00  0.00    -0.072 N 
ATOM     18  H33 UNL     1      18.348   0.395  19.262  1.00  0.00     0.274 HD
ATOM     19  H32 UNL     1      18.601   1.906  18.974  1.00  0.00     0.274 HD
ATOM     20  H31 UNL     1      17.172   1.233  18.408  1.00  0.00     0.274 HD
ENDBRANCH  12  17
BRANCH  14  21
HETATM   21  N4  UNL     1      18.975   3.119  14.909  1.00  0.00    -0.356 N 
ATOM     22  H4  UNL     1      17.985   3.111  15.158  1.00  0.00     0.163 HD
BRANCH  21  23
HETATM   23  C10 UNL     1      19.459   4.179  14.091  1.00  0.00     0.173 C 
HETATM   24  N5  UNL     1      19.523   5.425  14.455  1.00  0.00    -0.359 N 
HETATM   25  C11 UNL     1      20.061   6.257  13.411  1.00  0.00     0.177 C 
ATOM     26  H5  UNL     1      19.229   5.771  15.369  1.00  0.00     0.162 HD
HETATM   27  C12 UNL     1      20.137   5.333  12.217  1.00  0.00     0.302 C 
HETATM   28  N7  UNL     1      19.943   4.035  12.774  1.00  0.00    -0.334 N 
ATOM     29  H7  UNL     1      20.125   3.151  12.299  1.00  0.00     0.164 HD
BRANCH  27  30
HETATM   30  N6  UNL     1      21.428   5.451  11.544  1.00  0.00    -0.057 N 
ATOM     31  H63 UNL     1      21.325   5.791  10.588  1.00  0.00     0.276 HD
ATOM     32  H62 UNL     1      21.980   6.221  11.923  1.00  0.00     0.276 HD
ATOM     33  H61 UNL     1      21.940   4.569  11.577  1.00  0.00     0.276 HD
ENDBRANCH  27  30
ENDBRANCH  21  23
ENDBRANCH  14  21
BRANCH  15  34
HETATM   34  N8  UNL     1      21.046   0.258  14.209  1.00  0.00    -0.038 N 
ATOM     35  H82 UNL     1      21.803   0.688  14.741  1.00  0.00     0.281 HD
ATOM     36  H81 UNL     1      21.136  -0.704  14.538  1.00  0.00     0.281 HD
BRANCH  34  37
HETATM   37  C14 UNL     1      21.300   0.340  12.806  1.00  0.00     0.350 C 
BRANCH  37  38
HETATM   38  O5  UNL     1      20.410   1.225  12.169  1.00  0.00    -0.368 OA
ATOM     39  H5  UNL     1      20.870   1.944  11.752  1.00  0.00     0.212 HD
ENDBRANCH  37  38
BRANCH  37  40
HETATM   40  C15 UNL     1      20.982  -1.025  12.201  1.00  0.00     0.205 C 
BRANCH  40  41
HETATM   41  O6  UNL     1      19.726  -1.000  11.632  1.00  0.00    -0.389 OA
ATOM     42  H6  UNL     1      19.555  -1.828  11.198  1.00  0.00     0.210 HD
ENDBRANCH  40  41
BRANCH  40  43
HETATM   43  C16 UNL     1      22.070  -1.611  11.392  1.00  0.00     0.174 C 
BRANCH  43  44
HETATM   44  O7  UNL     1      21.618  -2.797  10.763  1.00  0.00    -0.391 OA
ATOM     45  H7  UNL     1      22.041  -3.552  11.155  1.00  0.00     0.210 HD
ENDBRANCH  43  44
BRANCH  43  46
HETATM   46  C17 UNL     1      22.679  -0.698  10.382  1.00  0.00     0.198 C 
BRANCH  46  47
HETATM   47  O8  UNL     1      23.051  -1.345   9.208  1.00  0.00    -0.398 OA
ATOM     48  H8  UNL     1      22.540  -2.127   9.031  1.00  0.00     0.209 HD
ENDBRANCH  46  47
ENDBRANCH  43  46
ENDBRANCH  40  43
ENDBRANCH  37  40
ENDBRANCH  34  37
ENDBRANCH  15  34
BRANCH  16  49
HETATM   49  O9  UNL     1      18.121  -0.872  14.116  1.00  0.00    -0.391 OA
ATOM     50  H9  UNL     1      17.454  -0.311  13.738  1.00  0.00     0.210 HD
ENDBRANCH  16  49
ENDBRANCH  10  11
ENDBRANCH   9  10
BRANCH   7  51
HETATM   51  O2  UNL     1      18.373  -1.754  20.162  1.00  0.00    -0.371 OA
ATOM     52  H2  UNL     1      18.915  -2.529  20.247  1.00  0.00     0.212 HD
ENDBRANCH   7  51
TORSDOF 17
ENDMDL
MODEL 4
REMARK VINA RESULT: -5.381175205      4.372      6.970
REMARK  17 active torsions:
REMARK  status: ('A' for Active; 'I' for Inactive)
REMARK    1  A    between atoms: C4_7  and  O2_8 
REMARK    2  A    between atoms: C5_11  and  O4_12 
REMARK    3  A    between atoms: O4_12  and  C6_13 
REMARK    4  A    between atoms: C7_14  and  N3_15 
REMARK    5  A    between atoms: C9_20  and  N4_21 
REMARK    6  A    between atoms: N4_21  and  C10_23 
REMARK    7  A    between atoms: C12_27  and  N6_28 
REMARK    8  A    between atoms: C13_34  and  N8_35 
REMARK    9  A    between atoms: N8_35  and  C14_38 
REMARK   10  A    between atoms: C14_38  and  O5_39 
REMARK   11  A    between atoms: C14_38  and  C15_41 
REMARK   12  A    between atoms: C15_41  and  O6_42 
REMARK   13  A    between atoms: C15_41  and  C16_44 
REMARK   14  A    between atoms: C16_44  and  O7_45 
REMARK   15  A    between atoms: C16_44  and  C17_47 
REMARK   16  A    between atoms: C17_47  and  O8_48 
REMARK   17  A    between atoms: C18_50  and  O9_51 
ROOT
HETATM    1  N1  UNL     1      18.443  -9.312  14.919  1.00  0.00    -0.171 NA
HETATM    2  C1  UNL     1      17.712  -8.892  14.114  1.00  0.00     0.191 C 
HETATM    3  N2  UNL     1      16.840  -8.358  13.156  1.00  0.00    -0.202 N 
HETATM    4  C2  UNL     1      15.901  -9.311  12.617  1.00  0.00     0.241 C 
HETATM    5  O1  UNL     1      16.002 -10.519  12.933  1.00  0.00    -0.272 OA
HETATM    6  C3  UNL     1      14.805  -8.931  11.691  1.00  0.00     0.164 C 
HETATM    7  C4  UNL     1      15.041  -7.502  11.262  1.00  0.00     0.270 C 
HETATM    8  O3  UNL     1      16.395  -7.161  11.292  1.00  0.00    -0.312 OA
HETATM    9  C5  UNL     1      16.812  -7.011  12.684  1.00  0.00     0.392 C 
ENDROOT
BRANCH   9  10
HETATM   10  O4  UNL     1      18.065  -6.495  12.568  1.00  0.00    -0.333 OA
BRANCH  10  11
HETATM   11  C6  UNL     1      18.281  -5.196  13.025  1.00  0.00     0.187 C 
HETATM   12  C7  UNL     1      19.242  -5.113  14.166  1.00  0.00     0.217 C 
HETATM   13  C8  UNL     1      19.411  -3.692  14.671  1.00  0.00     0.063 C 
HETATM   14  C9  UNL     1      18.950  -2.666  13.705  1.00  0.00     0.120 C 
HETATM   15  C13 UNL     1      19.057  -2.955  12.276  1.00  0.00     0.242 C 
HETATM   16  C18 UNL     1      18.847  -4.360  11.907  1.00  0.00     0.182 C 
BRANCH  12  17
HETATM   17  N3  UNL     1      18.920  -5.982  15.254  1.00  0.00    -0.072 N 
ATOM     18  H33 UNL     1      19.152  -6.948  15.022  1.00  0.00     0.274 HD
ATOM     19  H32 UNL     1      19.561  -5.835  16.033  1.00  0.00     0.274 HD
ATOM     20  H31 UNL     1      17.952  -5.910  15.565  1.00  0.00     0.274 HD
ENDBRANCH  12  17
BRANCH  14  21
HETATM   21  N4  UNL     1      17.629  -2.128  14.077  1.00  0.00    -0.356 N 
ATOM     22  H4  UNL     1      17.042  -1.729  13.344  1.00  0.00     0.163 HD
BRANCH  21  23
HETATM   23  C10 UNL     1      17.133  -2.137  15.412  1.00  0.00     0.173 C 
HETATM   24  N5  UNL     1      17.370  -1.214  16.296  1.00  0.00    -0.359 N 
HETATM   25  C11 UNL     1      16.728  -1.503  17.551  1.00  0.00     0.177 C 
ATOM     26  H5  UNL     1      17.941  -0.387  16.122  1.00  0.00     0.162 HD
HETATM   27  C12 UNL     1      16.197  -2.907  17.370  1.00  0.00     0.302 C 
HETATM   28  N7  UNL     1      16.311  -3.139  15.968  1.00  0.00    -0.334 N 
ATOM     29  H7  UNL     1      15.870  -3.902  15.454  1.00  0.00     0.164 HD
BRANCH  27  30
HETATM   30  N6  UNL     1      14.815  -3.008  17.830  1.00  0.00    -0.057 N 
ATOM     31  H63 UNL     1      14.262  -2.201  17.540  1.00  0.00     0.276 HD
ATOM     32  H62 UNL     1      14.303  -3.734  17.330  1.00  0.00     0.276 HD
ATOM     33  H61 UNL     1      14.775  -3.147  18.841  1.00  0.00     0.276 HD
ENDBRANCH  27  30
ENDBRANCH  21  23
ENDBRANCH  14  21
BRANCH  15  34
HETATM   34  N8  UNL     1      20.258  -2.410  11.633  1.00  0.00    -0.038 N 
ATOM     35  H82 UNL     1      21.047  -3.048  11.740  1.00  0.00     0.281 HD
ATOM     36  H81 UNL     1      20.166  -2.427  10.617  1.00  0.00     0.281 HD
BRANCH  34  37
HETATM   37  C14 UNL     1      20.599  -1.100  12.090  1.00  0.00     0.350 C 
BRANCH  37  38
HETATM   38  O5  UNL     1      20.331  -0.124  11.112  1.00  0.00    -0.368 OA
ATOM     39  H5  UNL     1      21.069   0.462  10.992  1.00  0.00     0.212 HD
ENDBRANCH  37  38
BRANCH  37  40
HETATM   40  C15 UNL     1      22.115  -1.056  12.269  1.00  0.00     0.205 C 
BRANCH  40  41
HETATM   41  O6  UNL     1      22.559  -2.258  12.777  1.00  0.00    -0.389 OA
ATOM     42  H6  UNL     1      23.406  -2.138  13.189  1.00  0.00     0.210 HD
ENDBRANCH  40  41
BRANCH  40  43
HETATM   43  C16 UNL     1      22.857  -0.503  11.117  1.00  0.00     0.174 C 
BRANCH  43  44
HETATM   44  O7  UNL     1      23.675   0.571  11.542  1.00  0.00    -0.391 OA
ATOM     45  H7  UNL     1      24.378   0.709  10.918  1.00  0.00     0.210 HD
ENDBRANCH  43  44
BRANCH  43  46
HETATM   46  C17 UNL     1      23.668  -1.489  10.346  1.00  0.00     0.198 C 
BRANCH  46  47
HETATM   47  O8  UNL     1      22.938  -2.600   9.934  1.00  0.00    -0.398 OA
ATOM     48  H8  UNL     1      22.016  -2.413   9.794  1.00  0.00     0.209 HD
ENDBRANCH  46  47
ENDBRANCH  43  46
ENDBRANCH  40  43
ENDBRANCH  37  40
ENDBRANCH  34  37
ENDBRANCH  15  34
BRANCH  16  49
HETATM   49  O9  UNL     1      18.127  -4.519  10.713  1.00  0.00    -0.391 OA
ATOM     50  H9  UNL     1      18.177  -3.748  10.162  1.00  0.00     0.210 HD
ENDBRANCH  16  49
ENDBRANCH  10  11
ENDBRANCH   9  10
BRANCH   7  51
HETATM   51  O2  UNL     1      14.239  -6.615  11.955  1.00  0.00    -0.371 OA
ATOM     52  H2  UNL     1      13.943  -5.899  11.405  1.00  0.00     0.212 HD
ENDBRANCH   7  51
TORSDOF 17
ENDMDL
MODEL 5
REMARK VINA RESULT: -5.380505515      1.978      2.820
REMARK  17 active torsions:
REMARK  status: ('A' for Active; 'I' for Inactive)
REMARK    1  A    between atoms: C4_7  and  O2_8 
REMARK    2  A    between atoms: C5_11  and  O4_12 
REMARK    3  A    between atoms: O4_12  and  C6_13 
REMARK    4  A    between atoms: C7_14  and  N3_15 
REMARK    5  A    between atoms: C9_20  and  N4_21 
REMARK    6  A    between atoms: N4_21  and  C10_23 
REMARK    7  A    between atoms: C12_27  and  N6_28 
REMARK    8  A    between atoms: C13_34  and  N8_35 
REMARK    9  A    between atoms: N8_35  and  C14_38 
REMARK   10  A    between atoms: C14_38  and  O5_39 
REMARK   11  A    between atoms: C14_38  and  C15_41 
REMARK   12  A    between atoms: C15_41  and  O6_42 
REMARK   13  A    between atoms: C15_41  and  C16_44 
REMARK   14  A    between atoms: C16_44  and  O7_45 
REMARK   15  A    between atoms: C16_44  and  C17_47 
REMARK   16  A    between atoms: C17_47  and  O8_48 
REMARK   17  A    between atoms: C18_50  and  O9_51 
ROOT
HETATM    1  N1  UNL     1      15.039  -4.320  16.229  1.00  0.00    -0.171 NA
HETATM    2  C1  UNL     1      15.340  -3.993  17.307  1.00  0.00     0.191 C 
HETATM    3  N2  UNL     1      15.727  -3.585  18.591  1.00  0.00    -0.202 N 
HETATM    4  C2  UNL     1      15.093  -4.318  19.659  1.00  0.00     0.241 C 
HETATM    5  O1  UNL     1      14.192  -5.145  19.386  1.00  0.00    -0.272 OA
HETATM    6  C3  UNL     1      15.455  -4.141  21.087  1.00  0.00     0.164 C 
HETATM    7  C4  UNL     1      16.358  -2.934  21.186  1.00  0.00     0.270 C 
HETATM    8  O3  UNL     1      16.115  -2.012  20.166  1.00  0.00    -0.312 OA
HETATM    9  C5  UNL     1      16.649  -2.543  18.914  1.00  0.00     0.392 C 
ENDROOT
BRANCH   9  10
HETATM   10  O4  UNL     1      16.530  -1.488  18.065  1.00  0.00    -0.333 OA
BRANCH  10  11
HETATM   11  C6  UNL     1      17.684  -1.017  17.442  1.00  0.00     0.187 C 
HETATM   12  C7  UNL     1      18.931  -1.257  18.229  1.00  0.00     0.217 C 
HETATM   13  C8  UNL     1      20.159  -0.683  17.547  1.00  0.00     0.063 C 
HETATM   14  C9  UNL     1      19.952  -0.399  16.107  1.00  0.00     0.120 C 
HETATM   15  C13 UNL     1      19.019  -1.238  15.356  1.00  0.00     0.242 C 
HETATM   16  C18 UNL     1      17.856  -1.711  16.117  1.00  0.00     0.182 C 
BRANCH  12  17
HETATM   17  N3  UNL     1      18.860  -0.790  19.578  1.00  0.00    -0.072 N 
ATOM     18  H33 UNL     1      18.287   0.053  19.637  1.00  0.00     0.274 HD
ATOM     19  H32 UNL     1      18.296  -1.420  20.148  1.00  0.00     0.274 HD
ATOM     20  H31 UNL     1      19.772  -0.635  20.008  1.00  0.00     0.274 HD
ENDBRANCH  12  17
BRANCH  14  21
HETATM   21  N4  UNL     1      19.741   1.040  15.865  1.00  0.00    -0.356 N 
ATOM     22  H4  UNL     1      19.222   1.579  16.560  1.00  0.00     0.163 HD
BRANCH  21  23
HETATM   23  C10 UNL     1      20.225   1.714  14.709  1.00  0.00     0.173 C 
HETATM   24  N5  UNL     1      21.036   1.195  13.835  1.00  0.00    -0.359 N 
HETATM   25  C11 UNL     1      21.340   2.121  12.776  1.00  0.00     0.177 C 
ATOM     26  H5  UNL     1      21.410   0.248  13.893  1.00  0.00     0.162 HD
HETATM   27  C12 UNL     1      20.730   3.422  13.248  1.00  0.00     0.302 C 
HETATM   28  N7  UNL     1      19.896   3.034  14.337  1.00  0.00    -0.334 N 
ATOM     29  H7  UNL     1      19.179   3.615  14.773  1.00  0.00     0.164 HD
BRANCH  27  30
HETATM   30  N6  UNL     1      19.970   4.062  12.178  1.00  0.00    -0.057 N 
ATOM     31  H63 UNL     1      20.578   4.387  11.426  1.00  0.00     0.276 HD
ATOM     32  H62 UNL     1      19.420   3.385  11.650  1.00  0.00     0.276 HD
ATOM     33  H61 UNL     1      19.388   4.816  12.544  1.00  0.00     0.276 HD
ENDBRANCH  27  30
ENDBRANCH  21  23
ENDBRANCH  14  21
BRANCH  15  34
HETATM   34  N8  UNL     1      19.651  -2.335  14.614  1.00  0.00    -0.038 N 
ATOM     35  H82 UNL     1      20.589  -2.519  14.967  1.00  0.00     0.281 HD
ATOM     36  H81 UNL     1      19.209  -3.227  14.839  1.00  0.00     0.281 HD
BRANCH  34  37
HETATM   37  C14 UNL     1      19.673  -2.123  13.201  1.00  0.00     0.350 C 
BRANCH  37  38
HETATM   38  O5  UNL     1      18.981  -0.951  12.843  1.00  0.00    -0.368 OA
ATOM     39  H5  UNL     1      19.578  -0.230  12.674  1.00  0.00     0.212 HD
ENDBRANCH  37  38
BRANCH  37  40
HETATM   40  C15 UNL     1      18.873  -3.252  12.554  1.00  0.00     0.205 C 
BRANCH  40  41
HETATM   41  O6  UNL     1      19.253  -3.396  11.238  1.00  0.00    -0.389 OA
ATOM     42  H6  UNL     1      18.501  -3.269  10.671  1.00  0.00     0.210 HD
ENDBRANCH  40  41
BRANCH  40  43
HETATM   43  C16 UNL     1      18.782  -4.485  13.362  1.00  0.00     0.174 C 
BRANCH  43  44
HETATM   44  O7  UNL     1      17.629  -4.440  14.182  1.00  0.00    -0.391 OA
ATOM     45  H7  UNL     1      17.161  -5.265  14.128  1.00  0.00     0.210 HD
ENDBRANCH  43  44
BRANCH  43  46
HETATM   46  C17 UNL     1      18.809  -5.760  12.588  1.00  0.00     0.198 C 
BRANCH  46  47
HETATM   47  O8  UNL     1      17.909  -5.779  11.527  1.00  0.00    -0.398 OA
ATOM     48  H8  UNL     1      17.528  -6.636  11.373  1.00  0.00     0.209 HD
ENDBRANCH  46  47
ENDBRANCH  43  46
ENDBRANCH  40  43
ENDBRANCH  37  40
ENDBRANCH  34  37
ENDBRANCH  15  34
BRANCH  16  49
HETATM   49  O9  UNL     1      16.669  -1.717  15.368  1.00  0.00    -0.391 OA
ATOM     50  H9  UNL     1      16.280  -2.583  15.327  1.00  0.00     0.210 HD
ENDBRANCH  16  49
ENDBRANCH  10  11
ENDBRANCH   9  10
BRANCH   7  51
HETATM   51  O2  UNL     1      17.688  -3.291  21.295  1.00  0.00    -0.371 OA
ATOM     52  H2  UNL     1      18.262  -2.645  20.900  1.00  0.00     0.212 HD
ENDBRANCH   7  51
TORSDOF 17
ENDMDL
