MODEL 1
REMARK VINA RESULT: -7.207302406      0.000      0.000
REMARK  7 active torsions:
REMARK  status: ('A' for Active; 'I' for Inactive)
REMARK    1  A    between atoms: C2_2  and  C3_3 
REMARK    2  A    between atoms: C3_3  and  C4_4 
REMARK    3  A    between atoms: C4_4  and  C5_5 
REMARK    4  A    between atoms: C5_5  and  C6_6 
REMARK    5  A    between atoms: C6_6  and  C7_7 
REMARK    6  A    between atoms: C7_7  and  C8_8 
REMARK    7  A    between atoms: C14_14  and  O1_15 
ROOT
HETATM    1  C8  UNL     1     -28.301 -11.956 -28.052  1.00  0.00     0.098 C 
HETATM    2  C9  UNL     1     -27.994 -10.637 -28.753  1.00  0.00     0.068 C 
HETATM    3  C10 UNL     1     -28.970 -10.305 -29.827  1.00  0.00     0.109 C 
HETATM    4  C11 UNL     1     -28.600  -8.910 -30.339  1.00  0.00     0.042 C 
HETATM    5  C12 UNL     1     -29.501  -7.956 -29.589  1.00  0.00     0.006 C 
HETATM    6  C13 UNL     1     -30.698  -8.742 -29.163  1.00  0.00     0.035 C 
HETATM    7  C14 UNL     1     -30.380 -10.205 -29.352  1.00  0.00     0.154 C 
HETATM    8  O2  UNL     1     -28.916 -11.147 -30.919  1.00  0.00    -0.245 OA
HETATM    9  S1  UNL     1     -28.271 -12.638 -30.587  1.00  0.00     0.358 S 
HETATM   10  O3  UNL     1     -26.784 -12.621 -30.801  1.00  0.00    -0.176 OA
HETATM   11  O4  UNL     1     -28.867 -13.708 -31.457  1.00  0.00    -0.176 OA
HETATM   12  N1  UNL     1     -28.610 -13.021 -28.945  1.00  0.00    -0.292 N 
ATOM     13  H1  UNL     1     -28.993 -13.917 -28.643  1.00  0.00     0.174 HD
ENDROOT
BRANCH   1  14
HETATM   14  C7  UNL     1     -27.124 -12.331 -27.203  1.00  0.00     0.026 C 
BRANCH  14  15
HETATM   15  C6  UNL     1     -26.833 -13.827 -27.446  1.00  0.00     0.002 C 
BRANCH  15  16
HETATM   16  C5  UNL     1     -25.888 -14.311 -26.437  1.00  0.00     0.000 C 
BRANCH  16  17
HETATM   17  C4  UNL     1     -25.497 -13.389 -25.369  1.00  0.00     0.000 C 
BRANCH  17  18
HETATM   18  C3  UNL     1     -24.200 -13.522 -24.698  1.00  0.00    -0.000 C 
BRANCH  18  19
HETATM   19  C2  UNL     1     -23.999 -12.829 -23.408  1.00  0.00    -0.005 C 
HETATM   20  C1  UNL     1     -22.743 -13.386 -22.688  1.00  0.00     0.005 C 
ENDBRANCH  18  19
ENDBRANCH  17  18
ENDBRANCH  16  17
ENDBRANCH  15  16
ENDBRANCH  14  15
ENDBRANCH   1  14
BRANCH   7  21
HETATM   21  O1  UNL     1     -31.289 -10.759 -30.280  1.00  0.00    -0.392 OA
ATOM     22  H1  UNL     1     -30.989 -10.654 -31.175  1.00  0.00     0.210 HD
ENDBRANCH   7  21
TORSDOF 7
ENDMDL
MODEL 2
REMARK VINA RESULT: -7.057772851      1.576      1.989
REMARK  7 active torsions:
REMARK  status: ('A' for Active; 'I' for Inactive)
REMARK    1  A    between atoms: C2_2  and  C3_3 
REMARK    2  A    between atoms: C3_3  and  C4_4 
REMARK    3  A    between atoms: C4_4  and  C5_5 
REMARK    4  A    between atoms: C5_5  and  C6_6 
REMARK    5  A    between atoms: C6_6  and  C7_7 
REMARK    6  A    between atoms: C7_7  and  C8_8 
REMARK    7  A    between atoms: C14_14  and  O1_15 
ROOT
HETATM    1  C8  UNL     1     -28.116 -13.187 -28.802  1.00  0.00     0.098 C 
HETATM    2  C9  UNL     1     -28.800 -11.860 -29.112  1.00  0.00     0.068 C 
HETATM    3  C10 UNL     1     -29.410 -11.819 -30.470  1.00  0.00     0.109 C 
HETATM    4  C11 UNL     1     -30.155 -10.486 -30.575  1.00  0.00     0.042 C 
HETATM    5  C12 UNL     1     -31.592 -10.802 -30.228  1.00  0.00     0.006 C 
HETATM    6  C13 UNL     1     -31.792 -12.255 -30.513  1.00  0.00     0.035 C 
HETATM    7  C14 UNL     1     -30.432 -12.879 -30.706  1.00  0.00     0.154 C 
HETATM    8  O2  UNL     1     -28.492 -11.834 -31.500  1.00  0.00    -0.245 OA
HETATM    9  S1  UNL     1     -27.026 -12.490 -31.086  1.00  0.00     0.358 S 
HETATM   10  O3  UNL     1     -26.105 -11.420 -30.572  1.00  0.00    -0.176 OA
HETATM   11  O4  UNL     1     -26.369 -13.165 -32.257  1.00  0.00    -0.176 OA
HETATM   12  N1  UNL     1     -27.286 -13.664 -29.857  1.00  0.00    -0.292 N 
ATOM     13  H1  UNL     1     -26.889 -14.603 -29.881  1.00  0.00     0.174 HD
ENDROOT
BRANCH   1  14
HETATM   14  C7  UNL     1     -27.306 -13.027 -27.552  1.00  0.00     0.026 C 
BRANCH  14  15
HETATM   15  C6  UNL     1     -26.470 -14.311 -27.371  1.00  0.00     0.002 C 
BRANCH  15  16
HETATM   16  C5  UNL     1     -25.753 -14.253 -26.095  1.00  0.00     0.000 C 
BRANCH  16  17
HETATM   17  C4  UNL     1     -25.554 -12.938 -25.483  1.00  0.00     0.000 C 
BRANCH  17  18
HETATM   18  C3  UNL     1     -24.724 -12.784 -24.284  1.00  0.00    -0.000 C 
BRANCH  18  19
HETATM   19  C2  UNL     1     -23.542 -13.658 -24.127  1.00  0.00    -0.005 C 
HETATM   20  C1  UNL     1     -22.816 -13.345 -22.793  1.00  0.00     0.005 C 
ENDBRANCH  18  19
ENDBRANCH  17  18
ENDBRANCH  16  17
ENDBRANCH  15  16
ENDBRANCH  14  15
ENDBRANCH   1  14
BRANCH   7  21
HETATM   21  O1  UNL     1     -30.347 -13.411 -32.012  1.00  0.00    -0.392 OA
ATOM     22  H1  UNL     1     -29.528 -13.182 -32.434  1.00  0.00     0.210 HD
ENDBRANCH   7  21
TORSDOF 7
ENDMDL
MODEL 3
REMARK VINA RESULT: -6.912408823      2.194      2.970
REMARK  7 active torsions:
REMARK  status: ('A' for Active; 'I' for Inactive)
REMARK    1  A    between atoms: C2_2  and  C3_3 
REMARK    2  A    between atoms: C3_3  and  C4_4 
REMARK    3  A    between atoms: C4_4  and  C5_5 
REMARK    4  A    between atoms: C5_5  and  C6_6 
REMARK    5  A    between atoms: C6_6  and  C7_7 
REMARK    6  A    between atoms: C7_7  and  C8_8 
REMARK    7  A    between atoms: C14_14  and  O1_15 
ROOT
HETATM    1  C8  UNL     1     -27.564 -11.711 -28.834  1.00  0.00     0.098 C 
HETATM    2  C9  UNL     1     -26.856 -12.483 -29.942  1.00  0.00     0.068 C 
HETATM    3  C10 UNL     1     -27.273 -12.060 -31.308  1.00  0.00     0.109 C 
HETATM    4  C11 UNL     1     -26.391 -12.830 -32.294  1.00  0.00     0.042 C 
HETATM    5  C12 UNL     1     -25.258 -11.889 -32.636  1.00  0.00     0.006 C 
HETATM    6  C13 UNL     1     -25.758 -10.505 -32.383  1.00  0.00     0.035 C 
HETATM    7  C14 UNL     1     -27.038 -10.614 -31.591  1.00  0.00     0.154 C 
HETATM    8  O2  UNL     1     -28.579 -12.379 -31.622  1.00  0.00    -0.245 OA
HETATM    9  S1  UNL     1     -29.559 -12.584 -30.300  1.00  0.00     0.358 S 
HETATM   10  O3  UNL     1     -29.544 -14.019 -29.860  1.00  0.00    -0.176 OA
HETATM   11  O4  UNL     1     -30.978 -12.189 -30.594  1.00  0.00    -0.176 OA
HETATM   12  N1  UNL     1     -28.969 -11.586 -29.030  1.00  0.00    -0.292 N 
ATOM     13  H1  UNL     1     -29.562 -10.969 -28.475  1.00  0.00     0.174 HD
ENDROOT
BRANCH   1  14
HETATM   14  C7  UNL     1     -27.293 -12.395 -27.528  1.00  0.00     0.026 C 
BRANCH  14  15
HETATM   15  C6  UNL     1     -26.871 -13.845 -27.840  1.00  0.00     0.002 C 
BRANCH  15  16
HETATM   16  C5  UNL     1     -26.021 -14.351 -26.759  1.00  0.00     0.000 C 
BRANCH  16  17
HETATM   17  C4  UNL     1     -25.701 -13.440 -25.659  1.00  0.00     0.000 C 
BRANCH  17  18
HETATM   18  C3  UNL     1     -24.455 -13.585 -24.900  1.00  0.00    -0.000 C 
BRANCH  18  19
HETATM   19  C2  UNL     1     -24.254 -12.740 -23.704  1.00  0.00    -0.005 C 
HETATM   20  C1  UNL     1     -23.034 -13.242 -22.889  1.00  0.00     0.005 C 
ENDBRANCH  18  19
ENDBRANCH  17  18
ENDBRANCH  16  17
ENDBRANCH  15  16
ENDBRANCH  14  15
ENDBRANCH   1  14
BRANCH   7  21
HETATM   21  O1  UNL     1     -28.094 -10.045 -32.337  1.00  0.00    -0.392 OA
ATOM     22  H1  UNL     1     -27.782  -9.628 -33.131  1.00  0.00     0.210 HD
ENDBRANCH   7  21
TORSDOF 7
ENDMDL
MODEL 4
REMARK VINA RESULT: -6.812214237      2.156      3.134
REMARK  7 active torsions:
REMARK  status: ('A' for Active; 'I' for Inactive)
REMARK    1  A    between atoms: C2_2  and  C3_3 
REMARK    2  A    between atoms: C3_3  and  C4_4 
REMARK    3  A    between atoms: C4_4  and  C5_5 
REMARK    4  A    between atoms: C5_5  and  C6_6 
REMARK    5  A    between atoms: C6_6  and  C7_7 
REMARK    6  A    between atoms: C7_7  and  C8_8 
REMARK    7  A    between atoms: C14_14  and  O1_15 
ROOT
HETATM    1  C8  UNL     1     -27.556 -11.733 -28.500  1.00  0.00     0.098 C 
HETATM    2  C9  UNL     1     -28.891 -12.337 -28.925  1.00  0.00     0.068 C 
HETATM    3  C10 UNL     1     -29.526 -11.612 -30.060  1.00  0.00     0.109 C 
HETATM    4  C11 UNL     1     -30.777 -12.407 -30.443  1.00  0.00     0.042 C 
HETATM    5  C12 UNL     1     -30.353 -13.293 -31.591  1.00  0.00     0.006 C 
HETATM    6  C13 UNL     1     -29.172 -12.634 -32.227  1.00  0.00     0.035 C 
HETATM    7  C14 UNL     1     -28.684 -11.557 -31.289  1.00  0.00     0.154 C 
HETATM    8  O2  UNL     1     -29.956 -10.338 -29.745  1.00  0.00    -0.245 OA
HETATM    9  S1  UNL     1     -29.173  -9.666 -28.447  1.00  0.00     0.358 S 
HETATM   10  O3  UNL     1     -29.903  -9.991 -27.175  1.00  0.00    -0.176 OA
HETATM   11  O4  UNL     1     -29.072  -8.172 -28.572  1.00  0.00    -0.176 OA
HETATM   12  N1  UNL     1     -27.582 -10.315 -28.379  1.00  0.00    -0.292 N 
ATOM     13  H1  UNL     1     -26.744  -9.744 -28.264  1.00  0.00     0.174 HD
ENDROOT
BRANCH   1  14
HETATM   14  C7  UNL     1     -27.148 -12.347 -27.196  1.00  0.00     0.026 C 
BRANCH  14  15
HETATM   15  C6  UNL     1     -26.789 -13.823 -27.468  1.00  0.00     0.002 C 
BRANCH  15  16
HETATM   16  C5  UNL     1     -25.872 -14.303 -26.431  1.00  0.00     0.000 C 
BRANCH  16  17
HETATM   17  C4  UNL     1     -25.600 -13.418 -25.298  1.00  0.00     0.000 C 
BRANCH  17  18
HETATM   18  C3  UNL     1     -24.231 -13.215 -24.814  1.00  0.00    -0.000 C 
BRANCH  18  19
HETATM   19  C2  UNL     1     -24.028 -12.887 -23.386  1.00  0.00    -0.005 C 
HETATM   20  C1  UNL     1     -22.764 -13.603 -22.844  1.00  0.00     0.005 C 
ENDBRANCH  18  19
ENDBRANCH  17  18
ENDBRANCH  16  17
ENDBRANCH  15  16
ENDBRANCH  14  15
ENDBRANCH   1  14
BRANCH   7  21
HETATM   21  O1  UNL     1     -28.776 -10.304 -31.936  1.00  0.00    -0.392 OA
ATOM     22  H1  UNL     1     -29.488 -10.282 -32.563  1.00  0.00     0.210 HD
ENDBRANCH   7  21
TORSDOF 7
ENDMDL
MODEL 5
REMARK VINA RESULT: -6.770714471      2.677      3.637
REMARK  7 active torsions:
REMARK  status: ('A' for Active; 'I' for Inactive)
REMARK    1  A    between atoms: C2_2  and  C3_3 
REMARK    2  A    between atoms: C3_3  and  C4_4 
REMARK    3  A    between atoms: C4_4  and  C5_5 
REMARK    4  A    between atoms: C5_5  and  C6_6 
REMARK    5  A    between atoms: C6_6  and  C7_7 
REMARK    6  A    between atoms: C7_7  and  C8_8 
REMARK    7  A    between atoms: C14_14  and  O1_15 
ROOT
HETATM    1  C8  UNL     1     -26.907 -11.694 -29.135  1.00  0.00     0.098 C 
HETATM    2  C9  UNL     1     -26.912 -12.827 -30.155  1.00  0.00     0.068 C 
HETATM    3  C10 UNL     1     -27.035 -12.349 -31.560  1.00  0.00     0.109 C 
HETATM    4  C11 UNL     1     -26.898 -13.582 -32.456  1.00  0.00     0.042 C 
HETATM    5  C12 UNL     1     -25.445 -13.615 -32.873  1.00  0.00     0.006 C 
HETATM    6  C13 UNL     1     -24.935 -12.216 -32.761  1.00  0.00     0.035 C 
HETATM    7  C14 UNL     1     -25.948 -11.417 -31.978  1.00  0.00     0.154 C 
HETATM    8  O2  UNL     1     -28.258 -11.784 -31.858  1.00  0.00    -0.245 OA
HETATM    9  S1  UNL     1     -29.073 -11.207 -30.535  1.00  0.00     0.358 S 
HETATM   10  O3  UNL     1     -29.953 -12.279 -29.957  1.00  0.00    -0.176 OA
HETATM   11  O4  UNL     1     -29.929 -10.022 -30.883  1.00  0.00    -0.176 OA
HETATM   12  N1  UNL     1     -27.918 -10.717 -29.359  1.00  0.00    -0.292 N 
ATOM     13  H1  UNL     1     -27.952  -9.820 -28.874  1.00  0.00     0.174 HD
ENDROOT
BRANCH   1  14
HETATM   14  C7  UNL     1     -27.065 -12.283 -27.766  1.00  0.00     0.026 C 
BRANCH  14  15
HETATM   15  C6  UNL     1     -26.936 -13.814 -27.900  1.00  0.00     0.002 C 
BRANCH  15  16
HETATM   16  C5  UNL     1     -26.100 -14.332 -26.814  1.00  0.00     0.000 C 
BRANCH  16  17
HETATM   17  C4  UNL     1     -25.741 -13.414 -25.732  1.00  0.00     0.000 C 
BRANCH  17  18
HETATM   18  C3  UNL     1     -24.518 -13.615 -24.949  1.00  0.00    -0.000 C 
BRANCH  18  19
HETATM   19  C2  UNL     1     -24.303 -12.780 -23.748  1.00  0.00    -0.005 C 
HETATM   20  C1  UNL     1     -23.055 -13.269 -22.969  1.00  0.00     0.005 C 
ENDBRANCH  18  19
ENDBRANCH  17  18
ENDBRANCH  16  17
ENDBRANCH  15  16
ENDBRANCH  14  15
ENDBRANCH   1  14
BRANCH   7  21
HETATM   21  O1  UNL     1     -26.437 -10.368 -32.788  1.00  0.00    -0.392 OA
ATOM     22  H1  UNL     1     -27.179  -9.929 -32.389  1.00  0.00     0.210 HD
ENDBRANCH   7  21
TORSDOF 7
ENDMDL
