MODEL 1
REMARK VINA RESULT: -6.959006617      0.000      0.000
REMARK  11 active torsions:
REMARK  status: ('A' for Active; 'I' for Inactive)
REMARK    1  A    between atoms: C2_2  and  C3_4 
REMARK    2  A    between atoms: C3_4  and  O1_5 
REMARK    3  A    between atoms: C3_4  and  C4_8 
REMARK    4  A    between atoms: C4_8  and  C5_10 
REMARK    5  A    between atoms: C5_10  and  O2_11 
REMARK    6  A    between atoms: C5_10  and  C6_13 
REMARK       I    between atoms: C6_13  and  N1_15 
REMARK    7  A    between atoms: N1_15  and  C7_17 
REMARK    8  A    between atoms: C7_17  and  C8_18 
REMARK    9  A    between atoms: C7_17  and  C11_26 
REMARK   10  A    between atoms: C8_18  and  C9_19 
REMARK   11  A    between atoms: C9_19  and  C10_22 
ROOT
HETATM    1  C6  UNL     1      62.956  12.465 -24.117  1.00  0.00     0.249 C 
HETATM    2  O3  UNL     1      63.708  12.925 -25.012  1.00  0.00    -0.271 OA
HETATM    3  N1  UNL     1      63.167  11.153 -23.659  1.00  0.00    -0.350 N 
ATOM      4  H1  UNL     1      62.557  10.775 -22.935  1.00  0.00     0.163 HD
ENDROOT
BRANCH   3   5
HETATM    5  C7  UNL     1      64.220  10.335 -24.185  1.00  0.00     0.144 C 
BRANCH   5   6
HETATM    6  C8  UNL     1      63.850   8.906 -24.423  1.00  0.00     0.118 C 
BRANCH   6   7
HETATM    7  C9  UNL     1      63.880   8.458 -25.843  1.00  0.00     0.341 C 
HETATM    8  F4  UNL     1      62.775   8.992 -26.478  1.00  0.00    -0.196 F 
HETATM    9  F5  UNL     1      65.041   8.760 -26.491  1.00  0.00    -0.196 F 
BRANCH   7  10
HETATM   10  C10 UNL     1      63.644   6.941 -25.832  1.00  0.00     0.454 C 
HETATM   11  F6  UNL     1      62.993   6.562 -27.013  1.00  0.00    -0.165 F 
HETATM   12  F7  UNL     1      64.816   6.245 -25.720  1.00  0.00    -0.165 F 
HETATM   13  F8  UNL     1      62.814   6.592 -24.787  1.00  0.00    -0.165 F 
ENDBRANCH   7  10
ENDBRANCH   6   7
ENDBRANCH   5   6
BRANCH   5  14
HETATM   14  C11 UNL     1      65.406  10.276 -23.198  1.00  0.00     0.208 C 
HETATM   15 CL1  UNL     1      66.563  11.542 -23.634  1.00  0.00    -0.082 Cl
HETATM   16 CL2  UNL     1      66.197   8.705 -23.264  1.00  0.00    -0.082 Cl
HETATM   17 CL3  UNL     1      64.757  10.611 -21.584  1.00  0.00    -0.082 Cl
ENDBRANCH   5  14
ENDBRANCH   3   5
BRANCH   1  18
HETATM   18  C5  UNL     1      61.886  13.357 -23.603  1.00  0.00     0.249 C 
BRANCH  18  19
HETATM   19  C4  UNL     1      60.668  13.260 -24.474  1.00  0.00     0.277 C 
HETATM   20  F3  UNL     1      60.140  14.563 -24.529  1.00  0.00    -0.240 F 
BRANCH  19  21
HETATM   21  C3  UNL     1      59.617  12.308 -24.044  1.00  0.00     0.267 C 
HETATM   22  F2  UNL     1      60.009  11.574 -22.960  1.00  0.00    -0.205 F 
BRANCH  21  23
HETATM   23  C2  UNL     1      58.252  12.851 -23.819  1.00  0.00     0.236 C 
HETATM   24  C1  UNL     1      57.460  11.769 -23.059  1.00  0.00     0.051 C 
HETATM   25  F1  UNL     1      57.548  13.122 -24.958  1.00  0.00    -0.244 F 
ENDBRANCH  21  23
BRANCH  21  26
HETATM   26  O1  UNL     1      59.483  11.376 -25.117  1.00  0.00    -0.357 OA
ATOM     27  H1  UNL     1      59.413  10.523 -24.704  1.00  0.00     0.213 HD
ENDBRANCH  21  26
ENDBRANCH  19  21
ENDBRANCH  18  19
BRANCH  18  28
HETATM   28  O2  UNL     1      62.293  14.686 -23.565  1.00  0.00    -0.383 OA
ATOM     29  H2  UNL     1      61.971  15.074 -22.759  1.00  0.00     0.210 HD
ENDBRANCH  18  28
ENDBRANCH   1  18
TORSDOF 11
ENDMDL
MODEL 2
REMARK VINA RESULT: -6.942903598      2.712      6.068
REMARK  11 active torsions:
REMARK  status: ('A' for Active; 'I' for Inactive)
REMARK    1  A    between atoms: C2_2  and  C3_4 
REMARK    2  A    between atoms: C3_4  and  O1_5 
REMARK    3  A    between atoms: C3_4  and  C4_8 
REMARK    4  A    between atoms: C4_8  and  C5_10 
REMARK    5  A    between atoms: C5_10  and  O2_11 
REMARK    6  A    between atoms: C5_10  and  C6_13 
REMARK       I    between atoms: C6_13  and  N1_15 
REMARK    7  A    between atoms: N1_15  and  C7_17 
REMARK    8  A    between atoms: C7_17  and  C8_18 
REMARK    9  A    between atoms: C7_17  and  C11_26 
REMARK   10  A    between atoms: C8_18  and  C9_19 
REMARK   11  A    between atoms: C9_19  and  C10_22 
ROOT
HETATM    1  C6  UNL     1      63.611  11.556 -23.968  1.00  0.00     0.249 C 
HETATM    2  O3  UNL     1      63.383  11.168 -22.795  1.00  0.00    -0.271 OA
HETATM    3  N1  UNL     1      62.956  12.703 -24.446  1.00  0.00    -0.350 N 
ATOM      4  H1  UNL     1      63.136  13.019 -25.398  1.00  0.00     0.163 HD
ENDROOT
BRANCH   3   5
HETATM    5  C7  UNL     1      62.040  13.441 -23.625  1.00  0.00     0.144 C 
BRANCH   5   6
HETATM    6  C8  UNL     1      60.666  13.593 -24.193  1.00  0.00     0.118 C 
BRANCH   6   7
HETATM    7  C9  UNL     1      59.687  12.538 -23.808  1.00  0.00     0.341 C 
HETATM    8  F4  UNL     1      60.270  11.758 -22.829  1.00  0.00    -0.196 F 
HETATM    9  F5  UNL     1      58.474  13.026 -23.423  1.00  0.00    -0.196 F 
BRANCH   7  10
HETATM   10  C10 UNL     1      59.537  11.612 -25.024  1.00  0.00     0.454 C 
HETATM   11  F6  UNL     1      58.265  11.025 -25.007  1.00  0.00    -0.165 F 
HETATM   12  F7  UNL     1      59.706  12.287 -26.201  1.00  0.00    -0.165 F 
HETATM   13  F8  UNL     1      60.454  10.584 -24.961  1.00  0.00    -0.165 F 
ENDBRANCH   7  10
ENDBRANCH   6   7
ENDBRANCH   5   6
BRANCH   5  14
HETATM   14  C11 UNL     1      62.543  14.886 -23.416  1.00  0.00     0.208 C 
HETATM   15 CL1  UNL     1      63.896  15.176 -24.519  1.00  0.00    -0.082 Cl
HETATM   16 CL2  UNL     1      63.074  15.129 -21.756  1.00  0.00    -0.082 Cl
HETATM   17 CL3  UNL     1      61.206  15.968 -23.837  1.00  0.00    -0.082 Cl
ENDBRANCH   5  14
ENDBRANCH   3   5
BRANCH   1  18
HETATM   18  C5  UNL     1      64.572  10.758 -24.772  1.00  0.00     0.249 C 
BRANCH  18  19
HETATM   19  C4  UNL     1      64.935   9.497 -24.044  1.00  0.00     0.277 C 
HETATM   20  F3  UNL     1      66.259   9.683 -23.605  1.00  0.00    -0.240 F 
BRANCH  19  21
HETATM   21  C3  UNL     1      64.830   8.232 -24.810  1.00  0.00     0.267 C 
HETATM   22  F2  UNL     1      65.751   7.311 -24.397  1.00  0.00    -0.205 F 
BRANCH  21  23
HETATM   23  C2  UNL     1      63.489   7.598 -24.905  1.00  0.00     0.236 C 
HETATM   24  C1  UNL     1      63.267   7.243 -26.388  1.00  0.00     0.051 C 
HETATM   25  F1  UNL     1      62.448   8.402 -24.534  1.00  0.00    -0.244 F 
ENDBRANCH  21  23
BRANCH  21  26
HETATM   26  O1  UNL     1      65.188   8.567 -26.150  1.00  0.00    -0.357 OA
ATOM     27  H1  UNL     1      66.052   8.194 -26.283  1.00  0.00     0.213 HD
ENDBRANCH  21  26
ENDBRANCH  19  21
ENDBRANCH  18  19
BRANCH  18  28
HETATM   28  O2  UNL     1      65.740  11.464 -25.034  1.00  0.00    -0.383 OA
ATOM     29  H2  UNL     1      65.891  11.455 -25.972  1.00  0.00     0.210 HD
ENDBRANCH  18  28
ENDBRANCH   1  18
TORSDOF 11
ENDMDL
MODEL 3
REMARK VINA RESULT: -6.914747842      2.630      6.170
REMARK  11 active torsions:
REMARK  status: ('A' for Active; 'I' for Inactive)
REMARK    1  A    between atoms: C2_2  and  C3_4 
REMARK    2  A    between atoms: C3_4  and  O1_5 
REMARK    3  A    between atoms: C3_4  and  C4_8 
REMARK    4  A    between atoms: C4_8  and  C5_10 
REMARK    5  A    between atoms: C5_10  and  O2_11 
REMARK    6  A    between atoms: C5_10  and  C6_13 
REMARK       I    between atoms: C6_13  and  N1_15 
REMARK    7  A    between atoms: N1_15  and  C7_17 
REMARK    8  A    between atoms: C7_17  and  C8_18 
REMARK    9  A    between atoms: C7_17  and  C11_26 
REMARK   10  A    between atoms: C8_18  and  C9_19 
REMARK   11  A    between atoms: C9_19  and  C10_22 
ROOT
HETATM    1  C6  UNL     1      63.668  11.622 -24.250  1.00  0.00     0.249 C 
HETATM    2  O3  UNL     1      63.413  11.087 -23.142  1.00  0.00    -0.271 OA
HETATM    3  N1  UNL     1      63.041  12.836 -24.580  1.00  0.00    -0.350 N 
ATOM      4  H1  UNL     1      63.243  13.271 -25.479  1.00  0.00     0.163 HD
ENDROOT
BRANCH   3   5
HETATM    5  C7  UNL     1      62.123  13.475 -23.683  1.00  0.00     0.144 C 
BRANCH   5   6
HETATM    6  C8  UNL     1      60.725  13.602 -24.196  1.00  0.00     0.118 C 
BRANCH   6   7
HETATM    7  C9  UNL     1      59.790  12.511 -23.801  1.00  0.00     0.341 C 
HETATM    8  F4  UNL     1      60.439  11.711 -22.881  1.00  0.00    -0.196 F 
HETATM    9  F5  UNL     1      58.588  12.956 -23.339  1.00  0.00    -0.196 F 
BRANCH   7  10
HETATM   10  C10 UNL     1      59.600  11.625 -25.041  1.00  0.00     0.454 C 
HETATM   11  F6  UNL     1      60.597  10.640 -25.067  1.00  0.00    -0.165 F 
HETATM   12  F7  UNL     1      58.372  11.024 -25.052  1.00  0.00    -0.165 F 
HETATM   13  F8  UNL     1      59.744  12.372 -26.191  1.00  0.00    -0.165 F 
ENDBRANCH   7  10
ENDBRANCH   6   7
ENDBRANCH   5   6
BRANCH   5  14
HETATM   14  C11 UNL     1      62.571  14.924 -23.392  1.00  0.00     0.208 C 
HETATM   15 CL1  UNL     1      63.927  15.319 -24.458  1.00  0.00    -0.082 Cl
HETATM   16 CL2  UNL     1      63.069  15.099 -21.713  1.00  0.00    -0.082 Cl
HETATM   17 CL3  UNL     1      61.200  15.979 -23.778  1.00  0.00    -0.082 Cl
ENDBRANCH   5  14
ENDBRANCH   3   5
BRANCH   1  18
HETATM   18  C5  UNL     1      64.630  10.920 -25.138  1.00  0.00     0.249 C 
BRANCH  18  19
HETATM   19  C4  UNL     1      64.804   9.499 -24.691  1.00  0.00     0.277 C 
HETATM   20  F3  UNL     1      66.162   9.200 -24.907  1.00  0.00    -0.240 F 
BRANCH  19  21
HETATM   21  C3  UNL     1      63.953   8.483 -25.355  1.00  0.00     0.267 C 
HETATM   22  F2  UNL     1      63.530   8.901 -26.586  1.00  0.00    -0.205 F 
BRANCH  21  23
HETATM   23  C2  UNL     1      64.485   7.098 -25.448  1.00  0.00     0.236 C 
HETATM   24  C1  UNL     1      63.960   6.505 -26.770  1.00  0.00     0.051 C 
HETATM   25  F1  UNL     1      64.073   6.258 -24.452  1.00  0.00    -0.244 F 
ENDBRANCH  21  23
BRANCH  21  26
HETATM   26  O1  UNL     1      62.777   8.385 -24.553  1.00  0.00    -0.357 OA
ATOM     27  H1  UNL     1      63.083   8.397 -23.653  1.00  0.00     0.213 HD
ENDBRANCH  21  26
ENDBRANCH  19  21
ENDBRANCH  18  19
BRANCH  18  28
HETATM   28  O2  UNL     1      65.876  11.535 -25.141  1.00  0.00    -0.383 OA
ATOM     29  H2  UNL     1      66.064  11.836 -24.260  1.00  0.00     0.210 HD
ENDBRANCH  18  28
ENDBRANCH   1  18
TORSDOF 11
ENDMDL
MODEL 4
REMARK VINA RESULT: -6.837341954      2.699      6.304
REMARK  11 active torsions:
REMARK  status: ('A' for Active; 'I' for Inactive)
REMARK    1  A    between atoms: C2_2  and  C3_4 
REMARK    2  A    between atoms: C3_4  and  O1_5 
REMARK    3  A    between atoms: C3_4  and  C4_8 
REMARK    4  A    between atoms: C4_8  and  C5_10 
REMARK    5  A    between atoms: C5_10  and  O2_11 
REMARK    6  A    between atoms: C5_10  and  C6_13 
REMARK       I    between atoms: C6_13  and  N1_15 
REMARK    7  A    between atoms: N1_15  and  C7_17 
REMARK    8  A    between atoms: C7_17  and  C8_18 
REMARK    9  A    between atoms: C7_17  and  C11_26 
REMARK   10  A    between atoms: C8_18  and  C9_19 
REMARK   11  A    between atoms: C9_19  and  C10_22 
ROOT
HETATM    1  C6  UNL     1      63.677  11.567 -23.853  1.00  0.00     0.249 C 
HETATM    2  O3  UNL     1      63.270  11.103 -22.759  1.00  0.00    -0.271 OA
HETATM    3  N1  UNL     1      63.134  12.775 -24.324  1.00  0.00    -0.350 N 
ATOM      4  H1  UNL     1      63.460  13.154 -25.213  1.00  0.00     0.163 HD
ENDROOT
BRANCH   3   5
HETATM    5  C7  UNL     1      62.135  13.488 -23.583  1.00  0.00     0.144 C 
BRANCH   5   6
HETATM    6  C8  UNL     1      60.787  13.536 -24.228  1.00  0.00     0.118 C 
BRANCH   6   7
HETATM    7  C9  UNL     1      59.978  12.289 -24.128  1.00  0.00     0.341 C 
HETATM    8  F4  UNL     1      60.401  11.430 -25.123  1.00  0.00    -0.196 F 
HETATM    9  F5  UNL     1      60.015  11.707 -22.896  1.00  0.00    -0.196 F 
BRANCH   7  10
HETATM   10  C10 UNL     1      58.538  12.667 -24.506  1.00  0.00     0.454 C 
HETATM   11  F6  UNL     1      57.920  13.294 -23.416  1.00  0.00    -0.165 F 
HETATM   12  F7  UNL     1      58.500  13.502 -25.588  1.00  0.00    -0.165 F 
HETATM   13  F8  UNL     1      57.803  11.534 -24.787  1.00  0.00    -0.165 F 
ENDBRANCH   7  10
ENDBRANCH   6   7
ENDBRANCH   5   6
BRANCH   5  14
HETATM   14  C11 UNL     1      62.542  14.967 -23.408  1.00  0.00     0.208 C 
HETATM   15 CL1  UNL     1      63.889  15.313 -24.502  1.00  0.00    -0.082 Cl
HETATM   16 CL2  UNL     1      63.033  15.288 -21.749  1.00  0.00    -0.082 Cl
HETATM   17 CL3  UNL     1      61.144  15.950 -23.876  1.00  0.00    -0.082 Cl
ENDBRANCH   5  14
ENDBRANCH   3   5
BRANCH   1  18
HETATM   18  C5  UNL     1      64.717  10.792 -24.575  1.00  0.00     0.249 C 
BRANCH  18  19
HETATM   19  C4  UNL     1      64.942   9.471 -23.898  1.00  0.00     0.277 C 
HETATM   20  F3  UNL     1      66.237   9.543 -23.355  1.00  0.00    -0.240 F 
BRANCH  19  21
HETATM   21  C3  UNL     1      64.815   8.260 -24.744  1.00  0.00     0.267 C 
HETATM   22  F2  UNL     1      65.714   7.295 -24.386  1.00  0.00    -0.205 F 
BRANCH  21  23
HETATM   23  C2  UNL     1      63.462   7.662 -24.885  1.00  0.00     0.236 C 
HETATM   24  C1  UNL     1      63.287   7.298 -26.372  1.00  0.00     0.051 C 
HETATM   25  F1  UNL     1      62.430   8.497 -24.562  1.00  0.00    -0.244 F 
ENDBRANCH  21  23
BRANCH  21  26
HETATM   26  O1  UNL     1      65.188   8.671 -26.059  1.00  0.00    -0.357 OA
ATOM     27  H1  UNL     1      66.076   8.355 -26.180  1.00  0.00     0.213 HD
ENDBRANCH  21  26
ENDBRANCH  19  21
ENDBRANCH  18  19
BRANCH  18  28
HETATM   28  O2  UNL     1      65.929  11.470 -24.626  1.00  0.00    -0.383 OA
ATOM     29  H2  UNL     1      66.113  11.687 -25.532  1.00  0.00     0.210 HD
ENDBRANCH  18  28
ENDBRANCH   1  18
TORSDOF 11
ENDMDL
MODEL 5
REMARK VINA RESULT: -6.796736245      1.270      1.908
REMARK  11 active torsions:
REMARK  status: ('A' for Active; 'I' for Inactive)
REMARK    1  A    between atoms: C2_2  and  C3_4 
REMARK    2  A    between atoms: C3_4  and  O1_5 
REMARK    3  A    between atoms: C3_4  and  C4_8 
REMARK    4  A    between atoms: C4_8  and  C5_10 
REMARK    5  A    between atoms: C5_10  and  O2_11 
REMARK    6  A    between atoms: C5_10  and  C6_13 
REMARK       I    between atoms: C6_13  and  N1_15 
REMARK    7  A    between atoms: N1_15  and  C7_17 
REMARK    8  A    between atoms: C7_17  and  C8_18 
REMARK    9  A    between atoms: C7_17  and  C11_26 
REMARK   10  A    between atoms: C8_18  and  C9_19 
REMARK   11  A    between atoms: C9_19  and  C10_22 
ROOT
HETATM    1  C6  UNL     1      63.651  11.138 -23.854  1.00  0.00     0.249 C 
HETATM    2  O3  UNL     1      64.093  11.614 -24.929  1.00  0.00    -0.271 OA
HETATM    3  N1  UNL     1      64.279  10.009 -23.300  1.00  0.00    -0.350 N 
ATOM      4  H1  UNL     1      63.922   9.619 -22.429  1.00  0.00     0.163 HD
ENDROOT
BRANCH   3   5
HETATM    5  C7  UNL     1      65.410   9.394 -23.931  1.00  0.00     0.144 C 
BRANCH   5   6
HETATM    6  C8  UNL     1      65.185   7.994 -24.403  1.00  0.00     0.118 C 
BRANCH   6   7
HETATM    7  C9  UNL     1      64.871   7.842 -25.852  1.00  0.00     0.341 C 
HETATM    8  F4  UNL     1      65.090   9.062 -26.461  1.00  0.00    -0.196 F 
HETATM    9  F5  UNL     1      65.556   6.833 -26.461  1.00  0.00    -0.196 F 
BRANCH   7  10
HETATM   10  C10 UNL     1      63.357   7.607 -25.952  1.00  0.00     0.454 C 
HETATM   11  F6  UNL     1      62.711   8.828 -26.184  1.00  0.00    -0.165 F 
HETATM   12  F7  UNL     1      63.044   6.734 -26.956  1.00  0.00    -0.165 F 
HETATM   13  F8  UNL     1      62.868   7.114 -24.760  1.00  0.00    -0.165 F 
ENDBRANCH   7  10
ENDBRANCH   6   7
ENDBRANCH   5   6
BRANCH   5  14
HETATM   14  C11 UNL     1      66.593   9.293 -22.944  1.00  0.00     0.208 C 
HETATM   15 CL1  UNL     1      67.056   7.592 -22.793  1.00  0.00    -0.082 Cl
HETATM   16 CL2  UNL     1      66.144   9.924 -21.364  1.00  0.00    -0.082 Cl
HETATM   17 CL3  UNL     1      67.939  10.203 -23.650  1.00  0.00    -0.082 Cl
ENDBRANCH   5  14
ENDBRANCH   3   5
BRANCH   1  18
HETATM   18  C5  UNL     1      62.482  11.818 -23.240  1.00  0.00     0.249 C 
BRANCH  18  19
HETATM   19  C4  UNL     1      61.609  12.411 -24.306  1.00  0.00     0.277 C 
HETATM   20  F3  UNL     1      61.848  13.796 -24.261  1.00  0.00    -0.240 F 
BRANCH  19  21
HETATM   21  C3  UNL     1      60.154  12.146 -24.199  1.00  0.00     0.267 C 
HETATM   22  F2  UNL     1      59.819  11.640 -22.974  1.00  0.00    -0.205 F 
BRANCH  21  23
HETATM   23  C2  UNL     1      59.229  13.251 -24.560  1.00  0.00     0.236 C 
HETATM   24  C1  UNL     1      57.805  12.772 -24.216  1.00  0.00     0.051 C 
HETATM   25  F1  UNL     1      59.221  13.583 -25.885  1.00  0.00    -0.244 F 
ENDBRANCH  21  23
BRANCH  21  26
HETATM   26  O1  UNL     1      59.885  11.104 -25.137  1.00  0.00    -0.357 OA
ATOM     27  H1  UNL     1      60.061  10.294 -24.673  1.00  0.00     0.213 HD
ENDBRANCH  21  26
ENDBRANCH  19  21
ENDBRANCH  18  19
BRANCH  18  28
HETATM   28  O2  UNL     1      62.868  12.834 -22.374  1.00  0.00    -0.383 OA
ATOM     29  H2  UNL     1      62.253  13.552 -22.462  1.00  0.00     0.210 HD
ENDBRANCH  18  28
ENDBRANCH   1  18
TORSDOF 11
ENDMDL
