MODEL 1
REMARK VINA RESULT: -6.267091860      0.000      0.000
REMARK  9 active torsions:
REMARK  status: ('A' for Active; 'I' for Inactive)
REMARK    1  A    between atoms: C2_2  and  N1_3 
REMARK    2  A    between atoms: N1_3  and  C3_5 
REMARK    3  A    between atoms: C4_8  and  N3_9 
REMARK    4  A    between atoms: C6_14  and  N5_15 
REMARK    5  A    between atoms: N5_15  and  C7_17 
REMARK    6  A    between atoms: C7_17  and  C8_18 
REMARK    7  A    between atoms: C8_18  and  C9_19 
REMARK    8  A    between atoms: C9_19  and  N6_20 
REMARK    9  A    between atoms: N6_20  and  C10_22 
ROOT
HETATM    1  C3  UNL     1     -84.905 -48.005 111.726  1.00  0.00     0.707 A 
HETATM    2  N2  UNL     1     -84.261 -48.718 112.650  1.00  0.00    -0.022 N 
ATOM      3  H2  UNL     1     -84.799 -49.244 113.340  1.00  0.00     0.203 HD
HETATM    4  C4  UNL     1     -82.901 -48.760 112.691  1.00  0.00     0.706 A 
HETATM    5  N4  UNL     1     -82.227 -48.064 111.779  1.00  0.00    -0.022 N 
ATOM      6  H4  UNL     1     -81.208 -48.086 111.800  1.00  0.00     0.203 HD
HETATM    7  C6  UNL     1     -82.845 -47.328 110.824  1.00  0.00     0.707 A 
HETATM    8  N8  UNL     1     -84.184 -47.319 110.826  1.00  0.00    -0.022 N 
ATOM      9  H8  UNL     1     -84.674 -46.771 110.118  1.00  0.00     0.203 HD
ENDROOT
BRANCH   7  10
HETATM   10  N5  UNL     1     -82.127 -46.704 110.005  1.00  0.00    -0.225 N 
ATOM     11  H5  UNL     1     -82.169 -47.029 109.039  1.00  0.00     0.177 HD
BRANCH  10  12
HETATM   12  C7  UNL     1     -81.262 -45.602 110.250  1.00  0.00     0.139 C 
BRANCH  12  13
HETATM   13  C8  UNL     1     -81.974 -44.295 109.927  1.00  0.00     0.040 C 
BRANCH  13  14
HETATM   14  C9  UNL     1     -81.048 -43.397 109.137  1.00  0.00     0.122 C 
BRANCH  14  15
HETATM   15  N6  UNL     1     -80.205 -44.194 108.262  1.00  0.00    -0.386 N 
ATOM     16  H6  UNL     1     -80.615 -45.007 107.802  1.00  0.00     0.160 HD
BRANCH  15  17
HETATM   17  C10 UNL     1     -78.839 -43.895 108.016  1.00  0.00     0.168 C 
HETATM   18  N7  UNL     1     -78.043 -43.771 109.031  1.00  0.00    -0.396 N 
ATOM     19  H72 UNL     1     -78.405 -43.889 109.977  1.00  0.00     0.156 HD
ATOM     20  H71 UNL     1     -77.062 -43.557 108.854  1.00  0.00     0.156 HD
ENDBRANCH  15  17
ENDBRANCH  14  15
ENDBRANCH  13  14
ENDBRANCH  12  13
ENDBRANCH  10  12
ENDBRANCH   7  10
BRANCH   4  21
HETATM   21  N3  UNL     1     -82.270 -49.440 113.572  1.00  0.00    -0.229 N 
HETATM   22  C5  UNL     1     -82.986 -50.065 114.645  1.00  0.00     0.165 C 
ATOM     23  H3  UNL     1     -81.257 -49.540 113.510  1.00  0.00     0.177 HD
ENDBRANCH   4  21
BRANCH   1  24
HETATM   24  N1  UNL     1     -86.169 -47.963 111.686  1.00  0.00    -0.225 N 
ATOM     25  H1  UNL     1     -86.639 -47.539 112.485  1.00  0.00     0.177 HD
BRANCH  24  26
HETATM   26  C2  UNL     1     -87.004 -48.449 110.636  1.00  0.00     0.133 C 
HETATM   27  C1  UNL     1     -87.427 -49.861 110.975  1.00  0.00     0.027 C 
ENDBRANCH  24  26
ENDBRANCH   1  24
TORSDOF 9
ENDMDL
MODEL 2
REMARK VINA RESULT: -6.214443368      1.105      1.273
REMARK  9 active torsions:
REMARK  status: ('A' for Active; 'I' for Inactive)
REMARK    1  A    between atoms: C2_2  and  N1_3 
REMARK    2  A    between atoms: N1_3  and  C3_5 
REMARK    3  A    between atoms: C4_8  and  N3_9 
REMARK    4  A    between atoms: C6_14  and  N5_15 
REMARK    5  A    between atoms: N5_15  and  C7_17 
REMARK    6  A    between atoms: C7_17  and  C8_18 
REMARK    7  A    between atoms: C8_18  and  C9_19 
REMARK    8  A    between atoms: C9_19  and  N6_20 
REMARK    9  A    between atoms: N6_20  and  C10_22 
ROOT
HETATM    1  C3  UNL     1     -84.973 -47.819 111.278  1.00  0.00     0.707 A 
HETATM    2  N2  UNL     1     -84.994 -48.639 112.329  1.00  0.00    -0.022 N 
ATOM      3  H2  UNL     1     -85.879 -49.051 112.625  1.00  0.00     0.203 HD
HETATM    4  C4  UNL     1     -83.856 -48.936 113.017  1.00  0.00     0.706 A 
HETATM    5  N4  UNL     1     -82.718 -48.384 112.609  1.00  0.00    -0.022 N 
ATOM      6  H4  UNL     1     -81.859 -48.598 113.115  1.00  0.00     0.203 HD
HETATM    7  C6  UNL     1     -82.656 -47.547 111.544  1.00  0.00     0.707 A 
HETATM    8  N8  UNL     1     -83.802 -47.285 110.902  1.00  0.00    -0.022 N 
ATOM      9  H8  UNL     1     -83.783 -46.656 110.098  1.00  0.00     0.203 HD
ENDROOT
BRANCH   7  10
HETATM   10  N5  UNL     1     -81.536 -47.072 111.233  1.00  0.00    -0.225 N 
ATOM     11  H5  UNL     1     -80.828 -47.751 110.954  1.00  0.00     0.177 HD
BRANCH  10  12
HETATM   12  C7  UNL     1     -81.128 -45.710 111.217  1.00  0.00     0.139 C 
BRANCH  12  13
HETATM   13  C8  UNL     1     -81.070 -45.197 109.785  1.00  0.00     0.040 C 
BRANCH  13  14
HETATM   14  C9  UNL     1     -81.262 -43.697 109.776  1.00  0.00     0.122 C 
BRANCH  14  15
HETATM   15  N6  UNL     1     -80.186 -43.060 109.037  1.00  0.00    -0.386 N 
ATOM     16  H6  UNL     1     -80.183 -42.043 108.962  1.00  0.00     0.160 HD
BRANCH  15  17
HETATM   17  C10 UNL     1     -79.136 -43.786 108.413  1.00  0.00     0.168 C 
HETATM   18  N7  UNL     1     -77.948 -43.715 108.925  1.00  0.00    -0.396 N 
ATOM     19  H72 UNL     1     -77.787 -43.146 109.756  1.00  0.00     0.156 HD
ATOM     20  H71 UNL     1     -77.195 -44.236 108.477  1.00  0.00     0.156 HD
ENDBRANCH  15  17
ENDBRANCH  14  15
ENDBRANCH  13  14
ENDBRANCH  12  13
ENDBRANCH  10  12
ENDBRANCH   7  10
BRANCH   4  21
HETATM   21  N3  UNL     1     -83.861 -49.721 114.027  1.00  0.00    -0.229 N 
HETATM   22  C5  UNL     1     -82.629 -50.080 114.664  1.00  0.00     0.165 C 
ATOM     23  H3  UNL     1     -84.744 -50.092 114.379  1.00  0.00     0.177 HD
ENDBRANCH   4  21
BRANCH   1  24
HETATM   24  N1  UNL     1     -86.028 -47.540 110.638  1.00  0.00    -0.225 N 
ATOM     25  H1  UNL     1     -86.509 -46.679 110.901  1.00  0.00     0.177 HD
BRANCH  24  26
HETATM   26  C2  UNL     1     -86.615 -48.305 109.587  1.00  0.00     0.133 C 
HETATM   27  C1  UNL     1     -85.765 -48.146 108.346  1.00  0.00     0.027 C 
ENDBRANCH  24  26
ENDBRANCH   1  24
TORSDOF 9
ENDMDL
MODEL 3
REMARK VINA RESULT: -6.164751255      1.907      3.400
REMARK  9 active torsions:
REMARK  status: ('A' for Active; 'I' for Inactive)
REMARK    1  A    between atoms: C2_2  and  N1_3 
REMARK    2  A    between atoms: N1_3  and  C3_5 
REMARK    3  A    between atoms: C4_8  and  N3_9 
REMARK    4  A    between atoms: C6_14  and  N5_15 
REMARK    5  A    between atoms: N5_15  and  C7_17 
REMARK    6  A    between atoms: C7_17  and  C8_18 
REMARK    7  A    between atoms: C8_18  and  C9_19 
REMARK    8  A    between atoms: C9_19  and  N6_20 
REMARK    9  A    between atoms: N6_20  and  C10_22 
ROOT
HETATM    1  C3  UNL     1     -82.589 -47.985 111.706  1.00  0.00     0.707 A 
HETATM    2  N2  UNL     1     -82.946 -48.473 110.518  1.00  0.00    -0.022 N 
ATOM      3  H2  UNL     1     -83.128 -49.472 110.422  1.00  0.00     0.203 HD
HETATM    4  C4  UNL     1     -83.074 -47.664 109.430  1.00  0.00     0.706 A 
HETATM    5  N4  UNL     1     -82.830 -46.366 109.585  1.00  0.00    -0.022 N 
ATOM      6  H4  UNL     1     -82.921 -45.749 108.778  1.00  0.00     0.203 HD
HETATM    7  C6  UNL     1     -82.466 -45.831 110.776  1.00  0.00     0.707 A 
HETATM    8  N8  UNL     1     -82.353 -46.668 111.816  1.00  0.00    -0.022 N 
ATOM      9  H8  UNL     1     -82.079 -46.292 112.724  1.00  0.00     0.203 HD
ENDROOT
BRANCH   7  10
HETATM   10  N5  UNL     1     -82.256 -44.595 110.828  1.00  0.00    -0.225 N 
ATOM     11  H5  UNL     1     -81.902 -44.241 111.716  1.00  0.00     0.177 HD
BRANCH  10  12
HETATM   12  C7  UNL     1     -82.448 -43.624 109.806  1.00  0.00     0.139 C 
BRANCH  12  13
HETATM   13  C8  UNL     1     -81.157 -42.852 109.568  1.00  0.00     0.040 C 
BRANCH  13  14
HETATM   14  C9  UNL     1     -80.627 -43.168 108.187  1.00  0.00     0.122 C 
BRANCH  14  15
HETATM   15  N6  UNL     1     -79.973 -44.466 108.188  1.00  0.00    -0.386 N 
ATOM     16  H6  UNL     1     -80.554 -45.302 108.155  1.00  0.00     0.160 HD
BRANCH  15  17
HETATM   17  C10 UNL     1     -78.562 -44.624 108.233  1.00  0.00     0.168 C 
HETATM   18  N7  UNL     1     -77.875 -43.815 108.977  1.00  0.00    -0.396 N 
ATOM     19  H72 UNL     1     -78.351 -43.088 109.511  1.00  0.00     0.156 HD
ATOM     20  H71 UNL     1     -76.862 -43.929 109.009  1.00  0.00     0.156 HD
ENDBRANCH  15  17
ENDBRANCH  14  15
ENDBRANCH  13  14
ENDBRANCH  12  13
ENDBRANCH  10  12
ENDBRANCH   7  10
BRANCH   4  21
HETATM   21  N3  UNL     1     -83.417 -48.119 108.284  1.00  0.00    -0.229 N 
HETATM   22  C5  UNL     1     -84.794 -48.106 107.889  1.00  0.00     0.165 C 
ATOM     23  H3  UNL     1     -82.709 -48.490 107.651  1.00  0.00     0.177 HD
ENDBRANCH   4  21
BRANCH   1  24
HETATM   24  N1  UNL     1     -82.468 -48.734 112.718  1.00  0.00    -0.225 N 
ATOM     25  H1  UNL     1     -81.524 -49.043 112.950  1.00  0.00     0.177 HD
BRANCH  24  26
HETATM   26  C2  UNL     1     -83.518 -49.190 113.569  1.00  0.00     0.133 C 
HETATM   27  C1  UNL     1     -82.927 -50.126 114.600  1.00  0.00     0.027 C 
ENDBRANCH  24  26
ENDBRANCH   1  24
TORSDOF 9
ENDMDL
MODEL 4
REMARK VINA RESULT: -6.096689700      0.754      3.134
REMARK  9 active torsions:
REMARK  status: ('A' for Active; 'I' for Inactive)
REMARK    1  A    between atoms: C2_2  and  N1_3 
REMARK    2  A    between atoms: N1_3  and  C3_5 
REMARK    3  A    between atoms: C4_8  and  N3_9 
REMARK    4  A    between atoms: C6_14  and  N5_15 
REMARK    5  A    between atoms: N5_15  and  C7_17 
REMARK    6  A    between atoms: C7_17  and  C8_18 
REMARK    7  A    between atoms: C8_18  and  C9_19 
REMARK    8  A    between atoms: C9_19  and  N6_20 
REMARK    9  A    between atoms: N6_20  and  C10_22 
ROOT
HETATM    1  C3  UNL     1     -83.837 -48.475 112.606  1.00  0.00     0.707 A 
HETATM    2  N2  UNL     1     -85.039 -48.411 112.034  1.00  0.00    -0.022 N 
ATOM      3  H2  UNL     1     -85.835 -48.854 112.494  1.00  0.00     0.203 HD
HETATM    4  C4  UNL     1     -85.227 -47.766 110.849  1.00  0.00     0.706 A 
HETATM    5  N4  UNL     1     -84.171 -47.199 110.274  1.00  0.00    -0.022 N 
ATOM      6  H4  UNL     1     -84.298 -46.714 109.386  1.00  0.00     0.203 HD
HETATM    7  C6  UNL     1     -82.933 -47.241 110.823  1.00  0.00     0.707 A 
HETATM    8  N8  UNL     1     -82.800 -47.888 111.989  1.00  0.00    -0.022 N 
ATOM      9  H8  UNL     1     -81.877 -47.936 112.423  1.00  0.00     0.203 HD
ENDROOT
BRANCH   7  10
HETATM   10  N5  UNL     1     -81.995 -46.678 110.208  1.00  0.00    -0.225 N 
ATOM     11  H5  UNL     1     -81.685 -47.138 109.352  1.00  0.00     0.177 HD
BRANCH  10  12
HETATM   12  C7  UNL     1     -81.310 -45.479 110.549  1.00  0.00     0.139 C 
BRANCH  12  13
HETATM   13  C8  UNL     1     -82.068 -44.272 110.014  1.00  0.00     0.040 C 
BRANCH  13  14
HETATM   14  C9  UNL     1     -81.122 -43.385 109.234  1.00  0.00     0.122 C 
BRANCH  14  15
HETATM   15  N6  UNL     1     -80.333 -44.185 108.313  1.00  0.00    -0.386 N 
ATOM     16  H6  UNL     1     -80.793 -44.949 107.817  1.00  0.00     0.160 HD
BRANCH  15  17
HETATM   17  C10 UNL     1     -78.953 -43.955 108.070  1.00  0.00     0.168 C 
HETATM   18  N7  UNL     1     -78.174 -43.750 109.086  1.00  0.00    -0.396 N 
ATOM     19  H72 UNL     1     -78.560 -43.757 110.030  1.00  0.00     0.156 HD
ATOM     20  H71 UNL     1     -77.184 -43.585 108.911  1.00  0.00     0.156 HD
ENDBRANCH  15  17
ENDBRANCH  14  15
ENDBRANCH  13  14
ENDBRANCH  12  13
ENDBRANCH  10  12
ENDBRANCH   7  10
BRANCH   4  21
HETATM   21  N3  UNL     1     -86.376 -47.697 110.291  1.00  0.00    -0.229 N 
HETATM   22  C5  UNL     1     -87.447 -48.533 110.745  1.00  0.00     0.165 C 
ATOM     23  H3  UNL     1     -86.530 -47.045 109.522  1.00  0.00     0.177 HD
ENDBRANCH   4  21
BRANCH   1  24
HETATM   24  N1  UNL     1     -83.659 -49.074 113.706  1.00  0.00    -0.225 N 
ATOM     25  H1  UNL     1     -84.396 -48.977 114.405  1.00  0.00     0.177 HD
BRANCH  24  26
HETATM   26  C2  UNL     1     -82.534 -49.873 114.068  1.00  0.00     0.133 C 
HETATM   27  C1  UNL     1     -82.905 -50.705 115.275  1.00  0.00     0.027 C 
ENDBRANCH  24  26
ENDBRANCH   1  24
TORSDOF 9
ENDMDL
MODEL 5
REMARK VINA RESULT: -6.054999310      2.089      2.404
REMARK  9 active torsions:
REMARK  status: ('A' for Active; 'I' for Inactive)
REMARK    1  A    between atoms: C2_2  and  N1_3 
REMARK    2  A    between atoms: N1_3  and  C3_5 
REMARK    3  A    between atoms: C4_8  and  N3_9 
REMARK    4  A    between atoms: C6_14  and  N5_15 
REMARK    5  A    between atoms: N5_15  and  C7_17 
REMARK    6  A    between atoms: C7_17  and  C8_18 
REMARK    7  A    between atoms: C8_18  and  C9_19 
REMARK    8  A    between atoms: C9_19  and  N6_20 
REMARK    9  A    between atoms: N6_20  and  C10_22 
ROOT
HETATM    1  C3  UNL     1     -83.026 -47.845 109.213  1.00  0.00     0.707 A 
HETATM    2  N2  UNL     1     -82.576 -48.670 110.159  1.00  0.00    -0.022 N 
ATOM      3  H2  UNL     1     -82.657 -49.678 110.023  1.00  0.00     0.203 HD
HETATM    4  C4  UNL     1     -82.009 -48.194 111.302  1.00  0.00     0.706 A 
HETATM    5  N4  UNL     1     -81.917 -46.875 111.451  1.00  0.00    -0.022 N 
ATOM      6  H4  UNL     1     -81.496 -46.506 112.303  1.00  0.00     0.203 HD
HETATM    7  C6  UNL     1     -82.362 -46.005 110.512  1.00  0.00     0.707 A 
HETATM    8  N8  UNL     1     -82.912 -46.522 109.406  1.00  0.00    -0.022 N 
ATOM      9  H8  UNL     1     -83.257 -45.888 108.685  1.00  0.00     0.203 HD
ENDROOT
BRANCH   7  10
HETATM   10  N5  UNL     1     -82.234 -44.777 110.740  1.00  0.00    -0.225 N 
ATOM     11  H5  UNL     1     -81.915 -44.529 111.677  1.00  0.00     0.177 HD
BRANCH  10  12
HETATM   12  C7  UNL     1     -82.473 -43.686 109.859  1.00  0.00     0.139 C 
BRANCH  12  13
HETATM   13  C8  UNL     1     -81.230 -42.814 109.755  1.00  0.00     0.040 C 
BRANCH  13  14
HETATM   14  C9  UNL     1     -80.663 -42.907 108.356  1.00  0.00     0.122 C 
BRANCH  14  15
HETATM   15  N6  UNL     1     -80.130 -44.238 108.120  1.00  0.00    -0.386 N 
ATOM     16  H6  UNL     1     -80.684 -44.891 107.566  1.00  0.00     0.160 HD
BRANCH  15  17
HETATM   17  C10 UNL     1     -78.876 -44.673 108.625  1.00  0.00     0.168 C 
HETATM   18  N7  UNL     1     -77.986 -43.777 108.919  1.00  0.00    -0.396 N 
ATOM     19  H72 UNL     1     -78.198 -42.788 108.785  1.00  0.00     0.156 HD
ATOM     20  H71 UNL     1     -77.086 -44.090 109.281  1.00  0.00     0.156 HD
ENDBRANCH  15  17
ENDBRANCH  14  15
ENDBRANCH  13  14
ENDBRANCH  12  13
ENDBRANCH  10  12
ENDBRANCH   7  10
BRANCH   4  21
HETATM   21  N3  UNL     1     -81.572 -48.974 112.217  1.00  0.00    -0.229 N 
HETATM   22  C5  UNL     1     -80.473 -49.852 111.948  1.00  0.00     0.165 C 
ATOM     23  H3  UNL     1     -82.007 -48.970 113.140  1.00  0.00     0.177 HD
ENDBRANCH   4  21
BRANCH   1  24
HETATM   24  N1  UNL     1     -83.554 -48.285 108.151  1.00  0.00    -0.225 N 
ATOM     25  H1  UNL     1     -83.003 -48.946 107.605  1.00  0.00     0.177 HD
BRANCH  24  26
HETATM   26  C2  UNL     1     -84.842 -47.950 107.639  1.00  0.00     0.133 C 
HETATM   27  C1  UNL     1     -85.872 -48.222 108.712  1.00  0.00     0.027 C 
ENDBRANCH  24  26
ENDBRANCH   1  24
TORSDOF 9
ENDMDL
