MODEL 1
REMARK VINA RESULT: -8.876327060      0.000      0.000
REMARK  6 active torsions:
REMARK  status: ('A' for Active; 'I' for Inactive)
REMARK    1  A    between atoms: C4_4  and  C5_5 
REMARK    2  A    between atoms: C5_5  and  O1_6 
REMARK    3  A    between atoms: O1_6  and  C6_7 
REMARK    4  A    between atoms: C6_7  and  C7_8 
REMARK    5  A    between atoms: C6_7  and  N3_19 
REMARK    6  A    between atoms: C8_13  and  C9_14 
ROOT
HETATM    1  C6  UNL     1      24.195  45.510  61.117  1.00  0.00     0.306 C 
ENDROOT
BRANCH   1   2
HETATM    2  O1  UNL     1      24.433  46.091  59.876  1.00  0.00    -0.354 OA
BRANCH   2   3
HETATM    3  C5  UNL     1      23.659  45.546  58.870  1.00  0.00     0.209 C 
BRANCH   3   4
HETATM    4  C4  UNL     1      23.551  46.585  57.797  1.00  0.00    -0.035 A 
HETATM    5  C3  UNL     1      24.398  46.591  56.700  1.00  0.00     0.009 A 
HETATM    6  C2  UNL     1      24.316  47.539  55.699  1.00  0.00     0.001 A 
HETATM    7  C1  UNL     1      23.348  48.522  55.799  1.00  0.00     0.000 A 
HETATM    8  C17 UNL     1      22.485  48.545  56.885  1.00  0.00     0.001 A 
HETATM    9  C16 UNL     1      22.596  47.589  57.857  1.00  0.00     0.009 A 
ENDBRANCH   3   4
ENDBRANCH   2   3
ENDBRANCH   1   2
BRANCH   1  10
HETATM   10  C7  UNL     1      22.731  45.552  61.369  1.00  0.00     0.190 A 
HETATM   11  N1  UNL     1      22.026  44.508  61.877  1.00  0.00    -0.278 N 
HETATM   12  N2  UNL     1      20.756  44.886  61.971  1.00  0.00    -0.281 N 
ATOM     13  H1  UNL     1      22.403  43.598  62.140  1.00  0.00     0.189 HD
HETATM   14  C8  UNL     1      20.671  46.148  61.528  1.00  0.00     0.144 A 
ATOM     15  H2  UNL     1      19.983  44.318  62.318  1.00  0.00     0.189 HD
HETATM   16  O2  UNL     1      21.864  46.504  61.181  1.00  0.00    -0.277 OA
BRANCH  14  17
HETATM   17  C9  UNL     1      19.425  46.929  61.472  1.00  0.00     0.062 C 
HETATM   18  C10 UNL     1      19.030  47.275  60.032  1.00  0.00     0.013 C 
HETATM   19  C11 UNL     1      17.595  47.069  60.472  1.00  0.00     0.002 C 
HETATM   20  C12 UNL     1      18.153  46.104  61.527  1.00  0.00     0.013 C 
ENDBRANCH  14  17
ENDBRANCH   1  10
BRANCH   1  21
HETATM   21  N3  UNL     1      24.894  46.352  62.100  1.00  0.00    -0.318 N 
HETATM   22  C13 UNL     1      24.422  47.449  62.723  1.00  0.00     0.112 A 
HETATM   23  C14 UNL     1      25.401  47.938  63.565  1.00  0.00     0.106 A 
HETATM   24  N4  UNL     1      26.459  47.134  63.446  1.00  0.00    -0.361 N 
HETATM   25  C15 UNL     1      26.147  46.181  62.561  1.00  0.00     0.185 A 
ATOM     26  H4  UNL     1      27.346  47.229  63.940  1.00  0.00     0.166 HD
ENDBRANCH   1  21
TORSDOF 6
ENDMDL
MODEL 2
REMARK VINA RESULT: -8.848122565      3.041      6.734
REMARK  6 active torsions:
REMARK  status: ('A' for Active; 'I' for Inactive)
REMARK    1  A    between atoms: C4_4  and  C5_5 
REMARK    2  A    between atoms: C5_5  and  O1_6 
REMARK    3  A    between atoms: O1_6  and  C6_7 
REMARK    4  A    between atoms: C6_7  and  C7_8 
REMARK    5  A    between atoms: C6_7  and  N3_19 
REMARK    6  A    between atoms: C8_13  and  C9_14 
ROOT
HETATM    1  C6  UNL     1      22.601  46.110  58.664  1.00  0.00     0.306 C 
ENDROOT
BRANCH   1   2
HETATM    2  O1  UNL     1      22.890  46.903  59.770  1.00  0.00    -0.354 OA
BRANCH   2   3
HETATM    3  C5  UNL     1      22.750  46.227  60.966  1.00  0.00     0.209 C 
BRANCH   3   4
HETATM    4  C4  UNL     1      23.946  46.571  61.800  1.00  0.00    -0.035 A 
HETATM    5  C3  UNL     1      23.915  47.599  62.729  1.00  0.00     0.009 A 
HETATM    6  C2  UNL     1      25.006  47.933  63.508  1.00  0.00     0.001 A 
HETATM    7  C1  UNL     1      26.175  47.211  63.350  1.00  0.00     0.000 A 
HETATM    8  C17 UNL     1      26.239  46.177  62.428  1.00  0.00     0.001 A 
HETATM    9  C16 UNL     1      25.138  45.875  61.674  1.00  0.00     0.009 A 
ENDBRANCH   3   4
ENDBRANCH   2   3
ENDBRANCH   1   2
BRANCH   1  10
HETATM   10  C7  UNL     1      23.688  45.108  58.522  1.00  0.00     0.190 A 
HETATM   11  N1  UNL     1      23.468  43.773  58.394  1.00  0.00    -0.278 N 
HETATM   12  N2  UNL     1      24.651  43.177  58.291  1.00  0.00    -0.281 N 
ATOM     13  H1  UNL     1      22.559  43.312  58.380  1.00  0.00     0.189 HD
HETATM   14  C8  UNL     1      25.594  44.127  58.352  1.00  0.00     0.144 A 
ATOM     15  H2  UNL     1      24.812  42.175  58.184  1.00  0.00     0.189 HD
HETATM   16  O2  UNL     1      24.980  45.256  58.489  1.00  0.00    -0.277 OA
BRANCH  14  17
HETATM   17  C9  UNL     1      27.041  43.869  58.272  1.00  0.00     0.062 C 
HETATM   18  C10 UNL     1      27.856  44.953  58.986  1.00  0.00     0.013 C 
HETATM   19  C11 UNL     1      28.790  43.840  59.417  1.00  0.00     0.002 C 
HETATM   20  C12 UNL     1      27.575  42.907  59.316  1.00  0.00     0.013 C 
ENDBRANCH  14  17
ENDBRANCH   1  10
BRANCH   1  21
HETATM   21  N3  UNL     1      22.603  47.015  57.504  1.00  0.00    -0.318 N 
HETATM   22  C13 UNL     1      22.580  48.361  57.514  1.00  0.00     0.112 A 
HETATM   23  C14 UNL     1      22.592  48.817  56.211  1.00  0.00     0.106 A 
HETATM   24  N4  UNL     1      22.622  47.742  55.420  1.00  0.00    -0.361 N 
HETATM   25  C15 UNL     1      22.628  46.660  56.206  1.00  0.00     0.185 A 
ATOM     26  H4  UNL     1      22.637  47.746  54.400  1.00  0.00     0.166 HD
ENDBRANCH   1  21
TORSDOF 6
ENDMDL
MODEL 3
REMARK VINA RESULT: -8.729587150      4.870      8.077
REMARK  6 active torsions:
REMARK  status: ('A' for Active; 'I' for Inactive)
REMARK    1  A    between atoms: C4_4  and  C5_5 
REMARK    2  A    between atoms: C5_5  and  O1_6 
REMARK    3  A    between atoms: O1_6  and  C6_7 
REMARK    4  A    between atoms: C6_7  and  C7_8 
REMARK    5  A    between atoms: C6_7  and  N3_19 
REMARK    6  A    between atoms: C8_13  and  C9_14 
ROOT
HETATM    1  C6  UNL     1      27.099  42.890  60.860  1.00  0.00     0.306 C 
ENDROOT
BRANCH   1   2
HETATM    2  O1  UNL     1      26.839  44.220  61.175  1.00  0.00    -0.354 OA
BRANCH   2   3
HETATM    3  C5  UNL     1      25.519  44.572  60.969  1.00  0.00     0.209 C 
BRANCH   3   4
HETATM    4  C4  UNL     1      25.249  45.763  61.838  1.00  0.00    -0.035 A 
HETATM    5  C3  UNL     1      26.245  46.343  62.608  1.00  0.00     0.009 A 
HETATM    6  C2  UNL     1      26.018  47.441  63.415  1.00  0.00     0.001 A 
HETATM    7  C1  UNL     1      24.744  47.979  63.454  1.00  0.00     0.000 A 
HETATM    8  C17 UNL     1      23.726  47.421  62.696  1.00  0.00     0.001 A 
HETATM    9  C16 UNL     1      23.988  46.334  61.908  1.00  0.00     0.009 A 
ENDBRANCH   3   4
ENDBRANCH   2   3
ENDBRANCH   1   2
BRANCH   1  10
HETATM   10  C7  UNL     1      27.964  42.327  61.928  1.00  0.00     0.190 A 
HETATM   11  N1  UNL     1      29.314  42.475  61.958  1.00  0.00    -0.278 N 
HETATM   12  N2  UNL     1      29.766  41.852  63.041  1.00  0.00    -0.281 N 
ATOM     13  H1  UNL     1      29.880  42.975  61.273  1.00  0.00     0.189 HD
HETATM   14  C8  UNL     1      28.711  41.323  63.677  1.00  0.00     0.144 A 
ATOM     15  H2  UNL     1      30.740  41.787  63.336  1.00  0.00     0.189 HD
HETATM   16  O2  UNL     1      27.664  41.628  62.984  1.00  0.00    -0.277 OA
BRANCH  14  17
HETATM   17  C9  UNL     1      28.795  40.550  64.927  1.00  0.00     0.062 C 
HETATM   18  C10 UNL     1      29.215  41.426  66.114  1.00  0.00     0.013 C 
HETATM   19  C11 UNL     1      28.262  40.594  66.948  1.00  0.00     0.002 C 
HETATM   20  C12 UNL     1      27.476  40.361  65.650  1.00  0.00     0.013 C 
ENDBRANCH  14  17
ENDBRANCH   1  10
BRANCH   1  21
HETATM   21  N3  UNL     1      27.832  42.910  59.585  1.00  0.00    -0.318 N 
HETATM   22  C13 UNL     1      28.061  41.876  58.754  1.00  0.00     0.112 A 
HETATM   23  C14 UNL     1      28.788  42.328  57.670  1.00  0.00     0.106 A 
HETATM   24  N4  UNL     1      28.994  43.634  57.853  1.00  0.00    -0.361 N 
HETATM   25  C15 UNL     1      28.416  43.978  59.009  1.00  0.00     0.185 A 
ATOM     26  H4  UNL     1      29.502  44.257  57.225  1.00  0.00     0.166 HD
ENDBRANCH   1  21
TORSDOF 6
ENDMDL
MODEL 4
REMARK VINA RESULT: -8.679232789      2.639      4.691
REMARK  6 active torsions:
REMARK  status: ('A' for Active; 'I' for Inactive)
REMARK    1  A    between atoms: C4_4  and  C5_5 
REMARK    2  A    between atoms: C5_5  and  O1_6 
REMARK    3  A    between atoms: O1_6  and  C6_7 
REMARK    4  A    between atoms: C6_7  and  C7_8 
REMARK    5  A    between atoms: C6_7  and  N3_19 
REMARK    6  A    between atoms: C8_13  and  C9_14 
ROOT
HETATM    1  C6  UNL     1      22.884  45.812  59.036  1.00  0.00     0.306 C 
ENDROOT
BRANCH   1   2
HETATM    2  O1  UNL     1      22.655  44.480  58.708  1.00  0.00    -0.354 OA
BRANCH   2   3
HETATM    3  C5  UNL     1      22.828  43.626  59.780  1.00  0.00     0.209 C 
BRANCH   3   4
HETATM    4  C4  UNL     1      24.305  43.443  59.954  1.00  0.00    -0.035 A 
HETATM    5  C3  UNL     1      25.153  43.288  58.868  1.00  0.00     0.009 A 
HETATM    6  C2  UNL     1      26.516  43.118  59.005  1.00  0.00     0.001 A 
HETATM    7  C1  UNL     1      27.054  43.103  60.280  1.00  0.00     0.000 A 
HETATM    8  C17 UNL     1      26.233  43.255  61.387  1.00  0.00     0.001 A 
HETATM    9  C16 UNL     1      24.887  43.421  61.212  1.00  0.00     0.009 A 
ENDBRANCH   3   4
ENDBRANCH   2   3
ENDBRANCH   1   2
BRANCH   1  10
HETATM   10  C7  UNL     1      21.838  46.233  60.003  1.00  0.00     0.190 A 
HETATM   11  N1  UNL     1      22.111  46.710  61.246  1.00  0.00    -0.278 N 
HETATM   12  N2  UNL     1      20.953  46.986  61.836  1.00  0.00    -0.281 N 
ATOM     13  H1  UNL     1      23.038  46.834  61.652  1.00  0.00     0.189 HD
HETATM   14  C8  UNL     1      19.973  46.685  60.973  1.00  0.00     0.144 A 
ATOM     15  H2  UNL     1      20.832  47.359  62.777  1.00  0.00     0.189 HD
HETATM   16  O2  UNL     1      20.541  46.242  59.900  1.00  0.00    -0.277 OA
BRANCH  14  17
HETATM   17  C9  UNL     1      18.538  46.851  61.253  1.00  0.00     0.062 C 
HETATM   18  C10 UNL     1      17.948  48.063  60.523  1.00  0.00     0.013 C 
HETATM   19  C11 UNL     1      16.697  47.228  60.337  1.00  0.00     0.002 C 
HETATM   20  C12 UNL     1      17.618  46.001  60.398  1.00  0.00     0.013 C 
ENDBRANCH  14  17
ENDBRANCH   1  10
BRANCH   1  21
HETATM   21  N3  UNL     1      22.738  46.569  57.784  1.00  0.00    -0.318 N 
HETATM   22  C13 UNL     1      22.737  47.906  57.629  1.00  0.00     0.112 A 
HETATM   23  C14 UNL     1      22.572  48.200  56.289  1.00  0.00     0.106 A 
HETATM   24  N4  UNL     1      22.474  47.037  55.642  1.00  0.00    -0.361 N 
HETATM   25  C15 UNL     1      22.574  46.059  56.548  1.00  0.00     0.185 A 
ATOM     26  H4  UNL     1      22.346  46.916  54.638  1.00  0.00     0.166 HD
ENDBRANCH   1  21
TORSDOF 6
ENDMDL
MODEL 5
REMARK VINA RESULT: -8.604413581      3.476      6.209
REMARK  6 active torsions:
REMARK  status: ('A' for Active; 'I' for Inactive)
REMARK    1  A    between atoms: C4_4  and  C5_5 
REMARK    2  A    between atoms: C5_5  and  O1_6 
REMARK    3  A    between atoms: O1_6  and  C6_7 
REMARK    4  A    between atoms: C6_7  and  C7_8 
REMARK    5  A    between atoms: C6_7  and  N3_19 
REMARK    6  A    between atoms: C8_13  and  C9_14 
ROOT
HETATM    1  C6  UNL     1      26.754  44.757  59.230  1.00  0.00     0.306 C 
ENDROOT
BRANCH   1   2
HETATM    2  O1  UNL     1      26.190  44.361  60.439  1.00  0.00    -0.354 OA
BRANCH   2   3
HETATM    3  C5  UNL     1      26.819  44.920  61.534  1.00  0.00     0.209 C 
BRANCH   3   4
HETATM    4  C4  UNL     1      25.877  45.936  62.102  1.00  0.00    -0.035 A 
HETATM    5  C3  UNL     1      24.542  45.979  61.732  1.00  0.00     0.009 A 
HETATM    6  C2  UNL     1      23.656  46.907  62.243  1.00  0.00     0.001 A 
HETATM    7  C1  UNL     1      24.124  47.830  63.162  1.00  0.00     0.000 A 
HETATM    8  C17 UNL     1      25.455  47.815  63.552  1.00  0.00     0.001 A 
HETATM    9  C16 UNL     1      26.303  46.880  63.024  1.00  0.00     0.009 A 
ENDBRANCH   3   4
ENDBRANCH   2   3
ENDBRANCH   1   2
BRANCH   1  10
HETATM   10  C7  UNL     1      25.648  45.093  58.297  1.00  0.00     0.190 A 
HETATM   11  N1  UNL     1      24.550  44.313  58.120  1.00  0.00    -0.278 N 
HETATM   12  N2  UNL     1      23.771  44.908  57.223  1.00  0.00    -0.281 N 
ATOM     13  H1  UNL     1      24.357  43.430  58.592  1.00  0.00     0.189 HD
HETATM   14  C8  UNL     1      24.376  46.043  56.846  1.00  0.00     0.144 A 
ATOM     15  H2  UNL     1      22.874  44.562  56.881  1.00  0.00     0.189 HD
HETATM   16  O2  UNL     1      25.485  46.114  57.507  1.00  0.00    -0.277 OA
BRANCH  14  17
HETATM   17  C9  UNL     1      23.829  46.989  55.861  1.00  0.00     0.062 C 
HETATM   18  C10 UNL     1      22.930  48.043  56.517  1.00  0.00     0.013 C 
HETATM   19  C11 UNL     1      23.502  49.024  55.514  1.00  0.00     0.002 C 
HETATM   20  C12 UNL     1      24.753  48.135  55.496  1.00  0.00     0.013 C 
ENDBRANCH  14  17
ENDBRANCH   1  10
BRANCH   1  21
HETATM   21  N3  UNL     1      27.493  43.590  58.726  1.00  0.00    -0.318 N 
HETATM   22  C13 UNL     1      28.515  43.582  57.850  1.00  0.00     0.112 A 
HETATM   23  C14 UNL     1      28.919  42.277  57.648  1.00  0.00     0.106 A 
HETATM   24  N4  UNL     1      28.137  41.503  58.402  1.00  0.00    -0.361 N 
HETATM   25  C15 UNL     1      27.279  42.300  59.049  1.00  0.00     0.185 A 
ATOM     26  H4  UNL     1      28.184  40.487  58.472  1.00  0.00     0.166 HD
ENDBRANCH   1  21
TORSDOF 6
ENDMDL
