MODEL 1
REMARK VINA RESULT: -9.523800900      0.000      0.000
REMARK  9 active torsions:
REMARK  status: ('A' for Active; 'I' for Inactive)
REMARK    1  A    between atoms: C2_2  and  C3_3 
REMARK    2  A    between atoms: C3_3  and  C4_4 
REMARK    3  A    between atoms: C4_4  and  N1_5 
REMARK    4  A    between atoms: N1_5  and  C6_7 
REMARK    5  A    between atoms: C6_7  and  O1_8 
REMARK    6  A    between atoms: C6_7  and  C7_10 
REMARK       I    between atoms: N4_24  and  C18_26 
REMARK    7  A    between atoms: C18_26  and  C19_28 
REMARK    8  A    between atoms: C21_30  and  C22_31 
REMARK    9  A    between atoms: C22_31  and  C23_32 
ROOT
HETATM    1  C7  UNL     1      27.824  14.719  -2.775  1.00  0.00     0.092 A 
HETATM    2  C8  UNL     1      27.113  14.191  -3.882  1.00  0.00    -0.018 A 
HETATM    3  C9  UNL     1      26.597  14.995  -4.985  1.00  0.00     0.052 C 
HETATM    4  C10 UNL     1      26.958  12.858  -3.621  1.00  0.00     0.006 A 
HETATM    5  C11 UNL     1      27.532  12.587  -2.426  1.00  0.00     0.023 A 
HETATM    6  N2  UNL     1      28.074  13.748  -1.899  1.00  0.00    -0.350 N 
HETATM    7  C12 UNL     1      28.811  13.701  -0.643  1.00  0.00     0.156 C 
HETATM    8  C13 UNL     1      27.548  11.251  -1.834  1.00  0.00     0.063 A 
HETATM    9  C14 UNL     1      26.838  10.165  -2.504  1.00  0.00     0.047 A 
HETATM   10  C15 UNL     1      26.286  10.477  -3.837  1.00  0.00    -0.031 A 
HETATM   11  C16 UNL     1      25.715   9.499  -4.591  1.00  0.00     0.097 A 
HETATM   12  N3  UNL     1      25.175   9.675  -5.805  1.00  0.00    -0.352 N 
ATOM     13  H3  UNL     1      24.763   8.894  -6.316  1.00  0.00     0.166 HD
HETATM   14  C17 UNL     1      25.194  10.898  -6.323  1.00  0.00     0.108 A 
HETATM   15  N4  UNL     1      24.708  11.164  -7.463  1.00  0.00    -0.308 N 
ATOM     16  H4  UNL     1      24.769  12.133  -7.773  1.00  0.00     0.170 HD
HETATM   17  C18 UNL     1      24.094  10.260  -8.341  1.00  0.00     0.274 C 
HETATM   18  O2  UNL     1      22.840  10.284  -8.423  1.00  0.00    -0.266 OA
HETATM   19  C29 UNL     1      25.765  11.964  -5.606  1.00  0.00     0.061 A 
HETATM   20  C30 UNL     1      26.316  11.777  -4.364  1.00  0.00    -0.012 A 
ENDROOT
BRANCH  17  21
HETATM   21  C19 UNL     1      24.806   9.295  -9.162  1.00  0.00     0.103 A 
HETATM   22  C20 UNL     1      24.893   7.949  -8.802  1.00  0.00     0.044 A 
HETATM   23  C21 UNL     1      25.631   7.347  -9.800  1.00  0.00    -0.035 A 
HETATM   24  C27 UNL     1      25.960   8.330 -10.713  1.00  0.00     0.098 A 
HETATM   25  N7  UNL     1      25.454   9.510 -10.317  1.00  0.00    -0.356 N 
HETATM   26  C28 UNL     1      25.600  10.749 -11.024  1.00  0.00     0.156 C 
BRANCH  23  27
HETATM   27  C22 UNL     1      25.998   5.897  -9.866  1.00  0.00     0.098 C 
BRANCH  27  28
HETATM   28  C23 UNL     1      25.864   5.248  -8.538  1.00  0.00     0.032 A 
HETATM   29  C24 UNL     1      26.597   5.472  -7.392  1.00  0.00     0.052 A 
HETATM   30  C25 UNL     1      26.070   4.605  -6.435  1.00  0.00     0.024 A 
HETATM   31  C26 UNL     1      26.557   4.505  -5.044  1.00  0.00     0.070 C 
HETATM   32  N5  UNL     1      25.078   3.909  -6.999  1.00  0.00    -0.305 N 
HETATM   33  N6  UNL     1      24.954   4.297  -8.268  1.00  0.00    -0.304 N 
ATOM     34  H5  UNL     1      24.510   3.199  -6.535  1.00  0.00     0.186 HD
ATOM     35  H6  UNL     1      24.272   3.929  -8.932  1.00  0.00     0.186 HD
ENDBRANCH  27  28
ENDBRANCH  23  27
ENDBRANCH  17  21
BRANCH   1  36
HETATM   36  C6  UNL     1      28.349  16.066  -2.739  1.00  0.00     0.166 C 
BRANCH  36  37
HETATM   37  N1  UNL     1      29.523  16.674  -3.124  1.00  0.00    -0.364 N 
HETATM   38  C5  UNL     1      30.010  17.989  -2.911  1.00  0.00     0.151 C 
BRANCH  37  39
HETATM   39  C4  UNL     1      30.424  15.852  -4.016  1.00  0.00     0.124 C 
BRANCH  39  40
HETATM   40  C3  UNL     1      30.450  16.614  -5.321  1.00  0.00     0.019 C 
BRANCH  40  41
HETATM   41  C2  UNL     1      31.878  16.649  -5.873  1.00  0.00    -0.003 C 
HETATM   42  C1  UNL     1      32.279  18.129  -5.876  1.00  0.00     0.005 C 
ENDBRANCH  40  41
ENDBRANCH  39  40
ENDBRANCH  37  39
ENDBRANCH  36  37
BRANCH  36  43
HETATM   43  O1  UNL     1      27.503  16.951  -2.189  1.00  0.00    -0.344 OA
ATOM     44  H1  UNL     1      26.871  16.519  -1.628  1.00  0.00     0.219 HD
ENDBRANCH  36  43
ENDBRANCH   1  36
TORSDOF 9
ENDMDL
MODEL 2
REMARK VINA RESULT: -9.159387311      0.703      1.123
REMARK  9 active torsions:
REMARK  status: ('A' for Active; 'I' for Inactive)
REMARK    1  A    between atoms: C2_2  and  C3_3 
REMARK    2  A    between atoms: C3_3  and  C4_4 
REMARK    3  A    between atoms: C4_4  and  N1_5 
REMARK    4  A    between atoms: N1_5  and  C6_7 
REMARK    5  A    between atoms: C6_7  and  O1_8 
REMARK    6  A    between atoms: C6_7  and  C7_10 
REMARK       I    between atoms: N4_24  and  C18_26 
REMARK    7  A    between atoms: C18_26  and  C19_28 
REMARK    8  A    between atoms: C21_30  and  C22_31 
REMARK    9  A    between atoms: C22_31  and  C23_32 
ROOT
HETATM    1  C7  UNL     1      27.882  14.821  -2.955  1.00  0.00     0.092 A 
HETATM    2  C8  UNL     1      27.156  14.269  -4.039  1.00  0.00    -0.018 A 
HETATM    3  C9  UNL     1      26.621  15.048  -5.151  1.00  0.00     0.052 C 
HETATM    4  C10 UNL     1      27.008  12.941  -3.749  1.00  0.00     0.006 A 
HETATM    5  C11 UNL     1      27.600  12.695  -2.557  1.00  0.00     0.023 A 
HETATM    6  N2  UNL     1      28.147  13.868  -2.063  1.00  0.00    -0.350 N 
HETATM    7  C12 UNL     1      28.904  13.848  -0.818  1.00  0.00     0.156 C 
HETATM    8  C13 UNL     1      27.628  11.372  -1.938  1.00  0.00     0.063 A 
HETATM    9  C14 UNL     1      26.911  10.271  -2.574  1.00  0.00     0.047 A 
HETATM   10  C15 UNL     1      26.337  10.554  -3.905  1.00  0.00    -0.031 A 
HETATM   11  C16 UNL     1      25.757   9.560  -4.630  1.00  0.00     0.097 A 
HETATM   12  N3  UNL     1      25.198   9.709  -5.839  1.00  0.00    -0.352 N 
ATOM     13  H3  UNL     1      24.779   8.917  -6.326  1.00  0.00     0.166 HD
HETATM   14  C17 UNL     1      25.206  10.921  -6.382  1.00  0.00     0.108 A 
HETATM   15  N4  UNL     1      24.702  11.162  -7.519  1.00  0.00    -0.308 N 
ATOM     16  H4  UNL     1      24.756  12.125  -7.850  1.00  0.00     0.170 HD
HETATM   17  C18 UNL     1      24.077  10.240  -8.369  1.00  0.00     0.274 C 
HETATM   18  O2  UNL     1      22.821  10.260  -8.432  1.00  0.00    -0.266 OA
HETATM   19  C29 UNL     1      25.786  12.004  -5.697  1.00  0.00     0.061 A 
HETATM   20  C30 UNL     1      26.356  11.843  -4.459  1.00  0.00    -0.012 A 
ENDROOT
BRANCH  17  21
HETATM   21  C19 UNL     1      24.778   9.260  -9.180  1.00  0.00     0.103 A 
HETATM   22  C20 UNL     1      24.870   7.921  -8.796  1.00  0.00     0.044 A 
HETATM   23  C21 UNL     1      25.595   7.299  -9.792  1.00  0.00    -0.035 A 
HETATM   24  C27 UNL     1      25.911   8.265 -10.728  1.00  0.00     0.098 A 
HETATM   25  N7  UNL     1      25.410   9.452 -10.348  1.00  0.00    -0.356 N 
HETATM   26  C28 UNL     1      25.546  10.678 -11.081  1.00  0.00     0.156 C 
BRANCH  23  27
HETATM   27  C22 UNL     1      25.962   5.848  -9.835  1.00  0.00     0.098 C 
BRANCH  27  28
HETATM   28  C23 UNL     1      25.854   5.227  -8.492  1.00  0.00     0.032 A 
HETATM   29  C24 UNL     1      26.596   5.488  -7.360  1.00  0.00     0.052 A 
HETATM   30  C25 UNL     1      26.094   4.634  -6.378  1.00  0.00     0.024 A 
HETATM   31  C26 UNL     1      26.598   4.572  -4.990  1.00  0.00     0.070 C 
HETATM   32  N5  UNL     1      25.107   3.910  -6.914  1.00  0.00    -0.305 N 
HETATM   33  N6  UNL     1      24.962   4.268  -8.190  1.00  0.00    -0.304 N 
ATOM     34  H5  UNL     1      24.556   3.202  -6.428  1.00  0.00     0.186 HD
ATOM     35  H6  UNL     1      24.279   3.875  -8.837  1.00  0.00     0.186 HD
ENDBRANCH  27  28
ENDBRANCH  23  27
ENDBRANCH  17  21
BRANCH   1  36
HETATM   36  C6  UNL     1      28.405  16.169  -2.955  1.00  0.00     0.166 C 
BRANCH  36  37
HETATM   37  N1  UNL     1      29.480  16.806  -3.532  1.00  0.00    -0.364 N 
HETATM   38  C5  UNL     1      30.269  16.474  -4.663  1.00  0.00     0.151 C 
BRANCH  37  39
HETATM   39  C4  UNL     1      29.993  18.022  -2.795  1.00  0.00     0.124 C 
BRANCH  39  40
HETATM   40  C3  UNL     1      30.661  18.851  -3.867  1.00  0.00     0.019 C 
BRANCH  40  41
HETATM   41  C2  UNL     1      31.142  20.177  -3.272  1.00  0.00    -0.003 C 
HETATM   42  C1  UNL     1      32.629  20.274  -3.637  1.00  0.00     0.005 C 
ENDBRANCH  40  41
ENDBRANCH  39  40
ENDBRANCH  37  39
ENDBRANCH  36  37
BRANCH  36  43
HETATM   43  O1  UNL     1      27.684  17.018  -2.206  1.00  0.00    -0.344 OA
ATOM     44  H1  UNL     1      27.176  16.552  -1.552  1.00  0.00     0.219 HD
ENDBRANCH  36  43
ENDBRANCH   1  36
TORSDOF 9
ENDMDL
MODEL 3
REMARK VINA RESULT: -9.098221779      3.694     10.987
REMARK  9 active torsions:
REMARK  status: ('A' for Active; 'I' for Inactive)
REMARK    1  A    between atoms: C2_2  and  C3_3 
REMARK    2  A    between atoms: C3_3  and  C4_4 
REMARK    3  A    between atoms: C4_4  and  N1_5 
REMARK    4  A    between atoms: N1_5  and  C6_7 
REMARK    5  A    between atoms: C6_7  and  O1_8 
REMARK    6  A    between atoms: C6_7  and  C7_10 
REMARK       I    between atoms: N4_24  and  C18_26 
REMARK    7  A    between atoms: C18_26  and  C19_28 
REMARK    8  A    between atoms: C21_30  and  C22_31 
REMARK    9  A    between atoms: C22_31  and  C23_32 
ROOT
HETATM    1  C7  UNL     1      26.755  10.460  -2.211  1.00  0.00     0.092 A 
HETATM    2  C8  UNL     1      27.426  11.428  -2.998  1.00  0.00    -0.018 A 
HETATM    3  C9  UNL     1      27.571  11.350  -4.448  1.00  0.00     0.052 C 
HETATM    4  C10 UNL     1      27.950  12.328  -2.112  1.00  0.00     0.006 A 
HETATM    5  C11 UNL     1      27.626  11.933  -0.859  1.00  0.00     0.023 A 
HETATM    6  N2  UNL     1      26.879  10.768  -0.921  1.00  0.00    -0.350 N 
HETATM    7  C12 UNL     1      26.348  10.180   0.302  1.00  0.00     0.156 C 
HETATM    8  C13 UNL     1      28.030  12.667   0.338  1.00  0.00     0.063 A 
HETATM    9  C14 UNL     1      28.901  13.831   0.201  1.00  0.00     0.047 A 
HETATM   10  C15 UNL     1      29.176  14.276  -1.179  1.00  0.00    -0.031 A 
HETATM   11  C16 UNL     1      29.875  15.421  -1.406  1.00  0.00     0.097 A 
HETATM   12  N3  UNL     1      30.189  15.909  -2.614  1.00  0.00    -0.352 N 
ATOM     13  H3  UNL     1      30.717  16.776  -2.711  1.00  0.00     0.166 HD
HETATM   14  C17 UNL     1      29.790  15.227  -3.683  1.00  0.00     0.108 A 
HETATM   15  N4  UNL     1      30.039  15.607  -4.866  1.00  0.00    -0.308 N 
ATOM     16  H4  UNL     1      29.691  15.015  -5.620  1.00  0.00     0.170 HD
HETATM   17  C18 UNL     1      30.744  16.758  -5.243  1.00  0.00     0.274 C 
HETATM   18  O2  UNL     1      31.928  16.616  -5.640  1.00  0.00    -0.266 OA
HETATM   19  C29 UNL     1      29.063  14.033  -3.533  1.00  0.00     0.061 A 
HETATM   20  C30 UNL     1      28.746  13.539  -2.293  1.00  0.00    -0.012 A 
ENDROOT
BRANCH  17  21
HETATM   21  C19 UNL     1      30.201  18.106  -5.207  1.00  0.00     0.103 A 
HETATM   22  C20 UNL     1      28.892  18.380  -5.606  1.00  0.00     0.044 A 
HETATM   23  C21 UNL     1      28.732  19.740  -5.439  1.00  0.00    -0.035 A 
HETATM   24  C27 UNL     1      29.928  20.234  -4.953  1.00  0.00     0.098 A 
HETATM   25  N7  UNL     1      30.813  19.234  -4.815  1.00  0.00    -0.356 N 
HETATM   26  C28 UNL     1      32.157  19.383  -4.335  1.00  0.00     0.156 C 
BRANCH  23  27
HETATM   27  C22 UNL     1      27.488  20.520  -5.733  1.00  0.00     0.098 C 
BRANCH  27  28
HETATM   28  C23 UNL     1      27.811  21.897  -6.182  1.00  0.00     0.032 A 
HETATM   29  C24 UNL     1      27.669  23.082  -5.492  1.00  0.00     0.052 A 
HETATM   30  C25 UNL     1      28.114  24.077  -6.363  1.00  0.00     0.024 A 
HETATM   31  C26 UNL     1      28.141  25.518  -6.036  1.00  0.00     0.070 C 
HETATM   32  N5  UNL     1      28.496  23.498  -7.505  1.00  0.00    -0.305 N 
HETATM   33  N6  UNL     1      28.312  22.182  -7.395  1.00  0.00    -0.304 N 
ATOM     34  H5  UNL     1      28.866  23.981  -8.323  1.00  0.00     0.186 HD
ATOM     35  H6  UNL     1      28.522  21.497  -8.121  1.00  0.00     0.186 HD
ENDBRANCH  27  28
ENDBRANCH  23  27
ENDBRANCH  17  21
BRANCH   1  36
HETATM   36  C6  UNL     1      25.912   9.428  -2.771  1.00  0.00     0.166 C 
BRANCH  36  37
HETATM   37  N1  UNL     1      26.035   8.076  -3.005  1.00  0.00    -0.364 N 
HETATM   38  C5  UNL     1      25.076   7.032  -2.983  1.00  0.00     0.151 C 
BRANCH  37  39
HETATM   39  C4  UNL     1      27.443   7.576  -3.227  1.00  0.00     0.124 C 
BRANCH  39  40
HETATM   40  C3  UNL     1      27.410   6.977  -4.614  1.00  0.00     0.019 C 
BRANCH  40  41
HETATM   41  C2  UNL     1      28.186   7.872  -5.584  1.00  0.00    -0.003 C 
HETATM   42  C1  UNL     1      27.147   8.382  -6.590  1.00  0.00     0.005 C 
ENDBRANCH  40  41
ENDBRANCH  39  40
ENDBRANCH  37  39
ENDBRANCH  36  37
BRANCH  36  43
HETATM   43  O1  UNL     1      24.715   9.882  -3.177  1.00  0.00    -0.344 OA
ATOM     44  H1  UNL     1      24.415  10.596  -2.626  1.00  0.00     0.219 HD
ENDBRANCH  36  43
ENDBRANCH   1  36
TORSDOF 9
ENDMDL
MODEL 4
REMARK VINA RESULT: -9.093891074      1.116      1.414
REMARK  9 active torsions:
REMARK  status: ('A' for Active; 'I' for Inactive)
REMARK    1  A    between atoms: C2_2  and  C3_3 
REMARK    2  A    between atoms: C3_3  and  C4_4 
REMARK    3  A    between atoms: C4_4  and  N1_5 
REMARK    4  A    between atoms: N1_5  and  C6_7 
REMARK    5  A    between atoms: C6_7  and  O1_8 
REMARK    6  A    between atoms: C6_7  and  C7_10 
REMARK       I    between atoms: N4_24  and  C18_26 
REMARK    7  A    between atoms: C18_26  and  C19_28 
REMARK    8  A    between atoms: C21_30  and  C22_31 
REMARK    9  A    between atoms: C22_31  and  C23_32 
ROOT
HETATM    1  C7  UNL     1      27.734  13.768  -2.875  1.00  0.00     0.092 A 
HETATM    2  C8  UNL     1      27.024  13.398  -4.044  1.00  0.00    -0.018 A 
HETATM    3  C9  UNL     1      26.605  14.336  -5.081  1.00  0.00     0.052 C 
HETATM    4  C10 UNL     1      26.764  12.062  -3.914  1.00  0.00     0.006 A 
HETATM    5  C11 UNL     1      27.276  11.640  -2.734  1.00  0.00     0.023 A 
HETATM    6  N2  UNL     1      27.883  12.704  -2.087  1.00  0.00    -0.350 N 
HETATM    7  C12 UNL     1      28.574  12.487  -0.823  1.00  0.00     0.156 C 
HETATM    8  C13 UNL     1      27.176  10.258  -2.270  1.00  0.00     0.063 A 
HETATM    9  C14 UNL     1      26.412   9.295  -3.057  1.00  0.00     0.047 A 
HETATM   10  C15 UNL     1      25.928   9.768  -4.369  1.00  0.00    -0.031 A 
HETATM   11  C16 UNL     1      25.313   8.908  -5.226  1.00  0.00     0.097 A 
HETATM   12  N3  UNL     1      24.828   9.234  -6.432  1.00  0.00    -0.352 N 
ATOM     13  H3  UNL     1      24.377   8.537  -7.024  1.00  0.00     0.166 HD
HETATM   14  C17 UNL     1      24.952  10.495  -6.832  1.00  0.00     0.108 A 
HETATM   15  N4  UNL     1      24.525  10.899  -7.955  1.00  0.00    -0.308 N 
ATOM     16  H4  UNL     1      24.667  11.886  -8.171  1.00  0.00     0.170 HD
HETATM   17  C18 UNL     1      23.877  10.128  -8.929  1.00  0.00     0.274 C 
HETATM   18  O2  UNL     1      22.631  10.255  -9.042  1.00  0.00    -0.266 OA
HETATM   19  C29 UNL     1      25.576  11.445  -6.005  1.00  0.00     0.061 A 
HETATM   20  C30 UNL     1      26.070  11.105  -4.771  1.00  0.00    -0.012 A 
ENDROOT
BRANCH  17  21
HETATM   21  C19 UNL     1      24.544   9.192  -9.818  1.00  0.00     0.103 A 
HETATM   22  C20 UNL     1      24.499   7.814  -9.599  1.00  0.00     0.044 A 
HETATM   23  C21 UNL     1      25.231   7.252 -10.624  1.00  0.00    -0.035 A 
HETATM   24  C27 UNL     1      25.686   8.290 -11.415  1.00  0.00     0.098 A 
HETATM   25  N7  UNL     1      25.264   9.463 -10.917  1.00  0.00    -0.356 N 
HETATM   26  C28 UNL     1      25.549  10.750 -11.484  1.00  0.00     0.156 C 
BRANCH  23  27
HETATM   27  C22 UNL     1      25.476   5.789 -10.827  1.00  0.00     0.098 C 
BRANCH  27  28
HETATM   28  C23 UNL     1      25.858   5.127  -9.555  1.00  0.00     0.032 A 
HETATM   29  C24 UNL     1      27.068   5.161  -8.896  1.00  0.00     0.052 A 
HETATM   30  C25 UNL     1      26.895   4.374  -7.757  1.00  0.00     0.024 A 
HETATM   31  C26 UNL     1      27.947   4.128  -6.748  1.00  0.00     0.070 C 
HETATM   32  N5  UNL     1      25.644   3.905  -7.754  1.00  0.00    -0.305 N 
HETATM   33  N6  UNL     1      25.018   4.359  -8.840  1.00  0.00    -0.304 N 
ATOM     34  H5  UNL     1      25.237   3.301  -7.041  1.00  0.00     0.186 HD
ATOM     35  H6  UNL     1      24.050   4.155  -9.089  1.00  0.00     0.186 HD
ENDBRANCH  27  28
ENDBRANCH  23  27
ENDBRANCH  17  21
BRANCH   1  36
HETATM   36  C6  UNL     1      28.354  15.062  -2.699  1.00  0.00     0.166 C 
BRANCH  36  37
HETATM   37  N1  UNL     1      29.460  15.700  -3.214  1.00  0.00    -0.364 N 
HETATM   38  C5  UNL     1      30.587  15.201  -3.916  1.00  0.00     0.151 C 
BRANCH  37  39
HETATM   39  C4  UNL     1      29.567  17.175  -2.904  1.00  0.00     0.124 C 
BRANCH  39  40
HETATM   40  C3  UNL     1      30.168  17.774  -4.155  1.00  0.00     0.019 C 
BRANCH  40  41
HETATM   41  C2  UNL     1      30.818  19.121  -3.824  1.00  0.00    -0.003 C 
HETATM   42  C1  UNL     1      30.793  19.222  -2.295  1.00  0.00     0.005 C 
ENDBRANCH  40  41
ENDBRANCH  39  40
ENDBRANCH  37  39
ENDBRANCH  36  37
BRANCH  36  43
HETATM   43  O1  UNL     1      27.713  15.841  -1.814  1.00  0.00    -0.344 OA
ATOM     44  H1  UNL     1      26.870  16.121  -2.150  1.00  0.00     0.219 HD
ENDBRANCH  36  43
ENDBRANCH   1  36
TORSDOF 9
ENDMDL
MODEL 5
REMARK VINA RESULT: -9.076024809      2.430     10.909
REMARK  9 active torsions:
REMARK  status: ('A' for Active; 'I' for Inactive)
REMARK    1  A    between atoms: C2_2  and  C3_3 
REMARK    2  A    between atoms: C3_3  and  C4_4 
REMARK    3  A    between atoms: C4_4  and  N1_5 
REMARK    4  A    between atoms: N1_5  and  C6_7 
REMARK    5  A    between atoms: C6_7  and  O1_8 
REMARK    6  A    between atoms: C6_7  and  C7_10 
REMARK       I    between atoms: N4_24  and  C18_26 
REMARK    7  A    between atoms: C18_26  and  C19_28 
REMARK    8  A    between atoms: C21_30  and  C22_31 
REMARK    9  A    between atoms: C22_31  and  C23_32 
ROOT
HETATM    1  C7  UNL     1      26.609   7.826  -6.495  1.00  0.00     0.092 A 
HETATM    2  C8  UNL     1      27.021   8.864  -5.623  1.00  0.00    -0.018 A 
HETATM    3  C9  UNL     1      27.899   8.670  -4.473  1.00  0.00     0.052 C 
HETATM    4  C10 UNL     1      26.356   9.984  -6.039  1.00  0.00     0.006 A 
HETATM    5  C11 UNL     1      25.580   9.652  -7.096  1.00  0.00     0.023 A 
HETATM    6  N2  UNL     1      25.740   8.306  -7.383  1.00  0.00    -0.350 N 
HETATM    7  C12 UNL     1      25.058   7.721  -8.530  1.00  0.00     0.156 C 
HETATM    8  C13 UNL     1      24.726  10.613  -7.792  1.00  0.00     0.063 A 
HETATM    9  C14 UNL     1      24.622  11.976  -7.280  1.00  0.00     0.047 A 
HETATM   10  C15 UNL     1      25.534  12.324  -6.172  1.00  0.00    -0.031 A 
HETATM   11  C16 UNL     1      25.597  13.602  -5.709  1.00  0.00     0.097 A 
HETATM   12  N3  UNL     1      26.379  14.022  -4.705  1.00  0.00    -0.352 N 
ATOM     13  H3  UNL     1      26.376  14.998  -4.409  1.00  0.00     0.166 HD
HETATM   14  C17 UNL     1      27.157  13.127  -4.106  1.00  0.00     0.108 A 
HETATM   15  N4  UNL     1      27.929  13.428  -3.147  1.00  0.00    -0.308 N 
ATOM     16  H4  UNL     1      28.486  12.670  -2.753  1.00  0.00     0.170 HD
HETATM   17  C18 UNL     1      28.095  14.696  -2.574  1.00  0.00     0.274 C 
HETATM   18  O2  UNL     1      27.550  14.911  -1.461  1.00  0.00    -0.266 OA
HETATM   19  C29 UNL     1      27.149  11.785  -4.525  1.00  0.00     0.061 A 
HETATM   20  C30 UNL     1      26.346  11.361  -5.554  1.00  0.00    -0.012 A 
ENDROOT
BRANCH  17  21
HETATM   21  C19 UNL     1      28.852  15.780  -3.175  1.00  0.00     0.103 A 
HETATM   22  C20 UNL     1      28.395  17.099  -3.144  1.00  0.00     0.044 A 
HETATM   23  C21 UNL     1      29.355  17.839  -3.801  1.00  0.00    -0.035 A 
HETATM   24  C27 UNL     1      30.343  16.960  -4.201  1.00  0.00     0.098 A 
HETATM   25  N7  UNL     1      30.029  15.712  -3.816  1.00  0.00    -0.356 N 
HETATM   26  C28 UNL     1      30.828  14.547  -4.062  1.00  0.00     0.156 C 
BRANCH  23  27
HETATM   27  C22 UNL     1      29.318  19.318  -4.030  1.00  0.00     0.098 C 
BRANCH  27  28
HETATM   28  C23 UNL     1      30.677  19.856  -4.288  1.00  0.00     0.032 A 
HETATM   29  C24 UNL     1      31.681  20.128  -3.383  1.00  0.00     0.052 A 
HETATM   30  C25 UNL     1      32.746  20.614  -4.142  1.00  0.00     0.024 A 
HETATM   31  C26 UNL     1      34.045  21.036  -3.578  1.00  0.00     0.070 C 
HETATM   32  N5  UNL     1      32.378  20.625  -5.426  1.00  0.00    -0.305 N 
HETATM   33  N6  UNL     1      31.129  20.167  -5.514  1.00  0.00    -0.304 N 
ATOM     34  H5  UNL     1      32.956  20.932  -6.208  1.00  0.00     0.186 HD
ATOM     35  H6  UNL     1      30.599  20.069  -6.380  1.00  0.00     0.186 HD
ENDBRANCH  27  28
ENDBRANCH  23  27
ENDBRANCH  17  21
BRANCH   1  36
HETATM   36  C6  UNL     1      27.217   6.514  -6.510  1.00  0.00     0.166 C 
BRANCH  36  37
HETATM   37  N1  UNL     1      26.855   5.258  -6.077  1.00  0.00    -0.364 N 
HETATM   38  C5  UNL     1      26.540   4.076  -6.795  1.00  0.00     0.151 C 
BRANCH  37  39
HETATM   39  C4  UNL     1      26.654   5.112  -4.587  1.00  0.00     0.124 C 
BRANCH  39  40
HETATM   40  C3  UNL     1      25.203   5.472  -4.370  1.00  0.00     0.019 C 
BRANCH  40  41
HETATM   41  C2  UNL     1      25.094   6.577  -3.316  1.00  0.00    -0.003 C 
HETATM   42  C1  UNL     1      26.401   6.508  -2.516  1.00  0.00     0.005 C 
ENDBRANCH  40  41
ENDBRANCH  39  40
ENDBRANCH  37  39
ENDBRANCH  36  37
BRANCH  36  43
HETATM   43  O1  UNL     1      28.437   6.501  -7.070  1.00  0.00    -0.344 OA
ATOM     44  H1  UNL     1      28.575   7.269  -7.611  1.00  0.00     0.219 HD
ENDBRANCH  36  43
ENDBRANCH   1  36
TORSDOF 9
ENDMDL
