MODEL 1
REMARK VINA RESULT: -8.664455731      0.000      0.000
REMARK  9 active torsions:
REMARK  status: ('A' for Active; 'I' for Inactive)
REMARK    1  A    between atoms: N1_2  and  C3_4 
REMARK    2  A    between atoms: C6_7  and  O1_8 
REMARK    3  A    between atoms: N2_13  and  C10_14 
REMARK    4  A    between atoms: C10_14  and  C11_15 
REMARK    5  A    between atoms: C11_15  and  C12_16 
REMARK    6  A    between atoms: C12_16  and  C13_17 
REMARK    7  A    between atoms: C13_17  and  C14_18 
REMARK    8  A    between atoms: C14_18  and  N3_19 
REMARK    9  A    between atoms: C29_35  and  O3_36 
ROOT
HETATM    1  C3  UNL     1      26.813  10.955  -0.929  1.00  0.00     0.109 C 
HETATM    2  C4  UNL     1      26.280   9.551  -0.795  1.00  0.00     0.030 C 
HETATM    3  C5  UNL     1      26.762   8.832  -2.026  1.00  0.00     0.044 C 
HETATM    4  C6  UNL     1      26.272   9.661  -3.255  1.00  0.00     0.108 C 
HETATM    5  C7  UNL     1      27.384  10.658  -3.413  1.00  0.00     0.054 C 
HETATM    6  C8  UNL     1      28.615  10.040  -4.058  1.00  0.00     0.050 C 
HETATM    7  C9  UNL     1      28.471   8.694  -4.655  1.00  0.00     0.275 C 
HETATM    8  N2  UNL     1      27.348   7.925  -4.329  1.00  0.00     0.101 N 
HETATM    9  C17 UNL     1      26.076   8.590  -4.244  1.00  0.00     0.188 C 
HETATM   10  C18 UNL     1      25.081   7.604  -3.570  1.00  0.00     0.053 C 
HETATM   11  C19 UNL     1      25.549   8.779  -5.591  1.00  0.00     0.045 C 
HETATM   12  C20 UNL     1      24.350   9.637  -5.754  1.00  0.00     0.008 C 
HETATM   13  C21 UNL     1      24.616  11.014  -6.288  1.00  0.00    -0.006 C 
HETATM   14  C22 UNL     1      24.152  11.054  -7.763  1.00  0.00     0.005 C 
HETATM   15  C23 UNL     1      25.517  11.064  -8.472  1.00  0.00     0.001 C 
HETATM   16  C24 UNL     1      26.101  12.211  -7.610  1.00  0.00     0.010 C 
HETATM   17  C25 UNL     1      25.978  11.503  -6.238  1.00  0.00     0.023 C 
HETATM   18  C26 UNL     1      26.418  12.357  -5.124  1.00  0.00    -0.043 A 
HETATM   19  C27 UNL     1      26.209  13.726  -5.363  1.00  0.00     0.011 A 
HETATM   20  C28 UNL     1      26.633  14.710  -4.494  1.00  0.00     0.040 A 
HETATM   21  C29 UNL     1      27.282  14.302  -3.361  1.00  0.00     0.099 A 
HETATM   22  C30 UNL     1      27.492  12.937  -3.118  1.00  0.00     0.110 A 
HETATM   23  C31 UNL     1      27.059  11.958  -3.994  1.00  0.00    -0.001 A 
HETATM   24  O4  UNL     1      28.145  12.423  -2.020  1.00  0.00    -0.339 OA
HETATM   25  C32 UNL     1      27.849  11.053  -2.017  1.00  0.00     0.167 C 
ENDROOT
BRANCH   8  26
HETATM   26  C10 UNL     1      27.307   6.697  -5.062  1.00  0.00     0.273 C 
BRANCH  26  27
HETATM   27  C11 UNL     1      28.083   6.836  -6.366  1.00  0.00     0.030 C 
BRANCH  27  28
HETATM   28  C12 UNL     1      27.767   5.577  -7.188  1.00  0.00     0.004 C 
BRANCH  28  29
HETATM   29  C13 UNL     1      26.388   5.712  -7.811  1.00  0.00     0.036 C 
BRANCH  29  30
HETATM   30  C14 UNL     1      26.568   6.295  -9.196  1.00  0.00     0.311 C 
BRANCH  30  31
HETATM   31  N3  UNL     1      26.005   5.341 -10.125  1.00  0.00     0.005 N 
HETATM   32  C15 UNL     1      25.521   6.067 -11.295  1.00  0.00     0.355 C 
HETATM   33  C16 UNL     1      24.895   4.668  -9.467  1.00  0.00     0.355 C 
HETATM   34  O2  UNL     1      26.945   4.481 -10.537  1.00  0.00    -0.065 OA
ENDBRANCH  30  31
ENDBRANCH  29  30
ENDBRANCH  28  29
ENDBRANCH  27  28
ENDBRANCH  26  27
ENDBRANCH   8  26
BRANCH   4  35
HETATM   35  O1  UNL     1      25.117  10.257  -2.820  1.00  0.00    -0.386 OA
ATOM     36  H1  UNL     1      25.305  11.187  -2.857  1.00  0.00     0.210 HD
ENDBRANCH   4  35
BRANCH   1  37
HETATM   37  N1  UNL     1      27.322  11.284   0.354  1.00  0.00    -0.414 N 
HETATM   38  C1  UNL     1      26.474  10.958   1.450  1.00  0.00     0.143 C 
HETATM   39  C2  UNL     1      28.428  12.072   0.553  1.00  0.00     0.143 C 
ENDBRANCH   1  37
BRANCH  21  40
HETATM   40  O3  UNL     1      27.731  15.248  -2.454  1.00  0.00    -0.358 OA
ATOM     41  H3  UNL     1      28.552  15.106  -1.996  1.00  0.00     0.217 HD
ENDBRANCH  21  40
TORSDOF 9
ENDMDL
MODEL 2
REMARK VINA RESULT: -8.325705631      3.152      7.495
REMARK  9 active torsions:
REMARK  status: ('A' for Active; 'I' for Inactive)
REMARK    1  A    between atoms: N1_2  and  C3_4 
REMARK    2  A    between atoms: C6_7  and  O1_8 
REMARK    3  A    between atoms: N2_13  and  C10_14 
REMARK    4  A    between atoms: C10_14  and  C11_15 
REMARK    5  A    between atoms: C11_15  and  C12_16 
REMARK    6  A    between atoms: C12_16  and  C13_17 
REMARK    7  A    between atoms: C13_17  and  C14_18 
REMARK    8  A    between atoms: C14_18  and  N3_19 
REMARK    9  A    between atoms: C29_35  and  O3_36 
ROOT
HETATM    1  C3  UNL     1      22.603  12.473  -7.059  1.00  0.00     0.109 C 
HETATM    2  C4  UNL     1      22.336  12.089  -5.625  1.00  0.00     0.030 C 
HETATM    3  C5  UNL     1      23.697  11.971  -4.994  1.00  0.00     0.044 C 
HETATM    4  C6  UNL     1      24.510  10.956  -5.859  1.00  0.00     0.108 C 
HETATM    5  C7  UNL     1      25.088  11.853  -6.916  1.00  0.00     0.054 C 
HETATM    6  C8  UNL     1      26.263  12.666  -6.392  1.00  0.00     0.050 C 
HETATM    7  C9  UNL     1      26.819  12.293  -5.073  1.00  0.00     0.275 C 
HETATM    8  N2  UNL     1      26.070  11.459  -4.235  1.00  0.00     0.101 N 
HETATM    9  C17 UNL     1      25.371  10.353  -4.831  1.00  0.00     0.188 C 
HETATM   10  C18 UNL     1      24.387   9.796  -3.765  1.00  0.00     0.053 C 
HETATM   11  C19 UNL     1      26.316   9.264  -5.062  1.00  0.00     0.045 C 
HETATM   12  C20 UNL     1      25.857   8.106  -5.868  1.00  0.00     0.008 C 
HETATM   13  C21 UNL     1      26.360   8.071  -7.282  1.00  0.00    -0.006 C 
HETATM   14  C22 UNL     1      27.457   6.984  -7.374  1.00  0.00     0.005 C 
HETATM   15  C23 UNL     1      28.705   7.873  -7.486  1.00  0.00     0.001 C 
HETATM   16  C24 UNL     1      28.128   8.764  -8.615  1.00  0.00     0.010 C 
HETATM   17  C25 UNL     1      26.902   9.295  -7.833  1.00  0.00     0.023 C 
HETATM   18  C26 UNL     1      26.055  10.178  -8.651  1.00  0.00    -0.043 A 
HETATM   19  C27 UNL     1      26.079   9.855 -10.017  1.00  0.00     0.011 A 
HETATM   20  C28 UNL     1      25.434  10.609 -10.976  1.00  0.00     0.040 A 
HETATM   21  C29 UNL     1      24.750  11.712 -10.544  1.00  0.00     0.099 A 
HETATM   22  C30 UNL     1      24.722  12.037  -9.180  1.00  0.00     0.110 A 
HETATM   23  C31 UNL     1      25.369  11.273  -8.227  1.00  0.00    -0.001 A 
HETATM   24  O4  UNL     1      24.078  13.130  -8.644  1.00  0.00    -0.339 OA
HETATM   25  C32 UNL     1      24.034  12.896  -7.262  1.00  0.00     0.167 C 
ENDROOT
BRANCH   8  26
HETATM   26  C10 UNL     1      26.785  11.112  -3.045  1.00  0.00     0.273 C 
BRANCH  26  27
HETATM   27  C11 UNL     1      27.932  12.090  -2.816  1.00  0.00     0.030 C 
BRANCH  27  28
HETATM   28  C12 UNL     1      27.618  12.818  -1.501  1.00  0.00     0.004 C 
BRANCH  28  29
HETATM   29  C13 UNL     1      27.762  14.316  -1.705  1.00  0.00     0.036 C 
BRANCH  29  30
HETATM   30  C14 UNL     1      28.813  14.532  -2.774  1.00  0.00     0.311 C 
BRANCH  30  31
HETATM   31  N3  UNL     1      28.489  15.778  -3.431  1.00  0.00     0.005 N 
HETATM   32  C15 UNL     1      27.063  15.776  -3.742  1.00  0.00     0.355 C 
HETATM   33  C16 UNL     1      29.262  15.857  -4.661  1.00  0.00     0.355 C 
HETATM   34  O2  UNL     1      28.729  16.812  -2.615  1.00  0.00    -0.065 OA
ENDBRANCH  30  31
ENDBRANCH  29  30
ENDBRANCH  28  29
ENDBRANCH  27  28
ENDBRANCH  26  27
ENDBRANCH   8  26
BRANCH   4  35
HETATM   35  O1  UNL     1      23.558  10.116  -6.375  1.00  0.00    -0.386 OA
ATOM     36  H1  UNL     1      23.476   9.428  -5.724  1.00  0.00     0.210 HD
ENDBRANCH   4  35
BRANCH   1  37
HETATM   37  N1  UNL     1      21.672  13.506  -7.347  1.00  0.00    -0.414 N 
HETATM   38  C1  UNL     1      21.947  14.763  -6.740  1.00  0.00     0.143 C 
HETATM   39  C2  UNL     1      20.463  13.289  -7.959  1.00  0.00     0.143 C 
ENDBRANCH   1  37
BRANCH  21  40
HETATM   40  O3  UNL     1      24.085  12.506 -11.463  1.00  0.00    -0.358 OA
ATOM     41  H3  UNL     1      24.562  13.185 -11.927  1.00  0.00     0.217 HD
ENDBRANCH  21  40
TORSDOF 9
ENDMDL
MODEL 3
REMARK VINA RESULT: -8.226653842      3.269      6.181
REMARK  9 active torsions:
REMARK  status: ('A' for Active; 'I' for Inactive)
REMARK    1  A    between atoms: N1_2  and  C3_4 
REMARK    2  A    between atoms: C6_7  and  O1_8 
REMARK    3  A    between atoms: N2_13  and  C10_14 
REMARK    4  A    between atoms: C10_14  and  C11_15 
REMARK    5  A    between atoms: C11_15  and  C12_16 
REMARK    6  A    between atoms: C12_16  and  C13_17 
REMARK    7  A    between atoms: C13_17  and  C14_18 
REMARK    8  A    between atoms: C14_18  and  N3_19 
REMARK    9  A    between atoms: C29_35  and  O3_36 
ROOT
HETATM    1  C3  UNL     1      26.392   6.667  -7.923  1.00  0.00     0.109 C 
HETATM    2  C4  UNL     1      25.378   6.652  -9.039  1.00  0.00     0.030 C 
HETATM    3  C5  UNL     1      25.450   8.027  -9.648  1.00  0.00     0.044 C 
HETATM    4  C6  UNL     1      25.213   9.047  -8.490  1.00  0.00     0.108 C 
HETATM    5  C7  UNL     1      26.604   9.223  -7.951  1.00  0.00     0.054 C 
HETATM    6  C8  UNL     1      27.451  10.117  -8.844  1.00  0.00     0.050 C 
HETATM    7  C9  UNL     1      26.759  10.867  -9.914  1.00  0.00     0.275 C 
HETATM    8  N2  UNL     1      25.458  10.492 -10.271  1.00  0.00     0.101 N 
HETATM    9  C17 UNL     1      24.545  10.135  -9.219  1.00  0.00     0.188 C 
HETATM   10  C18 UNL     1      23.309   9.469  -9.883  1.00  0.00     0.053 C 
HETATM   11  C19 UNL     1      24.022  11.355  -8.611  1.00  0.00     0.045 C 
HETATM   12  C20 UNL     1      23.231  11.224  -7.364  1.00  0.00     0.008 C 
HETATM   13  C21 UNL     1      23.955  11.596  -6.103  1.00  0.00    -0.006 C 
HETATM   14  C22 UNL     1      23.424  12.970  -5.631  1.00  0.00     0.005 C 
HETATM   15  C23 UNL     1      24.627  13.858  -5.987  1.00  0.00     0.001 C 
HETATM   16  C24 UNL     1      25.672  12.939  -5.305  1.00  0.00     0.010 C 
HETATM   17  C25 UNL     1      25.400  11.674  -6.157  1.00  0.00     0.023 C 
HETATM   18  C26 UNL     1      26.221  10.528  -5.737  1.00  0.00    -0.043 A 
HETATM   19  C27 UNL     1      26.529  10.543  -4.367  1.00  0.00     0.011 A 
HETATM   20  C28 UNL     1      27.364   9.617  -3.777  1.00  0.00     0.040 A 
HETATM   21  C29 UNL     1      27.899   8.655  -4.590  1.00  0.00     0.099 A 
HETATM   22  C30 UNL     1      27.594   8.636  -5.959  1.00  0.00     0.110 A 
HETATM   23  C31 UNL     1      26.752   9.567  -6.539  1.00  0.00    -0.001 A 
HETATM   24  O4  UNL     1      28.089   7.724  -6.864  1.00  0.00    -0.339 OA
HETATM   25  C32 UNL     1      27.296   7.868  -8.010  1.00  0.00     0.167 C 
ENDROOT
BRANCH   8  26
HETATM   26  C10 UNL     1      24.894  11.375 -11.246  1.00  0.00     0.273 C 
BRANCH  26  27
HETATM   27  C11 UNL     1      25.801  11.459 -12.468  1.00  0.00     0.030 C 
BRANCH  27  28
HETATM   28  C12 UNL     1      25.157  10.568 -13.542  1.00  0.00     0.004 C 
BRANCH  28  29
HETATM   29  C13 UNL     1      25.347   9.108 -13.169  1.00  0.00     0.036 C 
BRANCH  29  30
HETATM   30  C14 UNL     1      24.040   8.394 -13.445  1.00  0.00     0.311 C 
BRANCH  30  31
HETATM   31  N3  UNL     1      24.328   6.977 -13.420  1.00  0.00     0.005 N 
HETATM   32  C15 UNL     1      23.961   6.410 -14.713  1.00  0.00     0.355 C 
HETATM   33  C16 UNL     1      23.526   6.369 -12.369  1.00  0.00     0.355 C 
HETATM   34  O2  UNL     1      25.639   6.770 -13.239  1.00  0.00    -0.065 OA
ENDBRANCH  30  31
ENDBRANCH  29  30
ENDBRANCH  28  29
ENDBRANCH  27  28
ENDBRANCH  26  27
ENDBRANCH   8  26
BRANCH   4  35
HETATM   35  O1  UNL     1      24.411   8.373  -7.606  1.00  0.00    -0.386 OA
ATOM     36  H1  UNL     1      23.988   9.059  -7.104  1.00  0.00     0.210 HD
ENDBRANCH   4  35
BRANCH   1  37
HETATM   37  N1  UNL     1      27.091   5.436  -8.039  1.00  0.00    -0.414 N 
HETATM   38  C1  UNL     1      27.379   5.020  -9.369  1.00  0.00     0.143 C 
HETATM   39  C2  UNL     1      27.279   4.569  -6.992  1.00  0.00     0.143 C 
ENDBRANCH   1  37
BRANCH  21  40
HETATM   40  O3  UNL     1      28.746   7.700  -4.051  1.00  0.00    -0.358 OA
ATOM     41  H3  UNL     1      29.260   7.150  -4.631  1.00  0.00     0.217 HD
ENDBRANCH  21  40
TORSDOF 9
ENDMDL
MODEL 4
REMARK VINA RESULT: -8.217357494      3.001      6.957
REMARK  9 active torsions:
REMARK  status: ('A' for Active; 'I' for Inactive)
REMARK    1  A    between atoms: N1_2  and  C3_4 
REMARK    2  A    between atoms: C6_7  and  O1_8 
REMARK    3  A    between atoms: N2_13  and  C10_14 
REMARK    4  A    between atoms: C10_14  and  C11_15 
REMARK    5  A    between atoms: C11_15  and  C12_16 
REMARK    6  A    between atoms: C12_16  and  C13_17 
REMARK    7  A    between atoms: C13_17  and  C14_18 
REMARK    8  A    between atoms: C14_18  and  N3_19 
REMARK    9  A    between atoms: C29_35  and  O3_36 
ROOT
HETATM    1  C3  UNL     1      27.477  10.989  -2.635  1.00  0.00     0.109 C 
HETATM    2  C4  UNL     1      27.433  12.214  -3.514  1.00  0.00     0.030 C 
HETATM    3  C5  UNL     1      26.209  12.035  -4.370  1.00  0.00     0.044 C 
HETATM    4  C6  UNL     1      26.355  10.655  -5.086  1.00  0.00     0.108 C 
HETATM    5  C7  UNL     1      25.767   9.721  -4.068  1.00  0.00     0.054 C 
HETATM    6  C8  UNL     1      24.247   9.783  -4.047  1.00  0.00     0.050 C 
HETATM    7  C9  UNL     1      23.578  10.509  -5.149  1.00  0.00     0.275 C 
HETATM    8  N2  UNL     1      24.339  11.362  -5.957  1.00  0.00     0.101 N 
HETATM    9  C17 UNL     1      25.652  10.929  -6.349  1.00  0.00     0.188 C 
HETATM   10  C18 UNL     1      26.386  12.159  -6.953  1.00  0.00     0.053 C 
HETATM   11  C19 UNL     1      25.530   9.992  -7.461  1.00  0.00     0.045 C 
HETATM   12  C20 UNL     1      26.746   9.253  -7.882  1.00  0.00     0.008 C 
HETATM   13  C21 UNL     1      26.810   7.821  -7.438  1.00  0.00    -0.006 C 
HETATM   14  C22 UNL     1      26.523   6.924  -8.665  1.00  0.00     0.005 C 
HETATM   15  C23 UNL     1      25.106   6.442  -8.316  1.00  0.00     0.001 C 
HETATM   16  C24 UNL     1      25.466   6.016  -6.871  1.00  0.00     0.010 C 
HETATM   17  C25 UNL     1      25.924   7.408  -6.370  1.00  0.00     0.023 C 
HETATM   18  C26 UNL     1      26.405   7.373  -4.979  1.00  0.00    -0.043 A 
HETATM   19  C27 UNL     1      26.984   6.143  -4.627  1.00  0.00     0.011 A 
HETATM   20  C28 UNL     1      27.415   5.858  -3.347  1.00  0.00     0.040 A 
HETATM   21  C29 UNL     1      27.258   6.838  -2.406  1.00  0.00     0.099 A 
HETATM   22  C30 UNL     1      26.681   8.068  -2.754  1.00  0.00     0.110 A 
HETATM   23  C31 UNL     1      26.256   8.344  -4.040  1.00  0.00    -0.001 A 
HETATM   24  O4  UNL     1      26.464   9.111  -1.881  1.00  0.00    -0.339 OA
HETATM   25  C32 UNL     1      26.183  10.221  -2.690  1.00  0.00     0.167 C 
ENDROOT
BRANCH   8  26
HETATM   26  C10 UNL     1      23.569  11.909  -7.033  1.00  0.00     0.273 C 
BRANCH  26  27
HETATM   27  C11 UNL     1      22.542  12.899  -6.496  1.00  0.00     0.030 C 
BRANCH  27  28
HETATM   28  C12 UNL     1      23.327  13.917  -5.655  1.00  0.00     0.004 C 
BRANCH  28  29
HETATM   29  C13 UNL     1      23.241  15.285  -6.308  1.00  0.00     0.036 C 
BRANCH  29  30
HETATM   30  C14 UNL     1      23.624  16.313  -5.264  1.00  0.00     0.311 C 
BRANCH  30  31
HETATM   31  N3  UNL     1      22.750  17.449  -5.458  1.00  0.00     0.005 N 
HETATM   32  C15 UNL     1      22.271  17.431  -6.836  1.00  0.00     0.355 C 
HETATM   33  C16 UNL     1      23.521  18.660  -5.219  1.00  0.00     0.355 C 
HETATM   34  O2  UNL     1      21.684  17.360  -4.653  1.00  0.00    -0.065 OA
ENDBRANCH  30  31
ENDBRANCH  29  30
ENDBRANCH  28  29
ENDBRANCH  27  28
ENDBRANCH  26  27
ENDBRANCH   8  26
BRANCH   4  35
HETATM   35  O1  UNL     1      27.709  10.482  -5.209  1.00  0.00    -0.386 OA
ATOM     36  H1  UNL     1      27.799   9.828  -5.893  1.00  0.00     0.210 HD
ENDBRANCH   4  35
BRANCH   1  37
HETATM   37  N1  UNL     1      27.780  11.474  -1.336  1.00  0.00    -0.414 N 
HETATM   38  C1  UNL     1      27.476  12.845  -1.109  1.00  0.00     0.143 C 
HETATM   39  C2  UNL     1      28.529  10.776  -0.421  1.00  0.00     0.143 C 
ENDBRANCH   1  37
BRANCH  21  40
HETATM   40  O3  UNL     1      27.671   6.605  -1.104  1.00  0.00    -0.358 OA
ATOM     41  H3  UNL     1      27.839   5.715  -0.818  1.00  0.00     0.217 HD
ENDBRANCH  21  40
TORSDOF 9
ENDMDL
MODEL 5
REMARK VINA RESULT: -8.160737432      3.429      9.181
REMARK  9 active torsions:
REMARK  status: ('A' for Active; 'I' for Inactive)
REMARK    1  A    between atoms: N1_2  and  C3_4 
REMARK    2  A    between atoms: C6_7  and  O1_8 
REMARK    3  A    between atoms: N2_13  and  C10_14 
REMARK    4  A    between atoms: C10_14  and  C11_15 
REMARK    5  A    between atoms: C11_15  and  C12_16 
REMARK    6  A    between atoms: C12_16  and  C13_17 
REMARK    7  A    between atoms: C13_17  and  C14_18 
REMARK    8  A    between atoms: C14_18  and  N3_19 
REMARK    9  A    between atoms: C29_35  and  O3_36 
ROOT
HETATM    1  C3  UNL     1      25.521   6.664  -9.883  1.00  0.00     0.109 C 
HETATM    2  C4  UNL     1      26.338   7.677  -9.121  1.00  0.00     0.030 C 
HETATM    3  C5  UNL     1      25.477   8.910  -9.067  1.00  0.00     0.044 C 
HETATM    4  C6  UNL     1      25.104   9.266 -10.541  1.00  0.00     0.108 C 
HETATM    5  C7  UNL     1      23.875   8.430 -10.754  1.00  0.00     0.054 C 
HETATM    6  C8  UNL     1      22.652   9.033 -10.080  1.00  0.00     0.050 C 
HETATM    7  C9  UNL     1      22.766  10.414  -9.564  1.00  0.00     0.275 C 
HETATM    8  N2  UNL     1      24.039  10.978  -9.419  1.00  0.00     0.101 N 
HETATM    9  C17 UNL     1      25.010  10.731 -10.450  1.00  0.00     0.188 C 
HETATM   10  C18 UNL     1      26.392  11.185  -9.906  1.00  0.00     0.053 C 
HETATM   11  C19 UNL     1      24.746  11.626 -11.573  1.00  0.00     0.045 C 
HETATM   12  C20 UNL     1      25.491  11.393 -12.835  1.00  0.00     0.008 C 
HETATM   13  C21 UNL     1      24.707  10.729 -13.929  1.00  0.00    -0.006 C 
HETATM   14  C22 UNL     1      24.359  11.800 -14.989  1.00  0.00     0.005 C 
HETATM   15  C23 UNL     1      22.857  11.975 -14.708  1.00  0.00     0.001 C 
HETATM   16  C24 UNL     1      22.545  10.458 -14.728  1.00  0.00     0.010 C 
HETATM   17  C25 UNL     1      23.480  10.054 -13.561  1.00  0.00     0.023 C 
HETATM   18  C26 UNL     1      23.476   8.604 -13.316  1.00  0.00    -0.043 A 
HETATM   19  C27 UNL     1      23.240   7.848 -14.476  1.00  0.00     0.011 A 
HETATM   20  C28 UNL     1      23.101   6.476 -14.461  1.00  0.00     0.040 A 
HETATM   21  C29 UNL     1      23.203   5.854 -13.246  1.00  0.00     0.099 A 
HETATM   22  C30 UNL     1      23.440   6.604 -12.085  1.00  0.00     0.110 A 
HETATM   23  C31 UNL     1      23.581   7.979 -12.112  1.00  0.00    -0.001 A 
HETATM   24  O4  UNL     1      23.544   6.080 -10.816  1.00  0.00    -0.339 OA
HETATM   25  C32 UNL     1      24.089   7.106 -10.032  1.00  0.00     0.167 C 
ENDROOT
BRANCH   8  26
HETATM   26  C10 UNL     1      23.975  12.347  -9.007  1.00  0.00     0.273 C 
BRANCH  26  27
HETATM   27  C11 UNL     1      23.710  12.434  -7.508  1.00  0.00     0.030 C 
BRANCH  27  28
HETATM   28  C12 UNL     1      25.041  12.849  -6.861  1.00  0.00     0.004 C 
BRANCH  28  29
HETATM   29  C13 UNL     1      25.706  11.629  -6.248  1.00  0.00     0.036 C 
BRANCH  29  30
HETATM   30  C14 UNL     1      24.619  10.782  -5.621  1.00  0.00     0.311 C 
BRANCH  30  31
HETATM   31  N3  UNL     1      25.254   9.979  -4.600  1.00  0.00     0.005 N 
HETATM   32  C15 UNL     1      26.283  10.786  -3.953  1.00  0.00     0.355 C 
HETATM   33  C16 UNL     1      25.864   8.825  -5.245  1.00  0.00     0.355 C 
HETATM   34  O2  UNL     1      24.364   9.624  -3.665  1.00  0.00    -0.065 OA
ENDBRANCH  30  31
ENDBRANCH  29  30
ENDBRANCH  28  29
ENDBRANCH  27  28
ENDBRANCH  26  27
ENDBRANCH   8  26
BRANCH   4  35
HETATM   35  O1  UNL     1      26.164   8.805 -11.277  1.00  0.00    -0.386 OA
ATOM     36  H1  UNL     1      25.780   8.564 -12.113  1.00  0.00     0.210 HD
ENDBRANCH   4  35
BRANCH   1  37
HETATM   37  N1  UNL     1      25.656   5.453  -9.156  1.00  0.00    -0.414 N 
HETATM   38  C1  UNL     1      25.165   5.484  -7.820  1.00  0.00     0.143 C 
HETATM   39  C2  UNL     1      26.410   4.390  -9.585  1.00  0.00     0.143 C 
ENDBRANCH   1  37
BRANCH  21  40
HETATM   40  O3  UNL     1      23.070   4.477 -13.172  1.00  0.00    -0.358 OA
ATOM     41  H3  UNL     1      23.392   4.017 -12.405  1.00  0.00     0.217 HD
ENDBRANCH  21  40
TORSDOF 9
ENDMDL
