MODEL 1
REMARK VINA RESULT: -6.476981303      0.000      0.000
REMARK  3 active torsions:
REMARK  status: ('A' for Active; 'I' for Inactive)
REMARK    1  A    between atoms: C1_4  and  C2_5 
REMARK    2  A    between atoms: C2_5  and  C3_6 
REMARK    3  A    between atoms: C3_6  and  N2_7 
ROOT
HETATM    1  N2  UNL     1      23.775 -42.210 -11.728  1.00  0.00     0.094 N 
HETATM    2  C4  UNL     1      24.744 -42.490 -10.649  1.00  0.00     0.280 C 
HETATM    3  C5  UNL     1      24.350 -43.927 -10.856  1.00  0.00     0.051 C 
HETATM    4  C6  UNL     1      24.329 -44.863  -9.720  1.00  0.00    -0.006 C 
HETATM    5  C7  UNL     1      24.905 -46.199 -10.212  1.00  0.00     0.005 C 
HETATM    6  C8  UNL     1      23.762 -47.145 -10.383  1.00  0.00     0.005 C 
HETATM    7  C9  UNL     1      22.561 -46.185 -10.447  1.00  0.00    -0.014 C 
HETATM    8  C10 UNL     1      22.513 -45.642 -11.801  1.00  0.00     0.007 C 
HETATM    9  C11 UNL     1      22.237 -44.195 -11.981  1.00  0.00     0.036 C 
HETATM   10  C12 UNL     1      23.022 -43.269 -11.171  1.00  0.00     0.229 C 
HETATM   11  C13 UNL     1      22.957 -45.292  -9.325  1.00  0.00     0.010 C 
ENDROOT
BRANCH   1  12
HETATM   12  C3  UNL     1      24.293 -42.257 -13.035  1.00  0.00     0.278 C 
BRANCH  12  13
HETATM   13  C2  UNL     1      24.216 -40.841 -13.627  1.00  0.00     0.074 C 
BRANCH  13  14
HETATM   14  C1  UNL     1      23.451 -40.844 -14.915  1.00  0.00     0.054 C 
HETATM   15  N1  UNL     1      22.406 -41.573 -14.957  1.00  0.00    -0.411 N 
ATOM     16  H12 UNL     1      22.118 -42.121 -14.145  1.00  0.00     0.155 HD
ATOM     17  H11 UNL     1      21.885 -41.575 -15.833  1.00  0.00     0.155 HD
ENDBRANCH  13  14
ENDBRANCH  12  13
ENDBRANCH   1  12
TORSDOF 3
ENDMDL
MODEL 2
REMARK VINA RESULT: -6.414639281      7.559      9.285
REMARK  3 active torsions:
REMARK  status: ('A' for Active; 'I' for Inactive)
REMARK    1  A    between atoms: C1_4  and  C2_5 
REMARK    2  A    between atoms: C2_5  and  C3_6 
REMARK    3  A    between atoms: C3_6  and  N2_7 
ROOT
HETATM    1  N2  UNL     1      28.995 -48.815 -13.928  1.00  0.00     0.094 N 
HETATM    2  C4  UNL     1      30.086 -48.565 -14.893  1.00  0.00     0.280 C 
HETATM    3  C5  UNL     1      30.989 -49.010 -13.776  1.00  0.00     0.051 C 
HETATM    4  C6  UNL     1      32.331 -48.424 -13.628  1.00  0.00    -0.006 C 
HETATM    5  C7  UNL     1      33.293 -49.561 -13.252  1.00  0.00     0.005 C 
HETATM    6  C8  UNL     1      33.605 -49.424 -11.799  1.00  0.00     0.005 C 
HETATM    7  C9  UNL     1      32.455 -48.525 -11.309  1.00  0.00    -0.014 C 
HETATM    8  C10 UNL     1      31.284 -49.380 -11.133  1.00  0.00     0.007 C 
HETATM    9  C11 UNL     1      29.965 -48.888 -11.599  1.00  0.00     0.036 C 
HETATM   10  C12 UNL     1      29.904 -48.346 -12.953  1.00  0.00     0.229 C 
HETATM   11  C13 UNL     1      32.473 -47.548 -12.430  1.00  0.00     0.010 C 
ENDROOT
BRANCH   1  12
HETATM   12  C3  UNL     1      28.483 -50.126 -13.916  1.00  0.00     0.278 C 
BRANCH  12  13
HETATM   13  C2  UNL     1      27.189 -50.137 -14.743  1.00  0.00     0.074 C 
BRANCH  13  14
HETATM   14  C1  UNL     1      26.447 -48.845 -14.585  1.00  0.00     0.054 C 
HETATM   15  N1  UNL     1      25.439 -48.669 -15.346  1.00  0.00    -0.411 N 
ATOM     16  H12 UNL     1      25.165 -49.382 -16.023  1.00  0.00     0.155 HD
ATOM     17  H11 UNL     1      24.934 -47.790 -15.239  1.00  0.00     0.155 HD
ENDBRANCH  13  14
ENDBRANCH  12  13
ENDBRANCH   1  12
TORSDOF 3
ENDMDL
MODEL 3
REMARK VINA RESULT: -6.363593906      7.491      9.263
REMARK  3 active torsions:
REMARK  status: ('A' for Active; 'I' for Inactive)
REMARK    1  A    between atoms: C1_4  and  C2_5 
REMARK    2  A    between atoms: C2_5  and  C3_6 
REMARK    3  A    between atoms: C3_6  and  N2_7 
ROOT
HETATM    1  N2  UNL     1      31.123 -49.089 -13.437  1.00  0.00     0.094 N 
HETATM    2  C4  UNL     1      31.086 -49.598 -14.824  1.00  0.00     0.280 C 
HETATM    3  C5  UNL     1      29.693 -49.033 -14.848  1.00  0.00     0.051 C 
HETATM    4  C6  UNL     1      28.638 -49.689 -15.636  1.00  0.00    -0.006 C 
HETATM    5  C7  UNL     1      27.810 -48.585 -16.310  1.00  0.00     0.005 C 
HETATM    6  C8  UNL     1      26.516 -48.481 -15.572  1.00  0.00     0.005 C 
HETATM    7  C9  UNL     1      26.850 -49.179 -14.242  1.00  0.00    -0.014 C 
HETATM    8  C10 UNL     1      27.573 -48.214 -13.418  1.00  0.00     0.007 C 
HETATM    9  C11 UNL     1      28.760 -48.673 -12.656  1.00  0.00     0.036 C 
HETATM   10  C12 UNL     1      29.756 -49.445 -13.391  1.00  0.00     0.229 C 
HETATM   11  C13 UNL     1      27.587 -50.342 -14.804  1.00  0.00     0.010 C 
ENDROOT
BRANCH   1  12
HETATM   12  C3  UNL     1      31.564 -47.761 -13.290  1.00  0.00     0.278 C 
BRANCH  12  13
HETATM   13  C2  UNL     1      32.677 -47.745 -12.233  1.00  0.00     0.074 C 
BRANCH  13  14
HETATM   14  C1  UNL     1      32.563 -48.930 -11.323  1.00  0.00     0.054 C 
HETATM   15  N1  UNL     1      32.142 -48.704 -10.141  1.00  0.00    -0.411 N 
ATOM     16  H12 UNL     1      31.899 -47.759  -9.845  1.00  0.00     0.155 HD
ATOM     17  H11 UNL     1      32.064 -49.511  -9.522  1.00  0.00     0.155 HD
ENDBRANCH  13  14
ENDBRANCH  12  13
ENDBRANCH   1  12
TORSDOF 3
ENDMDL
MODEL 4
REMARK VINA RESULT: -6.280252622      1.779      3.040
REMARK  3 active torsions:
REMARK  status: ('A' for Active; 'I' for Inactive)
REMARK    1  A    between atoms: C1_4  and  C2_5 
REMARK    2  A    between atoms: C2_5  and  C3_6 
REMARK    3  A    between atoms: C3_6  and  N2_7 
ROOT
HETATM    1  N2  UNL     1      23.251 -44.069 -12.766  1.00  0.00     0.094 N 
HETATM    2  C4  UNL     1      22.579 -45.146 -12.010  1.00  0.00     0.280 C 
HETATM    3  C5  UNL     1      22.899 -44.308 -10.802  1.00  0.00     0.051 C 
HETATM    4  C6  UNL     1      23.196 -44.949  -9.511  1.00  0.00    -0.006 C 
HETATM    5  C7  UNL     1      22.506 -44.123  -8.416  1.00  0.00     0.005 C 
HETATM    6  C8  UNL     1      23.562 -43.335  -7.714  1.00  0.00     0.005 C 
HETATM    7  C9  UNL     1      24.718 -43.375  -8.731  1.00  0.00    -0.014 C 
HETATM    8  C10 UNL     1      24.430 -42.370  -9.750  1.00  0.00     0.007 C 
HETATM    9  C11 UNL     1      24.663 -42.711 -11.175  1.00  0.00     0.036 C 
HETATM   10  C12 UNL     1      24.111 -43.976 -11.648  1.00  0.00     0.229 C 
HETATM   11  C13 UNL     1      24.620 -44.815  -9.090  1.00  0.00     0.010 C 
ENDROOT
BRANCH   1  12
HETATM   12  C3  UNL     1      22.424 -43.007 -13.174  1.00  0.00     0.278 C 
BRANCH  12  13
HETATM   13  C2  UNL     1      21.454 -43.542 -14.237  1.00  0.00     0.074 C 
BRANCH  13  14
HETATM   14  C1  UNL     1      21.327 -42.576 -15.375  1.00  0.00     0.054 C 
HETATM   15  N1  UNL     1      20.873 -43.042 -16.471  1.00  0.00    -0.411 N 
ATOM     16  H12 UNL     1      20.613 -44.025 -16.553  1.00  0.00     0.155 HD
ATOM     17  H11 UNL     1      20.787 -42.385 -17.246  1.00  0.00     0.155 HD
ENDBRANCH  13  14
ENDBRANCH  12  13
ENDBRANCH   1  12
TORSDOF 3
ENDMDL
MODEL 5
REMARK VINA RESULT: -6.190396137      2.101      3.076
REMARK  3 active torsions:
REMARK  status: ('A' for Active; 'I' for Inactive)
REMARK    1  A    between atoms: C1_4  and  C2_5 
REMARK    2  A    between atoms: C2_5  and  C3_6 
REMARK    3  A    between atoms: C3_6  and  N2_7 
ROOT
HETATM    1  N2  UNL     1      24.655 -41.699 -10.551  1.00  0.00     0.094 N 
HETATM    2  C4  UNL     1      24.855 -42.425  -9.279  1.00  0.00     0.280 C 
HETATM    3  C5  UNL     1      24.594 -43.657 -10.101  1.00  0.00     0.051 C 
HETATM    4  C6  UNL     1      23.916 -44.818  -9.504  1.00  0.00    -0.006 C 
HETATM    5  C7  UNL     1      24.624 -46.081 -10.019  1.00  0.00     0.005 C 
HETATM    6  C8  UNL     1      23.736 -46.706 -11.044  1.00  0.00     0.005 C 
HETATM    7  C9  UNL     1      22.803 -45.538 -11.413  1.00  0.00    -0.014 C 
HETATM    8  C10 UNL     1      23.531 -44.681 -12.344  1.00  0.00     0.007 C 
HETATM    9  C11 UNL     1      23.449 -43.209 -12.172  1.00  0.00     0.036 C 
HETATM   10  C12 UNL     1      23.685 -42.688 -10.831  1.00  0.00     0.229 C 
HETATM   11  C13 UNL     1      22.541 -45.047 -10.033  1.00  0.00     0.010 C 
ENDROOT
BRANCH   1  12
HETATM   12  C3  UNL     1      25.808 -41.526 -11.338  1.00  0.00     0.278 C 
BRANCH  12  13
HETATM   13  C2  UNL     1      26.510 -40.240 -10.876  1.00  0.00     0.074 C 
BRANCH  13  14
HETATM   14  C1  UNL     1      27.879 -40.543 -10.350  1.00  0.00     0.054 C 
HETATM   15  N1  UNL     1      28.200 -39.995  -9.245  1.00  0.00    -0.411 N 
ATOM     16  H12 UNL     1      27.546 -39.383  -8.756  1.00  0.00     0.155 HD
ATOM     17  H11 UNL     1      29.132 -40.200  -8.886  1.00  0.00     0.155 HD
ENDBRANCH  13  14
ENDBRANCH  12  13
ENDBRANCH   1  12
TORSDOF 3
ENDMDL
