MODEL 1
REMARK VINA RESULT: -4.629323796      0.000      0.000
REMARK  5 active torsions:
REMARK  status: ('A' for Active; 'I' for Inactive)
REMARK    1  A    between atoms: C2_2  and  C3_3 
REMARK    2  A    between atoms: C10_10  and  N1_11 
REMARK    3  A    between atoms: N1_11  and  C12_13 
REMARK    4  A    between atoms: C12_13  and  N2_14 
REMARK    5  A    between atoms: C12_13  and  C13_18 
ROOT
HETATM    1  N1  UNL     1      90.345 100.077 -42.241  1.00  0.00    -0.382 N 
HETATM    2  C11 UNL     1      88.921  99.937 -42.181  1.00  0.00     0.146 C 
ENDROOT
BRANCH   1   3
HETATM    3  C10 UNL     1      91.103  99.357 -43.113  1.00  0.00     0.089 C 
HETATM    4  C3  UNL     1      91.667  98.020 -42.745  1.00  0.00     0.013 C 
HETATM    5  C4  UNL     1      90.988  96.987 -43.615  1.00  0.00     0.000 C 
HETATM    6  C5  UNL     1      91.572  97.042 -45.006  1.00  0.00    -0.009 C 
HETATM    7  C7  UNL     1      89.833  97.750 -44.279  1.00  0.00    -0.003 C 
HETATM    8  C6  UNL     1      90.155  96.871 -45.506  1.00  0.00     0.010 C 
HETATM    9  C9  UNL     1      91.757  98.524 -45.269  1.00  0.00     0.012 C 
HETATM   10  C8  UNL     1      90.538  99.047 -44.481  1.00  0.00     0.013 C 
BRANCH   4  11
HETATM   11  C2  UNL     1      91.750  97.693 -41.304  1.00  0.00     0.002 C 
HETATM   12  C1  UNL     1      91.630  96.171 -41.079  1.00  0.00     0.005 C 
ENDBRANCH   4  11
ENDBRANCH   1   3
BRANCH   1  13
HETATM   13  C12 UNL     1      90.619 101.472 -42.144  1.00  0.00     0.334 C 
BRANCH  13  14
HETATM   14  N2  UNL     1      89.529 102.108 -41.345  1.00  0.00    -0.054 N 
ATOM     15  H23 UNL     1      88.628 101.645 -41.469  1.00  0.00     0.277 HD
ATOM     16  H22 UNL     1      89.629 101.945 -40.342  1.00  0.00     0.277 HD
ATOM     17  H21 UNL     1      89.496 103.099 -41.581  1.00  0.00     0.277 HD
ENDBRANCH  13  14
BRANCH  13  18
HETATM   18  C13 UNL     1      91.909 101.965 -41.649  1.00  0.00     0.233 C 
HETATM   19 CL1  UNL     1      92.536 101.081 -40.242  1.00  0.00    -0.080 Cl
HETATM   20 CL2  UNL     1      93.203 102.202 -42.806  1.00  0.00    -0.080 Cl
HETATM   21 CL3  UNL     1      91.549 103.668 -41.033  1.00  0.00    -0.080 Cl
ENDBRANCH  13  18
ENDBRANCH   1  13
TORSDOF 5
ENDMDL
MODEL 2
REMARK VINA RESULT: -4.397832142      0.283      1.154
REMARK  5 active torsions:
REMARK  status: ('A' for Active; 'I' for Inactive)
REMARK    1  A    between atoms: C2_2  and  C3_3 
REMARK    2  A    between atoms: C10_10  and  N1_11 
REMARK    3  A    between atoms: N1_11  and  C12_13 
REMARK    4  A    between atoms: C12_13  and  N2_14 
REMARK    5  A    between atoms: C12_13  and  C13_18 
ROOT
HETATM    1  N1  UNL     1      90.401 100.339 -42.184  1.00  0.00    -0.382 N 
HETATM    2  C11 UNL     1      88.991 100.146 -42.030  1.00  0.00     0.146 C 
ENDROOT
BRANCH   1   3
HETATM    3  C10 UNL     1      91.136  99.605 -43.065  1.00  0.00     0.089 C 
HETATM    4  C3  UNL     1      91.717  98.279 -42.686  1.00  0.00     0.013 C 
HETATM    5  C4  UNL     1      91.018  97.225 -43.514  1.00  0.00     0.000 C 
HETATM    6  C5  UNL     1      91.559  97.254 -44.923  1.00  0.00    -0.009 C 
HETATM    7  C7  UNL     1      89.839  97.969 -44.158  1.00  0.00    -0.003 C 
HETATM    8  C6  UNL     1      90.128  97.066 -45.376  1.00  0.00     0.010 C 
HETATM    9  C9  UNL     1      91.728  98.731 -45.221  1.00  0.00     0.012 C 
HETATM   10  C8  UNL     1      90.531  99.265 -44.408  1.00  0.00     0.013 C 
BRANCH   4  11
HETATM   11  C2  UNL     1      91.846  97.981 -41.242  1.00  0.00     0.002 C 
HETATM   12  C1  UNL     1      91.793  96.460 -40.988  1.00  0.00     0.005 C 
ENDBRANCH   4  11
ENDBRANCH   1   3
BRANCH   1  13
HETATM   13  C12 UNL     1      90.620 101.748 -42.175  1.00  0.00     0.334 C 
BRANCH  13  14
HETATM   14  N2  UNL     1      89.477 102.393 -41.461  1.00  0.00    -0.054 N 
ATOM     15  H23 UNL     1      88.575 102.175 -41.884  1.00  0.00     0.277 HD
ATOM     16  H22 UNL     1      89.303 101.981 -40.544  1.00  0.00     0.277 HD
ATOM     17  H21 UNL     1      89.656 103.396 -41.414  1.00  0.00     0.277 HD
ENDBRANCH  13  14
BRANCH  13  18
HETATM   18  C13 UNL     1      91.871 102.323 -41.670  1.00  0.00     0.233 C 
HETATM   19 CL1  UNL     1      93.256 102.130 -42.766  1.00  0.00    -0.080 Cl
HETATM   20 CL2  UNL     1      91.841 103.965 -41.061  1.00  0.00    -0.080 Cl
HETATM   21 CL3  UNL     1      92.282 101.307 -40.184  1.00  0.00    -0.080 Cl
ENDBRANCH  13  18
ENDBRANCH   1  13
TORSDOF 5
ENDMDL
MODEL 3
REMARK VINA RESULT: -4.374997676      3.745      5.656
REMARK  5 active torsions:
REMARK  status: ('A' for Active; 'I' for Inactive)
REMARK    1  A    between atoms: C2_2  and  C3_3 
REMARK    2  A    between atoms: C10_10  and  N1_11 
REMARK    3  A    between atoms: N1_11  and  C12_13 
REMARK    4  A    between atoms: C12_13  and  N2_14 
REMARK    5  A    between atoms: C12_13  and  C13_18 
ROOT
HETATM    1  N1  UNL     1      88.945  98.279 -45.219  1.00  0.00    -0.382 N 
HETATM    2  C11 UNL     1      88.989  98.777 -46.561  1.00  0.00     0.146 C 
ENDROOT
BRANCH   1   3
HETATM    3  C10 UNL     1      87.797  98.282 -44.487  1.00  0.00     0.089 C 
HETATM    4  C3  UNL     1      87.670  99.084 -43.230  1.00  0.00     0.013 C 
HETATM    5  C4  UNL     1      86.649 100.169 -43.485  1.00  0.00     0.000 C 
HETATM    6  C5  UNL     1      85.264  99.571 -43.447  1.00  0.00    -0.009 C 
HETATM    7  C7  UNL     1      86.418 100.122 -45.003  1.00  0.00    -0.003 C 
HETATM    8  C6  UNL     1      84.954 100.449 -44.639  1.00  0.00     0.010 C 
HETATM    9  C9  UNL     1      85.420  98.236 -44.150  1.00  0.00     0.012 C 
HETATM   10  C8  UNL     1      86.499  98.644 -45.173  1.00  0.00     0.013 C 
BRANCH   4  11
HETATM   11  C2  UNL     1      88.924  99.523 -42.576  1.00  0.00     0.002 C 
HETATM   12  C1  UNL     1      88.829 101.001 -42.142  1.00  0.00     0.005 C 
ENDBRANCH   4  11
ENDBRANCH   1   3
BRANCH   1  13
HETATM   13  C12 UNL     1      89.718  97.081 -45.207  1.00  0.00     0.334 C 
BRANCH  13  14
HETATM   14  N2  UNL     1      89.823  96.579 -46.610  1.00  0.00    -0.054 N 
ATOM     15  H23 UNL     1      89.082  96.937 -47.213  1.00  0.00     0.277 HD
ATOM     16  H22 UNL     1      90.615  96.981 -47.113  1.00  0.00     0.277 HD
ATOM     17  H21 UNL     1      89.850  95.561 -46.583  1.00  0.00     0.277 HD
ENDBRANCH  13  14
BRANCH  13  18
HETATM   18  C13 UNL     1      91.049  97.037 -44.593  1.00  0.00     0.233 C 
HETATM   19 CL1  UNL     1      92.093  98.412 -45.015  1.00  0.00    -0.080 Cl
HETATM   20 CL2  UNL     1      91.157  96.737 -42.871  1.00  0.00    -0.080 Cl
HETATM   21 CL3  UNL     1      91.859  95.561 -45.351  1.00  0.00    -0.080 Cl
ENDBRANCH  13  18
ENDBRANCH   1  13
TORSDOF 5
ENDMDL
MODEL 4
REMARK VINA RESULT: -4.272622539     11.168     12.594
REMARK  5 active torsions:
REMARK  status: ('A' for Active; 'I' for Inactive)
REMARK    1  A    between atoms: C2_2  and  C3_3 
REMARK    2  A    between atoms: C10_10  and  N1_11 
REMARK    3  A    between atoms: N1_11  and  C12_13 
REMARK    4  A    between atoms: C12_13  and  N2_14 
REMARK    5  A    between atoms: C12_13  and  C13_18 
ROOT
HETATM    1  N1  UNL     1      90.093  90.224 -49.343  1.00  0.00    -0.382 N 
HETATM    2  C11 UNL     1      90.611  90.856 -48.168  1.00  0.00     0.146 C 
ENDROOT
BRANCH   1   3
HETATM    3  C10 UNL     1      89.914  90.907 -50.508  1.00  0.00     0.089 C 
HETATM    4  C3  UNL     1      88.565  91.033 -51.144  1.00  0.00     0.013 C 
HETATM    5  C4  UNL     1      88.166  92.489 -51.077  1.00  0.00     0.000 C 
HETATM    6  C5  UNL     1      88.924  93.264 -52.128  1.00  0.00    -0.009 C 
HETATM    7  C7  UNL     1      89.203  93.124 -50.139  1.00  0.00    -0.003 C 
HETATM    8  C6  UNL     1      89.090  94.342 -51.079  1.00  0.00     0.010 C 
HETATM    9  C9  UNL     1      90.316  92.663 -52.096  1.00  0.00     0.012 C 
HETATM   10  C8  UNL     1      90.388  92.341 -50.589  1.00  0.00     0.013 C 
BRANCH   4  11
HETATM   11  C2  UNL     1      87.527  90.063 -50.730  1.00  0.00     0.002 C 
HETATM   12  C1  UNL     1      86.505  90.725 -49.782  1.00  0.00     0.005 C 
ENDBRANCH   4  11
ENDBRANCH   1   3
BRANCH   1  13
HETATM   13  C12 UNL     1      90.727  88.951 -49.431  1.00  0.00     0.334 C 
BRANCH  13  14
HETATM   14  N2  UNL     1      91.988  89.001 -48.631  1.00  0.00    -0.054 N 
ATOM     15  H23 UNL     1      92.620  88.230 -48.846  1.00  0.00     0.277 HD
ATOM     16  H22 UNL     1      92.602  89.765 -48.913  1.00  0.00     0.277 HD
ATOM     17  H21 UNL     1      91.737  89.040 -47.644  1.00  0.00     0.277 HD
ENDBRANCH  13  14
BRANCH  13  18
HETATM   18  C13 UNL     1      90.010  87.715 -49.097  1.00  0.00     0.233 C 
HETATM   19 CL1  UNL     1      91.035  86.444 -48.397  1.00  0.00    -0.080 Cl
HETATM   20 CL2  UNL     1      88.531  87.842 -48.169  1.00  0.00    -0.080 Cl
HETATM   21 CL3  UNL     1      89.454  87.048 -50.727  1.00  0.00    -0.080 Cl
ENDBRANCH  13  18
ENDBRANCH   1  13
TORSDOF 5
ENDMDL
MODEL 5
REMARK VINA RESULT: -4.264237000      2.170      3.038
REMARK  5 active torsions:
REMARK  status: ('A' for Active; 'I' for Inactive)
REMARK    1  A    between atoms: C2_2  and  C3_3 
REMARK    2  A    between atoms: C10_10  and  N1_11 
REMARK    3  A    between atoms: N1_11  and  C12_13 
REMARK    4  A    between atoms: C12_13  and  N2_14 
REMARK    5  A    between atoms: C12_13  and  C13_18 
ROOT
HETATM    1  N1  UNL     1      89.249  99.048 -43.559  1.00  0.00    -0.382 N 
HETATM    2  C11 UNL     1      88.020  99.142 -42.832  1.00  0.00     0.146 C 
ENDROOT
BRANCH   1   3
HETATM    3  C10 UNL     1      89.276  98.856 -44.907  1.00  0.00     0.089 C 
HETATM    4  C3  UNL     1      89.821  97.598 -45.510  1.00  0.00     0.013 C 
HETATM    5  C4  UNL     1      88.668  96.870 -46.161  1.00  0.00     0.000 C 
HETATM    6  C5  UNL     1      88.320  97.548 -47.465  1.00  0.00    -0.009 C 
HETATM    7  C7  UNL     1      87.420  97.615 -45.664  1.00  0.00    -0.003 C 
HETATM    8  C6  UNL     1      86.873  97.336 -47.080  1.00  0.00     0.010 C 
HETATM    9  C9  UNL     1      88.450  99.028 -47.156  1.00  0.00     0.012 C 
HETATM   10  C8  UNL     1      87.986  98.993 -45.685  1.00  0.00     0.013 C 
BRANCH   4  11
HETATM   11  C2  UNL     1      90.708  96.770 -44.663  1.00  0.00     0.002 C 
HETATM   12  C1  UNL     1      91.060  95.444 -45.370  1.00  0.00     0.005 C 
ENDBRANCH   4  11
ENDBRANCH   1   3
BRANCH   1  13
HETATM   13  C12 UNL     1      90.110 100.055 -43.033  1.00  0.00     0.334 C 
BRANCH  13  14
HETATM   14  N2  UNL     1      89.508 100.567 -41.765  1.00  0.00    -0.054 N 
ATOM     15  H23 UNL     1      88.699 100.023 -41.466  1.00  0.00     0.277 HD
ATOM     16  H22 UNL     1      90.099 100.395 -40.951  1.00  0.00     0.277 HD
ATOM     17  H21 UNL     1      89.291 101.555 -41.892  1.00  0.00     0.277 HD
ENDBRANCH  13  14
BRANCH  13  18
HETATM   18  C13 UNL     1      91.536  99.798 -42.803  1.00  0.00     0.233 C 
HETATM   19 CL1  UNL     1      91.869  98.326 -41.865  1.00  0.00    -0.080 Cl
HETATM   20 CL2  UNL     1      92.621  99.867 -44.176  1.00  0.00    -0.080 Cl
HETATM   21 CL3  UNL     1      92.090 101.195 -41.730  1.00  0.00    -0.080 Cl
ENDBRANCH  13  18
ENDBRANCH   1  13
TORSDOF 5
ENDMDL
