MODEL 1
REMARK VINA RESULT: -8.739810045      0.000      0.000
REMARK  16 active torsions:
REMARK  status: ('A' for Active; 'I' for Inactive)
REMARK    1  A    between atoms: C4_5  and  C6_7 
REMARK    2  A    between atoms: C8_9  and  O2_10 
REMARK    3  A    between atoms: C9_12  and  C11_14 
REMARK    4  A    between atoms: C11_14  and  C12_15 
REMARK    5  A    between atoms: C12_15  and  C13_16 
REMARK    6  A    between atoms: C13_16  and  C14_17 
REMARK    7  A    between atoms: C14_17  and  C16_19 
REMARK    8  A    between atoms: C16_19  and  C17_20 
REMARK    9  A    between atoms: C18_21  and  C19_22 
REMARK   10  A    between atoms: C19_22  and  C21_24 
REMARK   11  A    between atoms: C21_24  and  O4_26 
REMARK   12  A    between atoms: C24_29  and  O5_30 
REMARK   13  A    between atoms: O5_30  and  C25_31 
REMARK   14  A    between atoms: C28_35  and  O7_36 
REMARK   15  A    between atoms: O7_36  and  C29_37 
REMARK   16  A    between atoms: C29_37  and  C30_39 
ROOT
HETATM    1  C1  UNL     1      25.789   6.295  -4.394  1.00  0.00     0.023 C 
HETATM    2  C2  UNL     1      26.412   6.651  -5.498  1.00  0.00    -0.014 C 
HETATM    3  C3  UNL     1      26.537   5.652  -6.535  1.00  0.00     0.166 C 
HETATM    4  O1  UNL     1      26.639   4.483  -6.031  1.00  0.00    -0.292 OA
HETATM    5  C4  UNL     1      26.568   5.709  -7.967  1.00  0.00     0.048 C 
HETATM    6  C5  UNL     1      25.143   5.319  -8.437  1.00  0.00     0.026 C 
HETATM    7  C8  UNL     1      26.950   6.942  -8.680  1.00  0.00     0.142 C 
HETATM    8  C9  UNL     1      26.873   8.253  -8.038  1.00  0.00    -0.010 C 
HETATM    9  C10 UNL     1      25.422   8.699  -7.799  1.00  0.00     0.018 C 
HETATM   10  C23 UNL     1      27.600   8.430  -6.766  1.00  0.00     0.037 C 
HETATM   11  C24 UNL     1      28.939   7.801  -6.607  1.00  0.00     0.140 C 
HETATM   12  C27 UNL     1      29.282   8.360  -5.185  1.00  0.00     0.066 C 
HETATM   13  C28 UNL     1      27.985   8.151  -4.482  1.00  0.00     0.143 C 
HETATM   14  C34 UNL     1      26.897   8.032  -5.523  1.00  0.00     0.058 C 
ENDROOT
BRANCH   8  15
HETATM   15  C11 UNL     1      27.416   9.310  -8.972  1.00  0.00     0.012 C 
BRANCH  15  16
HETATM   16  C12 UNL     1      26.575  10.504  -9.231  1.00  0.00     0.001 C 
BRANCH  16  17
HETATM   17  C13 UNL     1      27.355  11.663  -8.538  1.00  0.00     0.004 C 
BRANCH  17  18
HETATM   18  C14 UNL     1      26.481  12.435  -7.616  1.00  0.00    -0.015 C 
HETATM   19  C15 UNL     1      25.038  12.354  -8.131  1.00  0.00     0.010 C 
BRANCH  18  20
HETATM   20  C16 UNL     1      26.542  11.969  -6.203  1.00  0.00     0.031 C 
BRANCH  20  21
HETATM   21  C17 UNL     1      26.301  13.186  -5.348  1.00  0.00    -0.029 C 
HETATM   22  C18 UNL     1      27.281  13.723  -4.664  1.00  0.00    -0.017 C 
BRANCH  22  23
HETATM   23  C19 UNL     1      27.071  14.914  -3.821  1.00  0.00     0.104 C 
HETATM   24  C20 UNL     1      26.432  16.056  -4.592  1.00  0.00     0.025 C 
BRANCH  23  25
HETATM   25  C21 UNL     1      28.375  15.418  -3.301  1.00  0.00     0.265 C 
HETATM   26  O3  UNL     1      29.377  14.682  -3.429  1.00  0.00    -0.265 OA
BRANCH  25  27
HETATM   27  O4  UNL     1      28.533  16.644  -2.693  1.00  0.00    -0.326 OA
HETATM   28  C22 UNL     1      29.543  17.569  -3.118  1.00  0.00     0.213 C 
ENDBRANCH  25  27
ENDBRANCH  23  25
ENDBRANCH  22  23
ENDBRANCH  20  21
ENDBRANCH  18  20
ENDBRANCH  17  18
ENDBRANCH  16  17
ENDBRANCH  15  16
ENDBRANCH   8  15
BRANCH   7  29
HETATM   29  O2  UNL     1      26.086   6.996  -9.816  1.00  0.00    -0.394 OA
ATOM     30  H2  UNL     1      26.607   6.667 -10.538  1.00  0.00     0.210 HD
ENDBRANCH   7  29
BRANCH   5  31
HETATM   31  C6  UNL     1      27.437   4.582  -8.502  1.00  0.00     0.015 C 
HETATM   32  C7  UNL     1      27.010   4.020  -9.806  1.00  0.00     0.006 C 
ENDBRANCH   5  31
BRANCH  11  33
HETATM   33  O5  UNL     1      29.915   8.310  -7.496  1.00  0.00    -0.316 OA
BRANCH  33  34
HETATM   34  C25 UNL     1      30.682   7.469  -8.251  1.00  0.00     0.255 C 
HETATM   35  C26 UNL     1      31.888   7.920  -9.002  1.00  0.00     0.126 C 
HETATM   36  O6  UNL     1      30.392   6.259  -8.339  1.00  0.00    -0.266 OA
ENDBRANCH  33  34
ENDBRANCH  11  33
BRANCH  13  37
HETATM   37  O7  UNL     1      27.681   9.186  -3.566  1.00  0.00    -0.311 OA
BRANCH  37  38
HETATM   38  C29 UNL     1      27.864   9.130  -2.217  1.00  0.00     0.289 C 
HETATM   39  O8  UNL     1      28.151   8.035  -1.684  1.00  0.00    -0.260 OA
BRANCH  38  40
HETATM   40  C30 UNL     1      27.741  10.301  -1.331  1.00  0.00     0.009 C 
HETATM   41  C31 UNL     1      27.295  10.118   0.082  1.00  0.00     0.054 C 
HETATM   42  C32 UNL     1      28.005  11.513  -1.743  1.00  0.00    -0.018 C 
HETATM   43  C33 UNL     1      27.873  12.666  -0.834  1.00  0.00     0.036 C 
ENDBRANCH  38  40
ENDBRANCH  37  38
ENDBRANCH  13  37
TORSDOF 16
ENDMDL
MODEL 2
REMARK VINA RESULT: -8.626628409      2.219      5.664
REMARK  16 active torsions:
REMARK  status: ('A' for Active; 'I' for Inactive)
REMARK    1  A    between atoms: C4_5  and  C6_7 
REMARK    2  A    between atoms: C8_9  and  O2_10 
REMARK    3  A    between atoms: C9_12  and  C11_14 
REMARK    4  A    between atoms: C11_14  and  C12_15 
REMARK    5  A    between atoms: C12_15  and  C13_16 
REMARK    6  A    between atoms: C13_16  and  C14_17 
REMARK    7  A    between atoms: C14_17  and  C16_19 
REMARK    8  A    between atoms: C16_19  and  C17_20 
REMARK    9  A    between atoms: C18_21  and  C19_22 
REMARK   10  A    between atoms: C19_22  and  C21_24 
REMARK   11  A    between atoms: C21_24  and  O4_26 
REMARK   12  A    between atoms: C24_29  and  O5_30 
REMARK   13  A    between atoms: O5_30  and  C25_31 
REMARK   14  A    between atoms: C28_35  and  O7_36 
REMARK   15  A    between atoms: O7_36  and  C29_37 
REMARK   16  A    between atoms: C29_37  and  C30_39 
ROOT
HETATM    1  C1  UNL     1      25.677   6.058  -4.511  1.00  0.00     0.023 C 
HETATM    2  C2  UNL     1      26.331   6.432  -5.589  1.00  0.00    -0.014 C 
HETATM    3  C3  UNL     1      26.539   5.433  -6.614  1.00  0.00     0.166 C 
HETATM    4  O1  UNL     1      26.667   4.273  -6.098  1.00  0.00    -0.292 OA
HETATM    5  C4  UNL     1      26.628   5.484  -8.043  1.00  0.00     0.048 C 
HETATM    6  C5  UNL     1      25.241   5.035  -8.569  1.00  0.00     0.026 C 
HETATM    7  C8  UNL     1      26.991   6.728  -8.748  1.00  0.00     0.142 C 
HETATM    8  C9  UNL     1      26.835   8.037  -8.120  1.00  0.00    -0.010 C 
HETATM    9  C10 UNL     1      25.358   8.427  -7.945  1.00  0.00     0.018 C 
HETATM   10  C23 UNL     1      27.500   8.251  -6.820  1.00  0.00     0.037 C 
HETATM   11  C24 UNL     1      28.855   7.676  -6.600  1.00  0.00     0.140 C 
HETATM   12  C27 UNL     1      29.115   8.257  -5.169  1.00  0.00     0.066 C 
HETATM   13  C28 UNL     1      27.799   7.999  -4.519  1.00  0.00     0.143 C 
HETATM   14  C34 UNL     1      26.761   7.831  -5.604  1.00  0.00     0.058 C 
ENDROOT
BRANCH   8  15
HETATM   15  C11 UNL     1      27.374   9.111  -9.037  1.00  0.00     0.012 C 
BRANCH  15  16
HETATM   16  C12 UNL     1      27.428  10.501  -8.521  1.00  0.00     0.001 C 
BRANCH  16  17
HETATM   17  C13 UNL     1      27.227  11.375  -9.797  1.00  0.00     0.004 C 
BRANCH  17  18
HETATM   18  C14 UNL     1      25.846  11.248 -10.332  1.00  0.00    -0.015 C 
HETATM   19  C15 UNL     1      24.912  12.122  -9.485  1.00  0.00     0.010 C 
BRANCH  18  20
HETATM   20  C16 UNL     1      25.725  11.621 -11.769  1.00  0.00     0.031 C 
BRANCH  20  21
HETATM   21  C17 UNL     1      24.879  10.553 -12.411  1.00  0.00    -0.029 C 
HETATM   22  C18 UNL     1      24.867   9.334 -11.929  1.00  0.00    -0.017 C 
BRANCH  22  23
HETATM   23  C19 UNL     1      24.047   8.272 -12.539  1.00  0.00     0.104 C 
HETATM   24  C20 UNL     1      23.346   7.419 -11.495  1.00  0.00     0.025 C 
BRANCH  23  25
HETATM   25  C21 UNL     1      24.903   7.355 -13.345  1.00  0.00     0.265 C 
HETATM   26  O3  UNL     1      25.959   6.936 -12.825  1.00  0.00    -0.265 OA
BRANCH  25  27
HETATM   27  O4  UNL     1      24.592   6.947 -14.624  1.00  0.00    -0.326 OA
HETATM   28  C22 UNL     1      23.388   6.220 -14.908  1.00  0.00     0.213 C 
ENDBRANCH  25  27
ENDBRANCH  23  25
ENDBRANCH  22  23
ENDBRANCH  20  21
ENDBRANCH  18  20
ENDBRANCH  17  18
ENDBRANCH  16  17
ENDBRANCH  15  16
ENDBRANCH   8  15
BRANCH   7  29
HETATM   29  O2  UNL     1      26.174   6.741  -9.920  1.00  0.00    -0.394 OA
ATOM     30  H2  UNL     1      26.094   5.830 -10.176  1.00  0.00     0.210 HD
ENDBRANCH   7  29
BRANCH   5  31
HETATM   31  C6  UNL     1      27.563   4.389  -8.534  1.00  0.00     0.015 C 
HETATM   32  C7  UNL     1      27.216   3.806  -9.852  1.00  0.00     0.006 C 
ENDBRANCH   5  31
BRANCH  11  33
HETATM   33  O5  UNL     1      29.847   8.220  -7.451  1.00  0.00    -0.316 OA
BRANCH  33  34
HETATM   34  C25 UNL     1      30.638   7.408  -8.213  1.00  0.00     0.255 C 
HETATM   35  C26 UNL     1      31.832   7.899  -8.958  1.00  0.00     0.126 C 
HETATM   36  O6  UNL     1      30.382   6.191  -8.313  1.00  0.00    -0.266 OA
ENDBRANCH  33  34
ENDBRANCH  11  33
BRANCH  13  37
HETATM   37  O7  UNL     1      27.416   9.026  -3.624  1.00  0.00    -0.311 OA
BRANCH  37  38
HETATM   38  C29 UNL     1      27.957   9.249  -2.395  1.00  0.00     0.289 C 
HETATM   39  O8  UNL     1      28.228   8.273  -1.660  1.00  0.00    -0.260 OA
BRANCH  38  40
HETATM   40  C30 UNL     1      28.248  10.594  -1.866  1.00  0.00     0.009 C 
HETATM   41  C31 UNL     1      29.228  10.757  -0.752  1.00  0.00     0.054 C 
HETATM   42  C32 UNL     1      27.666  11.665  -2.339  1.00  0.00    -0.018 C 
HETATM   43  C33 UNL     1      27.977  12.998  -1.790  1.00  0.00     0.036 C 
ENDBRANCH  38  40
ENDBRANCH  37  38
ENDBRANCH  13  37
TORSDOF 16
ENDMDL
MODEL 3
REMARK VINA RESULT: -8.442204730      2.438      5.855
REMARK  16 active torsions:
REMARK  status: ('A' for Active; 'I' for Inactive)
REMARK    1  A    between atoms: C4_5  and  C6_7 
REMARK    2  A    between atoms: C8_9  and  O2_10 
REMARK    3  A    between atoms: C9_12  and  C11_14 
REMARK    4  A    between atoms: C11_14  and  C12_15 
REMARK    5  A    between atoms: C12_15  and  C13_16 
REMARK    6  A    between atoms: C13_16  and  C14_17 
REMARK    7  A    between atoms: C14_17  and  C16_19 
REMARK    8  A    between atoms: C16_19  and  C17_20 
REMARK    9  A    between atoms: C18_21  and  C19_22 
REMARK   10  A    between atoms: C19_22  and  C21_24 
REMARK   11  A    between atoms: C21_24  and  O4_26 
REMARK   12  A    between atoms: C24_29  and  O5_30 
REMARK   13  A    between atoms: O5_30  and  C25_31 
REMARK   14  A    between atoms: C28_35  and  O7_36 
REMARK   15  A    between atoms: O7_36  and  C29_37 
REMARK   16  A    between atoms: C29_37  and  C30_39 
ROOT
HETATM    1  C1  UNL     1      25.823   6.078  -4.424  1.00  0.00     0.023 C 
HETATM    2  C2  UNL     1      26.432   6.449  -5.530  1.00  0.00    -0.014 C 
HETATM    3  C3  UNL     1      26.607   5.445  -6.555  1.00  0.00     0.166 C 
HETATM    4  O1  UNL     1      26.762   4.288  -6.036  1.00  0.00    -0.292 OA
HETATM    5  C4  UNL     1      26.640   5.486  -7.987  1.00  0.00     0.048 C 
HETATM    6  C5  UNL     1      25.237   5.024  -8.456  1.00  0.00     0.026 C 
HETATM    7  C8  UNL     1      26.967   6.726  -8.714  1.00  0.00     0.142 C 
HETATM    8  C9  UNL     1      26.827   8.040  -8.089  1.00  0.00    -0.010 C 
HETATM    9  C10 UNL     1      25.355   8.421  -7.860  1.00  0.00     0.018 C 
HETATM   10  C23 UNL     1      27.540   8.266  -6.817  1.00  0.00     0.037 C 
HETATM   11  C24 UNL     1      28.907   7.702  -6.646  1.00  0.00     0.140 C 
HETATM   12  C27 UNL     1      29.218   8.295  -5.230  1.00  0.00     0.066 C 
HETATM   13  C28 UNL     1      27.930   8.033  -4.528  1.00  0.00     0.143 C 
HETATM   14  C34 UNL     1      26.852   7.851  -5.571  1.00  0.00     0.058 C 
ENDROOT
BRANCH   8  15
HETATM   15  C11 UNL     1      27.323   9.110  -9.034  1.00  0.00     0.012 C 
BRANCH  15  16
HETATM   16  C12 UNL     1      27.402  10.501  -8.525  1.00  0.00     0.001 C 
BRANCH  16  17
HETATM   17  C13 UNL     1      27.124  11.372  -9.789  1.00  0.00     0.004 C 
BRANCH  17  18
HETATM   18  C14 UNL     1      25.725  11.209 -10.266  1.00  0.00    -0.015 C 
HETATM   19  C15 UNL     1      24.797  11.995  -9.334  1.00  0.00     0.010 C 
BRANCH  18  20
HETATM   20  C16 UNL     1      25.520  11.646 -11.676  1.00  0.00     0.031 C 
BRANCH  20  21
HETATM   21  C17 UNL     1      24.718  10.559 -12.341  1.00  0.00    -0.029 C 
HETATM   22  C18 UNL     1      24.751   9.332 -11.881  1.00  0.00    -0.017 C 
BRANCH  22  23
HETATM   23  C19 UNL     1      23.976   8.250 -12.514  1.00  0.00     0.104 C 
HETATM   24  C20 UNL     1      23.322   7.338 -11.489  1.00  0.00     0.025 C 
BRANCH  23  25
HETATM   25  C21 UNL     1      24.867   7.394 -13.350  1.00  0.00     0.265 C 
HETATM   26  O3  UNL     1      25.934   6.990 -12.839  1.00  0.00    -0.265 OA
BRANCH  25  27
HETATM   27  O4  UNL     1      24.577   7.026 -14.645  1.00  0.00    -0.326 OA
HETATM   28  C22 UNL     1      23.468   6.170 -14.953  1.00  0.00     0.213 C 
ENDBRANCH  25  27
ENDBRANCH  23  25
ENDBRANCH  22  23
ENDBRANCH  20  21
ENDBRANCH  18  20
ENDBRANCH  17  18
ENDBRANCH  16  17
ENDBRANCH  15  16
ENDBRANCH   8  15
BRANCH   7  29
HETATM   29  O2  UNL     1      26.106   6.726  -9.853  1.00  0.00    -0.394 OA
ATOM     30  H2  UNL     1      25.937   7.643 -10.035  1.00  0.00     0.210 HD
ENDBRANCH   7  29
BRANCH   5  31
HETATM   31  C6  UNL     1      27.563   4.394  -8.506  1.00  0.00     0.015 C 
HETATM   32  C7  UNL     1      27.240   3.885  -9.861  1.00  0.00     0.006 C 
ENDBRANCH   5  31
BRANCH  11  33
HETATM   33  O5  UNL     1      29.861   8.246  -7.539  1.00  0.00    -0.316 OA
BRANCH  33  34
HETATM   34  C25 UNL     1      30.658   7.433  -8.292  1.00  0.00     0.255 C 
HETATM   35  C26 UNL     1      31.866   7.920  -9.017  1.00  0.00     0.126 C 
HETATM   36  O6  UNL     1      30.396   6.218  -8.402  1.00  0.00    -0.266 OA
ENDBRANCH  33  34
ENDBRANCH  11  33
BRANCH  13  37
HETATM   37  O7  UNL     1      27.574   9.064  -3.626  1.00  0.00    -0.311 OA
BRANCH  37  38
HETATM   38  C29 UNL     1      26.353   9.661  -3.545  1.00  0.00     0.289 C 
HETATM   39  O8  UNL     1      25.562   9.315  -2.639  1.00  0.00    -0.260 OA
BRANCH  38  40
HETATM   40  C30 UNL     1      25.896  10.707  -4.476  1.00  0.00     0.009 C 
HETATM   41  C31 UNL     1      24.490  10.693  -4.977  1.00  0.00     0.054 C 
HETATM   42  C32 UNL     1      26.690  11.660  -4.891  1.00  0.00    -0.018 C 
HETATM   43  C33 UNL     1      26.205  12.695  -5.824  1.00  0.00     0.036 C 
ENDBRANCH  38  40
ENDBRANCH  37  38
ENDBRANCH  13  37
TORSDOF 16
ENDMDL
MODEL 4
REMARK VINA RESULT: -8.286942327      2.025      3.039
REMARK  16 active torsions:
REMARK  status: ('A' for Active; 'I' for Inactive)
REMARK    1  A    between atoms: C4_5  and  C6_7 
REMARK    2  A    between atoms: C8_9  and  O2_10 
REMARK    3  A    between atoms: C9_12  and  C11_14 
REMARK    4  A    between atoms: C11_14  and  C12_15 
REMARK    5  A    between atoms: C12_15  and  C13_16 
REMARK    6  A    between atoms: C13_16  and  C14_17 
REMARK    7  A    between atoms: C14_17  and  C16_19 
REMARK    8  A    between atoms: C16_19  and  C17_20 
REMARK    9  A    between atoms: C18_21  and  C19_22 
REMARK   10  A    between atoms: C19_22  and  C21_24 
REMARK   11  A    between atoms: C21_24  and  O4_26 
REMARK   12  A    between atoms: C24_29  and  O5_30 
REMARK   13  A    between atoms: O5_30  and  C25_31 
REMARK   14  A    between atoms: C28_35  and  O7_36 
REMARK   15  A    between atoms: O7_36  and  C29_37 
REMARK   16  A    between atoms: C29_37  and  C30_39 
ROOT
HETATM    1  C1  UNL     1      25.842   6.190  -4.362  1.00  0.00     0.023 C 
HETATM    2  C2  UNL     1      26.409   6.488  -5.511  1.00  0.00    -0.014 C 
HETATM    3  C3  UNL     1      26.551   5.419  -6.474  1.00  0.00     0.166 C 
HETATM    4  O1  UNL     1      26.729   4.299  -5.887  1.00  0.00    -0.292 OA
HETATM    5  C4  UNL     1      26.533   5.366  -7.906  1.00  0.00     0.048 C 
HETATM    6  C5  UNL     1      25.115   4.873  -8.293  1.00  0.00     0.026 C 
HETATM    7  C8  UNL     1      26.829   6.557  -8.724  1.00  0.00     0.142 C 
HETATM    8  C9  UNL     1      26.707   7.908  -8.181  1.00  0.00    -0.010 C 
HETATM    9  C10 UNL     1      25.243   8.302  -7.924  1.00  0.00     0.018 C 
HETATM   10  C23 UNL     1      27.464   8.218  -6.953  1.00  0.00     0.037 C 
HETATM   11  C24 UNL     1      28.838   7.668  -6.795  1.00  0.00     0.140 C 
HETATM   12  C27 UNL     1      29.198   8.352  -5.433  1.00  0.00     0.066 C 
HETATM   13  C28 UNL     1      27.937   8.136  -4.670  1.00  0.00     0.143 C 
HETATM   14  C34 UNL     1      26.823   7.884  -5.658  1.00  0.00     0.058 C 
ENDROOT
BRANCH   8  15
HETATM   15  C11 UNL     1      27.165   8.915  -9.211  1.00  0.00     0.012 C 
BRANCH  15  16
HETATM   16  C12 UNL     1      26.140   9.798  -9.820  1.00  0.00     0.001 C 
BRANCH  16  17
HETATM   17  C13 UNL     1      26.941  11.080 -10.206  1.00  0.00     0.004 C 
BRANCH  17  18
HETATM   18  C14 UNL     1      26.542  12.244  -9.371  1.00  0.00    -0.015 C 
HETATM   19  C15 UNL     1      25.010  12.302  -9.315  1.00  0.00     0.010 C 
BRANCH  18  20
HETATM   20  C16 UNL     1      27.100  12.209  -7.990  1.00  0.00     0.031 C 
BRANCH  20  21
HETATM   21  C17 UNL     1      25.918  12.255  -7.058  1.00  0.00    -0.029 C 
HETATM   22  C18 UNL     1      25.860  11.462  -6.017  1.00  0.00    -0.017 C 
BRANCH  22  23
HETATM   23  C19 UNL     1      24.714  11.488  -5.090  1.00  0.00     0.104 C 
HETATM   24  C20 UNL     1      24.524  10.161  -4.375  1.00  0.00     0.025 C 
BRANCH  23  25
HETATM   25  C21 UNL     1      23.451  11.766  -5.833  1.00  0.00     0.265 C 
HETATM   26  O3  UNL     1      22.840  12.823  -5.567  1.00  0.00    -0.265 OA
BRANCH  25  27
HETATM   27  O4  UNL     1      22.928  10.926  -6.790  1.00  0.00    -0.326 OA
HETATM   28  C22 UNL     1      21.786  11.299  -7.574  1.00  0.00     0.213 C 
ENDBRANCH  25  27
ENDBRANCH  23  25
ENDBRANCH  22  23
ENDBRANCH  20  21
ENDBRANCH  18  20
ENDBRANCH  17  18
ENDBRANCH  16  17
ENDBRANCH  15  16
ENDBRANCH   8  15
BRANCH   7  29
HETATM   29  O2  UNL     1      25.927   6.482  -9.828  1.00  0.00    -0.394 OA
ATOM     30  H2  UNL     1      26.455   6.681 -10.592  1.00  0.00     0.210 HD
ENDBRANCH   7  29
BRANCH   5  31
HETATM   31  C6  UNL     1      27.440   4.244  -8.385  1.00  0.00     0.015 C 
HETATM   32  C7  UNL     1      27.291   3.878  -9.814  1.00  0.00     0.006 C 
ENDBRANCH   5  31
BRANCH  11  33
HETATM   33  O5  UNL     1      29.758   8.154  -7.756  1.00  0.00    -0.316 OA
BRANCH  33  34
HETATM   34  C25 UNL     1      30.661   7.317  -8.346  1.00  0.00     0.255 C 
HETATM   35  C26 UNL     1      31.996   7.769  -8.830  1.00  0.00     0.126 C 
HETATM   36  O6  UNL     1      30.392   6.109  -8.505  1.00  0.00    -0.266 OA
ENDBRANCH  33  34
ENDBRANCH  11  33
BRANCH  13  37
HETATM   37  O7  UNL     1      27.611   9.223  -3.824  1.00  0.00    -0.311 OA
BRANCH  37  38
HETATM   38  C29 UNL     1      28.081   9.413  -2.560  1.00  0.00     0.289 C 
HETATM   39  O8  UNL     1      28.365   8.417  -1.857  1.00  0.00    -0.260 OA
BRANCH  38  40
HETATM   40  C30 UNL     1      28.278  10.743  -1.957  1.00  0.00     0.009 C 
HETATM   41  C31 UNL     1      29.068  10.878  -0.698  1.00  0.00     0.054 C 
HETATM   42  C32 UNL     1      27.774  11.826  -2.489  1.00  0.00    -0.018 C 
HETATM   43  C33 UNL     1      27.987  13.145  -1.863  1.00  0.00     0.036 C 
ENDBRANCH  38  40
ENDBRANCH  37  38
ENDBRANCH  13  37
TORSDOF 16
ENDMDL
MODEL 5
REMARK VINA RESULT: -8.206571979      0.912      1.156
REMARK  16 active torsions:
REMARK  status: ('A' for Active; 'I' for Inactive)
REMARK    1  A    between atoms: C4_5  and  C6_7 
REMARK    2  A    between atoms: C8_9  and  O2_10 
REMARK    3  A    between atoms: C9_12  and  C11_14 
REMARK    4  A    between atoms: C11_14  and  C12_15 
REMARK    5  A    between atoms: C12_15  and  C13_16 
REMARK    6  A    between atoms: C13_16  and  C14_17 
REMARK    7  A    between atoms: C14_17  and  C16_19 
REMARK    8  A    between atoms: C16_19  and  C17_20 
REMARK    9  A    between atoms: C18_21  and  C19_22 
REMARK   10  A    between atoms: C19_22  and  C21_24 
REMARK   11  A    between atoms: C21_24  and  O4_26 
REMARK   12  A    between atoms: C24_29  and  O5_30 
REMARK   13  A    between atoms: O5_30  and  C25_31 
REMARK   14  A    between atoms: C28_35  and  O7_36 
REMARK   15  A    between atoms: O7_36  and  C29_37 
REMARK   16  A    between atoms: C29_37  and  C30_39 
ROOT
HETATM    1  C1  UNL     1      25.655   6.351  -4.519  1.00  0.00     0.023 C 
HETATM    2  C2  UNL     1      26.301   6.651  -5.625  1.00  0.00    -0.014 C 
HETATM    3  C3  UNL     1      26.452   5.600  -6.606  1.00  0.00     0.166 C 
HETATM    4  O1  UNL     1      26.547   4.459  -6.039  1.00  0.00    -0.292 OA
HETATM    5  C4  UNL     1      26.516   5.582  -8.037  1.00  0.00     0.048 C 
HETATM    6  C5  UNL     1      25.103   5.163  -8.518  1.00  0.00     0.026 C 
HETATM    7  C8  UNL     1      26.911   6.778  -8.805  1.00  0.00     0.142 C 
HETATM    8  C9  UNL     1      26.815   8.120  -8.235  1.00  0.00    -0.010 C 
HETATM    9  C10 UNL     1      25.358   8.573  -8.052  1.00  0.00     0.018 C 
HETATM   10  C23 UNL     1      27.513   8.366  -6.958  1.00  0.00     0.037 C 
HETATM   11  C24 UNL     1      28.850   7.751  -6.736  1.00  0.00     0.140 C 
HETATM   12  C27 UNL     1      29.158   8.386  -5.337  1.00  0.00     0.066 C 
HETATM   13  C28 UNL     1      27.847   8.208  -4.654  1.00  0.00     0.143 C 
HETATM   14  C34 UNL     1      26.783   8.030  -5.711  1.00  0.00     0.058 C 
ENDROOT
BRANCH   8  15
HETATM   15  C11 UNL     1      27.376   9.129  -9.209  1.00  0.00     0.012 C 
BRANCH  15  16
HETATM   16  C12 UNL     1      26.572  10.345  -9.488  1.00  0.00     0.001 C 
BRANCH  16  17
HETATM   17  C13 UNL     1      27.389  11.489  -8.813  1.00  0.00     0.004 C 
BRANCH  17  18
HETATM   18  C14 UNL     1      26.512  12.385  -8.013  1.00  0.00    -0.015 C 
HETATM   19  C15 UNL     1      25.116  12.395  -8.647  1.00  0.00     0.010 C 
BRANCH  18  20
HETATM   20  C16 UNL     1      26.416  12.001  -6.577  1.00  0.00     0.031 C 
BRANCH  20  21
HETATM   21  C17 UNL     1      25.633  13.096  -5.901  1.00  0.00    -0.029 C 
HETATM   22  C18 UNL     1      26.243  14.155  -5.428  1.00  0.00    -0.017 C 
BRANCH  22  23
HETATM   23  C19 UNL     1      25.499  15.240  -4.763  1.00  0.00     0.104 C 
HETATM   24  C20 UNL     1      24.295  15.690  -5.572  1.00  0.00     0.025 C 
BRANCH  23  25
HETATM   25  C21 UNL     1      26.373  16.435  -4.585  1.00  0.00     0.265 C 
HETATM   26  O3  UNL     1      25.978  17.522  -5.060  1.00  0.00    -0.265 OA
BRANCH  25  27
HETATM   27  O4  UNL     1      27.584  16.406  -3.930  1.00  0.00    -0.326 OA
HETATM   28  C22 UNL     1      28.613  17.365  -4.210  1.00  0.00     0.213 C 
ENDBRANCH  25  27
ENDBRANCH  23  25
ENDBRANCH  22  23
ENDBRANCH  20  21
ENDBRANCH  18  20
ENDBRANCH  17  18
ENDBRANCH  16  17
ENDBRANCH  15  16
ENDBRANCH   8  15
BRANCH   7  29
HETATM   29  O2  UNL     1      26.072   6.770  -9.961  1.00  0.00    -0.394 OA
ATOM     30  H2  UNL     1      26.429   7.442 -10.530  1.00  0.00     0.210 HD
ENDBRANCH   7  29
BRANCH   5  31
HETATM   31  C6  UNL     1      27.400   4.432  -8.494  1.00  0.00     0.015 C 
HETATM   32  C7  UNL     1      27.152   3.955  -9.875  1.00  0.00     0.006 C 
ENDBRANCH   5  31
BRANCH  11  33
HETATM   33  O5  UNL     1      29.844   8.218  -7.628  1.00  0.00    -0.316 OA
BRANCH  33  34
HETATM   34  C25 UNL     1      30.665   7.343  -8.281  1.00  0.00     0.255 C 
HETATM   35  C26 UNL     1      31.984   7.736  -8.853  1.00  0.00     0.126 C 
HETATM   36  O6  UNL     1      30.329   6.150  -8.425  1.00  0.00    -0.266 OA
ENDBRANCH  33  34
ENDBRANCH  11  33
BRANCH  13  37
HETATM   37  O7  UNL     1      27.519   9.288  -3.800  1.00  0.00    -0.311 OA
BRANCH  37  38
HETATM   38  C29 UNL     1      28.096   9.549  -2.594  1.00  0.00     0.289 C 
HETATM   39  O8  UNL     1      28.536   8.598  -1.909  1.00  0.00    -0.260 OA
BRANCH  38  40
HETATM   40  C30 UNL     1      28.235  10.905  -2.035  1.00  0.00     0.009 C 
HETATM   41  C31 UNL     1      28.811  11.090  -0.670  1.00  0.00     0.054 C 
HETATM   42  C32 UNL     1      27.861  11.969  -2.697  1.00  0.00    -0.018 C 
HETATM   43  C33 UNL     1      28.011  13.314  -2.112  1.00  0.00     0.036 C 
ENDBRANCH  38  40
ENDBRANCH  37  38
ENDBRANCH  13  37
TORSDOF 16
ENDMDL
