MODEL 1
REMARK VINA RESULT: -8.467412697      0.000      0.000
REMARK  13 active torsions:
REMARK  status: ('A' for Active; 'I' for Inactive)
REMARK    1  A    between atoms: C2_2  and  C3_3 
REMARK    2  A    between atoms: C3_3  and  C4_4 
REMARK    3  A    between atoms: C4_4  and  O2_6 
REMARK    4  A    between atoms: O2_6  and  C5_7 
REMARK    5  A    between atoms: C14_18  and  O5_19 
REMARK    6  A    between atoms: O5_19  and  C15_20 
REMARK    7  A    between atoms: C15_20  and  C16_21 
REMARK    8  A    between atoms: C16_21  and  O6_22 
REMARK    9  A    between atoms: C16_21  and  C17_24 
REMARK   10  A    between atoms: C17_24  and  C18_25 
REMARK   11  A    between atoms: C18_25  and  C19_26 
REMARK   12  A    between atoms: C19_26  and  C21_28 
REMARK   13  A    between atoms: C21_28  and  C23_30 
ROOT
HETATM    1  C5  UNL     1      26.939   9.007  -6.398  1.00  0.00     0.152 C 
HETATM    2  C6  UNL     1      27.442   7.760  -7.155  1.00  0.00    -0.017 C 
HETATM    3  C7  UNL     1      28.650   8.045  -7.982  1.00  0.00     0.018 C 
HETATM    4  C8  UNL     1      26.358   7.279  -8.119  1.00  0.00     0.018 C 
HETATM    5  C9  UNL     1      27.744   6.757  -6.090  1.00  0.00     0.051 C 
HETATM    6  C10 UNL     1      27.253   7.368  -4.786  1.00  0.00     0.086 C 
HETATM    7  O3  UNL     1      28.127   6.944  -3.738  1.00  0.00    -0.303 OA
HETATM    8  C11 UNL     1      28.202   7.481  -2.433  1.00  0.00     0.318 C 
HETATM    9  O4  UNL     1      28.456   6.683  -1.503  1.00  0.00    -0.257 OA
HETATM   10  C12 UNL     1      28.016   8.857  -2.051  1.00  0.00     0.151 C 
HETATM   11  C13 UNL     1      27.409   9.842  -2.749  1.00  0.00     0.003 C 
HETATM   12  C14 UNL     1      27.481  11.071  -1.940  1.00  0.00     0.188 C 
HETATM   13  C25 UNL     1      27.590  10.481  -0.517  1.00  0.00     0.091 C 
HETATM   14  C26 UNL     1      28.138  11.433   0.473  1.00  0.00     0.049 C 
HETATM   15  C27 UNL     1      26.285   9.887  -0.059  1.00  0.00     0.049 C 
HETATM   16  O7  UNL     1      28.459   9.386  -0.838  1.00  0.00    -0.332 OA
HETATM   17  C28 UNL     1      26.758   9.746  -4.063  1.00  0.00     0.103 C 
HETATM   18  C29 UNL     1      25.343   9.286  -3.954  1.00  0.00     0.136 C 
HETATM   19  O8  UNL     1      24.482  10.151  -3.883  1.00  0.00    -0.297 OA
HETATM   20  C30 UNL     1      24.935   7.885  -3.927  1.00  0.00     0.086 C 
HETATM   21  C31 UNL     1      25.875   6.908  -4.489  1.00  0.00     0.025 C 
HETATM   22  C32 UNL     1      25.980   5.717  -3.519  1.00  0.00     0.013 C 
HETATM   23  C33 UNL     1      27.447   8.814  -5.004  1.00  0.00     0.030 C 
HETATM   24  C34 UNL     1      28.921   9.166  -5.017  1.00  0.00     0.022 C 
ENDROOT
BRANCH  12  25
HETATM   25  O5  UNL     1      28.554  11.864  -2.203  1.00  0.00    -0.376 OA
BRANCH  25  26
HETATM   26  C15 UNL     1      28.482  12.883  -3.069  1.00  0.00     0.200 C 
BRANCH  26  27
HETATM   27  C16 UNL     1      28.645  14.257  -2.467  1.00  0.00     0.142 C 
BRANCH  27  28
HETATM   28  O6  UNL     1      28.183  14.255  -1.126  1.00  0.00    -0.393 OA
ATOM     29  H6  UNL     1      27.502  14.907  -1.017  1.00  0.00     0.210 HD
ENDBRANCH  27  28
BRANCH  27  30
HETATM   30  C17 UNL     1      27.820  15.303  -3.222  1.00  0.00     0.034 C 
BRANCH  30  31
HETATM   31  C18 UNL     1      28.558  15.965  -4.332  1.00  0.00     0.007 C 
BRANCH  31  32
HETATM   32  C19 UNL     1      28.756  17.443  -4.032  1.00  0.00    -0.015 C 
HETATM   33  C20 UNL     1      28.084  18.299  -5.095  1.00  0.00     0.010 C 
BRANCH  32  34
HETATM   34  C21 UNL     1      30.221  17.758  -4.031  1.00  0.00    -0.015 C 
HETATM   35  C22 UNL     1      30.711  18.201  -2.678  1.00  0.00     0.010 C 
BRANCH  34  36
HETATM   36  C23 UNL     1      31.090  16.653  -4.565  1.00  0.00    -0.000 C 
HETATM   37  C24 UNL     1      31.983  17.190  -5.648  1.00  0.00     0.005 C 
ENDBRANCH  34  36
ENDBRANCH  32  34
ENDBRANCH  31  32
ENDBRANCH  30  31
ENDBRANCH  27  30
ENDBRANCH  26  27
ENDBRANCH  25  26
ENDBRANCH  12  25
BRANCH   1  38
HETATM   38  O2  UNL     1      27.403  10.181  -7.036  1.00  0.00    -0.314 OA
BRANCH  38  39
HETATM   39  C4  UNL     1      26.526  11.104  -7.607  1.00  0.00     0.259 C 
HETATM   40  O1  UNL     1      26.557  11.149  -8.867  1.00  0.00    -0.265 OA
BRANCH  39  41
HETATM   41  C3  UNL     1      25.612  11.987  -6.894  1.00  0.00     0.111 C 
BRANCH  41  42
HETATM   42  C2  UNL     1      26.264  12.924  -5.918  1.00  0.00     0.005 C 
HETATM   43  C1  UNL     1      25.363  14.122  -5.728  1.00  0.00     0.005 C 
ENDBRANCH  41  42
ENDBRANCH  39  41
ENDBRANCH  38  39
ENDBRANCH   1  38
TORSDOF 13
ENDMDL
MODEL 2
REMARK VINA RESULT: -8.400072914      0.703      1.072
REMARK  13 active torsions:
REMARK  status: ('A' for Active; 'I' for Inactive)
REMARK    1  A    between atoms: C2_2  and  C3_3 
REMARK    2  A    between atoms: C3_3  and  C4_4 
REMARK    3  A    between atoms: C4_4  and  O2_6 
REMARK    4  A    between atoms: O2_6  and  C5_7 
REMARK    5  A    between atoms: C14_18  and  O5_19 
REMARK    6  A    between atoms: O5_19  and  C15_20 
REMARK    7  A    between atoms: C15_20  and  C16_21 
REMARK    8  A    between atoms: C16_21  and  O6_22 
REMARK    9  A    between atoms: C16_21  and  C17_24 
REMARK   10  A    between atoms: C17_24  and  C18_25 
REMARK   11  A    between atoms: C18_25  and  C19_26 
REMARK   12  A    between atoms: C19_26  and  C21_28 
REMARK   13  A    between atoms: C21_28  and  C23_30 
ROOT
HETATM    1  C5  UNL     1      26.973   8.929  -6.482  1.00  0.00     0.152 C 
HETATM    2  C6  UNL     1      27.461   7.652  -7.199  1.00  0.00    -0.017 C 
HETATM    3  C7  UNL     1      28.678   7.894  -8.028  1.00  0.00     0.018 C 
HETATM    4  C8  UNL     1      26.375   7.158  -8.154  1.00  0.00     0.018 C 
HETATM    5  C9  UNL     1      27.743   6.678  -6.103  1.00  0.00     0.051 C 
HETATM    6  C10 UNL     1      27.254   7.335  -4.821  1.00  0.00     0.086 C 
HETATM    7  O3  UNL     1      28.116   6.930  -3.756  1.00  0.00    -0.303 OA
HETATM    8  C11 UNL     1      28.192   7.505  -2.467  1.00  0.00     0.318 C 
HETATM    9  O4  UNL     1      28.429   6.732  -1.512  1.00  0.00    -0.257 OA
HETATM   10  C12 UNL     1      28.025   8.895  -2.127  1.00  0.00     0.151 C 
HETATM   11  C13 UNL     1      27.436   9.867  -2.858  1.00  0.00     0.003 C 
HETATM   12  C14 UNL     1      27.522  11.119  -2.087  1.00  0.00     0.188 C 
HETATM   13  C25 UNL     1      27.615  10.570  -0.645  1.00  0.00     0.091 C 
HETATM   14  C26 UNL     1      28.172  11.544   0.318  1.00  0.00     0.049 C 
HETATM   15  C27 UNL     1      26.300  10.010  -0.177  1.00  0.00     0.049 C 
HETATM   16  O7  UNL     1      28.469   9.453  -0.928  1.00  0.00    -0.332 OA
HETATM   17  C28 UNL     1      26.791   9.741  -4.172  1.00  0.00     0.103 C 
HETATM   18  C29 UNL     1      25.368   9.305  -4.058  1.00  0.00     0.136 C 
HETATM   19  O8  UNL     1      24.520  10.185  -4.017  1.00  0.00    -0.297 OA
HETATM   20  C30 UNL     1      24.940   7.912  -3.991  1.00  0.00     0.086 C 
HETATM   21  C31 UNL     1      25.867   6.905  -4.517  1.00  0.00     0.025 C 
HETATM   22  C32 UNL     1      25.950   5.743  -3.511  1.00  0.00     0.013 C 
HETATM   23  C33 UNL     1      27.471   8.771  -5.081  1.00  0.00     0.030 C 
HETATM   24  C34 UNL     1      28.950   9.100  -5.096  1.00  0.00     0.022 C 
ENDROOT
BRANCH  12  25
HETATM   25  O5  UNL     1      28.609  11.887  -2.367  1.00  0.00    -0.376 OA
BRANCH  25  26
HETATM   26  C15 UNL     1      28.518  12.984  -3.129  1.00  0.00     0.200 C 
BRANCH  26  27
HETATM   27  C16 UNL     1      28.944  14.271  -2.466  1.00  0.00     0.142 C 
BRANCH  27  28
HETATM   28  O6  UNL     1      27.942  14.701  -1.559  1.00  0.00    -0.393 OA
ATOM     29  H6  UNL     1      28.010  15.638  -1.422  1.00  0.00     0.210 HD
ENDBRANCH  27  28
BRANCH  27  30
HETATM   30  C17 UNL     1      29.132  15.395  -3.489  1.00  0.00     0.034 C 
BRANCH  30  31
HETATM   31  C18 UNL     1      30.396  16.162  -3.316  1.00  0.00     0.007 C 
BRANCH  31  32
HETATM   32  C19 UNL     1      30.552  17.187  -4.427  1.00  0.00    -0.015 C 
HETATM   33  C20 UNL     1      31.717  16.820  -5.334  1.00  0.00     0.010 C 
BRANCH  32  34
HETATM   34  C21 UNL     1      30.830  18.533  -3.827  1.00  0.00    -0.015 C 
HETATM   35  C22 UNL     1      31.114  18.454  -2.350  1.00  0.00     0.010 C 
BRANCH  34  36
HETATM   36  C23 UNL     1      31.912  19.308  -4.526  1.00  0.00    -0.000 C 
HETATM   37  C24 UNL     1      32.821  19.937  -3.509  1.00  0.00     0.005 C 
ENDBRANCH  34  36
ENDBRANCH  32  34
ENDBRANCH  31  32
ENDBRANCH  30  31
ENDBRANCH  27  30
ENDBRANCH  26  27
ENDBRANCH  25  26
ENDBRANCH  12  25
BRANCH   1  38
HETATM   38  O2  UNL     1      27.458  10.076  -7.154  1.00  0.00    -0.314 OA
BRANCH  38  39
HETATM   39  C4  UNL     1      26.597  11.005  -7.740  1.00  0.00     0.259 C 
HETATM   40  O1  UNL     1      26.568  10.973  -9.000  1.00  0.00    -0.265 OA
BRANCH  39  41
HETATM   41  C3  UNL     1      25.761  11.972  -7.042  1.00  0.00     0.111 C 
BRANCH  41  42
HETATM   42  C2  UNL     1      26.477  12.821  -6.031  1.00  0.00     0.005 C 
HETATM   43  C1  UNL     1      25.552  13.932  -5.593  1.00  0.00     0.005 C 
ENDBRANCH  41  42
ENDBRANCH  39  41
ENDBRANCH  38  39
ENDBRANCH   1  38
TORSDOF 13
ENDMDL
MODEL 3
REMARK VINA RESULT: -8.255718281      0.776      1.229
REMARK  13 active torsions:
REMARK  status: ('A' for Active; 'I' for Inactive)
REMARK    1  A    between atoms: C2_2  and  C3_3 
REMARK    2  A    between atoms: C3_3  and  C4_4 
REMARK    3  A    between atoms: C4_4  and  O2_6 
REMARK    4  A    between atoms: O2_6  and  C5_7 
REMARK    5  A    between atoms: C14_18  and  O5_19 
REMARK    6  A    between atoms: O5_19  and  C15_20 
REMARK    7  A    between atoms: C15_20  and  C16_21 
REMARK    8  A    between atoms: C16_21  and  O6_22 
REMARK    9  A    between atoms: C16_21  and  C17_24 
REMARK   10  A    between atoms: C17_24  and  C18_25 
REMARK   11  A    between atoms: C18_25  and  C19_26 
REMARK   12  A    between atoms: C19_26  and  C21_28 
REMARK   13  A    between atoms: C21_28  and  C23_30 
ROOT
HETATM    1  C5  UNL     1      26.871   9.041  -6.345  1.00  0.00     0.152 C 
HETATM    2  C6  UNL     1      27.388   7.813  -7.124  1.00  0.00    -0.017 C 
HETATM    3  C7  UNL     1      28.585   8.131  -7.958  1.00  0.00     0.018 C 
HETATM    4  C8  UNL     1      26.305   7.327  -8.086  1.00  0.00     0.018 C 
HETATM    5  C9  UNL     1      27.717   6.801  -6.076  1.00  0.00     0.051 C 
HETATM    6  C10 UNL     1      27.227   7.385  -4.760  1.00  0.00     0.086 C 
HETATM    7  O3  UNL     1      28.117   6.962  -3.725  1.00  0.00    -0.303 OA
HETATM    8  C11 UNL     1      28.193   7.482  -2.413  1.00  0.00     0.318 C 
HETATM    9  O4  UNL     1      28.469   6.676  -1.497  1.00  0.00    -0.257 OA
HETATM   10  C12 UNL     1      27.987   8.849  -2.010  1.00  0.00     0.151 C 
HETATM   11  C13 UNL     1      27.357   9.833  -2.690  1.00  0.00     0.003 C 
HETATM   12  C14 UNL     1      27.415  11.052  -1.864  1.00  0.00     0.188 C 
HETATM   13  C25 UNL     1      27.546  10.444  -0.450  1.00  0.00     0.091 C 
HETATM   14  C26 UNL     1      28.086  11.391   0.548  1.00  0.00     0.049 C 
HETATM   15  C27 UNL     1      26.256   9.821   0.010  1.00  0.00     0.049 C 
HETATM   16  O7  UNL     1      28.431   9.369  -0.794  1.00  0.00    -0.332 OA
HETATM   17  C28 UNL     1      26.696   9.744  -3.999  1.00  0.00     0.103 C 
HETATM   18  C29 UNL     1      25.291   9.258  -3.885  1.00  0.00     0.136 C 
HETATM   19  O8  UNL     1      24.415  10.107  -3.794  1.00  0.00    -0.297 OA
HETATM   20  C30 UNL     1      24.908   7.850  -3.874  1.00  0.00     0.086 C 
HETATM   21  C31 UNL     1      25.859   6.898  -4.458  1.00  0.00     0.025 C 
HETATM   22  C32 UNL     1      25.993   5.695  -3.505  1.00  0.00     0.013 C 
HETATM   23  C33 UNL     1      27.394   8.838  -4.959  1.00  0.00     0.030 C 
HETATM   24  C34 UNL     1      28.861   9.215  -4.979  1.00  0.00     0.022 C 
ENDROOT
BRANCH  12  25
HETATM   25  O5  UNL     1      28.472  11.866  -2.125  1.00  0.00    -0.376 OA
BRANCH  25  26
HETATM   26  C15 UNL     1      28.397  12.850  -3.031  1.00  0.00     0.200 C 
BRANCH  26  27
HETATM   27  C16 UNL     1      28.580  14.246  -2.490  1.00  0.00     0.142 C 
BRANCH  27  28
HETATM   28  O6  UNL     1      28.135  14.304  -1.144  1.00  0.00    -0.393 OA
ATOM     29  H6  UNL     1      28.497  13.576  -0.653  1.00  0.00     0.210 HD
ENDBRANCH  27  28
BRANCH  27  30
HETATM   30  C17 UNL     1      27.754  15.267  -3.278  1.00  0.00     0.034 C 
BRANCH  30  31
HETATM   31  C18 UNL     1      28.516  15.955  -4.355  1.00  0.00     0.007 C 
BRANCH  31  32
HETATM   32  C19 UNL     1      28.772  17.406  -3.980  1.00  0.00    -0.015 C 
HETATM   33  C20 UNL     1      28.119  18.342  -4.986  1.00  0.00     0.010 C 
BRANCH  32  34
HETATM   34  C21 UNL     1      30.248  17.668  -3.984  1.00  0.00    -0.015 C 
HETATM   35  C22 UNL     1      30.764  18.059  -2.625  1.00  0.00     0.010 C 
BRANCH  34  36
HETATM   36  C23 UNL     1      31.072  16.545  -4.552  1.00  0.00    -0.000 C 
HETATM   37  C24 UNL     1      31.961  17.072  -5.642  1.00  0.00     0.005 C 
ENDBRANCH  34  36
ENDBRANCH  32  34
ENDBRANCH  31  32
ENDBRANCH  30  31
ENDBRANCH  27  30
ENDBRANCH  26  27
ENDBRANCH  25  26
ENDBRANCH  12  25
BRANCH   1  38
HETATM   38  O2  UNL     1      27.308  10.232  -6.971  1.00  0.00    -0.314 OA
BRANCH  38  39
HETATM   39  C4  UNL     1      26.409  11.174  -7.472  1.00  0.00     0.259 C 
HETATM   40  O1  UNL     1      25.319  11.247  -6.842  1.00  0.00    -0.265 OA
BRANCH  39  41
HETATM   41  C3  UNL     1      26.619  12.047  -8.619  1.00  0.00     0.111 C 
BRANCH  41  42
HETATM   42  C2  UNL     1      26.971  11.343  -9.898  1.00  0.00     0.005 C 
HETATM   43  C1  UNL     1      25.881  10.347 -10.215  1.00  0.00     0.005 C 
ENDBRANCH  41  42
ENDBRANCH  39  41
ENDBRANCH  38  39
ENDBRANCH   1  38
TORSDOF 13
ENDMDL
MODEL 4
REMARK VINA RESULT: -8.198308631      1.112      2.102
REMARK  13 active torsions:
REMARK  status: ('A' for Active; 'I' for Inactive)
REMARK    1  A    between atoms: C2_2  and  C3_3 
REMARK    2  A    between atoms: C3_3  and  C4_4 
REMARK    3  A    between atoms: C4_4  and  O2_6 
REMARK    4  A    between atoms: O2_6  and  C5_7 
REMARK    5  A    between atoms: C14_18  and  O5_19 
REMARK    6  A    between atoms: O5_19  and  C15_20 
REMARK    7  A    between atoms: C15_20  and  C16_21 
REMARK    8  A    between atoms: C16_21  and  O6_22 
REMARK    9  A    between atoms: C16_21  and  C17_24 
REMARK   10  A    between atoms: C17_24  and  C18_25 
REMARK   11  A    between atoms: C18_25  and  C19_26 
REMARK   12  A    between atoms: C19_26  and  C21_28 
REMARK   13  A    between atoms: C21_28  and  C23_30 
ROOT
HETATM    1  C5  UNL     1      26.900   8.927  -6.428  1.00  0.00     0.152 C 
HETATM    2  C6  UNL     1      27.394   7.671  -7.177  1.00  0.00    -0.017 C 
HETATM    3  C7  UNL     1      28.594   7.946  -8.020  1.00  0.00     0.018 C 
HETATM    4  C8  UNL     1      26.300   7.180  -8.124  1.00  0.00     0.018 C 
HETATM    5  C9  UNL     1      27.707   6.680  -6.104  1.00  0.00     0.051 C 
HETATM    6  C10 UNL     1      27.230   7.306  -4.802  1.00  0.00     0.086 C 
HETATM    7  O3  UNL     1      28.114   6.893  -3.759  1.00  0.00    -0.303 OA
HETATM    8  C11 UNL     1      28.203   7.445  -2.460  1.00  0.00     0.318 C 
HETATM    9  O4  UNL     1      28.466   6.657  -1.524  1.00  0.00    -0.257 OA
HETATM   10  C12 UNL     1      28.022   8.825  -2.092  1.00  0.00     0.151 C 
HETATM   11  C13 UNL     1      27.409   9.803  -2.795  1.00  0.00     0.003 C 
HETATM   12  C14 UNL     1      27.490  11.041  -2.001  1.00  0.00     0.188 C 
HETATM   13  C25 UNL     1      27.613  10.467  -0.572  1.00  0.00     0.091 C 
HETATM   14  C26 UNL     1      28.173  11.429   0.401  1.00  0.00     0.049 C 
HETATM   15  C27 UNL     1      26.313   9.879  -0.094  1.00  0.00     0.049 C 
HETATM   16  O7  UNL     1      28.478   9.367  -0.890  1.00  0.00    -0.332 OA
HETATM   17  C28 UNL     1      26.744   9.693  -4.101  1.00  0.00     0.103 C 
HETATM   18  C29 UNL     1      25.329   9.235  -3.972  1.00  0.00     0.136 C 
HETATM   19  O8  UNL     1      24.470  10.102  -3.901  1.00  0.00    -0.297 OA
HETATM   20  C30 UNL     1      24.921   7.835  -3.925  1.00  0.00     0.086 C 
HETATM   21  C31 UNL     1      25.854   6.851  -4.485  1.00  0.00     0.025 C 
HETATM   22  C32 UNL     1      25.969   5.671  -3.503  1.00  0.00     0.013 C 
HETATM   23  C33 UNL     1      27.423   8.750  -5.038  1.00  0.00     0.030 C 
HETATM   24  C34 UNL     1      28.896   9.100  -5.070  1.00  0.00     0.022 C 
ENDROOT
BRANCH  12  25
HETATM   25  O5  UNL     1      28.561  11.829  -2.284  1.00  0.00    -0.376 OA
BRANCH  25  26
HETATM   26  C15 UNL     1      28.441  12.947  -3.011  1.00  0.00     0.200 C 
BRANCH  26  27
HETATM   27  C16 UNL     1      28.854  14.221  -2.316  1.00  0.00     0.142 C 
BRANCH  27  28
HETATM   28  O6  UNL     1      28.005  14.462  -1.206  1.00  0.00    -0.393 OA
ATOM     29  H6  UNL     1      28.516  14.778  -0.470  1.00  0.00     0.210 HD
ENDBRANCH  27  28
BRANCH  27  30
HETATM   30  C17 UNL     1      28.733  15.433  -3.244  1.00  0.00     0.034 C 
BRANCH  30  31
HETATM   31  C18 UNL     1      27.411  16.114  -3.175  1.00  0.00     0.007 C 
BRANCH  31  32
HETATM   32  C19 UNL     1      27.050  16.710  -4.527  1.00  0.00    -0.015 C 
HETATM   33  C20 UNL     1      27.925  17.917  -4.829  1.00  0.00     0.010 C 
BRANCH  32  34
HETATM   34  C21 UNL     1      25.620  17.159  -4.506  1.00  0.00    -0.015 C 
HETATM   35  C22 UNL     1      25.468  18.607  -4.892  1.00  0.00     0.010 C 
BRANCH  34  36
HETATM   36  C23 UNL     1      24.693  16.301  -5.322  1.00  0.00    -0.000 C 
HETATM   37  C24 UNL     1      23.273  16.546  -4.897  1.00  0.00     0.005 C 
ENDBRANCH  34  36
ENDBRANCH  32  34
ENDBRANCH  31  32
ENDBRANCH  30  31
ENDBRANCH  27  30
ENDBRANCH  26  27
ENDBRANCH  25  26
ENDBRANCH  12  25
BRANCH   1  38
HETATM   38  O2  UNL     1      27.358  10.093  -7.085  1.00  0.00    -0.314 OA
BRANCH  38  39
HETATM   39  C4  UNL     1      26.477  11.002  -7.672  1.00  0.00     0.259 C 
HETATM   40  O1  UNL     1      26.908  11.549  -8.723  1.00  0.00    -0.265 OA
BRANCH  39  41
HETATM   41  C3  UNL     1      25.150  11.358  -7.188  1.00  0.00     0.111 C 
BRANCH  41  42
HETATM   42  C2  UNL     1      25.037  12.731  -6.589  1.00  0.00     0.005 C 
HETATM   43  C1  UNL     1      26.203  12.944  -5.651  1.00  0.00     0.005 C 
ENDBRANCH  41  42
ENDBRANCH  39  41
ENDBRANCH  38  39
ENDBRANCH   1  38
TORSDOF 13
ENDMDL
MODEL 5
REMARK VINA RESULT: -8.105155626      1.000      1.729
REMARK  13 active torsions:
REMARK  status: ('A' for Active; 'I' for Inactive)
REMARK    1  A    between atoms: C2_2  and  C3_3 
REMARK    2  A    between atoms: C3_3  and  C4_4 
REMARK    3  A    between atoms: C4_4  and  O2_6 
REMARK    4  A    between atoms: O2_6  and  C5_7 
REMARK    5  A    between atoms: C14_18  and  O5_19 
REMARK    6  A    between atoms: O5_19  and  C15_20 
REMARK    7  A    between atoms: C15_20  and  C16_21 
REMARK    8  A    between atoms: C16_21  and  O6_22 
REMARK    9  A    between atoms: C16_21  and  C17_24 
REMARK   10  A    between atoms: C17_24  and  C18_25 
REMARK   11  A    between atoms: C18_25  and  C19_26 
REMARK   12  A    between atoms: C19_26  and  C21_28 
REMARK   13  A    between atoms: C21_28  and  C23_30 
ROOT
HETATM    1  C5  UNL     1      26.978   8.921  -6.456  1.00  0.00     0.152 C 
HETATM    2  C6  UNL     1      27.456   7.648  -7.187  1.00  0.00    -0.017 C 
HETATM    3  C7  UNL     1      28.682   7.887  -8.004  1.00  0.00     0.018 C 
HETATM    4  C8  UNL     1      26.371   7.180  -8.156  1.00  0.00     0.018 C 
HETATM    5  C9  UNL     1      27.719   6.656  -6.102  1.00  0.00     0.051 C 
HETATM    6  C10 UNL     1      27.229   7.302  -4.814  1.00  0.00     0.086 C 
HETATM    7  O3  UNL     1      28.079   6.872  -3.749  1.00  0.00    -0.303 OA
HETATM    8  C11 UNL     1      28.152   7.429  -2.452  1.00  0.00     0.318 C 
HETATM    9  O4  UNL     1      28.373   6.640  -1.506  1.00  0.00    -0.257 OA
HETATM   10  C12 UNL     1      27.999   8.815  -2.094  1.00  0.00     0.151 C 
HETATM   11  C13 UNL     1      27.427   9.805  -2.817  1.00  0.00     0.003 C 
HETATM   12  C14 UNL     1      27.522  11.045  -2.028  1.00  0.00     0.188 C 
HETATM   13  C25 UNL     1      27.598  10.476  -0.593  1.00  0.00     0.091 C 
HETATM   14  C26 UNL     1      28.160  11.430   0.387  1.00  0.00     0.049 C 
HETATM   15  C27 UNL     1      26.273   9.925  -0.142  1.00  0.00     0.049 C 
HETATM   16  O7  UNL     1      28.441   9.353  -0.885  1.00  0.00    -0.332 OA
HETATM   17  C28 UNL     1      26.789   9.704  -4.137  1.00  0.00     0.103 C 
HETATM   18  C29 UNL     1      25.361   9.284  -4.038  1.00  0.00     0.136 C 
HETATM   19  O8  UNL     1      24.523  10.173  -3.991  1.00  0.00    -0.297 OA
HETATM   20  C30 UNL     1      24.916   7.895  -3.993  1.00  0.00     0.086 C 
HETATM   21  C31 UNL     1      25.835   6.884  -4.526  1.00  0.00     0.025 C 
HETATM   22  C32 UNL     1      25.897   5.707  -3.536  1.00  0.00     0.013 C 
HETATM   23  C33 UNL     1      27.465   8.738  -5.053  1.00  0.00     0.030 C 
HETATM   24  C34 UNL     1      28.947   9.050  -5.054  1.00  0.00     0.022 C 
ENDROOT
BRANCH  12  25
HETATM   25  O5  UNL     1      28.620  11.804  -2.290  1.00  0.00    -0.376 OA
BRANCH  25  26
HETATM   26  C15 UNL     1      28.661  12.646  -3.330  1.00  0.00     0.200 C 
BRANCH  26  27
HETATM   27  C16 UNL     1      27.386  13.406  -3.601  1.00  0.00     0.142 C 
BRANCH  27  28
HETATM   28  O6  UNL     1      26.915  13.109  -4.906  1.00  0.00    -0.393 OA
ATOM     29  H6  UNL     1      27.186  13.789  -5.510  1.00  0.00     0.210 HD
ENDBRANCH  27  28
BRANCH  27  30
HETATM   30  C17 UNL     1      27.610  14.920  -3.541  1.00  0.00     0.034 C 
BRANCH  30  31
HETATM   31  C18 UNL     1      28.975  15.309  -3.092  1.00  0.00     0.007 C 
BRANCH  31  32
HETATM   32  C19 UNL     1      29.199  16.798  -3.305  1.00  0.00    -0.015 C 
HETATM   33  C20 UNL     1      28.434  17.284  -4.526  1.00  0.00     0.010 C 
BRANCH  32  34
HETATM   34  C21 UNL     1      30.659  17.052  -3.532  1.00  0.00    -0.015 C 
HETATM   35  C22 UNL     1      31.138  16.505  -4.851  1.00  0.00     0.010 C 
BRANCH  34  36
HETATM   36  C23 UNL     1      31.063  18.494  -3.387  1.00  0.00    -0.000 C 
HETATM   37  C24 UNL     1      31.123  18.857  -1.931  1.00  0.00     0.005 C 
ENDBRANCH  34  36
ENDBRANCH  32  34
ENDBRANCH  31  32
ENDBRANCH  30  31
ENDBRANCH  27  30
ENDBRANCH  26  27
ENDBRANCH  25  26
ENDBRANCH  12  25
BRANCH   1  38
HETATM   38  O2  UNL     1      27.481  10.071  -7.108  1.00  0.00    -0.314 OA
BRANCH  38  39
HETATM   39  C4  UNL     1      26.635  11.032  -7.663  1.00  0.00     0.259 C 
HETATM   40  O1  UNL     1      25.680  11.384  -6.918  1.00  0.00    -0.265 OA
BRANCH  39  41
HETATM   41  C3  UNL     1      26.760  11.640  -8.981  1.00  0.00     0.111 C 
BRANCH  41  42
HETATM   42  C2  UNL     1      26.605  10.692 -10.136  1.00  0.00     0.005 C 
HETATM   43  C1  UNL     1      25.204  10.126 -10.109  1.00  0.00     0.005 C 
ENDBRANCH  41  42
ENDBRANCH  39  41
ENDBRANCH  38  39
ENDBRANCH   1  38
TORSDOF 13
ENDMDL
