MODEL 1
REMARK VINA RESULT: -5.911850854      0.000      0.000
REMARK  8 active torsions:
REMARK  status: ('A' for Active; 'I' for Inactive)
REMARK    1  A    between atoms: C2_2  and  N1_4 
REMARK    2  A    between atoms: C5_9  and  N3_10 
REMARK    3  A    between atoms: C11_24  and  N8_25 
REMARK    4  A    between atoms: N8_25  and  C12_27 
REMARK    5  A    between atoms: C12_27  and  C13_28 
REMARK    6  A    between atoms: C13_28  and  C14_29 
REMARK    7  A    between atoms: C14_29  and  N9_30 
REMARK    8  A    between atoms: N10_34  and  N11_35 
ROOT
HETATM    1  N3  UNL     1     -43.034  11.526   2.153  1.00  0.00    -0.175 N 
ATOM      2  H3  UNL     1     -43.902  11.075   1.867  1.00  0.00     0.186 HD
HETATM    3  C6  UNL     1     -43.063  12.731   2.638  1.00  0.00     0.124 A 
HETATM    4  C7  UNL     1     -44.245  13.425   2.781  1.00  0.00     0.090 A 
HETATM    5  C8  UNL     1     -44.284  14.715   3.300  1.00  0.00     0.118 A 
HETATM    6  C9  UNL     1     -45.539  15.426   3.441  1.00  0.00     0.117 C 
HETATM    7  N4  UNL     1     -46.556  15.978   3.555  1.00  0.00    -0.190 NA
HETATM    8  N5  UNL     1     -43.114  15.272   3.663  1.00  0.00    -0.344 N 
ATOM      9  H5  UNL     1     -43.104  16.217   4.047  1.00  0.00     0.167 HD
HETATM   10  C10 UNL     1     -41.948  14.592   3.524  1.00  0.00     0.183 A 
HETATM   11  N6  UNL     1     -41.927  13.341   3.019  1.00  0.00    -0.338 N 
ATOM     12  H6  UNL     1     -41.037  12.852   2.924  1.00  0.00     0.168 HD
ENDROOT
BRANCH   1  13
HETATM   13  C5  UNL     1     -41.804  10.837   2.017  1.00  0.00     0.713 A 
HETATM   14  N2  UNL     1     -41.090  10.776   0.895  1.00  0.00    -0.019 N 
HETATM   15  C4  UNL     1     -39.900  10.099   0.796  1.00  0.00     0.729 A 
ATOM     16  H2  UNL     1     -41.445  11.256   0.068  1.00  0.00     0.203 HD
HETATM   17  N1  UNL     1     -39.338  10.123  -0.307  1.00  0.00    -0.219 N 
HETATM   18  N10 UNL     1     -39.469   9.485   1.896  1.00  0.00     0.084 N 
ATOM     19  H1  UNL     1     -39.877  10.664  -0.983  1.00  0.00     0.178 HD
HETATM   20  C11 UNL     1     -40.159   9.522   3.051  1.00  0.00     0.728 A 
HETATM   21  N7  UNL     1     -41.316  10.195   3.100  1.00  0.00    -0.019 N 
ATOM     22  H7  UNL     1     -41.840  10.224   3.975  1.00  0.00     0.203 HD
BRANCH  17  23
HETATM   23  C2  UNL     1     -38.169   9.614  -0.882  1.00  0.00     0.091 C 
HETATM   24  C1  UNL     1     -38.456   9.284  -2.348  1.00  0.00     0.032 C 
HETATM   25  C3  UNL     1     -37.006  10.599  -0.872  1.00  0.00     0.032 C 
ENDBRANCH  17  23
BRANCH  18  26
HETATM   26  N11 UNL     1     -38.279   8.768   1.918  1.00  0.00    -0.309 N 
ATOM     27 2H11 UNL     1     -37.423   9.319   1.971  1.00  0.00     0.178 HD
ATOM     28 1H11 UNL     1     -38.264   7.749   1.884  1.00  0.00     0.178 HD
ENDBRANCH  18  26
BRANCH  20  29
HETATM   29  N8  UNL     1     -39.723   8.923   4.091  1.00  0.00    -0.223 N 
ATOM     30  H8  UNL     1     -39.516   7.924   4.065  1.00  0.00     0.177 HD
BRANCH  29  31
HETATM   31  C12 UNL     1     -39.526   9.679   5.305  1.00  0.00     0.140 C 
BRANCH  31  32
HETATM   32  C13 UNL     1     -38.217   9.310   5.975  1.00  0.00     0.047 C 
BRANCH  32  33
HETATM   33  C14 UNL     1     -37.109   9.905   5.126  1.00  0.00     0.231 C 
BRANCH  33  34
HETATM   34  N9  UNL     1     -36.246   8.865   4.588  1.00  0.00    -0.079 N 
ATOM     35  H93 UNL     1     -36.621   7.934   4.770  1.00  0.00     0.274 HD
ATOM     36  H92 UNL     1     -36.271   8.846   3.568  1.00  0.00     0.274 HD
ATOM     37  H91 UNL     1     -35.293   8.961   4.939  1.00  0.00     0.274 HD
ENDBRANCH  33  34
ENDBRANCH  32  33
ENDBRANCH  31  32
ENDBRANCH  29  31
ENDBRANCH  20  29
ENDBRANCH   1  13
TORSDOF 8
ENDMDL
MODEL 2
REMARK VINA RESULT: -5.846657323      2.157      3.141
REMARK  8 active torsions:
REMARK  status: ('A' for Active; 'I' for Inactive)
REMARK    1  A    between atoms: C2_2  and  N1_4 
REMARK    2  A    between atoms: C5_9  and  N3_10 
REMARK    3  A    between atoms: C11_24  and  N8_25 
REMARK    4  A    between atoms: N8_25  and  C12_27 
REMARK    5  A    between atoms: C12_27  and  C13_28 
REMARK    6  A    between atoms: C13_28  and  C14_29 
REMARK    7  A    between atoms: C14_29  and  N9_30 
REMARK    8  A    between atoms: N10_34  and  N11_35 
ROOT
HETATM    1  N3  UNL     1     -41.511  11.466   3.376  1.00  0.00    -0.175 N 
ATOM      2  H3  UNL     1     -41.318  11.759   4.334  1.00  0.00     0.186 HD
HETATM    3  C6  UNL     1     -42.486  12.016   2.717  1.00  0.00     0.124 A 
HETATM    4  C7  UNL     1     -43.278  12.995   3.279  1.00  0.00     0.090 A 
HETATM    5  C8  UNL     1     -44.323  13.588   2.580  1.00  0.00     0.118 A 
HETATM    6  C9  UNL     1     -45.143  14.615   3.191  1.00  0.00     0.117 C 
HETATM    7  N4  UNL     1     -45.785  15.444   3.695  1.00  0.00    -0.190 NA
HETATM    8  N5  UNL     1     -44.541  13.170   1.320  1.00  0.00    -0.344 N 
ATOM      9  H5  UNL     1     -45.300  13.582   0.777  1.00  0.00     0.167 HD
HETATM   10  C10 UNL     1     -43.764  12.207   0.763  1.00  0.00     0.183 A 
HETATM   11  N6  UNL     1     -42.753  11.641   1.454  1.00  0.00    -0.338 N 
ATOM     12  H6  UNL     1     -42.185  10.919   1.012  1.00  0.00     0.168 HD
ENDROOT
BRANCH   1  13
HETATM   13  C5  UNL     1     -40.714  10.463   2.773  1.00  0.00     0.713 A 
HETATM   14  N2  UNL     1     -41.102   9.205   2.575  1.00  0.00    -0.019 N 
HETATM   15  C4  UNL     1     -40.305   8.255   1.986  1.00  0.00     0.729 A 
ATOM     16  H2  UNL     1     -42.039   8.934   2.875  1.00  0.00     0.203 HD
HETATM   17  N1  UNL     1     -40.791   7.123   1.862  1.00  0.00    -0.219 N 
HETATM   18  N10 UNL     1     -39.090   8.646   1.608  1.00  0.00     0.084 N 
ATOM     19  H1  UNL     1     -41.740   7.087   2.233  1.00  0.00     0.178 HD
HETATM   20  C11 UNL     1     -38.657   9.907   1.790  1.00  0.00     0.728 A 
HETATM   21  N7  UNL     1     -39.471  10.801   2.369  1.00  0.00    -0.019 N 
ATOM     22  H7  UNL     1     -39.144  11.757   2.507  1.00  0.00     0.203 HD
BRANCH  17  23
HETATM   23  C2  UNL     1     -40.399   5.880   1.353  1.00  0.00     0.091 C 
HETATM   24  C1  UNL     1     -40.605   4.825   2.441  1.00  0.00     0.032 C 
HETATM   25  C3  UNL     1     -41.213   5.432   0.145  1.00  0.00     0.032 C 
ENDBRANCH  17  23
BRANCH  18  26
HETATM   26  N11 UNL     1     -38.194   7.773   1.003  1.00  0.00    -0.309 N 
ATOM     27 2H11 UNL     1     -38.368   6.779   1.148  1.00  0.00     0.178 HD
ATOM     28 1H11 UNL     1     -37.408   8.108   0.446  1.00  0.00     0.178 HD
ENDBRANCH  18  26
BRANCH  20  29
HETATM   29  N8  UNL     1     -37.486  10.255   1.418  1.00  0.00    -0.223 N 
ATOM     30  H8  UNL     1     -37.190  10.125   0.451  1.00  0.00     0.177 HD
BRANCH  29  31
HETATM   31  C12 UNL     1     -36.586  10.836   2.387  1.00  0.00     0.140 C 
BRANCH  31  32
HETATM   32  C13 UNL     1     -36.034   9.781   3.325  1.00  0.00     0.047 C 
BRANCH  32  33
HETATM   33  C14 UNL     1     -36.536  10.127   4.715  1.00  0.00     0.231 C 
BRANCH  33  34
HETATM   34  N9  UNL     1     -37.347   9.050   5.261  1.00  0.00    -0.079 N 
ATOM     35  H93 UNL     1     -37.755   8.475   4.524  1.00  0.00     0.274 HD
ATOM     36  H92 UNL     1     -36.772   8.338   5.713  1.00  0.00     0.274 HD
ATOM     37  H91 UNL     1     -38.061   9.412   5.893  1.00  0.00     0.274 HD
ENDBRANCH  33  34
ENDBRANCH  32  33
ENDBRANCH  31  32
ENDBRANCH  29  31
ENDBRANCH  20  29
ENDBRANCH   1  13
TORSDOF 8
ENDMDL
MODEL 3
REMARK VINA RESULT: -5.802364967      2.088      5.956
REMARK  8 active torsions:
REMARK  status: ('A' for Active; 'I' for Inactive)
REMARK    1  A    between atoms: C2_2  and  N1_4 
REMARK    2  A    between atoms: C5_9  and  N3_10 
REMARK    3  A    between atoms: C11_24  and  N8_25 
REMARK    4  A    between atoms: N8_25  and  C12_27 
REMARK    5  A    between atoms: C12_27  and  C13_28 
REMARK    6  A    between atoms: C13_28  and  C14_29 
REMARK    7  A    between atoms: C14_29  and  N9_30 
REMARK    8  A    between atoms: N10_34  and  N11_35 
ROOT
HETATM    1  N3  UNL     1     -38.304   9.771   4.143  1.00  0.00    -0.175 N 
ATOM      2  H3  UNL     1     -37.339  10.047   4.322  1.00  0.00     0.186 HD
HETATM    3  C6  UNL     1     -39.066   9.410   5.132  1.00  0.00     0.124 A 
HETATM    4  C7  UNL     1     -38.604   9.389   6.431  1.00  0.00     0.090 A 
HETATM    5  C8  UNL     1     -39.413   9.003   7.494  1.00  0.00     0.118 A 
HETATM    6  C9  UNL     1     -38.906   8.988   8.851  1.00  0.00     0.117 C 
HETATM    7  N4  UNL     1     -38.485   8.990   9.936  1.00  0.00    -0.190 NA
HETATM    8  N5  UNL     1     -40.680   8.646   7.211  1.00  0.00    -0.344 N 
ATOM      9  H5  UNL     1     -41.302   8.357   7.965  1.00  0.00     0.167 HD
HETATM   10  C10 UNL     1     -41.138   8.666   5.934  1.00  0.00     0.183 A 
HETATM   11  N6  UNL     1     -40.341   9.043   4.913  1.00  0.00    -0.338 N 
ATOM     12  H6  UNL     1     -40.710   9.048   3.962  1.00  0.00     0.168 HD
ENDROOT
BRANCH   1  13
HETATM   13  C5  UNL     1     -38.806   9.783   2.819  1.00  0.00     0.713 A 
HETATM   14  N2  UNL     1     -38.595   8.824   1.921  1.00  0.00    -0.019 N 
HETATM   15  C4  UNL     1     -39.096   8.865   0.643  1.00  0.00     0.729 A 
ATOM     16  H2  UNL     1     -38.032   8.017   2.195  1.00  0.00     0.203 HD
HETATM   17  N1  UNL     1     -38.824   7.906  -0.091  1.00  0.00    -0.219 N 
HETATM   18  N10 UNL     1     -39.824   9.931   0.322  1.00  0.00     0.084 N 
ATOM     19  H1  UNL     1     -38.250   7.219   0.399  1.00  0.00     0.178 HD
HETATM   20  C11 UNL     1     -40.061  10.924   1.199  1.00  0.00     0.728 A 
HETATM   21  N7  UNL     1     -39.552  10.841   2.435  1.00  0.00    -0.019 N 
ATOM     22  H7  UNL     1     -39.732  11.592   3.101  1.00  0.00     0.203 HD
BRANCH  17  23
HETATM   23  C2  UNL     1     -39.086   7.503  -1.404  1.00  0.00     0.091 C 
HETATM   24  C1  UNL     1     -37.910   7.929  -2.285  1.00  0.00     0.032 C 
HETATM   25  C3  UNL     1     -39.230   5.993  -1.561  1.00  0.00     0.032 C 
ENDBRANCH  17  23
BRANCH  18  26
HETATM   26  N11 UNL     1     -40.382  10.086  -0.941  1.00  0.00    -0.309 N 
ATOM     27 2H11 UNL     1     -41.395  10.201  -0.973  1.00  0.00     0.178 HD
ATOM     28 1H11 UNL     1     -39.811  10.086  -1.786  1.00  0.00     0.178 HD
ENDBRANCH  18  26
BRANCH  20  29
HETATM   29  N8  UNL     1     -40.763  11.938   0.864  1.00  0.00    -0.223 N 
ATOM     30  H8  UNL     1     -40.548  12.458   0.013  1.00  0.00     0.177 HD
BRANCH  29  31
HETATM   31  C12 UNL     1     -41.866  12.337   1.706  1.00  0.00     0.140 C 
BRANCH  31  32
HETATM   32  C13 UNL     1     -41.716  13.775   2.161  1.00  0.00     0.047 C 
BRANCH  32  33
HETATM   33  C14 UNL     1     -42.313  13.856   3.554  1.00  0.00     0.231 C 
BRANCH  33  34
HETATM   34  N9  UNL     1     -41.547  14.759   4.400  1.00  0.00    -0.079 N 
ATOM     35  H93 UNL     1     -41.508  14.428   5.364  1.00  0.00     0.274 HD
ATOM     36  H92 UNL     1     -40.551  14.723   4.183  1.00  0.00     0.274 HD
ATOM     37  H91 UNL     1     -41.910  15.710   4.344  1.00  0.00     0.274 HD
ENDBRANCH  33  34
ENDBRANCH  32  33
ENDBRANCH  31  32
ENDBRANCH  29  31
ENDBRANCH  20  29
ENDBRANCH   1  13
TORSDOF 8
ENDMDL
MODEL 4
REMARK VINA RESULT: -5.754544027      2.348      3.320
REMARK  8 active torsions:
REMARK  status: ('A' for Active; 'I' for Inactive)
REMARK    1  A    between atoms: C2_2  and  N1_4 
REMARK    2  A    between atoms: C5_9  and  N3_10 
REMARK    3  A    between atoms: C11_24  and  N8_25 
REMARK    4  A    between atoms: N8_25  and  C12_27 
REMARK    5  A    between atoms: C12_27  and  C13_28 
REMARK    6  A    between atoms: C13_28  and  C14_29 
REMARK    7  A    between atoms: C14_29  and  N9_30 
REMARK    8  A    between atoms: N10_34  and  N11_35 
ROOT
HETATM    1  N3  UNL     1     -42.724  11.171   3.361  1.00  0.00    -0.175 N 
ATOM      2  H3  UNL     1     -43.412  10.631   2.838  1.00  0.00     0.186 HD
HETATM    3  C6  UNL     1     -42.902  12.447   3.535  1.00  0.00     0.124 A 
HETATM    4  C7  UNL     1     -44.005  13.099   3.028  1.00  0.00     0.090 A 
HETATM    5  C8  UNL     1     -44.202  14.464   3.210  1.00  0.00     0.118 A 
HETATM    6  C9  UNL     1     -45.369  15.129   2.667  1.00  0.00     0.117 C 
HETATM    7  N4  UNL     1     -46.316  15.645   2.232  1.00  0.00    -0.190 NA
HETATM    8  N5  UNL     1     -43.268  15.137   3.907  1.00  0.00    -0.344 N 
ATOM      9  H5  UNL     1     -43.378  16.139   4.060  1.00  0.00     0.167 HD
HETATM   10  C10 UNL     1     -42.180  14.498   4.408  1.00  0.00     0.183 A 
HETATM   11  N6  UNL     1     -42.004  13.174   4.223  1.00  0.00    -0.338 N 
ATOM     12  H6  UNL     1     -41.177  12.717   4.610  1.00  0.00     0.168 HD
ENDROOT
BRANCH   1  13
HETATM   13  C5  UNL     1     -41.581  10.527   3.894  1.00  0.00     0.713 A 
HETATM   14  N2  UNL     1     -40.330  10.757   3.500  1.00  0.00    -0.019 N 
HETATM   15  C4  UNL     1     -39.242  10.115   4.037  1.00  0.00     0.729 A 
ATOM     16  H2  UNL     1     -40.173  11.443   2.761  1.00  0.00     0.203 HD
HETATM   17  N1  UNL     1     -38.134  10.423   3.579  1.00  0.00    -0.219 N 
HETATM   18  N10 UNL     1     -39.486   9.227   4.998  1.00  0.00     0.084 N 
ATOM     19  H1  UNL     1     -38.221  11.131   2.849  1.00  0.00     0.178 HD
HETATM   20  C11 UNL     1     -40.736   8.964   5.426  1.00  0.00     0.728 A 
HETATM   21  N7  UNL     1     -41.767   9.615   4.872  1.00  0.00    -0.019 N 
ATOM     22  H7  UNL     1     -42.714   9.417   5.196  1.00  0.00     0.203 HD
BRANCH  17  23
HETATM   23  C2  UNL     1     -36.796  10.071   3.784  1.00  0.00     0.091 C 
HETATM   24  C1  UNL     1     -35.988  10.506   2.561  1.00  0.00     0.032 C 
HETATM   25  C3  UNL     1     -36.166  10.750   4.994  1.00  0.00     0.032 C 
ENDBRANCH  17  23
BRANCH  18  26
HETATM   26  N11 UNL     1     -38.466   8.514   5.615  1.00  0.00    -0.309 N 
ATOM     27 2H11 UNL     1     -37.928   7.890   5.015  1.00  0.00     0.178 HD
ATOM     28 1H11 UNL     1     -38.267   8.611   6.611  1.00  0.00     0.178 HD
ENDBRANCH  18  26
BRANCH  20  29
HETATM   29  N8  UNL     1     -40.942   8.106   6.349  1.00  0.00    -0.223 N 
ATOM     30  H8  UNL     1     -40.523   7.177   6.295  1.00  0.00     0.177 HD
BRANCH  29  31
HETATM   31  C12 UNL     1     -41.776   8.468   7.470  1.00  0.00     0.140 C 
BRANCH  31  32
HETATM   32  C13 UNL     1     -41.135   8.066   8.783  1.00  0.00     0.047 C 
BRANCH  32  33
HETATM   33  C14 UNL     1     -39.884   8.912   8.935  1.00  0.00     0.231 C 
BRANCH  33  34
HETATM   34  N9  UNL     1     -39.881   9.618  10.207  1.00  0.00    -0.079 N 
ATOM     35  H93 UNL     1     -39.495   9.042  10.955  1.00  0.00     0.274 HD
ATOM     36  H92 UNL     1     -39.192  10.370  10.218  1.00  0.00     0.274 HD
ATOM     37  H91 UNL     1     -40.813   9.959  10.440  1.00  0.00     0.274 HD
ENDBRANCH  33  34
ENDBRANCH  32  33
ENDBRANCH  31  32
ENDBRANCH  29  31
ENDBRANCH  20  29
ENDBRANCH   1  13
TORSDOF 8
ENDMDL
MODEL 5
REMARK VINA RESULT: -5.721091854      1.859      2.735
REMARK  8 active torsions:
REMARK  status: ('A' for Active; 'I' for Inactive)
REMARK    1  A    between atoms: C2_2  and  N1_4 
REMARK    2  A    between atoms: C5_9  and  N3_10 
REMARK    3  A    between atoms: C11_24  and  N8_25 
REMARK    4  A    between atoms: N8_25  and  C12_27 
REMARK    5  A    between atoms: C12_27  and  C13_28 
REMARK    6  A    between atoms: C13_28  and  C14_29 
REMARK    7  A    between atoms: C14_29  and  N9_30 
REMARK    8  A    between atoms: N10_34  and  N11_35 
ROOT
HETATM    1  N3  UNL     1     -41.038  10.146   2.400  1.00  0.00    -0.175 N 
ATOM      2  H3  UNL     1     -41.335   9.265   2.817  1.00  0.00     0.186 HD
HETATM    3  C6  UNL     1     -41.703  11.235   2.650  1.00  0.00     0.124 A 
HETATM    4  C7  UNL     1     -42.810  11.233   3.472  1.00  0.00     0.090 A 
HETATM    5  C8  UNL     1     -43.526  12.394   3.743  1.00  0.00     0.118 A 
HETATM    6  C9  UNL     1     -44.688  12.368   4.610  1.00  0.00     0.117 C 
HETATM    7  N4  UNL     1     -45.613  12.331   5.314  1.00  0.00    -0.190 NA
HETATM    8  N5  UNL     1     -43.099  13.534   3.171  1.00  0.00    -0.344 N 
ATOM      9  H5  UNL     1     -43.600  14.404   3.347  1.00  0.00     0.167 HD
HETATM   10  C10 UNL     1     -42.009  13.540   2.362  1.00  0.00     0.183 A 
HETATM   11  N6  UNL     1     -41.325  12.405   2.108  1.00  0.00    -0.338 N 
ATOM     12  H6  UNL     1     -40.509  12.437   1.496  1.00  0.00     0.168 HD
ENDROOT
BRANCH   1  13
HETATM   13  C5  UNL     1     -39.904  10.178   1.553  1.00  0.00     0.713 A 
HETATM   14  N2  UNL     1     -39.887   9.745   0.294  1.00  0.00    -0.019 N 
HETATM   15  C4  UNL     1     -38.771   9.790  -0.503  1.00  0.00     0.729 A 
ATOM     16  H2  UNL     1     -40.748   9.361  -0.098  1.00  0.00     0.203 HD
HETATM   17  N1  UNL     1     -38.894   9.355  -1.656  1.00  0.00    -0.219 N 
HETATM   18  N10 UNL     1     -37.668  10.297   0.042  1.00  0.00     0.084 N 
ATOM     19  H1  UNL     1     -39.844   9.023  -1.825  1.00  0.00     0.178 HD
HETATM   20  C11 UNL     1     -37.640  10.745   1.311  1.00  0.00     0.728 A 
HETATM   21  N7  UNL     1     -38.755  10.682   2.052  1.00  0.00    -0.019 N 
ATOM     22  H7  UNL     1     -38.735  11.022   3.013  1.00  0.00     0.203 HD
BRANCH  17  23
HETATM   23  C2  UNL     1     -38.092   9.192  -2.790  1.00  0.00     0.091 C 
HETATM   24  C1  UNL     1     -37.367   7.849  -2.682  1.00  0.00     0.032 C 
HETATM   25  C3  UNL     1     -38.880   9.162  -4.094  1.00  0.00     0.032 C 
ENDBRANCH  17  23
BRANCH  18  26
HETATM   26  N11 UNL     1     -36.476  10.392  -0.665  1.00  0.00    -0.309 N 
ATOM     27 2H11 UNL     1     -36.508  10.097  -1.641  1.00  0.00     0.178 HD
ATOM     28 1H11 UNL     1     -35.619  10.738  -0.234  1.00  0.00     0.178 HD
ENDBRANCH  18  26
BRANCH  20  29
HETATM   29  N8  UNL     1     -36.567  11.226   1.810  1.00  0.00    -0.223 N 
ATOM     30  H8  UNL     1     -36.214  12.132   1.502  1.00  0.00     0.177 HD
BRANCH  29  31
HETATM   31  C12 UNL     1     -35.862  10.470   2.818  1.00  0.00     0.140 C 
BRANCH  31  32
HETATM   32  C13 UNL     1     -36.000  11.115   4.184  1.00  0.00     0.047 C 
BRANCH  32  33
HETATM   33  C14 UNL     1     -36.747  10.125   5.060  1.00  0.00     0.231 C 
BRANCH  33  34
HETATM   34  N9  UNL     1     -36.491   8.757   4.638  1.00  0.00    -0.079 N 
ATOM     35  H93 UNL     1     -36.475   8.673   3.621  1.00  0.00     0.274 HD
ATOM     36  H92 UNL     1     -35.529   8.477   4.832  1.00  0.00     0.274 HD
ATOM     37  H91 UNL     1     -37.161   8.113   5.057  1.00  0.00     0.274 HD
ENDBRANCH  33  34
ENDBRANCH  32  33
ENDBRANCH  31  32
ENDBRANCH  29  31
ENDBRANCH  20  29
ENDBRANCH   1  13
TORSDOF 8
ENDMDL
