MODEL 1
REMARK VINA RESULT: -5.978525468      0.000      0.000
REMARK  9 active torsions:
REMARK  status: ('A' for Active; 'I' for Inactive)
REMARK    1  A    between atoms: C2_2  and  N1_4 
REMARK    2  A    between atoms: N1_4  and  C4_6 
REMARK    3  A    between atoms: C5_9  and  S1_10 
REMARK    4  A    between atoms: S1_10  and  C6_11 
REMARK    5  A    between atoms: C10_20  and  N6_21 
REMARK    6  A    between atoms: N6_21  and  C11_23 
REMARK    7  A    between atoms: C11_23  and  C12_29 
REMARK    8  A    between atoms: N7_24  and  N8_26 
REMARK    9  A    between atoms: C12_29  and  N9_31 
ROOT
HETATM    1  C4  UNL     1     -41.195  11.777   3.294  1.00  0.00     0.695 A 
HETATM    2  N2  UNL     1     -41.003  11.983   1.979  1.00  0.00    -0.169 N 
ATOM      3  H2  UNL     1     -41.487  12.760   1.530  1.00  0.00     0.186 HD
HETATM    4  C5  UNL     1     -40.192  11.199   1.225  1.00  0.00     0.180 A 
HETATM    5  N5  UNL     1     -39.538  10.159   1.803  1.00  0.00    -0.169 N 
ATOM      6  H5  UNL     1     -38.923   9.557   1.255  1.00  0.00     0.186 HD
HETATM    7  C10 UNL     1     -39.721   9.943   3.115  1.00  0.00     0.700 A 
HETATM    8  N10 UNL     1     -40.531  10.735   3.838  1.00  0.00    -0.022 N 
ATOM      9  H10 UNL     1     -40.648  10.541   4.833  1.00  0.00     0.203 HD
ENDROOT
BRANCH   7  10
HETATM   10  N6  UNL     1     -39.100   8.957   3.659  1.00  0.00    -0.176 N 
ATOM     11  H6  UNL     1     -39.082   8.053   3.187  1.00  0.00     0.185 HD
BRANCH  10  12
HETATM   12  C11 UNL     1     -38.427   9.111   4.929  1.00  0.00     0.141 C 
HETATM   13  N7  UNL     1     -39.089   8.973   5.981  1.00  0.00    -0.293 N 
ATOM     14  H7  UNL     1     -40.071   8.758   5.806  1.00  0.00     0.187 HD
BRANCH  13  15
HETATM   15  N8  UNL     1     -38.793   9.045   7.302  1.00  0.00    -0.344 N 
ATOM     16  H82 UNL     1     -38.777   8.121   7.733  1.00  0.00     0.176 HD
ATOM     17  H81 UNL     1     -38.587   9.810   7.946  1.00  0.00     0.176 HD
ENDBRANCH  13  15
BRANCH  12  18
HETATM   18  C12 UNL     1     -37.005   9.420   4.865  1.00  0.00     0.248 C 
HETATM   19  C13 UNL     1     -36.605  10.839   5.064  1.00  0.00     0.048 C 
BRANCH  18  20
HETATM   20  N9  UNL     1     -36.407   8.910   3.621  1.00  0.00    -0.069 N 
ATOM     21  H93 UNL     1     -36.215   7.909   3.679  1.00  0.00     0.275 HD
ATOM     22  H92 UNL     1     -37.083   8.895   2.857  1.00  0.00     0.275 HD
ATOM     23  H91 UNL     1     -35.571   9.438   3.372  1.00  0.00     0.275 HD
ENDBRANCH  18  20
ENDBRANCH  12  18
ENDBRANCH  10  12
ENDBRANCH   7  10
BRANCH   4  24
HETATM   24  S1  UNL     1     -39.957  11.496  -0.512  1.00  0.00    -0.034 SA
BRANCH  24  25
HETATM   25  C6  UNL     1     -38.974  10.170  -1.228  1.00  0.00     0.095 A 
HETATM   26  C7  UNL     1     -39.456   9.141  -2.017  1.00  0.00     0.126 A 
HETATM   27  N3  UNL     1     -38.389   8.392  -2.325  1.00  0.00    -0.359 N 
HETATM   28  C8  UNL     1     -37.277   8.889  -1.780  1.00  0.00     0.183 A 
ATOM     29  H3  UNL     1     -38.422   7.551  -2.902  1.00  0.00     0.166 HD
HETATM   30  N4  UNL     1     -37.657   9.995  -1.100  1.00  0.00    -0.341 N 
HETATM   31  C9  UNL     1     -36.802  10.882  -0.338  1.00  0.00     0.158 C 
ENDBRANCH  24  25
ENDBRANCH   4  24
BRANCH   1  32
HETATM   32  N1  UNL     1     -41.974  12.542   3.976  1.00  0.00    -0.222 N 
ATOM     33  H1  UNL     1     -42.336  12.177   4.858  1.00  0.00     0.178 HD
BRANCH  32  34
HETATM   34  C2  UNL     1     -42.371  13.856   3.601  1.00  0.00     0.091 C 
HETATM   35  C1  UNL     1     -41.873  14.850   4.618  1.00  0.00     0.032 C 
HETATM   36  C3  UNL     1     -43.862  14.000   3.407  1.00  0.00     0.032 C 
ENDBRANCH  32  34
ENDBRANCH   1  32
TORSDOF 9
ENDMDL
MODEL 2
REMARK VINA RESULT: -5.834530556      1.572      5.846
REMARK  9 active torsions:
REMARK  status: ('A' for Active; 'I' for Inactive)
REMARK    1  A    between atoms: C2_2  and  N1_4 
REMARK    2  A    between atoms: N1_4  and  C4_6 
REMARK    3  A    between atoms: C5_9  and  S1_10 
REMARK    4  A    between atoms: S1_10  and  C6_11 
REMARK    5  A    between atoms: C10_20  and  N6_21 
REMARK    6  A    between atoms: N6_21  and  C11_23 
REMARK    7  A    between atoms: C11_23  and  C12_29 
REMARK    8  A    between atoms: N7_24  and  N8_26 
REMARK    9  A    between atoms: C12_29  and  N9_31 
ROOT
HETATM    1  C4  UNL     1     -39.116  10.212  -0.659  1.00  0.00     0.695 A 
HETATM    2  N2  UNL     1     -40.218  10.972  -0.529  1.00  0.00    -0.169 N 
ATOM      3  H2  UNL     1     -40.852  11.054  -1.323  1.00  0.00     0.186 HD
HETATM    4  C5  UNL     1     -40.522  11.633   0.616  1.00  0.00     0.180 A 
HETATM    5  N5  UNL     1     -39.691  11.536   1.687  1.00  0.00    -0.169 N 
ATOM      6  H5  UNL     1     -39.900  12.024   2.557  1.00  0.00     0.186 HD
HETATM    7  C10 UNL     1     -38.589  10.780   1.569  1.00  0.00     0.700 A 
HETATM    8  N10 UNL     1     -38.312  10.137   0.423  1.00  0.00    -0.022 N 
ATOM      9  H10 UNL     1     -37.464   9.571   0.368  1.00  0.00     0.203 HD
ENDROOT
BRANCH   7  10
HETATM   10  N6  UNL     1     -37.805  10.691   2.585  1.00  0.00    -0.176 N 
ATOM     11  H6  UNL     1     -36.962  11.264   2.621  1.00  0.00     0.185 HD
BRANCH  10  12
HETATM   12  C11 UNL     1     -38.100   9.790   3.676  1.00  0.00     0.141 C 
HETATM   13  N7  UNL     1     -39.153   9.118   3.633  1.00  0.00    -0.293 N 
ATOM     14  H7  UNL     1     -39.703   9.295   2.793  1.00  0.00     0.187 HD
BRANCH  13  15
HETATM   15  N8  UNL     1     -39.729   8.205   4.455  1.00  0.00    -0.344 N 
ATOM     16  H82 UNL     1     -39.101   7.424   4.644  1.00  0.00     0.176 HD
ATOM     17  H81 UNL     1     -40.636   8.133   4.917  1.00  0.00     0.176 HD
ENDBRANCH  13  15
BRANCH  12  18
HETATM   18  C12 UNL     1     -37.118   9.746   4.752  1.00  0.00     0.248 C 
HETATM   19  C13 UNL     1     -36.304  10.970   4.982  1.00  0.00     0.048 C 
BRANCH  18  20
HETATM   20  N9  UNL     1     -36.229   8.582   4.611  1.00  0.00    -0.069 N 
ATOM     21  H93 UNL     1     -35.967   8.198   5.519  1.00  0.00     0.275 HD
ATOM     22  H92 UNL     1     -36.725   7.774   4.236  1.00  0.00     0.275 HD
ATOM     23  H91 UNL     1     -35.409   8.812   4.050  1.00  0.00     0.275 HD
ENDBRANCH  18  20
ENDBRANCH  12  18
ENDBRANCH  10  12
ENDBRANCH   7  10
BRANCH   4  24
HETATM   24  S1  UNL     1     -41.987  12.630   0.760  1.00  0.00    -0.034 SA
BRANCH  24  25
HETATM   25  C6  UNL     1     -42.027  13.423   2.374  1.00  0.00     0.095 A 
HETATM   26  C7  UNL     1     -41.575  14.698   2.661  1.00  0.00     0.126 A 
HETATM   27  N3  UNL     1     -41.796  14.875   3.971  1.00  0.00    -0.359 N 
HETATM   28  C8  UNL     1     -42.356  13.793   4.515  1.00  0.00     0.183 A 
ATOM     29  H3  UNL     1     -41.567  15.725   4.485  1.00  0.00     0.166 HD
HETATM   30  N4  UNL     1     -42.493  12.897   3.509  1.00  0.00    -0.341 N 
HETATM   31  C9  UNL     1     -43.054  11.565   3.603  1.00  0.00     0.158 C 
ENDBRANCH  24  25
ENDBRANCH   4  24
BRANCH   1  32
HETATM   32  N1  UNL     1     -38.862   9.600  -1.763  1.00  0.00    -0.222 N 
ATOM     33  H1  UNL     1     -39.553   9.673  -2.510  1.00  0.00     0.178 HD
BRANCH  32  34
HETATM   34  C2  UNL     1     -37.694   8.831  -2.025  1.00  0.00     0.091 C 
HETATM   35  C1  UNL     1     -36.721   9.641  -2.842  1.00  0.00     0.032 C 
HETATM   36  C3  UNL     1     -37.984   7.512  -2.704  1.00  0.00     0.032 C 
ENDBRANCH  32  34
ENDBRANCH   1  32
TORSDOF 9
ENDMDL
MODEL 3
REMARK VINA RESULT: -5.811760653      2.096      5.289
REMARK  9 active torsions:
REMARK  status: ('A' for Active; 'I' for Inactive)
REMARK    1  A    between atoms: C2_2  and  N1_4 
REMARK    2  A    between atoms: N1_4  and  C4_6 
REMARK    3  A    between atoms: C5_9  and  S1_10 
REMARK    4  A    between atoms: S1_10  and  C6_11 
REMARK    5  A    between atoms: C10_20  and  N6_21 
REMARK    6  A    between atoms: N6_21  and  C11_23 
REMARK    7  A    between atoms: C11_23  and  C12_29 
REMARK    8  A    between atoms: N7_24  and  N8_26 
REMARK    9  A    between atoms: C12_29  and  N9_31 
ROOT
HETATM    1  C4  UNL     1     -41.946  12.752   2.497  1.00  0.00     0.695 A 
HETATM    2  N2  UNL     1     -42.105  11.698   3.316  1.00  0.00    -0.169 N 
ATOM      3  H2  UNL     1     -42.889  11.699   3.968  1.00  0.00     0.186 HD
HETATM    4  C5  UNL     1     -41.265  10.632   3.311  1.00  0.00     0.180 A 
HETATM    5  N5  UNL     1     -40.215  10.610   2.450  1.00  0.00    -0.169 N 
ATOM      6  H5  UNL     1     -39.572   9.819   2.429  1.00  0.00     0.186 HD
HETATM    7  C10 UNL     1     -40.046  11.657   1.627  1.00  0.00     0.700 A 
HETATM    8  N10 UNL     1     -40.892  12.700   1.653  1.00  0.00    -0.022 N 
ATOM      9  H10 UNL     1     -40.733  13.479   1.014  1.00  0.00     0.203 HD
ENDROOT
BRANCH   7  10
HETATM   10  N6  UNL     1     -39.050  11.632   0.813  1.00  0.00    -0.176 N 
ATOM     11  H6  UNL     1     -39.102  12.158  -0.059  1.00  0.00     0.185 HD
BRANCH  10  12
HETATM   12  C11 UNL     1     -37.861  10.870   1.115  1.00  0.00     0.141 C 
HETATM   13  N7  UNL     1     -37.058  11.317   1.963  1.00  0.00    -0.293 N 
ATOM     14  H7  UNL     1     -37.356  12.209   2.359  1.00  0.00     0.187 HD
BRANCH  13  15
HETATM   15  N8  UNL     1     -35.880  10.882   2.475  1.00  0.00    -0.344 N 
ATOM     16  H82 UNL     1     -35.709   9.905   2.240  1.00  0.00     0.176 HD
ATOM     17  H81 UNL     1     -35.143  11.313   3.033  1.00  0.00     0.176 HD
ENDBRANCH  13  15
BRANCH  12  18
HETATM   18  C12 UNL     1     -37.700   9.619   0.385  1.00  0.00     0.248 C 
HETATM   19  C13 UNL     1     -38.418   9.490  -0.912  1.00  0.00     0.048 C 
BRANCH  18  20
HETATM   20  N9  UNL     1     -38.014   8.463   1.239  1.00  0.00    -0.069 N 
ATOM     21  H93 UNL     1     -37.218   8.199   1.821  1.00  0.00     0.275 HD
ATOM     22  H92 UNL     1     -38.672   8.709   1.978  1.00  0.00     0.275 HD
ATOM     23  H91 UNL     1     -38.350   7.676   0.684  1.00  0.00     0.275 HD
ENDBRANCH  18  20
ENDBRANCH  12  18
ENDBRANCH  10  12
ENDBRANCH   7  10
BRANCH   4  24
HETATM   24  S1  UNL     1     -41.501   9.252   4.406  1.00  0.00    -0.034 SA
BRANCH  24  25
HETATM   25  C6  UNL     1     -40.148   9.176   5.589  1.00  0.00     0.095 A 
HETATM   26  C7  UNL     1     -38.811   9.391   5.305  1.00  0.00     0.126 A 
HETATM   27  N3  UNL     1     -38.164   9.236   6.468  1.00  0.00    -0.359 N 
HETATM   28  C8  UNL     1     -39.012   8.938   7.455  1.00  0.00     0.183 A 
ATOM     29  H3  UNL     1     -37.155   9.333   6.584  1.00  0.00     0.166 HD
HETATM   30  N4  UNL     1     -40.242   8.903   6.893  1.00  0.00    -0.341 N 
HETATM   31  C9  UNL     1     -41.495   8.621   7.562  1.00  0.00     0.158 C 
ENDBRANCH  24  25
ENDBRANCH   4  24
BRANCH   1  32
HETATM   32  N1  UNL     1     -42.764  13.746   2.532  1.00  0.00    -0.222 N 
ATOM     33  H1  UNL     1     -43.232  13.999   1.661  1.00  0.00     0.178 HD
BRANCH  32  34
HETATM   34  C2  UNL     1     -43.067  14.521   3.686  1.00  0.00     0.091 C 
HETATM   35  C1  UNL     1     -44.445  15.116   3.556  1.00  0.00     0.032 C 
HETATM   36  C3  UNL     1     -42.049  15.602   3.967  1.00  0.00     0.032 C 
ENDBRANCH  32  34
ENDBRANCH   1  32
TORSDOF 9
ENDMDL
MODEL 4
REMARK VINA RESULT: -5.787054833      2.595      5.730
REMARK  9 active torsions:
REMARK  status: ('A' for Active; 'I' for Inactive)
REMARK    1  A    between atoms: C2_2  and  N1_4 
REMARK    2  A    between atoms: N1_4  and  C4_6 
REMARK    3  A    between atoms: C5_9  and  S1_10 
REMARK    4  A    between atoms: S1_10  and  C6_11 
REMARK    5  A    between atoms: C10_20  and  N6_21 
REMARK    6  A    between atoms: N6_21  and  C11_23 
REMARK    7  A    between atoms: C11_23  and  C12_29 
REMARK    8  A    between atoms: N7_24  and  N8_26 
REMARK    9  A    between atoms: C12_29  and  N9_31 
ROOT
HETATM    1  C4  UNL     1     -41.895  11.955   2.973  1.00  0.00     0.695 A 
HETATM    2  N2  UNL     1     -42.300  11.039   3.870  1.00  0.00    -0.169 N 
ATOM      3  H2  UNL     1     -43.064  11.277   4.501  1.00  0.00     0.186 HD
HETATM    4  C5  UNL     1     -41.733   9.811   3.971  1.00  0.00     0.180 A 
HETATM    5  N5  UNL     1     -40.712   9.473   3.139  1.00  0.00    -0.169 N 
ATOM      6  H5  UNL     1     -40.272   8.555   3.198  1.00  0.00     0.186 HD
HETATM    7  C10 UNL     1     -40.300  10.379   2.239  1.00  0.00     0.700 A 
HETATM    8  N10 UNL     1     -40.879  11.589   2.162  1.00  0.00    -0.022 N 
ATOM      9  H10 UNL     1     -40.539  12.253   1.466  1.00  0.00     0.203 HD
ENDROOT
BRANCH   7  10
HETATM   10  N6  UNL     1     -39.334  10.055   1.454  1.00  0.00    -0.176 N 
ATOM     11  H6  UNL     1     -39.543   9.703   0.520  1.00  0.00     0.185 HD
BRANCH  10  12
HETATM   12  C11 UNL     1     -37.958  10.182   1.875  1.00  0.00     0.141 C 
HETATM   13  N7  UNL     1     -37.485   9.325   2.654  1.00  0.00    -0.293 N 
ATOM     14  H7  UNL     1     -38.162   8.606   2.909  1.00  0.00     0.187 HD
BRANCH  13  15
HETATM   15  N8  UNL     1     -36.274   9.138   3.235  1.00  0.00    -0.344 N 
ATOM     16  H82 UNL     1     -35.732  10.002   3.255  1.00  0.00     0.176 HD
ATOM     17  H81 UNL     1     -35.798   8.336   3.649  1.00  0.00     0.176 HD
ENDBRANCH  13  15
BRANCH  12  18
HETATM   18  C12 UNL     1     -37.229  11.325   1.341  1.00  0.00     0.248 C 
HETATM   19  C13 UNL     1     -38.020  12.371   0.639  1.00  0.00     0.048 C 
BRANCH  18  20
HETATM   20  N9  UNL     1     -36.116  10.889   0.482  1.00  0.00    -0.069 N 
ATOM     21  H93 UNL     1     -36.453  10.461  -0.381  1.00  0.00     0.275 HD
ATOM     22  H92 UNL     1     -35.619  11.683   0.078  1.00  0.00     0.275 HD
ATOM     23  H91 UNL     1     -35.483  10.268   0.987  1.00  0.00     0.275 HD
ENDBRANCH  18  20
ENDBRANCH  12  18
ENDBRANCH  10  12
ENDBRANCH   7  10
BRANCH   4  24
HETATM   24  S1  UNL     1     -42.289   8.619   5.166  1.00  0.00    -0.034 SA
BRANCH  24  25
HETATM   25  C6  UNL     1     -41.259   8.707   6.638  1.00  0.00     0.095 A 
HETATM   26  C7  UNL     1     -39.932   9.097   6.675  1.00  0.00     0.126 A 
HETATM   27  N3  UNL     1     -39.566   9.014   7.961  1.00  0.00    -0.359 N 
HETATM   28  C8  UNL     1     -40.578   8.599   8.724  1.00  0.00     0.183 A 
ATOM     29  H3  UNL     1     -38.634   9.240   8.311  1.00  0.00     0.166 HD
HETATM   30  N4  UNL     1     -41.625   8.411   7.887  1.00  0.00    -0.341 N 
HETATM   31  C9  UNL     1     -42.954   7.962   8.246  1.00  0.00     0.158 C 
ENDBRANCH  24  25
ENDBRANCH   4  24
BRANCH   1  32
HETATM   32  N1  UNL     1     -42.457  13.112   2.909  1.00  0.00    -0.222 N 
ATOM     33  H1  UNL     1     -42.549  13.537   1.986  1.00  0.00     0.178 HD
BRANCH  32  34
HETATM   34  C2  UNL     1     -42.962  13.843   4.020  1.00  0.00     0.091 C 
HETATM   35  C1  UNL     1     -44.177  14.631   3.604  1.00  0.00     0.032 C 
HETATM   36  C3  UNL     1     -41.935  14.752   4.655  1.00  0.00     0.032 C 
ENDBRANCH  32  34
ENDBRANCH   1  32
TORSDOF 9
ENDMDL
MODEL 5
REMARK VINA RESULT: -5.705068294      2.463      5.790
REMARK  9 active torsions:
REMARK  status: ('A' for Active; 'I' for Inactive)
REMARK    1  A    between atoms: C2_2  and  N1_4 
REMARK    2  A    between atoms: N1_4  and  C4_6 
REMARK    3  A    between atoms: C5_9  and  S1_10 
REMARK    4  A    between atoms: S1_10  and  C6_11 
REMARK    5  A    between atoms: C10_20  and  N6_21 
REMARK    6  A    between atoms: N6_21  and  C11_23 
REMARK    7  A    between atoms: C11_23  and  C12_29 
REMARK    8  A    between atoms: N7_24  and  N8_26 
REMARK    9  A    between atoms: C12_29  and  N9_31 
ROOT
HETATM    1  C4  UNL     1     -41.092  11.433  -0.705  1.00  0.00     0.695 A 
HETATM    2  N2  UNL     1     -40.180  10.531  -0.303  1.00  0.00    -0.169 N 
ATOM      3  H2  UNL     1     -39.891   9.803  -0.957  1.00  0.00     0.186 HD
HETATM    4  C5  UNL     1     -39.628  10.547   0.936  1.00  0.00     0.180 A 
HETATM    5  N5  UNL     1     -39.998  11.509   1.822  1.00  0.00    -0.169 N 
ATOM      6  H5  UNL     1     -39.596  11.540   2.758  1.00  0.00     0.186 HD
HETATM    7  C10 UNL     1     -40.907  12.416   1.432  1.00  0.00     0.700 A 
HETATM    8  N10 UNL     1     -41.439  12.375   0.199  1.00  0.00    -0.022 N 
ATOM      9  H10 UNL     1     -42.128  13.080  -0.064  1.00  0.00     0.203 HD
ENDROOT
BRANCH   7  10
HETATM   10  N6  UNL     1     -41.255  13.324   2.274  1.00  0.00    -0.176 N 
ATOM     11  H6  UNL     1     -40.770  14.220   2.274  1.00  0.00     0.185 HD
BRANCH  10  12
HETATM   12  C11 UNL     1     -42.323  13.093   3.219  1.00  0.00     0.141 C 
HETATM   13  N7  UNL     1     -42.892  11.979   3.224  1.00  0.00    -0.293 N 
ATOM     14  H7  UNL     1     -42.515  11.338   2.527  1.00  0.00     0.187 HD
BRANCH  13  15
HETATM   15  N8  UNL     1     -43.900  11.434   3.950  1.00  0.00    -0.344 N 
ATOM     16  H82 UNL     1     -43.554  11.009   4.810  1.00  0.00     0.176 HD
ATOM     17  H81 UNL     1     -44.910  11.359   3.824  1.00  0.00     0.176 HD
ENDBRANCH  13  15
BRANCH  12  18
HETATM   18  C12 UNL     1     -42.647  14.206   4.101  1.00  0.00     0.248 C 
HETATM   19  C13 UNL     1     -43.773  15.091   3.697  1.00  0.00     0.048 C 
BRANCH  18  20
HETATM   20  N9  UNL     1     -41.456  15.023   4.384  1.00  0.00    -0.069 N 
ATOM     21  H93 UNL     1     -40.656  14.726   3.824  1.00  0.00     0.275 HD
ATOM     22  H92 UNL     1     -41.556  15.971   4.023  1.00  0.00     0.275 HD
ATOM     23  H91 UNL     1     -41.238  15.022   5.380  1.00  0.00     0.275 HD
ENDBRANCH  18  20
ENDBRANCH  12  18
ENDBRANCH  10  12
ENDBRANCH   7  10
BRANCH   4  24
HETATM   24  S1  UNL     1     -38.424   9.341   1.439  1.00  0.00    -0.034 SA
BRANCH  24  25
HETATM   25  C6  UNL     1     -37.600   9.893   2.940  1.00  0.00     0.095 A 
HETATM   26  C7  UNL     1     -36.348  10.479   3.008  1.00  0.00     0.126 A 
HETATM   27  N3  UNL     1     -36.134  10.726   4.307  1.00  0.00    -0.359 N 
HETATM   28  C8  UNL     1     -37.171  10.334   5.049  1.00  0.00     0.183 A 
ATOM     29  H3  UNL     1     -35.289  11.159   4.680  1.00  0.00     0.166 HD
HETATM   30  N4  UNL     1     -38.075   9.816   4.185  1.00  0.00    -0.341 N 
HETATM   31  C9  UNL     1     -39.369   9.257   4.515  1.00  0.00     0.158 C 
ENDBRANCH  24  25
ENDBRANCH   4  24
BRANCH   1  32
HETATM   32  N1  UNL     1     -41.594  11.384  -1.890  1.00  0.00    -0.222 N 
ATOM     33  H1  UNL     1     -41.067  10.876  -2.602  1.00  0.00     0.178 HD
BRANCH  32  34
HETATM   34  C2  UNL     1     -42.824  11.980  -2.287  1.00  0.00     0.091 C 
HETATM   35  C1  UNL     1     -43.772  10.917  -2.777  1.00  0.00     0.032 C 
HETATM   36  C3  UNL     1     -42.657  13.061  -3.329  1.00  0.00     0.032 C 
ENDBRANCH  32  34
ENDBRANCH   1  32
TORSDOF 9
ENDMDL
