MODEL 1
REMARK VINA RESULT: -5.361123771      0.000      0.000
REMARK  2 active torsions:
REMARK  status: ('A' for Active; 'I' for Inactive)
REMARK    1  A    between atoms: C2_2  and  N2_5 
REMARK    2  A    between atoms: N2_5  and  C4_7 
ROOT
HETATM    1  C1  UNL     1      12.738  -3.577 -32.578  1.00  0.00     0.048 C 
HETATM    2  C2  UNL     1      13.102  -4.745 -33.456  1.00  0.00     0.183 C 
HETATM    3  C3  UNL     1      14.363  -5.291 -32.876  1.00  0.00     0.084 C 
HETATM    4  N1  UNL     1      15.343  -5.736 -32.436  1.00  0.00    -0.195 NA
ENDROOT
BRANCH   2   5
HETATM    5  N2  UNL     1      12.194  -5.808 -33.512  1.00  0.00    -0.374 N 
ATOM      6  H2  UNL     1      12.059  -6.397 -32.690  1.00  0.00     0.157 HD
BRANCH   5   7
HETATM    7  C4  UNL     1      11.464  -6.081 -34.682  1.00  0.00     0.149 A 
HETATM    8  C5  UNL     1      10.112  -5.454 -34.859  1.00  0.00     0.073 C 
HETATM    9  C6  UNL     1      11.720  -7.473 -35.269  1.00  0.00     0.231 A 
HETATM   10  O1  UNL     1      12.122  -6.307 -35.894  1.00  0.00    -0.355 OA
ENDBRANCH   5   7
ENDBRANCH   2   5
TORSDOF 2
ENDMDL
MODEL 2
REMARK VINA RESULT: -5.028102155      1.215      1.358
REMARK  2 active torsions:
REMARK  status: ('A' for Active; 'I' for Inactive)
REMARK    1  A    between atoms: C2_2  and  N2_5 
REMARK    2  A    between atoms: N2_5  and  C4_7 
ROOT
HETATM    1  C1  UNL     1      13.064  -3.537 -35.067  1.00  0.00     0.048 C 
HETATM    2  C2  UNL     1      13.304  -4.656 -34.091  1.00  0.00     0.183 C 
HETATM    3  C3  UNL     1      13.684  -3.986 -32.813  1.00  0.00     0.084 C 
HETATM    4  N1  UNL     1      13.975  -3.482 -31.807  1.00  0.00    -0.195 NA
ENDROOT
BRANCH   2   5
HETATM    5  N2  UNL     1      12.221  -5.492 -33.797  1.00  0.00    -0.374 N 
ATOM      6  H2  UNL     1      12.010  -5.715 -32.824  1.00  0.00     0.157 HD
BRANCH   5   7
HETATM    7  C4  UNL     1      11.419  -6.030 -34.818  1.00  0.00     0.149 A 
HETATM    8  C5  UNL     1      10.027  -5.502 -35.004  1.00  0.00     0.073 C 
HETATM    9  C6  UNL     1      11.702  -7.504 -35.124  1.00  0.00     0.231 A 
HETATM   10  O1  UNL     1      11.993  -6.482 -36.009  1.00  0.00    -0.355 OA
ENDBRANCH   5   7
ENDBRANCH   2   5
TORSDOF 2
ENDMDL
MODEL 3
REMARK VINA RESULT: -4.939496440      1.554      2.079
REMARK  2 active torsions:
REMARK  status: ('A' for Active; 'I' for Inactive)
REMARK    1  A    between atoms: C2_2  and  N2_5 
REMARK    2  A    between atoms: N2_5  and  C4_7 
ROOT
HETATM    1  C1  UNL     1      13.106  -3.768 -35.131  1.00  0.00     0.048 C 
HETATM    2  C2  UNL     1      13.041  -4.775 -34.014  1.00  0.00     0.183 C 
HETATM    3  C3  UNL     1      13.614  -4.079 -32.826  1.00  0.00     0.084 C 
HETATM    4  N1  UNL     1      14.052  -3.552 -31.887  1.00  0.00    -0.195 NA
ENDROOT
BRANCH   2   5
HETATM    5  N2  UNL     1      11.772  -5.231 -33.638  1.00  0.00    -0.374 N 
ATOM      6  H2  UNL     1      11.361  -4.901 -32.764  1.00  0.00     0.157 HD
BRANCH   5   7
HETATM    7  C4  UNL     1      11.055  -6.133 -34.441  1.00  0.00     0.149 A 
HETATM    8  C5  UNL     1      11.798  -7.227 -35.150  1.00  0.00     0.073 C 
HETATM    9  C6  UNL     1       9.812  -5.529 -35.104  1.00  0.00     0.231 A 
HETATM   10  O1  UNL     1       9.745  -6.491 -34.113  1.00  0.00    -0.355 OA
ENDBRANCH   5   7
ENDBRANCH   2   5
TORSDOF 2
ENDMDL
MODEL 4
REMARK VINA RESULT: -4.886271839      2.110      3.304
REMARK  2 active torsions:
REMARK  status: ('A' for Active; 'I' for Inactive)
REMARK    1  A    between atoms: C2_2  and  N2_5 
REMARK    2  A    between atoms: N2_5  and  C4_7 
ROOT
HETATM    1  C1  UNL     1      10.658  -5.106 -34.453  1.00  0.00     0.048 C 
HETATM    2  C2  UNL     1      12.131  -5.006 -34.159  1.00  0.00     0.183 C 
HETATM    3  C3  UNL     1      12.240  -4.031 -33.035  1.00  0.00     0.084 C 
HETATM    4  N1  UNL     1      12.345  -3.280 -32.154  1.00  0.00    -0.195 NA
ENDROOT
BRANCH   2   5
HETATM    5  N2  UNL     1      12.780  -6.173 -33.742  1.00  0.00    -0.374 N 
ATOM      6  H2  UNL     1      12.240  -6.914 -33.295  1.00  0.00     0.157 HD
BRANCH   5   7
HETATM    7  C4  UNL     1      14.162  -6.344 -33.928  1.00  0.00     0.149 A 
HETATM    8  C5  UNL     1      14.657  -6.937 -35.214  1.00  0.00     0.073 C 
HETATM    9  C6  UNL     1      14.938  -6.621 -32.635  1.00  0.00     0.231 A 
HETATM   10  O1  UNL     1      15.072  -5.450 -33.357  1.00  0.00    -0.355 OA
ENDBRANCH   5   7
ENDBRANCH   2   5
TORSDOF 2
ENDMDL
MODEL 5
REMARK VINA RESULT: -4.885774180      1.907      2.860
REMARK  2 active torsions:
REMARK  status: ('A' for Active; 'I' for Inactive)
REMARK    1  A    between atoms: C2_2  and  N2_5 
REMARK    2  A    between atoms: N2_5  and  C4_7 
ROOT
HETATM    1  C1  UNL     1      14.771  -6.984 -35.042  1.00  0.00     0.048 C 
HETATM    2  C2  UNL     1      13.962  -6.376 -33.928  1.00  0.00     0.183 C 
HETATM    3  C3  UNL     1      14.936  -6.142 -32.821  1.00  0.00     0.084 C 
HETATM    4  N1  UNL     1      15.679  -5.945 -31.950  1.00  0.00    -0.195 NA
ENDROOT
BRANCH   2   5
HETATM    5  N2  UNL     1      13.345  -5.146 -34.184  1.00  0.00    -0.374 N 
ATOM      6  H2  UNL     1      13.751  -4.517 -34.877  1.00  0.00     0.157 HD
BRANCH   5   7
HETATM    7  C4  UNL     1      12.177  -4.763 -33.505  1.00  0.00     0.149 A 
HETATM    8  C5  UNL     1      10.844  -5.030 -34.141  1.00  0.00     0.073 C 
HETATM    9  C6  UNL     1      12.344  -3.520 -32.626  1.00  0.00     0.231 A 
HETATM   10  O1  UNL     1      12.126  -4.784 -32.109  1.00  0.00    -0.355 OA
ENDBRANCH   5   7
ENDBRANCH   2   5
TORSDOF 2
ENDMDL
