MODEL 1
REMARK VINA RESULT: -5.466034176      0.000      0.000
REMARK  3 active torsions:
REMARK  status: ('A' for Active; 'I' for Inactive)
REMARK    1  A    between atoms: C2_2  and  C3_3 
REMARK    2  A    between atoms: C6_7  and  C7_8 
REMARK    3  A    between atoms: C7_8  and  N2_9 
ROOT
HETATM    1  C3  UNL     1      36.730   2.081   4.956  1.00  0.00     0.133 C 
HETATM    2  C4  UNL     1      38.180   1.997   5.145  1.00  0.00     0.059 C 
HETATM    3  N1  UNL     1      39.339   1.946   5.308  1.00  0.00    -0.197 NA
ENDROOT
BRANCH   1   4
HETATM    4  C2  UNL     1      36.285   0.831   4.198  1.00  0.00    -0.026 A 
HETATM    5  C1  UNL     1      36.919   0.696   2.843  1.00  0.00     0.016 C 
HETATM    6  C5  UNL     1      34.817   0.491   4.229  1.00  0.00     0.017 A 
HETATM    7  C6  UNL     1      35.819  -0.314   4.979  1.00  0.00     0.021 A 
BRANCH   7   8
HETATM    8  C7  UNL     1      36.134  -1.736   4.562  1.00  0.00     0.235 C 
BRANCH   8   9
HETATM    9  N2  UNL     1      37.398  -2.166   5.128  1.00  0.00    -0.079 N 
ATOM     10  H23 UNL     1      37.686  -3.073   4.762  1.00  0.00     0.274 HD
ATOM     11  H22 UNL     1      38.177  -1.607   4.782  1.00  0.00     0.274 HD
ATOM     12  H21 UNL     1      37.355  -2.166   6.147  1.00  0.00     0.274 HD
ENDBRANCH   8   9
ENDBRANCH   7   8
ENDBRANCH   1   4
TORSDOF 3
ENDMDL
MODEL 2
REMARK VINA RESULT: -5.317030550      1.942      2.148
REMARK  3 active torsions:
REMARK  status: ('A' for Active; 'I' for Inactive)
REMARK    1  A    between atoms: C2_2  and  C3_3 
REMARK    2  A    between atoms: C6_7  and  C7_8 
REMARK    3  A    between atoms: C7_8  and  N2_9 
ROOT
HETATM    1  C3  UNL     1      35.064   1.366   3.072  1.00  0.00     0.133 C 
HETATM    2  C4  UNL     1      35.470   2.616   3.719  1.00  0.00     0.059 C 
HETATM    3  N1  UNL     1      35.778   3.624   4.231  1.00  0.00    -0.197 NA
ENDROOT
BRANCH   1   4
HETATM    4  C2  UNL     1      36.098   0.299   3.426  1.00  0.00    -0.026 A 
HETATM    5  C1  UNL     1      37.407   0.473   2.707  1.00  0.00     0.016 C 
HETATM    6  C5  UNL     1      35.620  -1.128   3.501  1.00  0.00     0.017 A 
HETATM    7  C6  UNL     1      35.983  -0.363   4.724  1.00  0.00     0.021 A 
BRANCH   7   8
HETATM    8  C7  UNL     1      37.208  -0.736   5.533  1.00  0.00     0.235 C 
BRANCH   8   9
HETATM    9  N2  UNL     1      37.570  -2.121   5.303  1.00  0.00    -0.079 N 
ATOM     10  H23 UNL     1      37.219  -2.731   6.042  1.00  0.00     0.274 HD
ATOM     11  H22 UNL     1      37.057  -2.521   4.518  1.00  0.00     0.274 HD
ATOM     12  H21 UNL     1      38.579  -2.215   5.183  1.00  0.00     0.274 HD
ENDBRANCH   8   9
ENDBRANCH   7   8
ENDBRANCH   1   4
TORSDOF 3
ENDMDL
MODEL 3
REMARK VINA RESULT: -5.174027269      2.034      2.204
REMARK  3 active torsions:
REMARK  status: ('A' for Active; 'I' for Inactive)
REMARK    1  A    between atoms: C2_2  and  C3_3 
REMARK    2  A    between atoms: C6_7  and  C7_8 
REMARK    3  A    between atoms: C7_8  and  N2_9 
ROOT
HETATM    1  C3  UNL     1      36.618   1.775   4.508  1.00  0.00     0.133 C 
HETATM    2  C4  UNL     1      35.688   2.905   4.431  1.00  0.00     0.059 C 
HETATM    3  N1  UNL     1      34.960   3.820   4.372  1.00  0.00    -0.197 NA
ENDROOT
BRANCH   1   4
HETATM    4  C2  UNL     1      35.852   0.512   4.120  1.00  0.00    -0.026 A 
HETATM    5  C1  UNL     1      34.992   0.685   2.900  1.00  0.00     0.016 C 
HETATM    6  C5  UNL     1      35.196  -0.266   5.232  1.00  0.00     0.017 A 
HETATM    7  C6  UNL     1      36.404  -0.778   4.531  1.00  0.00     0.021 A 
BRANCH   7   8
HETATM    8  C7  UNL     1      36.318  -1.996   3.635  1.00  0.00     0.235 C 
BRANCH   8   9
HETATM    9  N2  UNL     1      35.569  -3.055   4.282  1.00  0.00    -0.079 N 
ATOM     10  H23 UNL     1      35.792  -3.123   5.275  1.00  0.00     0.274 HD
ATOM     11  H22 UNL     1      34.579  -2.824   4.362  1.00  0.00     0.274 HD
ATOM     12  H21 UNL     1      35.712  -3.943   3.801  1.00  0.00     0.274 HD
ENDBRANCH   8   9
ENDBRANCH   7   8
ENDBRANCH   1   4
TORSDOF 3
ENDMDL
MODEL 4
REMARK VINA RESULT: -5.153005179      2.128      3.166
REMARK  3 active torsions:
REMARK  status: ('A' for Active; 'I' for Inactive)
REMARK    1  A    between atoms: C2_2  and  C3_3 
REMARK    2  A    between atoms: C6_7  and  C7_8 
REMARK    3  A    between atoms: C7_8  and  N2_9 
ROOT
HETATM    1  C3  UNL     1      36.273   2.171   2.956  1.00  0.00     0.133 C 
HETATM    2  C4  UNL     1      35.001   1.507   2.657  1.00  0.00     0.059 C 
HETATM    3  N1  UNL     1      33.985   0.984   2.401  1.00  0.00    -0.197 NA
ENDROOT
BRANCH   1   4
HETATM    4  C2  UNL     1      36.726   1.712   4.340  1.00  0.00    -0.026 A 
HETATM    5  C1  UNL     1      35.952   2.344   5.463  1.00  0.00     0.016 C 
HETATM    6  C5  UNL     1      38.210   1.623   4.587  1.00  0.00     0.017 A 
HETATM    7  C6  UNL     1      37.368   0.404   4.452  1.00  0.00     0.021 A 
BRANCH   7   8
HETATM    8  C7  UNL     1      37.122  -0.499   5.644  1.00  0.00     0.235 C 
BRANCH   8   9
HETATM    9  N2  UNL     1      37.441  -1.875   5.318  1.00  0.00    -0.079 N 
ATOM     10  H23 UNL     1      36.772  -2.272   4.659  1.00  0.00     0.274 HD
ATOM     11  H22 UNL     1      38.281  -1.942   4.742  1.00  0.00     0.274 HD
ATOM     12  H21 UNL     1      37.517  -2.438   6.165  1.00  0.00     0.274 HD
ENDBRANCH   8   9
ENDBRANCH   7   8
ENDBRANCH   1   4
TORSDOF 3
ENDMDL
MODEL 5
REMARK VINA RESULT: -5.003938937      2.012      3.912
REMARK  3 active torsions:
REMARK  status: ('A' for Active; 'I' for Inactive)
REMARK    1  A    between atoms: C2_2  and  C3_3 
REMARK    2  A    between atoms: C6_7  and  C7_8 
REMARK    3  A    between atoms: C7_8  and  N2_9 
ROOT
HETATM    1  C3  UNL     1      37.203  -0.371   5.630  1.00  0.00     0.133 C 
HETATM    2  C4  UNL     1      36.363  -1.388   4.991  1.00  0.00     0.059 C 
HETATM    3  N1  UNL     1      35.693  -2.211   4.496  1.00  0.00    -0.197 NA
ENDROOT
BRANCH   1   4
HETATM    4  C2  UNL     1      37.229   0.854   4.717  1.00  0.00    -0.026 A 
HETATM    5  C1  UNL     1      37.593   0.532   3.295  1.00  0.00     0.016 C 
HETATM    6  C5  UNL     1      37.883   2.101   5.254  1.00  0.00     0.017 A 
HETATM    7  C6  UNL     1      36.407   2.004   5.090  1.00  0.00     0.021 A 
BRANCH   7   8
HETATM    8  C7  UNL     1      35.691   2.835   4.046  1.00  0.00     0.235 C 
BRANCH   8   9
HETATM    9  N2  UNL     1      34.927   3.896   4.672  1.00  0.00    -0.079 N 
ATOM     10  H23 UNL     1      34.449   3.572   5.513  1.00  0.00     0.274 HD
ATOM     11  H22 UNL     1      35.533   4.596   5.100  1.00  0.00     0.274 HD
ATOM     12  H21 UNL     1      34.278   4.315   4.006  1.00  0.00     0.274 HD
ENDBRANCH   8   9
ENDBRANCH   7   8
ENDBRANCH   1   4
TORSDOF 3
ENDMDL
