MODEL 1
REMARK VINA RESULT: -7.703247718      0.000      0.000
REMARK  3 active torsions:
REMARK  status: ('A' for Active; 'I' for Inactive)
REMARK    1  A    between atoms: C4_5  and  C5_6 
REMARK    2  A    between atoms: C5_6  and  N1_7 
REMARK       I    between atoms: N1_7  and  C6_9 
REMARK       I    between atoms: C6_9  and  N3_17 
REMARK    3  A    between atoms: N2_10  and  C7_12 
ROOT
HETATM    1  N1  UNL     1     -30.487  -6.220  -3.947  1.00  0.00    -0.221 N 
ATOM      2  H1  UNL     1     -31.467  -6.352  -4.201  1.00  0.00     0.177 HD
HETATM    3  C6  UNL     1     -29.472  -6.231  -4.942  1.00  0.00     0.687 C 
HETATM    4  N2  UNL     1     -29.174  -7.214  -5.692  1.00  0.00    -0.189 N 
ATOM      5  H2  UNL     1     -28.416  -7.046  -6.354  1.00  0.00     0.184 HD
HETATM    6  N3  UNL     1     -28.675  -5.050  -5.167  1.00  0.00    -0.126 N 
ATOM      7  H3  UNL     1     -27.887  -4.819  -4.563  1.00  0.00     0.197 HD
HETATM    8  C11 UNL     1     -29.025  -4.241  -6.238  1.00  0.00     0.196 C 
HETATM    9  N4  UNL     1     -29.322  -3.573  -7.136  1.00  0.00    -0.171 NA
ENDROOT
BRANCH   1  10
HETATM   10  C5  UNL     1     -30.102  -6.017  -2.565  1.00  0.00     0.199 C 
BRANCH  10  11
HETATM   11  C4  UNL     1     -30.461  -7.208  -1.706  1.00  0.00     0.339 C 
HETATM   12  O1  UNL     1     -31.825  -7.468  -1.718  1.00  0.00    -0.356 OA
HETATM   13  C3  UNL     1     -32.085  -8.159  -0.547  1.00  0.00     0.203 C 
HETATM   14  C2  UNL     1     -30.942  -7.849   0.396  1.00  0.00     0.208 C 
HETATM   15  C1  UNL     1     -31.407  -7.441   1.763  1.00  0.00     0.042 C 
HETATM   16  N5  UNL     1     -30.278  -6.762  -0.314  1.00  0.00    -0.041 N 
ATOM     17  H52 UNL     1     -30.616  -5.823  -0.102  1.00  0.00     0.280 HD
ATOM     18  H51 UNL     1     -29.316  -6.571  -0.032  1.00  0.00     0.280 HD
ENDBRANCH  10  11
ENDBRANCH   1  10
BRANCH   4  19
HETATM   19  C7  UNL     1     -29.736  -8.492  -5.736  1.00  0.00     0.073 A 
HETATM   20  C8  UNL     1     -30.905  -8.908  -5.132  1.00  0.00     0.056 A 
HETATM   21  C9  UNL     1     -31.091 -10.248  -5.430  1.00  0.00     0.143 A 
HETATM   22  O2  UNL     1     -30.086 -10.625  -6.177  1.00  0.00    -0.332 OA
HETATM   23  C10 UNL     1     -29.260  -9.632  -6.387  1.00  0.00     0.171 A 
ENDBRANCH   4  19
TORSDOF 3
ENDMDL
MODEL 2
REMARK VINA RESULT: -7.612492250      2.122      3.710
REMARK  3 active torsions:
REMARK  status: ('A' for Active; 'I' for Inactive)
REMARK    1  A    between atoms: C4_5  and  C5_6 
REMARK    2  A    between atoms: C5_6  and  N1_7 
REMARK       I    between atoms: N1_7  and  C6_9 
REMARK       I    between atoms: C6_9  and  N3_17 
REMARK    3  A    between atoms: N2_10  and  C7_12 
ROOT
HETATM    1  N1  UNL     1     -29.327  -7.081  -3.560  1.00  0.00    -0.221 N 
ATOM      2  H1  UNL     1     -28.341  -7.301  -3.417  1.00  0.00     0.177 HD
HETATM    3  C6  UNL     1     -29.995  -7.481  -4.749  1.00  0.00     0.687 C 
HETATM    4  N2  UNL     1     -29.711  -7.099  -5.929  1.00  0.00    -0.189 N 
ATOM      5  H2  UNL     1     -30.296  -7.489  -6.668  1.00  0.00     0.184 HD
HETATM    6  N3  UNL     1     -31.103  -8.401  -4.674  1.00  0.00    -0.126 N 
ATOM      7  H3  UNL     1     -32.039  -8.084  -4.421  1.00  0.00     0.197 HD
HETATM    8  C11 UNL     1     -30.845  -9.733  -4.961  1.00  0.00     0.196 C 
HETATM    9  N4  UNL     1     -30.621 -10.842  -5.205  1.00  0.00    -0.171 NA
ENDROOT
BRANCH   1  10
HETATM   10  C5  UNL     1     -30.075  -6.353  -2.555  1.00  0.00     0.199 C 
BRANCH  10  11
HETATM   11  C4  UNL     1     -30.867  -7.285  -1.666  1.00  0.00     0.339 C 
HETATM   12  O1  UNL     1     -32.102  -6.752  -1.320  1.00  0.00    -0.356 OA
HETATM   13  C3  UNL     1     -32.466  -7.383  -0.143  1.00  0.00     0.203 C 
HETATM   14  C2  UNL     1     -31.189  -7.917   0.470  1.00  0.00     0.208 C 
HETATM   15  C1  UNL     1     -31.047  -7.569   1.921  1.00  0.00     0.042 C 
HETATM   16  N5  UNL     1     -30.184  -7.263  -0.361  1.00  0.00    -0.041 N 
ATOM     17  H52 UNL     1     -29.872  -6.346  -0.040  1.00  0.00     0.280 HD
ATOM     18  H51 UNL     1     -29.253  -7.681  -0.341  1.00  0.00     0.280 HD
ENDBRANCH  10  11
ENDBRANCH   1  10
BRANCH   4  19
HETATM   19  C7  UNL     1     -28.712  -6.221  -6.354  1.00  0.00     0.073 A 
HETATM   20  C8  UNL     1     -28.684  -4.851  -6.195  1.00  0.00     0.056 A 
HETATM   21  C9  UNL     1     -27.516  -4.373  -6.765  1.00  0.00     0.143 A 
HETATM   22  O2  UNL     1     -26.868  -5.402  -7.246  1.00  0.00    -0.332 OA
HETATM   23  C10 UNL     1     -27.526  -6.513  -7.032  1.00  0.00     0.171 A 
ENDBRANCH   4  19
TORSDOF 3
ENDMDL
MODEL 3
REMARK VINA RESULT: -7.534622910      2.576      6.660
REMARK  3 active torsions:
REMARK  status: ('A' for Active; 'I' for Inactive)
REMARK    1  A    between atoms: C4_5  and  C5_6 
REMARK    2  A    between atoms: C5_6  and  N1_7 
REMARK       I    between atoms: N1_7  and  C6_9 
REMARK       I    between atoms: C6_9  and  N3_17 
REMARK    3  A    between atoms: N2_10  and  C7_12 
ROOT
HETATM    1  N1  UNL     1     -29.675  -5.913  -5.459  1.00  0.00    -0.221 N 
ATOM      2  H1  UNL     1     -30.636  -5.624  -5.640  1.00  0.00     0.177 HD
HETATM    3  C6  UNL     1     -29.392  -7.197  -4.920  1.00  0.00     0.687 C 
HETATM    4  N2  UNL     1     -29.764  -7.627  -3.782  1.00  0.00    -0.189 N 
ATOM      5  H2  UNL     1     -29.471  -8.578  -3.555  1.00  0.00     0.184 HD
HETATM    6  N3  UNL     1     -28.615  -8.141  -5.685  1.00  0.00    -0.126 N 
ATOM      7  H3  UNL     1     -27.597  -8.085  -5.722  1.00  0.00     0.197 HD
HETATM    8  C11 UNL     1     -29.309  -9.128  -6.370  1.00  0.00     0.196 C 
HETATM    9  N4  UNL     1     -29.896  -9.950  -6.936  1.00  0.00    -0.171 NA
ENDROOT
BRANCH   1  10
HETATM   10  C5  UNL     1     -28.569  -5.021  -5.745  1.00  0.00     0.199 C 
BRANCH  10  11
HETATM   11  C4  UNL     1     -27.889  -5.376  -7.048  1.00  0.00     0.339 C 
HETATM   12  O1  UNL     1     -26.562  -4.964  -7.073  1.00  0.00    -0.356 OA
HETATM   13  C3  UNL     1     -26.234  -4.838  -8.412  1.00  0.00     0.203 C 
HETATM   14  C2  UNL     1     -27.541  -4.683  -9.160  1.00  0.00     0.208 C 
HETATM   15  C1  UNL     1     -27.530  -3.534 -10.123  1.00  0.00     0.042 C 
HETATM   16  N5  UNL     1     -28.474  -4.477  -8.058  1.00  0.00    -0.041 N 
ATOM     17  H52 UNL     1     -28.607  -3.509  -7.765  1.00  0.00     0.280 HD
ATOM     18  H51 UNL     1     -29.458  -4.636  -8.275  1.00  0.00     0.280 HD
ENDBRANCH  10  11
ENDBRANCH   1  10
BRANCH   4  19
HETATM   19  C7  UNL     1     -30.516  -6.981  -2.799  1.00  0.00     0.073 A 
HETATM   20  C8  UNL     1     -31.286  -7.572  -1.818  1.00  0.00     0.056 A 
HETATM   21  C9  UNL     1     -31.862  -6.567  -1.058  1.00  0.00     0.143 A 
HETATM   22  O2  UNL     1     -31.461  -5.425  -1.552  1.00  0.00    -0.332 OA
HETATM   23  C10 UNL     1     -30.668  -5.610  -2.577  1.00  0.00     0.171 A 
ENDBRANCH   4  19
TORSDOF 3
ENDMDL
MODEL 4
REMARK VINA RESULT: -7.471731432      2.180      3.911
REMARK  3 active torsions:
REMARK  status: ('A' for Active; 'I' for Inactive)
REMARK    1  A    between atoms: C4_5  and  C5_6 
REMARK    2  A    between atoms: C5_6  and  N1_7 
REMARK       I    between atoms: N1_7  and  C6_9 
REMARK       I    between atoms: C6_9  and  N3_17 
REMARK    3  A    between atoms: N2_10  and  C7_12 
ROOT
HETATM    1  N1  UNL     1     -29.039  -6.540  -3.610  1.00  0.00    -0.221 N 
ATOM      2  H1  UNL     1     -28.028  -6.673  -3.643  1.00  0.00     0.177 HD
HETATM    3  C6  UNL     1     -29.850  -6.863  -4.732  1.00  0.00     0.687 C 
HETATM    4  N2  UNL     1     -29.788  -6.317  -5.879  1.00  0.00    -0.189 N 
ATOM      5  H2  UNL     1     -30.448  -6.675  -6.570  1.00  0.00     0.184 HD
HETATM    6  N3  UNL     1     -30.852  -7.894  -4.619  1.00  0.00    -0.126 N 
ATOM      7  H3  UNL     1     -31.759  -7.708  -4.192  1.00  0.00     0.197 HD
HETATM    8  C11 UNL     1     -30.532  -9.150  -5.114  1.00  0.00     0.196 C 
HETATM    9  N4  UNL     1     -30.257 -10.193  -5.533  1.00  0.00    -0.171 NA
ENDROOT
BRANCH   1  10
HETATM   10  C5  UNL     1     -29.678  -6.017  -2.419  1.00  0.00     0.199 C 
BRANCH  10  11
HETATM   11  C4  UNL     1     -30.455  -7.088  -1.688  1.00  0.00     0.339 C 
HETATM   12  O1  UNL     1     -31.809  -6.787  -1.609  1.00  0.00    -0.356 OA
HETATM   13  C3  UNL     1     -32.286  -7.490  -0.516  1.00  0.00     0.203 C 
HETATM   14  C2  UNL     1     -31.085  -7.799   0.352  1.00  0.00     0.208 C 
HETATM   15  C1  UNL     1     -31.303  -7.453   1.795  1.00  0.00     0.042 C 
HETATM   16  N5  UNL     1     -30.064  -6.965  -0.273  1.00  0.00    -0.041 N 
ATOM     17  H52 UNL     1     -29.991  -6.012   0.085  1.00  0.00     0.280 HD
ATOM     18  H51 UNL     1     -29.098  -7.211  -0.057  1.00  0.00     0.280 HD
ENDBRANCH  10  11
ENDBRANCH   1  10
BRANCH   4  19
HETATM   19  C7  UNL     1     -28.945  -5.297  -6.325  1.00  0.00     0.073 A 
HETATM   20  C8  UNL     1     -27.650  -5.429  -6.784  1.00  0.00     0.056 A 
HETATM   21  C9  UNL     1     -27.182  -4.169  -7.122  1.00  0.00     0.143 A 
HETATM   22  O2  UNL     1     -28.145  -3.318  -6.882  1.00  0.00    -0.332 OA
HETATM   23  C10 UNL     1     -29.204  -3.928  -6.412  1.00  0.00     0.171 A 
ENDBRANCH   4  19
TORSDOF 3
ENDMDL
MODEL 5
REMARK VINA RESULT: -7.367071160      1.307      1.675
REMARK  3 active torsions:
REMARK  status: ('A' for Active; 'I' for Inactive)
REMARK    1  A    between atoms: C4_5  and  C5_6 
REMARK    2  A    between atoms: C5_6  and  N1_7 
REMARK       I    between atoms: N1_7  and  C6_9 
REMARK       I    between atoms: C6_9  and  N3_17 
REMARK    3  A    between atoms: N2_10  and  C7_12 
ROOT
HETATM    1  N1  UNL     1     -29.651  -5.921  -4.200  1.00  0.00    -0.221 N 
ATOM      2  H1  UNL     1     -30.671  -5.891  -4.172  1.00  0.00     0.177 HD
HETATM    3  C6  UNL     1     -28.967  -6.212  -5.411  1.00  0.00     0.687 C 
HETATM    4  N2  UNL     1     -29.042  -7.299  -6.067  1.00  0.00    -0.189 N 
ATOM      5  H2  UNL     1     -28.481  -7.337  -6.919  1.00  0.00     0.184 HD
HETATM    6  N3  UNL     1     -28.091  -5.226  -5.996  1.00  0.00    -0.126 N 
ATOM      7  H3  UNL     1     -27.140  -5.091  -5.653  1.00  0.00     0.197 HD
HETATM    8  C11 UNL     1     -28.595  -4.469  -7.043  1.00  0.00     0.196 C 
HETATM    9  N4  UNL     1     -29.024  -3.844  -7.918  1.00  0.00    -0.171 NA
ENDROOT
BRANCH   1  10
HETATM   10  C5  UNL     1     -28.871  -5.666  -3.006  1.00  0.00     0.199 C 
BRANCH  10  11
HETATM   11  C4  UNL     1     -29.717  -5.761  -1.756  1.00  0.00     0.339 C 
HETATM   12  O1  UNL     1     -29.066  -6.445  -0.737  1.00  0.00    -0.356 OA
HETATM   13  C3  UNL     1     -30.067  -6.928   0.088  1.00  0.00     0.203 C 
HETATM   14  C2  UNL     1     -31.331  -6.958  -0.745  1.00  0.00     0.208 C 
HETATM   15  C1  UNL     1     -32.061  -8.265  -0.653  1.00  0.00     0.042 C 
HETATM   16  N5  UNL     1     -30.796  -6.711  -2.078  1.00  0.00    -0.041 N 
ATOM     17  H52 UNL     1     -30.514  -7.539  -2.603  1.00  0.00     0.280 HD
ATOM     18  H51 UNL     1     -31.471  -6.395  -2.775  1.00  0.00     0.280 HD
ENDBRANCH  10  11
ENDBRANCH   1  10
BRANCH   4  19
HETATM   19  C7  UNL     1     -29.785  -8.448  -5.787  1.00  0.00     0.073 A 
HETATM   20  C8  UNL     1     -29.583  -9.715  -6.298  1.00  0.00     0.056 A 
HETATM   21  C9  UNL     1     -30.544 -10.555  -5.760  1.00  0.00     0.143 A 
HETATM   22  O2  UNL     1     -31.290  -9.834  -4.963  1.00  0.00    -0.332 OA
HETATM   23  C10 UNL     1     -30.888  -8.589  -4.943  1.00  0.00     0.171 A 
ENDBRANCH   4  19
TORSDOF 3
ENDMDL
