MODEL 1
REMARK VINA RESULT: -6.606737990      0.000      0.000
REMARK  10 active torsions:
REMARK  status: ('A' for Active; 'I' for Inactive)
REMARK    1  A    between atoms: C2_2  and  O1_3 
REMARK    2  A    between atoms: O1_3  and  C3_4 
REMARK    3  A    between atoms: C3_4  and  C4_6 
REMARK    4  A    between atoms: C5_8  and  N1_9 
REMARK       I    between atoms: N1_9  and  C6_11 
REMARK    5  A    between atoms: C6_11  and  C7_13 
REMARK    6  A    between atoms: C7_13  and  C8_14 
REMARK    7  A    between atoms: C7_13  and  C10_18 
REMARK    8  A    between atoms: C8_14  and  O4_16 
REMARK    9  A    between atoms: C13_21  and  C14_22 
REMARK   10  A    between atoms: C14_22  and  O6_24 
ROOT
HETATM    1  C4  UNL     1     -31.263  73.824   6.247  1.00  0.00     0.089 A 
HETATM    2  S1  UNL     1     -31.293  75.482   5.850  1.00  0.00    -0.065 SA
HETATM    3  C5  UNL     1     -32.247  76.069   7.144  1.00  0.00     0.094 A 
HETATM    4  C13 UNL     1     -32.526  74.951   7.867  1.00  0.00     0.080 A 
HETATM    5  C16 UNL     1     -32.006  73.779   7.387  1.00  0.00    -0.020 A 
HETATM    6  C17 UNL     1     -32.267  72.464   8.122  1.00  0.00     0.051 C 
ENDROOT
BRANCH   3   7
HETATM    7  N1  UNL     1     -32.625  77.462   7.345  1.00  0.00    -0.316 N 
HETATM    8  C6  UNL     1     -31.577  78.402   7.327  1.00  0.00     0.259 C 
HETATM    9  O3  UNL     1     -30.395  77.960   7.137  1.00  0.00    -0.267 OA
ATOM     10  H1  UNL     1     -33.596  77.740   7.491  1.00  0.00     0.169 HD
BRANCH   8  11
HETATM   11  C7  UNL     1     -31.733  79.861   7.510  1.00  0.00     0.062 C 
BRANCH  11  12
HETATM   12  C8  UNL     1     -32.240  80.664   6.416  1.00  0.00     0.055 C 
HETATM   13  C9  UNL     1     -33.581  81.193   6.247  1.00  0.00     0.077 C 
BRANCH  12  14
HETATM   14  O4  UNL     1     -31.390  80.943   5.471  1.00  0.00    -0.364 OA
ATOM     15  H4  UNL     1     -31.743  80.979   4.589  1.00  0.00     0.217 HD
ENDBRANCH  12  14
ENDBRANCH  11  12
BRANCH  11  16
HETATM   16  C10 UNL     1     -31.408  80.409   8.670  1.00  0.00    -0.070 C 
HETATM   17  C11 UNL     1     -30.325  81.409   8.871  1.00  0.00     0.044 C 
HETATM   18  C12 UNL     1     -32.135  80.055   9.936  1.00  0.00     0.044 C 
ENDBRANCH  11  16
ENDBRANCH   8  11
ENDBRANCH   3   7
BRANCH   4  19
HETATM   19  C14 UNL     1     -33.348  75.008   9.107  1.00  0.00     0.296 C 
HETATM   20  O5  UNL     1     -32.996  74.483  10.197  1.00  0.00    -0.259 OA
BRANCH  19  21
HETATM   21  O6  UNL     1     -34.543  75.652   9.104  1.00  0.00    -0.322 OA
HETATM   22  C15 UNL     1     -34.949  76.573  10.088  1.00  0.00     0.213 C 
ENDBRANCH  19  21
ENDBRANCH   4  19
BRANCH   1  23
HETATM   23  C3  UNL     1     -30.571  72.775   5.478  1.00  0.00     0.300 C 
HETATM   24  O2  UNL     1     -30.477  72.968   4.225  1.00  0.00    -0.259 OA
BRANCH  23  25
HETATM   25  O1  UNL     1     -30.023  71.627   5.949  1.00  0.00    -0.317 OA
BRANCH  25  26
HETATM   26  C2  UNL     1     -29.258  70.804   5.122  1.00  0.00     0.174 C 
HETATM   27  C1  UNL     1     -27.776  70.887   5.435  1.00  0.00     0.034 C 
ENDBRANCH  25  26
ENDBRANCH  23  25
ENDBRANCH   1  23
TORSDOF 10
ENDMDL
MODEL 2
REMARK VINA RESULT: -6.602972522      0.827      1.774
REMARK  10 active torsions:
REMARK  status: ('A' for Active; 'I' for Inactive)
REMARK    1  A    between atoms: C2_2  and  O1_3 
REMARK    2  A    between atoms: O1_3  and  C3_4 
REMARK    3  A    between atoms: C3_4  and  C4_6 
REMARK    4  A    between atoms: C5_8  and  N1_9 
REMARK       I    between atoms: N1_9  and  C6_11 
REMARK    5  A    between atoms: C6_11  and  C7_13 
REMARK    6  A    between atoms: C7_13  and  C8_14 
REMARK    7  A    between atoms: C7_13  and  C10_18 
REMARK    8  A    between atoms: C8_14  and  O4_16 
REMARK    9  A    between atoms: C13_21  and  C14_22 
REMARK   10  A    between atoms: C14_22  and  O6_24 
ROOT
HETATM    1  C4  UNL     1     -31.265  73.847   6.225  1.00  0.00     0.089 A 
HETATM    2  S1  UNL     1     -31.312  75.508   5.848  1.00  0.00    -0.065 SA
HETATM    3  C5  UNL     1     -32.266  76.073   7.152  1.00  0.00     0.094 A 
HETATM    4  C13 UNL     1     -32.531  74.944   7.863  1.00  0.00     0.080 A 
HETATM    5  C16 UNL     1     -32.002  73.782   7.368  1.00  0.00    -0.020 A 
HETATM    6  C17 UNL     1     -32.248  72.456   8.090  1.00  0.00     0.051 C 
ENDROOT
BRANCH   3   7
HETATM    7  N1  UNL     1     -32.655  77.459   7.371  1.00  0.00    -0.316 N 
HETATM    8  C6  UNL     1     -31.615  78.408   7.370  1.00  0.00     0.259 C 
HETATM    9  O3  UNL     1     -30.429  77.978   7.180  1.00  0.00    -0.267 OA
ATOM     10  H1  UNL     1     -33.629  77.728   7.516  1.00  0.00     0.169 HD
BRANCH   8  11
HETATM   11  C7  UNL     1     -31.783  79.863   7.572  1.00  0.00     0.062 C 
BRANCH  11  12
HETATM   12  C8  UNL     1     -31.006  80.533   8.594  1.00  0.00     0.055 C 
HETATM   13  C9  UNL     1     -31.495  81.231   9.770  1.00  0.00     0.077 C 
BRANCH  12  14
HETATM   14  O4  UNL     1     -29.714  80.507   8.438  1.00  0.00    -0.364 OA
ATOM     15  H4  UNL     1     -29.200  80.403   9.230  1.00  0.00     0.217 HD
ENDBRANCH  12  14
ENDBRANCH  11  12
BRANCH  11  16
HETATM   16  C10 UNL     1     -32.641  80.529   6.815  1.00  0.00    -0.070 C 
HETATM   17  C11 UNL     1     -34.101  80.644   7.074  1.00  0.00     0.044 C 
HETATM   18  C12 UNL     1     -32.195  81.256   5.578  1.00  0.00     0.044 C 
ENDBRANCH  11  16
ENDBRANCH   8  11
ENDBRANCH   3   7
BRANCH   4  19
HETATM   19  C14 UNL     1     -33.348  74.980   9.108  1.00  0.00     0.296 C 
HETATM   20  O5  UNL     1     -33.002  74.416  10.181  1.00  0.00    -0.259 OA
BRANCH  19  21
HETATM   21  O6  UNL     1     -34.531  75.645   9.128  1.00  0.00    -0.322 OA
HETATM   22  C15 UNL     1     -35.168  76.092  10.301  1.00  0.00     0.213 C 
ENDBRANCH  19  21
ENDBRANCH   4  19
BRANCH   1  23
HETATM   23  C3  UNL     1     -30.568  72.812   5.442  1.00  0.00     0.300 C 
HETATM   24  O2  UNL     1     -30.484  73.019   4.190  1.00  0.00    -0.259 OA
BRANCH  23  25
HETATM   25  O1  UNL     1     -30.004  71.666   5.898  1.00  0.00    -0.317 OA
BRANCH  25  26
HETATM   26  C2  UNL     1     -29.226  70.866   5.060  1.00  0.00     0.174 C 
HETATM   27  C1  UNL     1     -27.754  70.910   5.423  1.00  0.00     0.034 C 
ENDBRANCH  25  26
ENDBRANCH  23  25
ENDBRANCH   1  23
TORSDOF 10
ENDMDL
MODEL 3
REMARK VINA RESULT: -6.390157077      2.263      2.912
REMARK  10 active torsions:
REMARK  status: ('A' for Active; 'I' for Inactive)
REMARK    1  A    between atoms: C2_2  and  O1_3 
REMARK    2  A    between atoms: O1_3  and  C3_4 
REMARK    3  A    between atoms: C3_4  and  C4_6 
REMARK    4  A    between atoms: C5_8  and  N1_9 
REMARK       I    between atoms: N1_9  and  C6_11 
REMARK    5  A    between atoms: C6_11  and  C7_13 
REMARK    6  A    between atoms: C7_13  and  C8_14 
REMARK    7  A    between atoms: C7_13  and  C10_18 
REMARK    8  A    between atoms: C8_14  and  O4_16 
REMARK    9  A    between atoms: C13_21  and  C14_22 
REMARK   10  A    between atoms: C14_22  and  O6_24 
ROOT
HETATM    1  C4  UNL     1     -31.598  74.056   6.636  1.00  0.00     0.089 A 
HETATM    2  S1  UNL     1     -31.753  75.735   6.384  1.00  0.00    -0.065 SA
HETATM    3  C5  UNL     1     -32.666  76.151   7.770  1.00  0.00     0.094 A 
HETATM    4  C13 UNL     1     -32.833  74.961   8.409  1.00  0.00     0.080 A 
HETATM    5  C16 UNL     1     -32.271  73.869   7.805  1.00  0.00    -0.020 A 
HETATM    6  C17 UNL     1     -32.408  72.484   8.439  1.00  0.00     0.051 C 
ENDROOT
BRANCH   3   7
HETATM    7  N1  UNL     1     -33.116  77.494   8.109  1.00  0.00    -0.316 N 
HETATM    8  C6  UNL     1     -34.406  77.850   7.670  1.00  0.00     0.259 C 
HETATM    9  O3  UNL     1     -35.067  76.973   7.020  1.00  0.00    -0.267 OA
ATOM     10  H1  UNL     1     -32.529  78.142   8.635  1.00  0.00     0.169 HD
BRANCH   8  11
HETATM   11  C7  UNL     1     -35.060  79.155   7.903  1.00  0.00     0.062 C 
BRANCH  11  12
HETATM   12  C8  UNL     1     -35.490  79.507   9.240  1.00  0.00     0.055 C 
HETATM   13  C9  UNL     1     -36.724  80.161   9.635  1.00  0.00     0.077 C 
BRANCH  12  14
HETATM   14  O4  UNL     1     -34.670  79.199  10.203  1.00  0.00    -0.364 OA
ATOM     15  H4  UNL     1     -34.471  79.895  10.820  1.00  0.00     0.217 HD
ENDBRANCH  12  14
ENDBRANCH  11  12
BRANCH  11  16
HETATM   16  C10 UNL     1     -35.241  79.981   6.884  1.00  0.00    -0.070 C 
HETATM   17  C11 UNL     1     -36.415  79.970   5.971  1.00  0.00     0.044 C 
HETATM   18  C12 UNL     1     -34.235  81.046   6.550  1.00  0.00     0.044 C 
ENDBRANCH  11  16
ENDBRANCH   8  11
ENDBRANCH   3   7
BRANCH   4  19
HETATM   19  C14 UNL     1     -33.585  74.863   9.691  1.00  0.00     0.296 C 
HETATM   20  O5  UNL     1     -33.042  74.582  10.793  1.00  0.00    -0.259 OA
BRANCH  19  21
HETATM   21  O6  UNL     1     -34.925  75.082   9.715  1.00  0.00    -0.322 OA
HETATM   22  C15 UNL     1     -35.589  75.812  10.718  1.00  0.00     0.213 C 
ENDBRANCH  19  21
ENDBRANCH   4  19
BRANCH   1  23
HETATM   23  C3  UNL     1     -30.889  73.120   5.746  1.00  0.00     0.300 C 
HETATM   24  O2  UNL     1     -30.569  73.570   4.601  1.00  0.00    -0.259 OA
BRANCH  23  25
HETATM   25  O1  UNL     1     -30.537  71.836   6.004  1.00  0.00    -0.317 OA
BRANCH  25  26
HETATM   26  C2  UNL     1     -29.849  71.076   5.057  1.00  0.00     0.174 C 
HETATM   27  C1  UNL     1     -28.446  70.721   5.511  1.00  0.00     0.034 C 
ENDBRANCH  25  26
ENDBRANCH  23  25
ENDBRANCH   1  23
TORSDOF 10
ENDMDL
MODEL 4
REMARK VINA RESULT: -6.374837000      2.221      2.500
REMARK  10 active torsions:
REMARK  status: ('A' for Active; 'I' for Inactive)
REMARK    1  A    between atoms: C2_2  and  O1_3 
REMARK    2  A    between atoms: O1_3  and  C3_4 
REMARK    3  A    between atoms: C3_4  and  C4_6 
REMARK    4  A    between atoms: C5_8  and  N1_9 
REMARK       I    between atoms: N1_9  and  C6_11 
REMARK    5  A    between atoms: C6_11  and  C7_13 
REMARK    6  A    between atoms: C7_13  and  C8_14 
REMARK    7  A    between atoms: C7_13  and  C10_18 
REMARK    8  A    between atoms: C8_14  and  O4_16 
REMARK    9  A    between atoms: C13_21  and  C14_22 
REMARK   10  A    between atoms: C14_22  and  O6_24 
ROOT
HETATM    1  C4  UNL     1     -31.618  74.079   6.645  1.00  0.00     0.089 A 
HETATM    2  S1  UNL     1     -31.817  75.753   6.388  1.00  0.00    -0.065 SA
HETATM    3  C5  UNL     1     -32.737  76.149   7.776  1.00  0.00     0.094 A 
HETATM    4  C13 UNL     1     -32.871  74.957   8.419  1.00  0.00     0.080 A 
HETATM    5  C16 UNL     1     -32.282  73.878   7.817  1.00  0.00    -0.020 A 
HETATM    6  C17 UNL     1     -32.381  72.493   8.455  1.00  0.00     0.051 C 
ENDROOT
BRANCH   3   7
HETATM    7  N1  UNL     1     -33.222  77.481   8.112  1.00  0.00    -0.316 N 
HETATM    8  C6  UNL     1     -34.514  77.808   7.658  1.00  0.00     0.259 C 
HETATM    9  O3  UNL     1     -35.147  76.918   6.998  1.00  0.00    -0.267 OA
ATOM     10  H1  UNL     1     -32.656  78.141   8.646  1.00  0.00     0.169 HD
BRANCH   8  11
HETATM   11  C7  UNL     1     -35.200  79.098   7.885  1.00  0.00     0.062 C 
BRANCH  11  12
HETATM   12  C8  UNL     1     -36.042  79.648   6.843  1.00  0.00     0.055 C 
HETATM   13  C9  UNL     1     -35.759  80.776   5.973  1.00  0.00     0.077 C 
BRANCH  12  14
HETATM   14  O4  UNL     1     -37.190  79.062   6.667  1.00  0.00    -0.364 OA
ATOM     15  H4  UNL     1     -37.550  79.105   5.788  1.00  0.00     0.217 HD
ENDBRANCH  12  14
ENDBRANCH  11  12
BRANCH  11  16
HETATM   16  C10 UNL     1     -35.034  79.728   9.037  1.00  0.00    -0.070 C 
HETATM   17  C11 UNL     1     -34.002  80.766   9.305  1.00  0.00     0.044 C 
HETATM   18  C12 UNL     1     -35.910  79.439  10.223  1.00  0.00     0.044 C 
ENDBRANCH  11  16
ENDBRANCH   8  11
ENDBRANCH   3   7
BRANCH   4  19
HETATM   19  C14 UNL     1     -33.617  74.843   9.703  1.00  0.00     0.296 C 
HETATM   20  O5  UNL     1     -33.066  74.568  10.802  1.00  0.00    -0.259 OA
BRANCH  19  21
HETATM   21  O6  UNL     1     -34.960  75.041   9.732  1.00  0.00    -0.322 OA
HETATM   22  C15 UNL     1     -35.632  75.766  10.734  1.00  0.00     0.213 C 
ENDBRANCH  19  21
ENDBRANCH   4  19
BRANCH   1  23
HETATM   23  C3  UNL     1     -30.886  73.160   5.756  1.00  0.00     0.300 C 
HETATM   24  O2  UNL     1     -30.552  73.626   4.621  1.00  0.00    -0.259 OA
BRANCH  23  25
HETATM   25  O1  UNL     1     -30.527  71.876   6.005  1.00  0.00    -0.317 OA
BRANCH  25  26
HETATM   26  C2  UNL     1     -29.851  71.121   5.046  1.00  0.00     0.174 C 
HETATM   27  C1  UNL     1     -28.475  70.688   5.516  1.00  0.00     0.034 C 
ENDBRANCH  25  26
ENDBRANCH  23  25
ENDBRANCH   1  23
TORSDOF 10
ENDMDL
MODEL 5
REMARK VINA RESULT: -6.081262548      0.820      1.098
REMARK  10 active torsions:
REMARK  status: ('A' for Active; 'I' for Inactive)
REMARK    1  A    between atoms: C2_2  and  O1_3 
REMARK    2  A    between atoms: O1_3  and  C3_4 
REMARK    3  A    between atoms: C3_4  and  C4_6 
REMARK    4  A    between atoms: C5_8  and  N1_9 
REMARK       I    between atoms: N1_9  and  C6_11 
REMARK    5  A    between atoms: C6_11  and  C7_13 
REMARK    6  A    between atoms: C7_13  and  C8_14 
REMARK    7  A    between atoms: C7_13  and  C10_18 
REMARK    8  A    between atoms: C8_14  and  O4_16 
REMARK    9  A    between atoms: C13_21  and  C14_22 
REMARK   10  A    between atoms: C14_22  and  O6_24 
ROOT
HETATM    1  C4  UNL     1     -31.275  73.882   6.285  1.00  0.00     0.089 A 
HETATM    2  S1  UNL     1     -31.396  75.540   5.908  1.00  0.00    -0.065 SA
HETATM    3  C5  UNL     1     -32.391  76.057   7.201  1.00  0.00     0.094 A 
HETATM    4  C13 UNL     1     -32.611  74.916   7.908  1.00  0.00     0.080 A 
HETATM    5  C16 UNL     1     -32.023  73.780   7.419  1.00  0.00    -0.020 A 
HETATM    6  C17 UNL     1     -32.214  72.444   8.136  1.00  0.00     0.051 C 
ENDROOT
BRANCH   3   7
HETATM    7  N1  UNL     1     -32.848  77.423   7.416  1.00  0.00    -0.316 N 
HETATM    8  C6  UNL     1     -31.885  78.338   7.881  1.00  0.00     0.259 C 
HETATM    9  O3  UNL     1     -30.702  77.898   8.073  1.00  0.00    -0.267 OA
ATOM     10  H1  UNL     1     -33.814  77.702   7.240  1.00  0.00     0.169 HD
BRANCH   8  11
HETATM   11  C7  UNL     1     -32.129  79.768   8.166  1.00  0.00     0.062 C 
BRANCH  11  12
HETATM   12  C8  UNL     1     -31.644  80.770   7.239  1.00  0.00     0.055 C 
HETATM   13  C9  UNL     1     -32.179  81.105   5.931  1.00  0.00     0.077 C 
BRANCH  12  14
HETATM   14  O4  UNL     1     -30.604  81.449   7.625  1.00  0.00    -0.364 OA
ATOM     15  H4  UNL     1     -30.783  82.285   8.042  1.00  0.00     0.217 HD
ENDBRANCH  12  14
ENDBRANCH  11  12
BRANCH  11  16
HETATM   16  C10 UNL     1     -32.788  80.109   9.262  1.00  0.00    -0.070 C 
HETATM   17  C11 UNL     1     -34.233  80.461   9.318  1.00  0.00     0.044 C 
HETATM   18  C12 UNL     1     -32.106  80.173  10.599  1.00  0.00     0.044 C 
ENDBRANCH  11  16
ENDBRANCH   8  11
ENDBRANCH   3   7
BRANCH   4  19
HETATM   19  C14 UNL     1     -33.444  74.911   9.143  1.00  0.00     0.296 C 
HETATM   20  O5  UNL     1     -33.138  74.270  10.183  1.00  0.00    -0.259 OA
BRANCH  19  21
HETATM   21  O6  UNL     1     -34.600  75.623   9.189  1.00  0.00    -0.322 OA
HETATM   22  C15 UNL     1     -34.933  76.524  10.217  1.00  0.00     0.213 C 
ENDBRANCH  19  21
ENDBRANCH   4  19
BRANCH   1  23
HETATM   23  C3  UNL     1     -30.520  72.882   5.509  1.00  0.00     0.300 C 
HETATM   24  O2  UNL     1     -30.261  73.189   4.303  1.00  0.00    -0.259 OA
BRANCH  23  25
HETATM   25  O1  UNL     1     -30.069  71.674   5.930  1.00  0.00    -0.317 OA
BRANCH  25  26
HETATM   26  C2  UNL     1     -29.274  70.878   5.105  1.00  0.00     0.174 C 
HETATM   27  C1  UNL     1     -27.817  70.883   5.527  1.00  0.00     0.034 C 
ENDBRANCH  25  26
ENDBRANCH  23  25
ENDBRANCH   1  23
TORSDOF 10
ENDMDL
