MODEL 1
REMARK VINA RESULT: -8.010914000      0.000      0.000
REMARK  12 active torsions:
REMARK  status: ('A' for Active; 'I' for Inactive)
REMARK    1  A    between atoms: C2_2  and  C4_4 
REMARK    2  A    between atoms: C4_4  and  N1_5 
REMARK    3  A    between atoms: C5_10  and  C6_11 
REMARK       I    between atoms: C6_11  and  N4_13 
REMARK    4  A    between atoms: N4_13  and  C7_15 
REMARK    5  A    between atoms: C7_15  and  C8_16 
REMARK    6  A    between atoms: C8_16  and  N5_17 
REMARK    7  A    between atoms: C9_18  and  C10_19 
REMARK    8  A    between atoms: C13_37  and  C14_38 
REMARK    9  A    between atoms: C14_38  and  C15_39 
REMARK   10  A    between atoms: C15_39  and  C16_40 
REMARK   11  A    between atoms: C16_40  and  C17_41 
REMARK   12  A    between atoms: C17_41  and  O2_42 
ROOT
HETATM    1  N5  UNL     1       7.767  12.731  35.514  1.00  0.00    -0.312 N 
HETATM    2  C9  UNL     1       8.504  11.636  35.710  1.00  0.00     0.157 A 
HETATM    3  N10 UNL     1       7.663  10.560  35.600  1.00  0.00    -0.333 N 
ATOM      4  H10 UNL     1       7.946   9.585  35.702  1.00  0.00     0.168 HD
HETATM    5  C11 UNL     1       6.429  10.965  35.340  1.00  0.00     0.123 A 
HETATM    6  C12 UNL     1       5.210  10.306  35.137  1.00  0.00     0.132 A 
HETATM    7  N11 UNL     1       5.147   9.030  35.187  1.00  0.00    -0.383 N 
ATOM      8 1H11 UNL     1       4.260   8.550  35.039  1.00  0.00     0.157 HD
ATOM      9 2H11 UNL     1       5.953   8.433  35.372  1.00  0.00     0.157 HD
HETATM   10  N12 UNL     1       4.149  11.093  34.893  1.00  0.00    -0.320 N 
ATOM     11  H12 UNL     1       3.250  10.636  34.743  1.00  0.00     0.169 HD
HETATM   12  C13 UNL     1       4.179  12.426  34.833  1.00  0.00     0.164 A 
HETATM   13  N13 UNL     1       5.355  13.047  35.031  1.00  0.00    -0.319 N 
ATOM     14  H13 UNL     1       5.402  14.066  34.990  1.00  0.00     0.169 HD
HETATM   15  C18 UNL     1       6.474  12.336  35.282  1.00  0.00     0.142 A 
ENDROOT
BRANCH   1  16
HETATM   16  C8  UNL     1       8.175  14.128  35.528  1.00  0.00     0.152 C 
BRANCH  16  17
HETATM   17  C7  UNL     1       8.051  14.741  36.882  1.00  0.00     0.143 C 
BRANCH  17  18
HETATM   18  N4  UNL     1       9.142  15.637  37.187  1.00  0.00    -0.354 N 
HETATM   19  C6  UNL     1      10.320  15.314  37.880  1.00  0.00     0.273 C 
HETATM   20  O1  UNL     1      10.505  14.156  38.302  1.00  0.00    -0.266 OA
ATOM     21  H4  UNL     1       9.047  16.601  36.866  1.00  0.00     0.162 HD
BRANCH  19  22
HETATM   22  C5  UNL     1      11.356  16.302  38.131  1.00  0.00     0.160 A 
HETATM   23  N3  UNL     1      12.590  16.062  38.659  1.00  0.00    -0.278 N 
HETATM   24  N2  UNL     1      13.233  17.208  38.728  1.00  0.00    -0.238 N 
ATOM     25  H3  UNL     1      12.952  15.155  38.950  1.00  0.00     0.189 HD
HETATM   26  N1  UNL     1      12.494  18.211  38.273  1.00  0.00    -0.262 N 
ATOM     27  H2  UNL     1      14.182  17.312  39.087  1.00  0.00     0.208 HD
HETATM   28  C19 UNL     1      11.329  17.664  37.899  1.00  0.00     0.168 A 
HETATM   29  N14 UNL     1      10.159  18.293  37.339  1.00  0.00    -0.078 NA
BRANCH  26  30
HETATM   30  C4  UNL     1      12.842  19.602  38.179  1.00  0.00     0.156 C 
BRANCH  30  31
HETATM   31  C2  UNL     1      12.081  20.464  39.133  1.00  0.00    -0.003 C 
HETATM   32  C1  UNL     1      12.207  19.995  40.565  1.00  0.00     0.011 C 
HETATM   33  C3  UNL     1      12.379  21.924  39.036  1.00  0.00     0.011 C 
ENDBRANCH  30  31
ENDBRANCH  26  30
ENDBRANCH  19  22
ENDBRANCH  17  18
ENDBRANCH  16  17
ENDBRANCH   1  16
BRANCH   2  34
HETATM   34  C10 UNL     1       9.921  11.486  35.989  1.00  0.00     0.182 A 
HETATM   35  N6  UNL     1      10.859  12.444  36.092  1.00  0.00    -0.266 N 
HETATM   36  N7  UNL     1      12.026  11.859  36.361  1.00  0.00    -0.226 N 
ATOM     37  H6  UNL     1      10.704  13.447  35.984  1.00  0.00     0.190 HD
HETATM   38  N8  UNL     1      11.865  10.560  36.433  1.00  0.00    -0.226 N 
ATOM     39  H7  UNL     1      12.912  12.348  36.491  1.00  0.00     0.210 HD
HETATM   40  N9  UNL     1      10.571  10.344  36.203  1.00  0.00    -0.266 N 
ATOM     41  H8  UNL     1      12.581   9.860  36.626  1.00  0.00     0.210 HD
ATOM     42  H9  UNL     1      10.134   9.422  36.192  1.00  0.00     0.190 HD
ENDBRANCH   2  34
BRANCH  12  43
HETATM   43  C14 UNL     1       2.982  13.208  34.563  1.00  0.00    -0.030 C 
BRANCH  43  44
HETATM   44  C15 UNL     1       1.997  13.864  34.328  1.00  0.00    -0.096 C 
BRANCH  44  45
HETATM   45  C16 UNL     1       0.803  14.652  34.019  1.00  0.00     0.120 C 
BRANCH  45  46
HETATM   46  C17 UNL     1       1.173  16.081  33.641  1.00  0.00     0.176 C 
BRANCH  46  47
HETATM   47  O2  UNL     1       2.129  15.972  32.621  1.00  0.00    -0.400 OA
ATOM     48  H2  UNL     1       1.769  16.439  31.877  1.00  0.00     0.209 HD
ENDBRANCH  46  47
ENDBRANCH  45  46
ENDBRANCH  44  45
ENDBRANCH  43  44
ENDBRANCH  12  43
TORSDOF 12
ENDMDL
MODEL 2
REMARK VINA RESULT: -7.757779909      1.455      1.565
REMARK  12 active torsions:
REMARK  status: ('A' for Active; 'I' for Inactive)
REMARK    1  A    between atoms: C2_2  and  C4_4 
REMARK    2  A    between atoms: C4_4  and  N1_5 
REMARK    3  A    between atoms: C5_10  and  C6_11 
REMARK       I    between atoms: C6_11  and  N4_13 
REMARK    4  A    between atoms: N4_13  and  C7_15 
REMARK    5  A    between atoms: C7_15  and  C8_16 
REMARK    6  A    between atoms: C8_16  and  N5_17 
REMARK    7  A    between atoms: C9_18  and  C10_19 
REMARK    8  A    between atoms: C13_37  and  C14_38 
REMARK    9  A    between atoms: C14_38  and  C15_39 
REMARK   10  A    between atoms: C15_39  and  C16_40 
REMARK   11  A    between atoms: C16_40  and  C17_41 
REMARK   12  A    between atoms: C17_41  and  O2_42 
ROOT
HETATM    1  N5  UNL     1       7.592  12.364  35.559  1.00  0.00    -0.312 N 
HETATM    2  C9  UNL     1       8.450  11.632  36.271  1.00  0.00     0.157 A 
HETATM    3  N10 UNL     1       7.707  10.876  37.141  1.00  0.00    -0.333 N 
ATOM      4  H10 UNL     1       8.094  10.216  37.816  1.00  0.00     0.168 HD
HETATM    5  C11 UNL     1       6.417  11.124  36.980  1.00  0.00     0.123 A 
HETATM    6  C12 UNL     1       5.250  10.645  37.588  1.00  0.00     0.132 A 
HETATM    7  N11 UNL     1       5.317   9.771  38.519  1.00  0.00    -0.383 N 
ATOM      8 1H11 UNL     1       4.467   9.421  38.962  1.00  0.00     0.157 HD
ATOM      9 2H11 UNL     1       6.193   9.381  38.864  1.00  0.00     0.157 HD
HETATM   10  N12 UNL     1       4.095  11.159  37.133  1.00  0.00    -0.320 N 
ATOM     11  H12 UNL     1       3.231  10.826  37.562  1.00  0.00     0.169 HD
HETATM   12  C13 UNL     1       3.989  12.072  36.165  1.00  0.00     0.164 A 
HETATM   13  N13 UNL     1       5.117  12.524  35.589  1.00  0.00    -0.319 N 
ATOM     14  H13 UNL     1       5.060  13.222  34.847  1.00  0.00     0.169 HD
HETATM   15  C18 UNL     1       6.322  12.064  35.983  1.00  0.00     0.142 A 
ENDROOT
BRANCH   1  16
HETATM   16  C8  UNL     1       7.863  13.332  34.506  1.00  0.00     0.152 C 
BRANCH  16  17
HETATM   17  C7  UNL     1       7.601  14.734  34.943  1.00  0.00     0.143 C 
BRANCH  17  18
HETATM   18  N4  UNL     1       8.722  15.315  35.642  1.00  0.00    -0.354 N 
HETATM   19  C6  UNL     1       8.835  15.506  37.029  1.00  0.00     0.273 C 
HETATM   20  O1  UNL     1       7.909  15.160  37.789  1.00  0.00    -0.266 OA
ATOM     21  H4  UNL     1       9.512  15.618  35.071  1.00  0.00     0.162 HD
BRANCH  19  22
HETATM   22  C5  UNL     1      10.017  16.105  37.626  1.00  0.00     0.160 A 
HETATM   23  N3  UNL     1      10.912  15.482  38.445  1.00  0.00    -0.278 N 
HETATM   24  N2  UNL     1      11.838  16.356  38.774  1.00  0.00    -0.238 N 
ATOM     25  H3  UNL     1      10.870  14.510  38.749  1.00  0.00     0.189 HD
HETATM   26  N1  UNL     1      11.614  17.539  38.219  1.00  0.00    -0.262 N 
ATOM     27  H2  UNL     1      12.631  16.149  39.382  1.00  0.00     0.208 HD
HETATM   28  C19 UNL     1      10.489  17.398  37.505  1.00  0.00     0.168 A 
HETATM   29  N14 UNL     1       9.785  18.367  36.703  1.00  0.00    -0.078 NA
BRANCH  26  30
HETATM   30  C4  UNL     1      12.396  18.739  38.333  1.00  0.00     0.156 C 
BRANCH  30  31
HETATM   31  C2  UNL     1      11.750  19.784  39.182  1.00  0.00    -0.003 C 
HETATM   32  C1  UNL     1      11.642  19.368  40.631  1.00  0.00     0.011 C 
HETATM   33  C3  UNL     1      12.355  21.145  39.074  1.00  0.00     0.011 C 
ENDBRANCH  30  31
ENDBRANCH  26  30
ENDBRANCH  19  22
ENDBRANCH  17  18
ENDBRANCH  16  17
ENDBRANCH   1  16
BRANCH   2  34
HETATM   34  C10 UNL     1       9.899  11.560  36.225  1.00  0.00     0.182 A 
HETATM   35  N6  UNL     1      10.785  12.571  36.176  1.00  0.00    -0.266 N 
HETATM   36  N7  UNL     1      12.012  12.050  36.150  1.00  0.00    -0.226 N 
ATOM     37  H6  UNL     1      10.557  13.565  36.162  1.00  0.00     0.190 HD
HETATM   38  N8  UNL     1      11.939  10.742  36.181  1.00  0.00    -0.226 N 
ATOM     39  H7  UNL     1      12.878  12.589  36.111  1.00  0.00     0.210 HD
HETATM   40  N9  UNL     1      10.639  10.454  36.227  1.00  0.00    -0.266 N 
ATOM     41  H8  UNL     1      12.716  10.081  36.173  1.00  0.00     0.210 HD
ATOM     42  H9  UNL     1      10.260   9.507  36.259  1.00  0.00     0.190 HD
ENDBRANCH   2  34
BRANCH  12  43
HETATM   43  C14 UNL     1       2.697  12.579  35.728  1.00  0.00    -0.030 C 
BRANCH  43  44
HETATM   44  C15 UNL     1       1.622  12.986  35.363  1.00  0.00    -0.096 C 
BRANCH  44  45
HETATM   45  C16 UNL     1       0.306  13.460  34.931  1.00  0.00     0.120 C 
BRANCH  45  46
HETATM   46  C17 UNL     1       0.400  14.197  33.601  1.00  0.00     0.176 C 
BRANCH  46  47
HETATM   47  O2  UNL     1       0.485  13.203  32.616  1.00  0.00    -0.400 OA
ATOM     48  H2  UNL     1      -0.408  12.933  32.442  1.00  0.00     0.209 HD
ENDBRANCH  46  47
ENDBRANCH  45  46
ENDBRANCH  44  45
ENDBRANCH  43  44
ENDBRANCH  12  43
TORSDOF 12
ENDMDL
MODEL 3
REMARK VINA RESULT: -7.742543032      3.155      6.721
REMARK  12 active torsions:
REMARK  status: ('A' for Active; 'I' for Inactive)
REMARK    1  A    between atoms: C2_2  and  C4_4 
REMARK    2  A    between atoms: C4_4  and  N1_5 
REMARK    3  A    between atoms: C5_10  and  C6_11 
REMARK       I    between atoms: C6_11  and  N4_13 
REMARK    4  A    between atoms: N4_13  and  C7_15 
REMARK    5  A    between atoms: C7_15  and  C8_16 
REMARK    6  A    between atoms: C8_16  and  N5_17 
REMARK    7  A    between atoms: C9_18  and  C10_19 
REMARK    8  A    between atoms: C13_37  and  C14_38 
REMARK    9  A    between atoms: C14_38  and  C15_39 
REMARK   10  A    between atoms: C15_39  and  C16_40 
REMARK   11  A    between atoms: C16_40  and  C17_41 
REMARK   12  A    between atoms: C17_41  and  O2_42 
ROOT
HETATM    1  N5  UNL     1       9.470  14.794  37.313  1.00  0.00    -0.312 N 
HETATM    2  C9  UNL     1      10.770  14.604  37.544  1.00  0.00     0.157 A 
HETATM    3  N10 UNL     1      11.049  13.301  37.222  1.00  0.00    -0.333 N 
ATOM      4  H10 UNL     1      11.969  12.866  37.298  1.00  0.00     0.168 HD
HETATM    5  C11 UNL     1       9.956  12.687  36.799  1.00  0.00     0.123 A 
HETATM    6  C12 UNL     1       9.678  11.388  36.356  1.00  0.00     0.132 A 
HETATM    7  N11 UNL     1      10.605  10.510  36.303  1.00  0.00    -0.383 N 
ATOM      8 1H11 UNL     1      10.404   9.564  35.979  1.00  0.00     0.157 HD
ATOM      9 2H11 UNL     1      11.572  10.693  36.571  1.00  0.00     0.157 HD
HETATM   10  N12 UNL     1       8.404  11.146  36.003  1.00  0.00    -0.320 N 
ATOM     11  H12 UNL     1       8.177  10.207  35.678  1.00  0.00     0.169 HD
HETATM   12  C13 UNL     1       7.412  12.038  36.046  1.00  0.00     0.164 A 
HETATM   13  N13 UNL     1       7.692  13.282  36.474  1.00  0.00    -0.319 N 
ATOM     14  H13 UNL     1       6.949  13.981  36.515  1.00  0.00     0.169 HD
HETATM   15  C18 UNL     1       8.944  13.615  36.849  1.00  0.00     0.142 A 
ENDROOT
BRANCH   1  16
HETATM   16  C8  UNL     1       8.670  15.997  37.494  1.00  0.00     0.152 C 
BRANCH  16  17
HETATM   17  C7  UNL     1       8.823  16.955  36.361  1.00  0.00     0.143 C 
BRANCH  17  18
HETATM   18  N4  UNL     1       8.543  16.349  35.081  1.00  0.00    -0.354 N 
HETATM   19  C6  UNL     1       8.558  16.991  33.831  1.00  0.00     0.273 C 
HETATM   20  O1  UNL     1       8.831  18.204  33.750  1.00  0.00    -0.266 OA
ATOM     21  H4  UNL     1       8.312  15.355  35.084  1.00  0.00     0.162 HD
BRANCH  19  22
HETATM   22  C5  UNL     1       8.258  16.277  32.601  1.00  0.00     0.160 A 
HETATM   23  N3  UNL     1       8.601  16.664  31.339  1.00  0.00    -0.278 N 
HETATM   24  N2  UNL     1       8.153  15.757  30.499  1.00  0.00    -0.238 N 
ATOM     25  H3  UNL     1       9.115  17.508  31.090  1.00  0.00     0.189 HD
HETATM   26  N1  UNL     1       7.522  14.775  31.131  1.00  0.00    -0.262 N 
ATOM     27  H2  UNL     1       8.274  15.802  29.488  1.00  0.00     0.208 HD
HETATM   28  C19 UNL     1       7.580  15.085  32.434  1.00  0.00     0.168 A 
HETATM   29  N14 UNL     1       7.053  14.372  33.569  1.00  0.00    -0.078 NA
BRANCH  26  30
HETATM   30  C4  UNL     1       6.902  13.608  30.568  1.00  0.00     0.156 C 
BRANCH  30  31
HETATM   31  C2  UNL     1       7.808  12.841  29.661  1.00  0.00    -0.003 C 
HETATM   32  C1  UNL     1       8.928  12.153  30.408  1.00  0.00     0.011 C 
HETATM   33  C3  UNL     1       7.119  11.876  28.753  1.00  0.00     0.011 C 
ENDBRANCH  30  31
ENDBRANCH  26  30
ENDBRANCH  19  22
ENDBRANCH  17  18
ENDBRANCH  16  17
ENDBRANCH   1  16
BRANCH   2  34
HETATM   34  C10 UNL     1      11.787  15.516  38.035  1.00  0.00     0.182 A 
HETATM   35  N6  UNL     1      11.658  16.507  38.935  1.00  0.00    -0.266 N 
HETATM   36  N7  UNL     1      12.848  17.088  39.091  1.00  0.00    -0.226 N 
ATOM     37  H6  UNL     1      10.798  16.769  39.416  1.00  0.00     0.190 HD
HETATM   38  N8  UNL     1      13.732  16.501  38.321  1.00  0.00    -0.226 N 
ATOM     39  H7  UNL     1      13.042  17.871  39.715  1.00  0.00     0.210 HD
HETATM   40  N9  UNL     1      13.070  15.540  37.679  1.00  0.00    -0.266 N 
ATOM     41  H8  UNL     1      14.721  16.731  38.233  1.00  0.00     0.210 HD
ATOM     42  H9  UNL     1      13.491  14.904  37.002  1.00  0.00     0.190 HD
ENDBRANCH   2  34
BRANCH  12  43
HETATM   43  C14 UNL     1       6.056  11.697  35.645  1.00  0.00    -0.030 C 
BRANCH  43  44
HETATM   44  C15 UNL     1       4.927  11.417  35.326  1.00  0.00    -0.096 C 
BRANCH  44  45
HETATM   45  C16 UNL     1       3.551  11.100  34.940  1.00  0.00     0.120 C 
BRANCH  45  46
HETATM   46  C17 UNL     1       2.710  12.366  34.827  1.00  0.00     0.176 C 
BRANCH  46  47
HETATM   47  O2  UNL     1       3.374  13.187  33.906  1.00  0.00    -0.400 OA
ATOM     48  H2  UNL     1       2.696  13.570  33.362  1.00  0.00     0.209 HD
ENDBRANCH  46  47
ENDBRANCH  45  46
ENDBRANCH  44  45
ENDBRANCH  43  44
ENDBRANCH  12  43
TORSDOF 12
ENDMDL
MODEL 4
REMARK VINA RESULT: -7.619047645      3.556      6.234
REMARK  12 active torsions:
REMARK  status: ('A' for Active; 'I' for Inactive)
REMARK    1  A    between atoms: C2_2  and  C4_4 
REMARK    2  A    between atoms: C4_4  and  N1_5 
REMARK    3  A    between atoms: C5_10  and  C6_11 
REMARK       I    between atoms: C6_11  and  N4_13 
REMARK    4  A    between atoms: N4_13  and  C7_15 
REMARK    5  A    between atoms: C7_15  and  C8_16 
REMARK    6  A    between atoms: C8_16  and  N5_17 
REMARK    7  A    between atoms: C9_18  and  C10_19 
REMARK    8  A    between atoms: C13_37  and  C14_38 
REMARK    9  A    between atoms: C14_38  and  C15_39 
REMARK   10  A    between atoms: C15_39  and  C16_40 
REMARK   11  A    between atoms: C16_40  and  C17_41 
REMARK   12  A    between atoms: C17_41  and  O2_42 
ROOT
HETATM    1  N5  UNL     1       9.182  15.066  37.254  1.00  0.00    -0.312 N 
HETATM    2  C9  UNL     1      10.454  14.746  37.495  1.00  0.00     0.157 A 
HETATM    3  N10 UNL     1      10.631  13.454  37.072  1.00  0.00    -0.333 N 
ATOM      4  H10 UNL     1      11.508  12.935  37.130  1.00  0.00     0.168 HD
HETATM    5  C11 UNL     1       9.501  12.974  36.576  1.00  0.00     0.123 A 
HETATM    6  C12 UNL     1       9.125  11.744  36.020  1.00  0.00     0.132 A 
HETATM    7  N11 UNL     1       9.976  10.795  35.914  1.00  0.00    -0.383 N 
ATOM      8 1H11 UNL     1       9.703   9.900  35.509  1.00  0.00     0.157 HD
ATOM      9 2H11 UNL     1      10.947  10.872  36.216  1.00  0.00     0.157 HD
HETATM   10  N12 UNL     1       7.846  11.644  35.623  1.00  0.00    -0.320 N 
ATOM     11  H12 UNL     1       7.549  10.757  35.216  1.00  0.00     0.169 HD
HETATM   12  C13 UNL     1       6.933  12.612  35.719  1.00  0.00     0.164 A 
HETATM   13  N13 UNL     1       7.305  13.788  36.255  1.00  0.00    -0.319 N 
ATOM     14  H13 UNL     1       6.625  14.543  36.339  1.00  0.00     0.169 HD
HETATM   15  C18 UNL     1       8.571  13.979  36.682  1.00  0.00     0.142 A 
ENDROOT
BRANCH   1  16
HETATM   16  C8  UNL     1       8.483  16.316  37.517  1.00  0.00     0.152 C 
BRANCH  16  17
HETATM   17  C7  UNL     1       8.481  17.224  36.335  1.00  0.00     0.143 C 
BRANCH  17  18
HETATM   18  N4  UNL     1       7.239  17.947  36.194  1.00  0.00    -0.354 N 
HETATM   19  C6  UNL     1       6.051  17.463  35.621  1.00  0.00     0.273 C 
HETATM   20  O1  UNL     1       5.997  16.303  35.170  1.00  0.00    -0.266 OA
ATOM     21  H4  UNL     1       7.223  18.905  36.545  1.00  0.00     0.162 HD
BRANCH  19  22
HETATM   22  C5  UNL     1       4.855  18.285  35.531  1.00  0.00     0.160 A 
HETATM   23  N3  UNL     1       3.603  17.855  35.202  1.00  0.00    -0.278 N 
HETATM   24  N2  UNL     1       2.797  18.894  35.230  1.00  0.00    -0.238 N 
ATOM     25  H3  UNL     1       3.339  16.897  34.974  1.00  0.00     0.189 HD
HETATM   26  N1  UNL     1       3.441  20.005  35.561  1.00  0.00    -0.262 N 
ATOM     27  H2  UNL     1       1.799  18.850  35.022  1.00  0.00     0.208 HD
HETATM   28  C19 UNL     1       4.718  19.642  35.750  1.00  0.00     0.168 A 
HETATM   29  N14 UNL     1       5.853  20.448  36.120  1.00  0.00    -0.078 NA
BRANCH  26  30
HETATM   30  C4  UNL     1       2.911  21.333  35.703  1.00  0.00     0.156 C 
BRANCH  30  31
HETATM   31  C2  UNL     1       2.620  21.992  34.394  1.00  0.00    -0.003 C 
HETATM   32  C1  UNL     1       1.428  22.918  34.464  1.00  0.00     0.011 C 
HETATM   33  C3  UNL     1       3.784  22.689  33.769  1.00  0.00     0.011 C 
ENDBRANCH  30  31
ENDBRANCH  26  30
ENDBRANCH  19  22
ENDBRANCH  17  18
ENDBRANCH  16  17
ENDBRANCH   1  16
BRANCH   2  34
HETATM   34  C10 UNL     1      11.532  15.522  38.081  1.00  0.00     0.182 A 
HETATM   35  N6  UNL     1      11.462  16.450  39.052  1.00  0.00    -0.266 N 
HETATM   36  N7  UNL     1      12.692  16.908  39.282  1.00  0.00    -0.226 N 
ATOM     37  H6  UNL     1      10.613  16.751  39.530  1.00  0.00     0.190 HD
HETATM   38  N8  UNL     1      13.545  16.303  38.492  1.00  0.00    -0.226 N 
ATOM     39  H7  UNL     1      12.934  17.621  39.971  1.00  0.00     0.210 HD
HETATM   40  N9  UNL     1      12.822  15.457  37.760  1.00  0.00    -0.266 N 
ATOM     41  H8  UNL     1      14.553  16.450  38.446  1.00  0.00     0.210 HD
ATOM     42  H9  UNL     1      13.207  14.839  37.046  1.00  0.00     0.190 HD
ENDBRANCH   2  34
BRANCH  12  43
HETATM   43  C14 UNL     1       5.564  12.424  35.264  1.00  0.00    -0.030 C 
BRANCH  43  44
HETATM   44  C15 UNL     1       4.433  12.256  34.879  1.00  0.00    -0.096 C 
BRANCH  44  45
HETATM   45  C16 UNL     1       3.053  12.054  34.435  1.00  0.00     0.120 C 
BRANCH  45  46
HETATM   46  C17 UNL     1       2.256  13.350  34.518  1.00  0.00     0.176 C 
BRANCH  46  47
HETATM   47  O2  UNL     1       2.692  14.138  33.444  1.00  0.00    -0.400 OA
ATOM     48  H2  UNL     1       3.436  14.631  33.769  1.00  0.00     0.209 HD
ENDBRANCH  46  47
ENDBRANCH  45  46
ENDBRANCH  44  45
ENDBRANCH  43  44
ENDBRANCH  12  43
TORSDOF 12
ENDMDL
MODEL 5
REMARK VINA RESULT: -7.609491055      2.813      7.029
REMARK  12 active torsions:
REMARK  status: ('A' for Active; 'I' for Inactive)
REMARK    1  A    between atoms: C2_2  and  C4_4 
REMARK    2  A    between atoms: C4_4  and  N1_5 
REMARK    3  A    between atoms: C5_10  and  C6_11 
REMARK       I    between atoms: C6_11  and  N4_13 
REMARK    4  A    between atoms: N4_13  and  C7_15 
REMARK    5  A    between atoms: C7_15  and  C8_16 
REMARK    6  A    between atoms: C8_16  and  N5_17 
REMARK    7  A    between atoms: C9_18  and  C10_19 
REMARK    8  A    between atoms: C13_37  and  C14_38 
REMARK    9  A    between atoms: C14_38  and  C15_39 
REMARK   10  A    between atoms: C15_39  and  C16_40 
REMARK   11  A    between atoms: C16_40  and  C17_41 
REMARK   12  A    between atoms: C17_41  and  O2_42 
ROOT
HETATM    1  N5  UNL     1       9.109  14.963  37.223  1.00  0.00    -0.312 N 
HETATM    2  C9  UNL     1      10.389  14.677  37.471  1.00  0.00     0.157 A 
HETATM    3  N10 UNL     1      10.597  13.382  37.071  1.00  0.00    -0.333 N 
ATOM      4  H10 UNL     1      11.486  12.887  37.140  1.00  0.00     0.168 HD
HETATM    5  C11 UNL     1       9.479  12.867  36.582  1.00  0.00     0.123 A 
HETATM    6  C12 UNL     1       9.135  11.619  36.047  1.00  0.00     0.132 A 
HETATM    7  N11 UNL     1      10.008  10.690  35.958  1.00  0.00    -0.383 N 
ATOM      8 1H11 UNL     1       9.758   9.781  35.568  1.00  0.00     0.157 HD
ATOM      9 2H11 UNL     1      10.976  10.795  36.261  1.00  0.00     0.157 HD
HETATM   10  N12 UNL     1       7.859  11.482  35.649  1.00  0.00    -0.320 N 
ATOM     11  H12 UNL     1       7.584  10.581  35.257  1.00  0.00     0.169 HD
HETATM   12  C13 UNL     1       6.923  12.429  35.727  1.00  0.00     0.164 A 
HETATM   13  N13 UNL     1       7.266  13.623  36.243  1.00  0.00    -0.319 N 
ATOM     14  H13 UNL     1       6.567  14.363  36.313  1.00  0.00     0.169 HD
HETATM   15  C18 UNL     1       8.525  13.851  36.669  1.00  0.00     0.142 A 
ENDROOT
BRANCH   1  16
HETATM   16  C8  UNL     1       8.380  16.199  37.463  1.00  0.00     0.152 C 
BRANCH  16  17
HETATM   17  C7  UNL     1       8.108  16.951  36.204  1.00  0.00     0.143 C 
BRANCH  17  18
HETATM   18  N4  UNL     1       6.707  16.962  35.857  1.00  0.00    -0.354 N 
HETATM   19  C6  UNL     1       5.753  17.912  36.259  1.00  0.00     0.273 C 
HETATM   20  O1  UNL     1       6.084  18.866  36.989  1.00  0.00    -0.266 OA
ATOM     21  H4  UNL     1       6.376  16.204  35.260  1.00  0.00     0.162 HD
BRANCH  19  22
HETATM   22  C5  UNL     1       4.362  17.822  35.846  1.00  0.00     0.160 A 
HETATM   23  N3  UNL     1       3.584  18.850  35.401  1.00  0.00    -0.278 N 
HETATM   24  N2  UNL     1       2.391  18.368  35.128  1.00  0.00    -0.238 N 
ATOM     25  H3  UNL     1       3.876  19.821  35.299  1.00  0.00     0.189 HD
HETATM   26  N1  UNL     1       2.324  17.065  35.367  1.00  0.00    -0.262 N 
ATOM     27  H2  UNL     1       1.614  18.927  34.776  1.00  0.00     0.208 HD
HETATM   28  C19 UNL     1       3.538  16.714  35.813  1.00  0.00     0.168 A 
HETATM   29  N14 UNL     1       4.024  15.422  36.225  1.00  0.00    -0.078 NA
BRANCH  26  30
HETATM   30  C4  UNL     1       1.203  16.184  35.189  1.00  0.00     0.156 C 
BRANCH  30  31
HETATM   31  C2  UNL     1       1.416  15.170  34.113  1.00  0.00    -0.003 C 
HETATM   32  C1  UNL     1       0.208  14.287  33.900  1.00  0.00     0.011 C 
HETATM   33  C3  UNL     1       1.889  15.727  32.810  1.00  0.00     0.011 C 
ENDBRANCH  30  31
ENDBRANCH  26  30
ENDBRANCH  19  22
ENDBRANCH  17  18
ENDBRANCH  16  17
ENDBRANCH   1  16
BRANCH   2  34
HETATM   34  C10 UNL     1      11.446  15.489  38.045  1.00  0.00     0.182 A 
HETATM   35  N6  UNL     1      11.361  16.391  39.040  1.00  0.00    -0.266 N 
HETATM   36  N7  UNL     1      12.576  16.900  39.247  1.00  0.00    -0.226 N 
ATOM     37  H6  UNL     1      10.514  16.642  39.549  1.00  0.00     0.190 HD
HETATM   38  N8  UNL     1      13.432  16.353  38.419  1.00  0.00    -0.226 N 
ATOM     39  H7  UNL     1      12.805  17.608  39.945  1.00  0.00     0.210 HD
HETATM   40  N9  UNL     1      12.728  15.491  37.688  1.00  0.00    -0.266 N 
ATOM     41  H8  UNL     1      14.431  16.547  38.349  1.00  0.00     0.210 HD
ATOM     42  H9  UNL     1      13.121  14.907  36.949  1.00  0.00     0.190 HD
ENDBRANCH   2  34
BRANCH  12  43
HETATM   43  C14 UNL     1       5.560  12.201  35.273  1.00  0.00    -0.030 C 
BRANCH  43  44
HETATM   44  C15 UNL     1       4.426  12.009  34.910  1.00  0.00    -0.096 C 
BRANCH  44  45
HETATM   45  C16 UNL     1       3.042  11.774  34.493  1.00  0.00     0.120 C 
BRANCH  45  46
HETATM   46  C17 UNL     1       2.133  11.575  35.699  1.00  0.00     0.176 C 
BRANCH  46  47
HETATM   47  O2  UNL     1       1.099  10.733  35.267  1.00  0.00    -0.400 OA
ATOM     48  H2  UNL     1       0.767  11.120  34.466  1.00  0.00     0.209 HD
ENDBRANCH  46  47
ENDBRANCH  45  46
ENDBRANCH  44  45
ENDBRANCH  43  44
ENDBRANCH  12  43
TORSDOF 12
ENDMDL
