MODEL 1
REMARK VINA RESULT: -6.518814691      0.000      0.000
REMARK  3 active torsions:
REMARK  status: ('A' for Active; 'I' for Inactive)
REMARK    1  A    between atoms: N1_1  and  C1_5 
REMARK    2  A    between atoms: C1_5  and  C2_6 
REMARK    3  A    between atoms: C2_6  and  C3_7 
ROOT
HETATM    1  C1  UNL     1     102.399  70.408  11.999  1.00  0.00     0.284 C 
HETATM    2  C8  UNL     1     102.350  69.576  13.220  1.00  0.00     0.069 C 
HETATM    3  C9  UNL     1     103.714  69.049  13.642  1.00  0.00     0.006 C 
HETATM    4  C10 UNL     1     104.549  70.257  14.008  1.00  0.00     0.028 C 
HETATM    5  C11 UNL     1     104.451  71.235  12.870  1.00  0.00     0.235 C 
HETATM    6  N2  UNL     1     103.796  70.687  11.706  1.00  0.00    -0.041 N 
ATOM      7  H21 UNL     1     103.900  71.292  10.892  1.00  0.00     0.280 HD
ATOM      8  H22 UNL     1     104.282  69.864  11.348  1.00  0.00     0.280 HD
ENDROOT
BRANCH   1   9
HETATM    9  N1  UNL     1     101.849  71.744  12.381  1.00  0.00    -0.044 N 
ATOM     10  H13 UNL     1     102.244  72.527  11.860  1.00  0.00     0.277 HD
ATOM     11  H12 UNL     1     100.883  71.900  12.094  1.00  0.00     0.277 HD
ATOM     12  H11 UNL     1     102.000  71.789  13.389  1.00  0.00     0.277 HD
ENDBRANCH   1   9
BRANCH   1  13
HETATM   13  C2  UNL     1     101.605  70.028  10.823  1.00  0.00     0.074 C 
BRANCH  13  14
HETATM   14  C3  UNL     1     100.170  69.788  10.876  1.00  0.00    -0.010 C 
HETATM   15  C4  UNL     1      99.424  69.415   9.659  1.00  0.00     0.005 C 
HETATM   16  C5  UNL     1      99.896  67.969   9.451  1.00  0.00     0.000 C 
HETATM   17  C6  UNL     1      99.631  67.419  10.836  1.00  0.00     0.000 C 
HETATM   18  C7  UNL     1      99.920  68.549  11.765  1.00  0.00     0.005 C 
ENDBRANCH  13  14
ENDBRANCH   1  13
TORSDOF 3
ENDMDL
MODEL 2
REMARK VINA RESULT: -6.457340008      1.426      2.225
REMARK  3 active torsions:
REMARK  status: ('A' for Active; 'I' for Inactive)
REMARK    1  A    between atoms: N1_1  and  C1_5 
REMARK    2  A    between atoms: C1_5  and  C2_6 
REMARK    3  A    between atoms: C2_6  and  C3_7 
ROOT
HETATM    1  C1  UNL     1     103.206  69.668  13.006  1.00  0.00     0.284 C 
HETATM    2  C8  UNL     1     104.025  70.127  11.864  1.00  0.00     0.069 C 
HETATM    3  C9  UNL     1     104.434  71.589  11.970  1.00  0.00     0.006 C 
HETATM    4  C10 UNL     1     105.333  71.699  13.184  1.00  0.00     0.028 C 
HETATM    5  C11 UNL     1     104.620  71.042  14.334  1.00  0.00     0.235 C 
HETATM    6  N2  UNL     1     103.252  70.698  14.031  1.00  0.00    -0.041 N 
ATOM      7  H21 UNL     1     102.734  70.426  14.867  1.00  0.00     0.280 HD
ATOM      8  H22 UNL     1     102.701  71.517  13.771  1.00  0.00     0.280 HD
ENDROOT
BRANCH   1   9
HETATM    9  N1  UNL     1     103.952  68.529  13.623  1.00  0.00    -0.044 N 
ATOM     10  H13 UNL     1     103.418  67.999  14.311  1.00  0.00     0.277 HD
ATOM     11  H12 UNL     1     104.123  67.745  12.993  1.00  0.00     0.277 HD
ATOM     12  H11 UNL     1     104.798  68.965  13.990  1.00  0.00     0.277 HD
ENDBRANCH   1   9
BRANCH   1  13
HETATM   13  C2  UNL     1     101.865  69.117  12.769  1.00  0.00     0.074 C 
BRANCH  13  14
HETATM   14  C3  UNL     1     100.752  69.918  12.277  1.00  0.00    -0.010 C 
HETATM   15  C4  UNL     1     100.901  70.747  11.065  1.00  0.00     0.005 C 
HETATM   16  C5  UNL     1     100.918  69.673   9.969  1.00  0.00     0.000 C 
HETATM   17  C6  UNL     1      99.671  68.907  10.351  1.00  0.00     0.000 C 
HETATM   18  C7  UNL     1      99.622  68.959  11.840  1.00  0.00     0.005 C 
ENDBRANCH  13  14
ENDBRANCH   1  13
TORSDOF 3
ENDMDL
MODEL 3
REMARK VINA RESULT: -6.073101592      0.837      1.138
REMARK  3 active torsions:
REMARK  status: ('A' for Active; 'I' for Inactive)
REMARK    1  A    between atoms: N1_1  and  C1_5 
REMARK    2  A    between atoms: C1_5  and  C2_6 
REMARK    3  A    between atoms: C2_6  and  C3_7 
ROOT
HETATM    1  C1  UNL     1     102.194  69.954  12.653  1.00  0.00     0.284 C 
HETATM    2  C8  UNL     1     102.781  69.942  14.009  1.00  0.00     0.069 C 
HETATM    3  C9  UNL     1     104.301  69.881  14.004  1.00  0.00     0.006 C 
HETATM    4  C10 UNL     1     104.782  71.167  13.366  1.00  0.00     0.028 C 
HETATM    5  C11 UNL     1     104.041  71.331  12.067  1.00  0.00     0.235 C 
HETATM    6  N2  UNL     1     103.273  70.165  11.702  1.00  0.00    -0.041 N 
ATOM      7  H21 UNL     1     102.929  70.222  10.743  1.00  0.00     0.280 HD
ATOM      8  H22 UNL     1     103.861  69.337  11.604  1.00  0.00     0.280 HD
ENDROOT
BRANCH   1   9
HETATM    9  N1  UNL     1     101.392  71.212  12.556  1.00  0.00    -0.044 N 
ATOM     10  H13 UNL     1     100.830  71.419  13.381  1.00  0.00     0.277 HD
ATOM     11  H12 UNL     1     101.946  72.069  12.586  1.00  0.00     0.277 HD
ATOM     12  H11 UNL     1     100.853  71.089  11.699  1.00  0.00     0.277 HD
ENDBRANCH   1   9
BRANCH   1  13
HETATM   13  C2  UNL     1     101.243  68.905  12.258  1.00  0.00     0.074 C 
BRANCH  13  14
HETATM   14  C3  UNL     1      99.996  69.185  11.561  1.00  0.00    -0.010 C 
HETATM   15  C4  UNL     1      99.978  70.058  10.372  1.00  0.00     0.005 C 
HETATM   16  C5  UNL     1     100.633  69.148   9.323  1.00  0.00     0.000 C 
HETATM   17  C6  UNL     1      99.785  67.909   9.504  1.00  0.00     0.000 C 
HETATM   18  C7  UNL     1      99.470  67.861  10.961  1.00  0.00     0.005 C 
ENDBRANCH  13  14
ENDBRANCH   1  13
TORSDOF 3
ENDMDL
MODEL 4
REMARK VINA RESULT: -5.447923091      1.652      4.825
REMARK  3 active torsions:
REMARK  status: ('A' for Active; 'I' for Inactive)
REMARK    1  A    between atoms: N1_1  and  C1_5 
REMARK    2  A    between atoms: C1_5  and  C2_6 
REMARK    3  A    between atoms: C2_6  and  C3_7 
ROOT
HETATM    1  C1  UNL     1     100.837  69.429  12.323  1.00  0.00     0.284 C 
HETATM    2  C8  UNL     1     100.600  70.360  11.200  1.00  0.00     0.069 C 
HETATM    3  C9  UNL     1     100.711  69.694   9.836  1.00  0.00     0.006 C 
HETATM    4  C10 UNL     1      99.595  68.675   9.760  1.00  0.00     0.028 C 
HETATM    5  C11 UNL     1      99.667  67.834  11.005  1.00  0.00     0.235 C 
HETATM    6  N2  UNL     1     100.856  68.078  11.787  1.00  0.00    -0.041 N 
ATOM      7  H21 UNL     1     100.980  67.379  12.520  1.00  0.00     0.280 HD
ATOM      8  H22 UNL     1     101.707  67.892  11.255  1.00  0.00     0.280 HD
ENDROOT
BRANCH   1   9
HETATM    9  N1  UNL     1      99.597  69.456  13.158  1.00  0.00    -0.044 N 
ATOM     10  H13 UNL     1      99.032  68.608  13.101  1.00  0.00     0.277 HD
ATOM     11  H12 UNL     1      99.763  69.406  14.163  1.00  0.00     0.277 HD
ATOM     12  H11 UNL     1      99.118  70.303  12.852  1.00  0.00     0.277 HD
ENDBRANCH   1   9
BRANCH   1  13
HETATM   13  C2  UNL     1     101.911  69.705  13.288  1.00  0.00     0.074 C 
BRANCH  13  14
HETATM   14  C3  UNL     1     103.309  69.388  13.033  1.00  0.00    -0.010 C 
HETATM   15  C4  UNL     1     103.986  69.894  11.823  1.00  0.00     0.005 C 
HETATM   16  C5  UNL     1     104.142  71.382  12.168  1.00  0.00     0.000 C 
HETATM   17  C6  UNL     1     104.782  71.255  13.533  1.00  0.00     0.000 C 
HETATM   18  C7  UNL     1     104.163  70.043  14.142  1.00  0.00     0.005 C 
ENDBRANCH  13  14
ENDBRANCH   1  13
TORSDOF 3
ENDMDL
MODEL 5
REMARK VINA RESULT: -5.388120712      1.410      2.428
REMARK  3 active torsions:
REMARK  status: ('A' for Active; 'I' for Inactive)
REMARK    1  A    between atoms: N1_1  and  C1_5 
REMARK    2  A    between atoms: C1_5  and  C2_6 
REMARK    3  A    between atoms: C2_6  and  C3_7 
ROOT
HETATM    1  C1  UNL     1     103.143  69.903  13.037  1.00  0.00     0.284 C 
HETATM    2  C8  UNL     1     104.018  70.308  11.917  1.00  0.00     0.069 C 
HETATM    3  C9  UNL     1     104.612  71.698  12.094  1.00  0.00     0.006 C 
HETATM    4  C10 UNL     1     105.513  71.631  13.309  1.00  0.00     0.028 C 
HETATM    5  C11 UNL     1     104.717  71.017  14.427  1.00  0.00     0.235 C 
HETATM    6  N2  UNL     1     103.316  70.867  14.111  1.00  0.00    -0.041 N 
ATOM      7  H21 UNL     1     102.765  70.624  14.934  1.00  0.00     0.280 HD
ATOM      8  H22 UNL     1     102.877  71.762  13.893  1.00  0.00     0.280 HD
ENDROOT
BRANCH   1   9
HETATM    9  N1  UNL     1     103.733  68.648  13.596  1.00  0.00    -0.044 N 
ATOM     10  H13 UNL     1     104.548  68.304  13.090  1.00  0.00     0.277 HD
ATOM     11  H12 UNL     1     104.205  68.767  14.492  1.00  0.00     0.277 HD
ATOM     12  H11 UNL     1     102.946  68.000  13.618  1.00  0.00     0.277 HD
ENDBRANCH   1   9
BRANCH   1  13
HETATM   13  C2  UNL     1     101.742  69.542  12.777  1.00  0.00     0.074 C 
BRANCH  13  14
HETATM   14  C3  UNL     1     101.278  69.028  11.495  1.00  0.00    -0.010 C 
HETATM   15  C4  UNL     1      99.988  68.321  11.391  1.00  0.00     0.005 C 
HETATM   16  C5  UNL     1      98.997  69.482  11.551  1.00  0.00     0.000 C 
HETATM   17  C6  UNL     1      99.554  70.430  10.511  1.00  0.00     0.000 C 
HETATM   18  C7  UNL     1     101.031  70.229  10.554  1.00  0.00     0.005 C 
ENDBRANCH  13  14
ENDBRANCH   1  13
TORSDOF 3
ENDMDL
