MODEL 1
REMARK VINA RESULT: -5.283229803      0.000      0.000
REMARK  4 active torsions:
REMARK  status: ('A' for Active; 'I' for Inactive)
REMARK    1  A    between atoms: N1_4  and  N2_6 
REMARK    2  A    between atoms: N2_6  and  C4_8 
REMARK    3  A    between atoms: C4_8  and  N3_10 
REMARK    4  A    between atoms: N3_10  and  C5_12 
ROOT
HETATM    1  C4  UNL     1     101.887  70.715  10.868  1.00  0.00     0.186 C 
HETATM    2  S1  UNL     1     101.272  72.164  11.316  1.00  0.00    -0.040 SA
ENDROOT
BRANCH   1   3
HETATM    3  N2  UNL     1     103.146  70.346  11.363  1.00  0.00    -0.277 N 
ATOM      4  H2  UNL     1     103.625  69.526  10.990  1.00  0.00     0.189 HD
BRANCH   3   5
HETATM    5  N1  UNL     1     103.742  71.108  12.369  1.00  0.00    -0.307 N 
HETATM    6  C2  UNL     1     104.089  70.522  13.450  1.00  0.00    -0.004 C 
HETATM    7  C1  UNL     1     103.852  69.070  13.599  1.00  0.00     0.064 C 
HETATM    8  C3  UNL     1     104.722  71.309  14.528  1.00  0.00     0.064 C 
ATOM      9  H1  UNL     1     103.895  72.108  12.245  1.00  0.00     0.186 HD
ENDBRANCH   3   5
ENDBRANCH   1   3
BRANCH   1  10
HETATM   10  N3  UNL     1     101.175  69.858  10.010  1.00  0.00    -0.361 N 
ATOM     11  H3  UNL     1     101.546  69.653   9.082  1.00  0.00     0.162 HD
BRANCH  10  12
HETATM   12  C5  UNL     1      99.936  69.269  10.421  1.00  0.00     0.083 A 
HETATM   13  C6  UNL     1      99.578  67.926   9.834  1.00  0.00     0.025 A 
HETATM   14  C7  UNL     1      99.745  67.310  11.198  1.00  0.00     0.004 A 
HETATM   15  C8  UNL     1     100.027  68.654  11.782  1.00  0.00     0.025 A 
ENDBRANCH  10  12
ENDBRANCH   1  10
TORSDOF 4
ENDMDL
MODEL 2
REMARK VINA RESULT: -4.530532079      1.211      1.582
REMARK  4 active torsions:
REMARK  status: ('A' for Active; 'I' for Inactive)
REMARK    1  A    between atoms: N1_4  and  N2_6 
REMARK    2  A    between atoms: N2_6  and  C4_8 
REMARK    3  A    between atoms: C4_8  and  N3_10 
REMARK    4  A    between atoms: N3_10  and  C5_12 
ROOT
HETATM    1  C4  UNL     1     101.615  70.176  12.030  1.00  0.00     0.186 C 
HETATM    2  S1  UNL     1     101.343  71.626  11.323  1.00  0.00    -0.040 SA
ENDROOT
BRANCH   1   3
HETATM    3  N2  UNL     1     102.937  69.822  12.334  1.00  0.00    -0.277 N 
ATOM      4  H2  UNL     1     103.494  69.292  11.663  1.00  0.00     0.189 HD
BRANCH   3   5
HETATM    5  N1  UNL     1     103.487  70.200  13.560  1.00  0.00    -0.307 N 
HETATM    6  C2  UNL     1     104.484  70.999  13.558  1.00  0.00    -0.004 C 
HETATM    7  C1  UNL     1     105.018  71.492  12.271  1.00  0.00     0.064 C 
HETATM    8  C3  UNL     1     105.082  71.413  14.844  1.00  0.00     0.064 C 
ATOM      9  H1  UNL     1     103.103  69.847  14.436  1.00  0.00     0.186 HD
ENDBRANCH   3   5
ENDBRANCH   1   3
BRANCH   1  10
HETATM   10  N3  UNL     1     100.553  69.303  12.328  1.00  0.00    -0.361 N 
ATOM     11  H3  UNL     1     100.492  68.882  13.255  1.00  0.00     0.162 HD
BRANCH  10  12
HETATM   12  C5  UNL     1      99.555  68.997  11.348  1.00  0.00     0.083 A 
HETATM   13  C6  UNL     1      99.824  69.427   9.927  1.00  0.00     0.025 A 
HETATM   14  C7  UNL     1      99.937  67.977   9.533  1.00  0.00     0.004 A 
HETATM   15  C8  UNL     1      99.597  67.562  10.926  1.00  0.00     0.025 A 
ENDBRANCH  10  12
ENDBRANCH   1  10
TORSDOF 4
ENDMDL
MODEL 3
REMARK VINA RESULT: -4.444497872      1.346      4.976
REMARK  4 active torsions:
REMARK  status: ('A' for Active; 'I' for Inactive)
REMARK    1  A    between atoms: N1_4  and  N2_6 
REMARK    2  A    between atoms: N2_6  and  C4_8 
REMARK    3  A    between atoms: C4_8  and  N3_10 
REMARK    4  A    between atoms: N3_10  and  C5_12 
ROOT
HETATM    1  C4  UNL     1     100.982  70.484  11.780  1.00  0.00     0.186 C 
HETATM    2  S1  UNL     1     101.224  71.931  11.053  1.00  0.00    -0.040 SA
ENDROOT
BRANCH   1   3
HETATM    3  N2  UNL     1      99.908  69.694  11.346  1.00  0.00    -0.277 N 
ATOM      4  H2  UNL     1      99.181  70.097  10.755  1.00  0.00     0.189 HD
BRANCH   3   5
HETATM    5  N1  UNL     1      99.841  68.353  11.727  1.00  0.00    -0.307 N 
HETATM    6  C2  UNL     1      99.771  67.464  10.812  1.00  0.00    -0.004 C 
HETATM    7  C1  UNL     1      99.763  67.880   9.393  1.00  0.00     0.064 C 
HETATM    8  C3  UNL     1      99.700  66.038  11.192  1.00  0.00     0.064 C 
ATOM      9  H1  UNL     1      99.848  68.089  12.712  1.00  0.00     0.186 HD
ENDBRANCH   3   5
ENDBRANCH   1   3
BRANCH   1  10
HETATM   10  N3  UNL     1     101.827  70.041  12.813  1.00  0.00    -0.361 N 
ATOM     11  H3  UNL     1     101.430  69.810  13.724  1.00  0.00     0.162 HD
BRANCH  10  12
HETATM   12  C5  UNL     1     103.237  69.908  12.604  1.00  0.00     0.083 A 
HETATM   13  C6  UNL     1     104.074  71.160  12.699  1.00  0.00     0.025 A 
HETATM   14  C7  UNL     1     104.715  70.609  13.947  1.00  0.00     0.004 A 
HETATM   15  C8  UNL     1     103.936  69.345  13.801  1.00  0.00     0.025 A 
ENDBRANCH  10  12
ENDBRANCH   1  10
TORSDOF 4
ENDMDL
MODEL 4
REMARK VINA RESULT: -4.409266869      1.168      4.550
REMARK  4 active torsions:
REMARK  status: ('A' for Active; 'I' for Inactive)
REMARK    1  A    between atoms: N1_4  and  N2_6 
REMARK    2  A    between atoms: N2_6  and  C4_8 
REMARK    3  A    between atoms: C4_8  and  N3_10 
REMARK    4  A    between atoms: N3_10  and  C5_12 
ROOT
HETATM    1  C4  UNL     1     101.134  71.121  11.056  1.00  0.00     0.186 C 
HETATM    2  S1  UNL     1     101.000  72.752  11.024  1.00  0.00    -0.040 SA
ENDROOT
BRANCH   1   3
HETATM    3  N2  UNL     1     100.009  70.356  10.714  1.00  0.00    -0.277 N 
ATOM      4  H2  UNL     1      99.346  70.699  10.020  1.00  0.00     0.189 HD
BRANCH   3   5
HETATM    5  N1  UNL     1      99.804  69.120  11.330  1.00  0.00    -0.307 N 
HETATM    6  C2  UNL     1      99.809  68.070  10.602  1.00  0.00    -0.004 C 
HETATM    7  C1  UNL     1     100.030  68.196   9.145  1.00  0.00     0.064 C 
HETATM    8  C3  UNL     1      99.596  66.751  11.232  1.00  0.00     0.064 C 
ATOM      9  H1  UNL     1      99.654  69.056  12.337  1.00  0.00     0.186 HD
ENDBRANCH   3   5
ENDBRANCH   1   3
BRANCH   1  10
HETATM   10  N3  UNL     1     102.343  70.498  11.414  1.00  0.00    -0.361 N 
ATOM     11  H3  UNL     1     102.901  70.033  10.699  1.00  0.00     0.162 HD
BRANCH  10  12
HETATM   12  C5  UNL     1     102.801  70.508  12.771  1.00  0.00     0.083 A 
HETATM   13  C6  UNL     1     102.432  69.329  13.637  1.00  0.00     0.025 A 
HETATM   14  C7  UNL     1     103.885  68.933  13.677  1.00  0.00     0.004 A 
HETATM   15  C8  UNL     1     104.248  70.142  12.882  1.00  0.00     0.025 A 
ENDBRANCH  10  12
ENDBRANCH   1  10
TORSDOF 4
ENDMDL
MODEL 5
REMARK VINA RESULT: -4.169573990      0.995      1.463
REMARK  4 active torsions:
REMARK  status: ('A' for Active; 'I' for Inactive)
REMARK    1  A    between atoms: N1_4  and  N2_6 
REMARK    2  A    between atoms: N2_6  and  C4_8 
REMARK    3  A    between atoms: C4_8  and  N3_10 
REMARK    4  A    between atoms: N3_10  and  C5_12 
ROOT
HETATM    1  C4  UNL     1     101.455  71.285  11.371  1.00  0.00     0.186 C 
HETATM    2  S1  UNL     1     101.158  72.848  10.989  1.00  0.00    -0.040 SA
ENDROOT
BRANCH   1   3
HETATM    3  N2  UNL     1     101.900  70.991  12.668  1.00  0.00    -0.277 N 
ATOM      4  H2  UNL     1     101.865  71.704  13.396  1.00  0.00     0.189 HD
BRANCH   3   5
HETATM    5  N1  UNL     1     102.391  69.717  12.956  1.00  0.00    -0.307 N 
HETATM    6  C2  UNL     1     103.546  69.617  13.492  1.00  0.00    -0.004 C 
HETATM    7  C1  UNL     1     104.319  70.843  13.787  1.00  0.00     0.064 C 
HETATM    8  C3  UNL     1     104.085  68.278  13.807  1.00  0.00     0.064 C 
ATOM      9  H1  UNL     1     101.840  68.885  12.744  1.00  0.00     0.186 HD
ENDBRANCH   3   5
ENDBRANCH   1   3
BRANCH   1  10
HETATM   10  N3  UNL     1     101.270  70.259  10.427  1.00  0.00    -0.361 N 
ATOM     11  H3  UNL     1     102.061  69.941   9.868  1.00  0.00     0.162 HD
BRANCH  10  12
HETATM   12  C5  UNL     1      99.985  69.655  10.240  1.00  0.00     0.083 A 
HETATM   13  C6  UNL     1      99.922  68.405   9.399  1.00  0.00     0.025 A 
HETATM   14  C7  UNL     1      99.553  67.621  10.631  1.00  0.00     0.004 A 
HETATM   15  C8  UNL     1      99.547  68.875  11.439  1.00  0.00     0.025 A 
ENDBRANCH  10  12
ENDBRANCH   1  10
TORSDOF 4
ENDMDL
