MODEL 1
REMARK VINA RESULT: -7.590293172      0.000      0.000
REMARK  4 active torsions:
REMARK  status: ('A' for Active; 'I' for Inactive)
REMARK    1  A    between atoms: C1_2  and  N2_4 
REMARK    2  A    between atoms: N2_4  and  N3_6 
REMARK    3  A    between atoms: N3_6  and  C2_8 
REMARK    4  A    between atoms: C3_9  and  C4_10 
ROOT
HETATM    1  N3  UNL     1     103.299  70.722  11.265  1.00  0.00    -0.310 N 
ATOM      2  H3  UNL     1     103.660  70.274  10.423  1.00  0.00     0.186 HD
ENDROOT
BRANCH   1   3
HETATM    3  N2  UNL     1     104.211  71.067  12.266  1.00  0.00    -0.279 N 
ATOM      4  H2  UNL     1     104.984  71.706  12.079  1.00  0.00     0.189 HD
BRANCH   3   5
HETATM    5  C1  UNL     1     104.026  70.501  13.546  1.00  0.00     0.199 C 
HETATM    6  N1  UNL     1     104.064  71.291  14.742  1.00  0.00    -0.068 NA
HETATM    7  S1  UNL     1     103.758  68.897  13.660  1.00  0.00    -0.043 SA
ENDBRANCH   3   5
ENDBRANCH   1   3
BRANCH   1   8
HETATM    8  C2  UNL     1     102.043  70.932  11.339  1.00  0.00     0.103 C 
HETATM    9  C3  UNL     1     100.802  71.161  10.937  1.00  0.00    -0.003 C 
BRANCH   9  10
HETATM   10  C4  UNL     1      99.938  70.000  10.712  1.00  0.00     0.009 C 
HETATM   11  C5  UNL     1     100.532  69.279   9.494  1.00  0.00     0.008 C 
HETATM   12  C6  UNL     1      99.821  67.955   9.563  1.00  0.00     0.001 C 
HETATM   13  C7  UNL     1      99.609  67.687  11.048  1.00  0.00     0.001 C 
HETATM   14  C8  UNL     1     100.090  68.928  11.768  1.00  0.00     0.008 C 
ENDBRANCH   9  10
ENDBRANCH   1   8
TORSDOF 4
ENDMDL
MODEL 2
REMARK VINA RESULT: -7.528788573      1.044      1.044
REMARK  4 active torsions:
REMARK  status: ('A' for Active; 'I' for Inactive)
REMARK    1  A    between atoms: C1_2  and  N2_4 
REMARK    2  A    between atoms: N2_4  and  N3_6 
REMARK    3  A    between atoms: N3_6  and  C2_8 
REMARK    4  A    between atoms: C3_9  and  C4_10 
ROOT
HETATM    1  N3  UNL     1     103.336  70.738  11.357  1.00  0.00    -0.310 N 
ATOM      2  H3  UNL     1     103.872  71.149  10.594  1.00  0.00     0.186 HD
ENDROOT
BRANCH   1   3
HETATM    3  N2  UNL     1     104.021  69.962  12.296  1.00  0.00    -0.279 N 
ATOM      4  H2  UNL     1     104.650  69.213  12.004  1.00  0.00     0.189 HD
BRANCH   3   5
HETATM    5  C1  UNL     1     103.815  70.250  13.662  1.00  0.00     0.199 C 
HETATM    6  N1  UNL     1     102.700  69.721  14.393  1.00  0.00    -0.068 NA
HETATM    7  S1  UNL     1     104.881  71.215  14.428  1.00  0.00    -0.043 SA
ENDBRANCH   3   5
ENDBRANCH   1   3
BRANCH   1   8
HETATM    8  C2  UNL     1     102.080  70.963  11.396  1.00  0.00     0.103 C 
HETATM    9  C3  UNL     1     100.852  71.194  10.960  1.00  0.00    -0.003 C 
BRANCH   9  10
HETATM   10  C4  UNL     1      99.981  70.037  10.743  1.00  0.00     0.009 C 
HETATM   11  C5  UNL     1     100.560  69.314   9.520  1.00  0.00     0.008 C 
HETATM   12  C6  UNL     1      99.844  67.992   9.595  1.00  0.00     0.001 C 
HETATM   13  C7  UNL     1      99.645  67.726  11.083  1.00  0.00     0.001 C 
HETATM   14  C8  UNL     1     100.138  68.965  11.797  1.00  0.00     0.008 C 
ENDBRANCH   9  10
ENDBRANCH   1   8
TORSDOF 4
ENDMDL
MODEL 3
REMARK VINA RESULT: -6.966604954      1.160      1.282
REMARK  4 active torsions:
REMARK  status: ('A' for Active; 'I' for Inactive)
REMARK    1  A    between atoms: C1_2  and  N2_4 
REMARK    2  A    between atoms: N2_4  and  N3_6 
REMARK    3  A    between atoms: N3_6  and  C2_8 
REMARK    4  A    between atoms: C3_9  and  C4_10 
ROOT
HETATM    1  N3  UNL     1     103.165  70.634  11.493  1.00  0.00    -0.310 N 
ATOM      2  H3  UNL     1     103.733  70.714  10.650  1.00  0.00     0.186 HD
ENDROOT
BRANCH   1   3
HETATM    3  N2  UNL     1     103.806  70.287  12.685  1.00  0.00    -0.279 N 
ATOM      4  H2  UNL     1     103.556  69.437  13.191  1.00  0.00     0.189 HD
BRANCH   3   5
HETATM    5  C1  UNL     1     104.812  71.152  13.166  1.00  0.00     0.199 C 
HETATM    6  N1  UNL     1     105.615  71.951  12.286  1.00  0.00    -0.068 NA
HETATM    7  S1  UNL     1     105.064  71.243  14.773  1.00  0.00    -0.043 SA
ENDBRANCH   3   5
ENDBRANCH   1   3
BRANCH   1   8
HETATM    8  C2  UNL     1     101.913  70.858  11.394  1.00  0.00     0.103 C 
HETATM    9  C3  UNL     1     100.733  71.050  10.825  1.00  0.00    -0.003 C 
BRANCH   9  10
HETATM   10  C4  UNL     1      99.882  69.877  10.618  1.00  0.00     0.009 C 
HETATM   11  C5  UNL     1     100.477  69.148   9.406  1.00  0.00     0.008 C 
HETATM   12  C6  UNL     1      99.782  67.816   9.495  1.00  0.00     0.001 C 
HETATM   13  C7  UNL     1      99.581  67.564  10.985  1.00  0.00     0.001 C 
HETATM   14  C8  UNL     1     100.051  68.820  11.686  1.00  0.00     0.008 C 
ENDBRANCH   9  10
ENDBRANCH   1   8
TORSDOF 4
ENDMDL
MODEL 4
REMARK VINA RESULT: -6.585533506      1.553      1.617
REMARK  4 active torsions:
REMARK  status: ('A' for Active; 'I' for Inactive)
REMARK    1  A    between atoms: C1_2  and  N2_4 
REMARK    2  A    between atoms: N2_4  and  N3_6 
REMARK    3  A    between atoms: N3_6  and  C2_8 
REMARK    4  A    between atoms: C3_9  and  C4_10 
ROOT
HETATM    1  N3  UNL     1     102.721  69.349  13.727  1.00  0.00    -0.310 N 
ATOM      2  H3  UNL     1     102.373  68.606  14.332  1.00  0.00     0.186 HD
ENDROOT
BRANCH   1   3
HETATM    3  N2  UNL     1     104.101  69.570  13.687  1.00  0.00    -0.279 N 
ATOM      4  H2  UNL     1     104.758  68.793  13.605  1.00  0.00     0.189 HD
BRANCH   3   5
HETATM    5  C1  UNL     1     104.554  70.905  13.761  1.00  0.00     0.199 C 
HETATM    6  N1  UNL     1     104.562  71.640  14.992  1.00  0.00    -0.068 NA
HETATM    7  S1  UNL     1     105.087  71.627  12.400  1.00  0.00    -0.043 SA
ENDBRANCH   3   5
ENDBRANCH   1   3
BRANCH   1   8
HETATM    8  C2  UNL     1     101.870  70.021  13.054  1.00  0.00     0.103 C 
HETATM    9  C3  UNL     1     101.287  70.577  12.004  1.00  0.00    -0.003 C 
BRANCH   9  10
HETATM   10  C4  UNL     1     100.256  69.803  11.311  1.00  0.00     0.009 C 
HETATM   11  C5  UNL     1     100.814  69.548   9.904  1.00  0.00     0.008 C 
HETATM   12  C6  UNL     1      99.880  68.476   9.409  1.00  0.00     0.001 C 
HETATM   13  C7  UNL     1      99.503  67.667  10.645  1.00  0.00     0.001 C 
HETATM   14  C8  UNL     1     100.132  68.384  11.819  1.00  0.00     0.008 C 
ENDBRANCH   9  10
ENDBRANCH   1   8
TORSDOF 4
ENDMDL
MODEL 5
REMARK VINA RESULT: -6.559013214      1.488      1.685
REMARK  4 active torsions:
REMARK  status: ('A' for Active; 'I' for Inactive)
REMARK    1  A    between atoms: C1_2  and  N2_4 
REMARK    2  A    between atoms: N2_4  and  N3_6 
REMARK    3  A    between atoms: N3_6  and  C2_8 
REMARK    4  A    between atoms: C3_9  and  C4_10 
ROOT
HETATM    1  N3  UNL     1     102.817  69.341  13.486  1.00  0.00    -0.310 N 
ATOM      2  H3  UNL     1     102.547  68.627  14.162  1.00  0.00     0.186 HD
ENDROOT
BRANCH   1   3
HETATM    3  N2  UNL     1     104.181  69.531  13.243  1.00  0.00    -0.279 N 
ATOM      4  H2  UNL     1     104.787  68.749  12.993  1.00  0.00     0.189 HD
BRANCH   3   5
HETATM    5  C1  UNL     1     104.691  70.842  13.354  1.00  0.00     0.199 C 
HETATM    6  N1  UNL     1     105.021  71.632  12.204  1.00  0.00    -0.068 NA
HETATM    7  S1  UNL     1     104.906  71.474  14.841  1.00  0.00    -0.043 SA
ENDBRANCH   3   5
ENDBRANCH   1   3
BRANCH   1   8
HETATM    8  C2  UNL     1     101.890  70.006  12.915  1.00  0.00     0.103 C 
HETATM    9  C3  UNL     1     101.221  70.611  11.946  1.00  0.00    -0.003 C 
BRANCH   9  10
HETATM   10  C4  UNL     1     100.215  69.829  11.226  1.00  0.00     0.009 C 
HETATM   11  C5  UNL     1     100.845  69.510   9.863  1.00  0.00     0.008 C 
HETATM   12  C6  UNL     1      99.919  68.437   9.357  1.00  0.00     0.001 C 
HETATM   13  C7  UNL     1      99.458  67.683  10.599  1.00  0.00     0.001 C 
HETATM   14  C8  UNL     1     100.034  68.433  11.779  1.00  0.00     0.008 C 
ENDBRANCH   9  10
ENDBRANCH   1   8
TORSDOF 4
ENDMDL
