MODEL 1
REMARK VINA RESULT: -6.242366917      0.000      0.000
REMARK  2 active torsions:
REMARK  status: ('A' for Active; 'I' for Inactive)
REMARK    1  A    between atoms: C3_3  and  N1_4 
REMARK    2  A    between atoms: N1_4  and  C4_6 
ROOT
HETATM    1  N1  UNL     1     100.259  70.536  11.070  1.00  0.00    -0.411 N 
ATOM      2  H1  UNL     1      99.686  71.347  10.836  1.00  0.00     0.154 HD
ENDROOT
BRANCH   1   3
HETATM    3  C3  UNL     1      99.876  69.357  10.520  1.00  0.00     0.104 C 
HETATM    4  C2  UNL     1      99.694  68.115  11.333  1.00  0.00     0.054 C 
HETATM    5  C1  UNL     1      99.615  67.046  10.226  1.00  0.00     0.234 C 
HETATM    6  N2  UNL     1      99.788  67.737   8.967  1.00  0.00    -0.073 N 
HETATM    7  C11 UNL     1     100.700  68.800   9.368  1.00  0.00     0.256 C 
ATOM      8  H22 UNL     1     100.099  67.159   8.186  1.00  0.00     0.277 HD
ATOM      9  H21 UNL     1      98.928  68.042   8.509  1.00  0.00     0.277 HD
ENDBRANCH   1   3
BRANCH   1  10
HETATM   10  C4  UNL     1     101.341  70.774  11.918  1.00  0.00     0.077 C 
HETATM   11  C5  UNL     1     102.570  71.268  11.287  1.00  0.00     0.025 C 
HETATM   12  C6  UNL     1     103.908  70.877  11.819  1.00  0.00     0.007 C 
HETATM   13  C7  UNL     1     103.844  69.610  12.531  1.00  0.00    -0.010 A 
HETATM   14  C8  UNL     1     103.970  69.222  13.891  1.00  0.00     0.010 A 
HETATM   15  C9  UNL     1     102.772  69.927  13.639  1.00  0.00    -0.008 A 
HETATM   16  C10 UNL     1     101.536  69.614  12.928  1.00  0.00     0.029 C 
ENDBRANCH   1  10
TORSDOF 2
ENDMDL
MODEL 2
REMARK VINA RESULT: -6.171376165      1.993      5.184
REMARK  2 active torsions:
REMARK  status: ('A' for Active; 'I' for Inactive)
REMARK    1  A    between atoms: C3_3  and  N1_4 
REMARK    2  A    between atoms: N1_4  and  C4_6 
ROOT
HETATM    1  N1  UNL     1     102.940  70.565  11.333  1.00  0.00    -0.411 N 
ATOM      2  H1  UNL     1     103.548  70.387  10.532  1.00  0.00     0.154 HD
ENDROOT
BRANCH   1   3
HETATM    3  C3  UNL     1     103.552  71.008  12.459  1.00  0.00     0.104 C 
HETATM    4  C2  UNL     1     104.940  71.565  12.450  1.00  0.00     0.054 C 
HETATM    5  C1  UNL     1     105.263  71.577  13.956  1.00  0.00     0.234 C 
HETATM    6  N2  UNL     1     104.112  71.022  14.634  1.00  0.00    -0.073 N 
HETATM    7  C11 UNL     1     103.657  70.057  13.641  1.00  0.00     0.256 C 
ATOM      8  H22 UNL     1     104.286  70.648  15.566  1.00  0.00     0.277 HD
ATOM      9  H21 UNL     1     103.414  71.699  14.943  1.00  0.00     0.277 HD
ENDBRANCH   1   3
BRANCH   1  10
HETATM   10  C4  UNL     1     101.580  70.323  11.135  1.00  0.00     0.077 C 
HETATM   11  C5  UNL     1     100.823  69.856  12.302  1.00  0.00     0.025 C 
HETATM   12  C6  UNL     1      99.689  68.901  12.140  1.00  0.00     0.007 C 
HETATM   13  C7  UNL     1      99.834  68.109  10.929  1.00  0.00    -0.010 A 
HETATM   14  C8  UNL     1      99.146  68.044   9.689  1.00  0.00     0.010 A 
HETATM   15  C9  UNL     1      99.901  69.229   9.826  1.00  0.00    -0.008 A 
HETATM   16  C10 UNL     1     101.329  69.534   9.825  1.00  0.00     0.029 C 
ENDBRANCH   1  10
TORSDOF 2
ENDMDL
MODEL 3
REMARK VINA RESULT: -5.953645967      1.917      4.871
REMARK  2 active torsions:
REMARK  status: ('A' for Active; 'I' for Inactive)
REMARK    1  A    between atoms: C3_3  and  N1_4 
REMARK    2  A    between atoms: N1_4  and  C4_6 
ROOT
HETATM    1  N1  UNL     1     102.032  71.055  12.423  1.00  0.00    -0.411 N 
ATOM      2  H1  UNL     1     102.187  72.040  12.204  1.00  0.00     0.154 HD
ENDROOT
BRANCH   1   3
HETATM    3  C3  UNL     1     102.965  70.468  13.213  1.00  0.00     0.104 C 
HETATM    4  C2  UNL     1     103.969  71.257  13.990  1.00  0.00     0.054 C 
HETATM    5  C1  UNL     1     104.959  70.151  14.403  1.00  0.00     0.234 C 
HETATM    6  N2  UNL     1     104.473  68.919  13.822  1.00  0.00    -0.073 N 
HETATM    7  C11 UNL     1     103.876  69.420  12.591  1.00  0.00     0.256 C 
ATOM      8  H22 UNL     1     105.167  68.180  13.708  1.00  0.00     0.277 HD
ATOM      9  H21 UNL     1     103.856  68.364  14.417  1.00  0.00     0.277 HD
ENDBRANCH   1   3
BRANCH   1  10
HETATM   10  C4  UNL     1     100.887  70.477  11.873  1.00  0.00     0.077 C 
HETATM   11  C5  UNL     1     100.266  69.396  12.646  1.00  0.00     0.025 C 
HETATM   12  C6  UNL     1      99.595  68.256  11.954  1.00  0.00     0.007 C 
HETATM   13  C7  UNL     1     100.133  68.059  10.617  1.00  0.00    -0.010 A 
HETATM   14  C8  UNL     1      99.629  68.238   9.302  1.00  0.00     0.010 A 
HETATM   15  C9  UNL     1      99.865  69.464   9.961  1.00  0.00    -0.008 A 
HETATM   16  C10 UNL     1     101.066  70.192  10.361  1.00  0.00     0.029 C 
ENDBRANCH   1  10
TORSDOF 2
ENDMDL
MODEL 4
REMARK VINA RESULT: -5.827351259      2.188      5.335
REMARK  2 active torsions:
REMARK  status: ('A' for Active; 'I' for Inactive)
REMARK    1  A    between atoms: C3_3  and  N1_4 
REMARK    2  A    between atoms: N1_4  and  C4_6 
ROOT
HETATM    1  N1  UNL     1     102.489  69.766  13.209  1.00  0.00    -0.411 N 
ATOM      2  H1  UNL     1     102.618  68.893  13.721  1.00  0.00     0.154 HD
ENDROOT
BRANCH   1   3
HETATM    3  C3  UNL     1     103.474  70.688  13.347  1.00  0.00     0.104 C 
HETATM    4  C2  UNL     1     104.333  71.120  12.201  1.00  0.00     0.054 C 
HETATM    5  C1  UNL     1     105.460  71.866  12.942  1.00  0.00     0.234 C 
HETATM    6  N2  UNL     1     105.172  71.759  14.355  1.00  0.00    -0.073 N 
HETATM    7  C11 UNL     1     104.544  70.445  14.401  1.00  0.00     0.256 C 
ATOM      8  H22 UNL     1     105.968  71.890  14.979  1.00  0.00     0.277 HD
ATOM      9  H21 UNL     1     104.625  72.523  14.753  1.00  0.00     0.277 HD
ENDBRANCH   1   3
BRANCH   1  10
HETATM   10  C4  UNL     1     101.321  69.867  12.452  1.00  0.00     0.077 C 
HETATM   11  C5  UNL     1     100.155  69.128  12.948  1.00  0.00     0.025 C 
HETATM   12  C6  UNL     1      99.174  68.530  11.996  1.00  0.00     0.007 C 
HETATM   13  C7  UNL     1      99.787  68.258  10.705  1.00  0.00    -0.010 A 
HETATM   14  C8  UNL     1      99.655  68.805   9.402  1.00  0.00     0.010 A 
HETATM   15  C9  UNL     1     100.301  69.688  10.294  1.00  0.00    -0.008 A 
HETATM   16  C10 UNL     1     101.612  69.708  10.937  1.00  0.00     0.029 C 
ENDBRANCH   1  10
TORSDOF 2
ENDMDL
MODEL 5
REMARK VINA RESULT: -5.768433326      1.924      4.792
REMARK  2 active torsions:
REMARK  status: ('A' for Active; 'I' for Inactive)
REMARK    1  A    between atoms: C3_3  and  N1_4 
REMARK    2  A    between atoms: N1_4  and  C4_6 
ROOT
HETATM    1  N1  UNL     1     102.143  71.113  12.050  1.00  0.00    -0.411 N 
ATOM      2  H1  UNL     1     102.237  72.124  11.951  1.00  0.00     0.154 HD
ENDROOT
BRANCH   1   3
HETATM    3  C3  UNL     1     103.177  70.474  12.651  1.00  0.00     0.104 C 
HETATM    4  C2  UNL     1     103.115  69.028  13.028  1.00  0.00     0.054 C 
HETATM    5  C1  UNL     1     104.343  68.911  13.952  1.00  0.00     0.234 C 
HETATM    6  N2  UNL     1     104.928  70.231  14.037  1.00  0.00    -0.073 N 
HETATM    7  C11 UNL     1     103.733  71.060  13.940  1.00  0.00     0.256 C 
ATOM      8  H22 UNL     1     105.518  70.401  14.851  1.00  0.00     0.277 HD
ATOM      9  H21 UNL     1     105.661  70.434  13.357  1.00  0.00     0.277 HD
ENDBRANCH   1   3
BRANCH   1  10
HETATM   10  C4  UNL     1     100.964  70.555  11.552  1.00  0.00     0.077 C 
HETATM   11  C5  UNL     1     100.197  69.714  12.477  1.00  0.00     0.025 C 
HETATM   12  C6  UNL     1      99.434  68.533  11.976  1.00  0.00     0.007 C 
HETATM   13  C7  UNL     1     100.000  68.026  10.736  1.00  0.00    -0.010 A 
HETATM   14  C8  UNL     1      99.573  67.993   9.383  1.00  0.00     0.010 A 
HETATM   15  C9  UNL     1      99.915  69.295   9.809  1.00  0.00    -0.008 A 
HETATM   16  C10 UNL     1     101.172  69.963  10.135  1.00  0.00     0.029 C 
ENDBRANCH   1  10
TORSDOF 2
ENDMDL
