MODEL 1
REMARK VINA RESULT: -7.373528680      0.000      0.000
REMARK  3 active torsions:
REMARK  status: ('A' for Active; 'I' for Inactive)
REMARK    1  A    between atoms: C3_3  and  C4_4 
REMARK    2  A    between atoms: C9_10  and  N1_11 
REMARK    3  A    between atoms: C11_13  and  C12_14 
ROOT
HETATM    1  C4  UNL     1     -15.462 -10.703  25.252  1.00  0.00     0.016 C 
HETATM    2  C5  UNL     1     -15.347 -11.729  26.349  1.00  0.00     0.009 C 
HETATM    3  C6  UNL     1     -14.837 -11.050  27.589  1.00  0.00     0.003 C 
HETATM    4  C7  UNL     1     -13.859  -9.964  27.349  1.00  0.00     0.032 C 
HETATM    5  C8  UNL     1     -13.173  -9.998  26.027  1.00  0.00     0.133 C 
HETATM    6  O1  UNL     1     -12.618  -8.714  25.818  1.00  0.00    -0.337 OA
HETATM    7  C9  UNL     1     -11.885  -8.804  24.638  1.00  0.00     0.393 C 
HETATM    8  O4  UNL     1     -12.697  -8.949  23.530  1.00  0.00    -0.342 OA
HETATM    9  C13 UNL     1     -14.041  -9.107  23.936  1.00  0.00     0.180 C 
HETATM   10  C14 UNL     1     -14.075 -10.280  24.870  1.00  0.00     0.046 C 
ENDROOT
BRANCH   7  11
HETATM   11  N1  UNL     1     -11.011  -7.677  24.484  1.00  0.00    -0.233 N 
HETATM   12  C10 UNL     1     -10.817  -6.933  23.385  1.00  0.00     0.155 A 
HETATM   13  C11 UNL     1      -9.894  -5.975  23.721  1.00  0.00     0.143 A 
HETATM   14  N2  UNL     1      -9.558  -6.176  25.031  1.00  0.00    -0.279 N 
HETATM   15  N3  UNL     1     -10.246  -7.210  25.468  1.00  0.00    -0.236 N 
ATOM     16  H2  UNL     1      -8.893  -5.624  25.572  1.00  0.00     0.189 HD
ATOM     17  H3  UNL     1     -10.200  -7.592  26.413  1.00  0.00     0.208 HD
BRANCH  13  18
HETATM   18  C12 UNL     1      -9.365  -4.934  22.856  1.00  0.00     0.229 C 
HETATM   19  O2  UNL     1      -9.409  -5.084  21.616  1.00  0.00    -0.643 OA
HETATM   20  O3  UNL     1      -8.816  -3.783  23.385  1.00  0.00    -0.643 OA
ENDBRANCH  13  18
ENDBRANCH   7  11
BRANCH   1  21
HETATM   21  C3  UNL     1     -16.133 -11.225  24.048  1.00  0.00    -0.026 C 
HETATM   22  C2  UNL     1     -15.877 -12.418  23.567  1.00  0.00    -0.035 C 
HETATM   23  C1  UNL     1     -16.580 -12.894  22.355  1.00  0.00     0.036 C 
ENDBRANCH   1  21
TORSDOF 3
ENDMDL
MODEL 2
REMARK VINA RESULT: -6.802558984      1.561      1.933
REMARK  3 active torsions:
REMARK  status: ('A' for Active; 'I' for Inactive)
REMARK    1  A    between atoms: C3_3  and  C4_4 
REMARK    2  A    between atoms: C9_10  and  N1_11 
REMARK    3  A    between atoms: C11_13  and  C12_14 
ROOT
HETATM    1  C4  UNL     1     -14.997 -11.075  27.070  1.00  0.00     0.016 C 
HETATM    2  C5  UNL     1     -14.335 -11.736  28.251  1.00  0.00     0.009 C 
HETATM    3  C6  UNL     1     -13.535 -10.702  28.993  1.00  0.00     0.003 C 
HETATM    4  C7  UNL     1     -12.897  -9.675  28.138  1.00  0.00     0.032 C 
HETATM    5  C8  UNL     1     -12.728 -10.046  26.705  1.00  0.00     0.133 C 
HETATM    6  O1  UNL     1     -12.499  -8.846  25.994  1.00  0.00    -0.337 OA
HETATM    7  C9  UNL     1     -12.228  -9.227  24.683  1.00  0.00     0.393 C 
HETATM    8  O4  UNL     1     -13.346  -9.730  24.044  1.00  0.00    -0.342 OA
HETATM    9  C13 UNL     1     -14.414  -9.842  24.963  1.00  0.00     0.180 C 
HETATM   10  C14 UNL     1     -13.924 -10.699  26.092  1.00  0.00     0.046 C 
ENDROOT
BRANCH   7  11
HETATM   11  N1  UNL     1     -11.661  -8.143  23.934  1.00  0.00    -0.233 N 
HETATM   12  C10 UNL     1     -10.603  -7.385  24.261  1.00  0.00     0.155 A 
HETATM   13  C11 UNL     1     -10.441  -6.482  23.241  1.00  0.00     0.143 A 
HETATM   14  N2  UNL     1     -11.419  -6.731  22.319  1.00  0.00    -0.279 N 
HETATM   15  N3  UNL     1     -12.142  -7.737  22.762  1.00  0.00    -0.236 N 
ATOM     16  H2  UNL     1     -11.563  -6.225  21.445  1.00  0.00     0.189 HD
ATOM     17  H3  UNL     1     -12.945  -8.143  22.281  1.00  0.00     0.208 HD
BRANCH  13  18
HETATM   18  C12 UNL     1      -9.422  -5.450  23.145  1.00  0.00     0.229 C 
HETATM   19  O2  UNL     1      -8.775  -5.127  24.165  1.00  0.00    -0.643 OA
HETATM   20  O3  UNL     1      -9.158  -4.824  21.943  1.00  0.00    -0.643 OA
ENDBRANCH  13  18
ENDBRANCH   7  11
BRANCH   1  21
HETATM   21  C3  UNL     1     -15.958 -11.957  26.384  1.00  0.00    -0.026 C 
HETATM   22  C2  UNL     1     -15.665 -13.196  26.066  1.00  0.00    -0.035 C 
HETATM   23  C1  UNL     1     -16.667 -14.040  25.377  1.00  0.00     0.036 C 
ENDBRANCH   1  21
TORSDOF 3
ENDMDL
MODEL 3
REMARK VINA RESULT: -6.618633081      5.060      7.310
REMARK  3 active torsions:
REMARK  status: ('A' for Active; 'I' for Inactive)
REMARK    1  A    between atoms: C3_3  and  C4_4 
REMARK    2  A    between atoms: C9_10  and  N1_11 
REMARK    3  A    between atoms: C11_13  and  C12_14 
ROOT
HETATM    1  C4  UNL     1     -14.250 -10.036  25.086  1.00  0.00     0.016 C 
HETATM    2  C5  UNL     1     -14.840 -11.046  26.034  1.00  0.00     0.009 C 
HETATM    3  C6  UNL     1     -15.514 -12.123  25.229  1.00  0.00     0.003 C 
HETATM    4  C7  UNL     1     -16.168 -11.655  23.986  1.00  0.00     0.032 C 
HETATM    5  C8  UNL     1     -16.481 -10.199  23.933  1.00  0.00     0.133 C 
HETATM    6  O1  UNL     1     -16.705  -9.875  22.575  1.00  0.00    -0.337 OA
HETATM    7  C9  UNL     1     -17.111  -8.544  22.563  1.00  0.00     0.393 C 
HETATM    8  O4  UNL     1     -16.082  -7.683  22.896  1.00  0.00    -0.342 OA
HETATM    9  C13 UNL     1     -14.946  -8.424  23.293  1.00  0.00     0.180 C 
HETATM   10  C14 UNL     1     -15.381  -9.313  24.419  1.00  0.00     0.046 C 
ENDROOT
BRANCH   7  11
HETATM   11  N1  UNL     1     -17.681  -8.187  21.296  1.00  0.00    -0.233 N 
HETATM   12  C10 UNL     1     -18.885  -8.527  20.813  1.00  0.00     0.155 A 
HETATM   13  C11 UNL     1     -18.983  -7.954  19.570  1.00  0.00     0.143 A 
HETATM   14  N2  UNL     1     -17.817  -7.276  19.343  1.00  0.00    -0.279 N 
HETATM   15  N3  UNL     1     -17.049  -7.433  20.400  1.00  0.00    -0.236 N 
ATOM     16  H2  UNL     1     -17.585  -6.745  18.504  1.00  0.00     0.189 HD
ATOM     17  H3  UNL     1     -16.115  -7.038  20.514  1.00  0.00     0.208 HD
BRANCH  13  18
HETATM   18  C12 UNL     1     -20.109  -8.043  18.656  1.00  0.00     0.229 C 
HETATM   19  O2  UNL     1     -21.268  -8.134  19.115  1.00  0.00    -0.643 OA
HETATM   20  O3  UNL     1     -19.916  -8.026  17.290  1.00  0.00    -0.643 OA
ENDBRANCH  13  18
ENDBRANCH   7  11
BRANCH   1  21
HETATM   21  C3  UNL     1     -13.402  -9.040  25.765  1.00  0.00    -0.026 C 
HETATM   22  C2  UNL     1     -12.746  -9.317  26.868  1.00  0.00    -0.035 C 
HETATM   23  C1  UNL     1     -11.907  -8.280  27.510  1.00  0.00     0.036 C 
ENDBRANCH   1  21
TORSDOF 3
ENDMDL
MODEL 4
REMARK VINA RESULT: -6.441388942      3.797      7.262
REMARK  3 active torsions:
REMARK  status: ('A' for Active; 'I' for Inactive)
REMARK    1  A    between atoms: C3_3  and  C4_4 
REMARK    2  A    between atoms: C9_10  and  N1_11 
REMARK    3  A    between atoms: C11_13  and  C12_14 
ROOT
HETATM    1  C4  UNL     1     -11.990  -8.608  25.980  1.00  0.00     0.016 C 
HETATM    2  C5  UNL     1     -12.183  -8.490  27.469  1.00  0.00     0.009 C 
HETATM    3  C6  UNL     1     -12.618  -9.826  28.004  1.00  0.00     0.003 C 
HETATM    4  C7  UNL     1     -13.498 -10.603  27.101  1.00  0.00     0.032 C 
HETATM    5  C8  UNL     1     -14.198  -9.813  26.050  1.00  0.00     0.133 C 
HETATM    6  O1  UNL     1     -14.640 -10.732  25.070  1.00  0.00    -0.337 OA
HETATM    7  C9  UNL     1     -15.391  -9.989  24.163  1.00  0.00     0.393 C 
HETATM    8  O4  UNL     1     -14.606  -9.130  23.417  1.00  0.00    -0.342 OA
HETATM    9  C13 UNL     1     -13.277  -9.155  23.897  1.00  0.00     0.180 C 
HETATM   10  C14 UNL     1     -13.337  -8.810  25.355  1.00  0.00     0.046 C 
ENDROOT
BRANCH   7  11
HETATM   11  N1  UNL     1     -16.163 -10.844  23.308  1.00  0.00    -0.233 N 
HETATM   12  C10 UNL     1     -15.972 -12.148  23.061  1.00  0.00     0.155 A 
HETATM   13  C11 UNL     1     -16.957 -12.528  22.184  1.00  0.00     0.143 A 
HETATM   14  N2  UNL     1     -17.721 -11.423  21.929  1.00  0.00    -0.279 N 
HETATM   15  N3  UNL     1     -17.221 -10.420  22.619  1.00  0.00    -0.236 N 
ATOM     16  H2  UNL     1     -18.533 -11.384  21.314  1.00  0.00     0.189 HD
ATOM     17  H3  UNL     1     -17.587  -9.468  22.625  1.00  0.00     0.208 HD
BRANCH  13  18
HETATM   18  C12 UNL     1     -17.161 -13.853  21.625  1.00  0.00     0.229 C 
HETATM   19  O2  UNL     1     -17.431 -14.807  22.386  1.00  0.00    -0.643 OA
HETATM   20  O3  UNL     1     -17.062 -14.072  20.266  1.00  0.00    -0.643 OA
ENDBRANCH  13  18
ENDBRANCH   7  11
BRANCH   1  21
HETATM   21  C3  UNL     1     -11.380  -7.405  25.385  1.00  0.00    -0.026 C 
HETATM   22  C2  UNL     1     -10.364  -7.475  24.556  1.00  0.00    -0.035 C 
HETATM   23  C1  UNL     1      -9.789  -6.236  23.986  1.00  0.00     0.036 C 
ENDBRANCH   1  21
TORSDOF 3
ENDMDL
MODEL 5
REMARK VINA RESULT: -6.326511846      4.027      7.256
REMARK  3 active torsions:
REMARK  status: ('A' for Active; 'I' for Inactive)
REMARK    1  A    between atoms: C3_3  and  C4_4 
REMARK    2  A    between atoms: C9_10  and  N1_11 
REMARK    3  A    between atoms: C11_13  and  C12_14 
ROOT
HETATM    1  C4  UNL     1     -12.623  -9.401  26.168  1.00  0.00     0.016 C 
HETATM    2  C5  UNL     1     -12.958  -9.587  27.624  1.00  0.00     0.009 C 
HETATM    3  C6  UNL     1     -13.528 -10.966  27.812  1.00  0.00     0.003 C 
HETATM    4  C7  UNL     1     -14.360 -11.455  26.689  1.00  0.00     0.032 C 
HETATM    5  C8  UNL     1     -14.900 -10.403  25.783  1.00  0.00     0.133 C 
HETATM    6  O1  UNL     1     -15.297 -11.052  24.591  1.00  0.00    -0.337 OA
HETATM    7  C9  UNL     1     -15.904 -10.072  23.810  1.00  0.00     0.393 C 
HETATM    8  O4  UNL     1     -14.996  -9.143  23.341  1.00  0.00    -0.342 OA
HETATM    9  C13 UNL     1     -13.726  -9.380  23.914  1.00  0.00     0.180 C 
HETATM   10  C14 UNL     1     -13.911  -9.351  25.401  1.00  0.00     0.046 C 
ENDROOT
BRANCH   7  11
HETATM   11  N1  UNL     1     -16.639 -10.657  22.725  1.00  0.00    -0.233 N 
HETATM   12  C10 UNL     1     -16.629 -11.936  22.322  1.00  0.00     0.155 A 
HETATM   13  C11 UNL     1     -17.485 -12.014  21.252  1.00  0.00     0.143 A 
HETATM   14  N2  UNL     1     -17.991 -10.761  21.045  1.00  0.00    -0.279 N 
HETATM   15  N3  UNL     1     -17.465  -9.960  21.947  1.00  0.00    -0.236 N 
ATOM     16  H2  UNL     1     -18.658 -10.495  20.320  1.00  0.00     0.189 HD
ATOM     17  H3  UNL     1     -17.659  -8.963  22.035  1.00  0.00     0.208 HD
BRANCH  13  18
HETATM   18  C12 UNL     1     -17.805 -13.201  20.477  1.00  0.00     0.229 C 
HETATM   19  O2  UNL     1     -18.925 -13.296  19.931  1.00  0.00    -0.643 OA
HETATM   20  O3  UNL     1     -16.888 -14.223  20.336  1.00  0.00    -0.643 OA
ENDBRANCH  13  18
ENDBRANCH   7  11
BRANCH   1  21
HETATM   21  C3  UNL     1     -11.881  -8.154  25.906  1.00  0.00    -0.026 C 
HETATM   22  C2  UNL     1     -10.819  -8.123  25.136  1.00  0.00    -0.035 C 
HETATM   23  C1  UNL     1     -10.111  -6.844  24.905  1.00  0.00     0.036 C 
ENDBRANCH   1  21
TORSDOF 3
ENDMDL
