MODEL 1
REMARK VINA RESULT: -7.097587969      0.000      0.000
REMARK  13 active torsions:
REMARK  status: ('A' for Active; 'I' for Inactive)
REMARK    1  A    between atoms: O1_2  and  C2_3 
REMARK    2  A    between atoms: C2_3  and  C3_4 
REMARK    3  A    between atoms: C3_4  and  C4_5 
REMARK    4  A    between atoms: C4_5  and  O3_7 
REMARK    5  A    between atoms: O3_7  and  C5_8 
REMARK    6  A    between atoms: C5_8  and  C6_9 
REMARK    7  A    between atoms: C10_14  and  C11_15 
REMARK    8  A    between atoms: C12_16  and  C13_17 
REMARK    9  A    between atoms: C13_17  and  O5_18 
REMARK   10  A    between atoms: C13_17  and  C14_20 
REMARK   11  A    between atoms: C19_25  and  O6_26 
REMARK   12  A    between atoms: C20_28  and  O7_29 
REMARK   13  A    between atoms: C22_32  and  O8_33 
ROOT
HETATM    1  C5  UNL     1      16.252  63.690  32.231  1.00  0.00     0.207 C 
HETATM    2  O4  UNL     1      16.705  64.917  31.608  1.00  0.00    -0.315 OA
HETATM    3  C9  UNL     1      17.599  65.461  32.518  1.00  0.00     0.053 C 
HETATM    4  C10 UNL     1      17.816  66.753  32.765  1.00  0.00     0.032 C 
HETATM    5  C21 UNL     1      18.299  64.337  33.195  1.00  0.00     0.102 C 
HETATM    6  C22 UNL     1      17.631  63.122  32.604  1.00  0.00     0.188 C 
ENDROOT
BRANCH   4   7
HETATM    7  C11 UNL     1      18.800  67.162  33.762  1.00  0.00     0.001 C 
HETATM    8  C12 UNL     1      18.459  67.616  34.950  1.00  0.00     0.005 C 
BRANCH   8   9
HETATM    9  C13 UNL     1      19.489  68.012  35.912  1.00  0.00     0.147 C 
BRANCH   9  10
HETATM   10  O5  UNL     1      20.652  67.269  35.810  1.00  0.00    -0.391 OA
ATOM     11  H5  UNL     1      21.341  67.564  36.393  1.00  0.00     0.210 HD
ENDBRANCH   9  10
BRANCH   9  12
HETATM   12  C14 UNL     1      18.893  67.943  37.320  1.00  0.00     0.053 C 
HETATM   13  C15 UNL     1      19.857  67.196  38.192  1.00  0.00     0.037 C 
HETATM   14  C16 UNL     1      19.175  66.557  39.328  1.00  0.00    -0.021 C 
HETATM   15  C17 UNL     1      18.053  65.882  39.102  1.00  0.00    -0.057 C 
HETATM   16  C18 UNL     1      17.355  65.236  40.223  1.00  0.00     0.046 C 
HETATM   17  C19 UNL     1      17.581  65.837  37.685  1.00  0.00     0.175 C 
HETATM   18  C20 UNL     1      17.554  67.260  37.188  1.00  0.00     0.158 C 
BRANCH  17  19
HETATM   19  O6  UNL     1      16.290  65.343  37.650  1.00  0.00    -0.389 OA
ATOM     20  H6  UNL     1      15.781  65.749  38.341  1.00  0.00     0.210 HD
ENDBRANCH  17  19
BRANCH  18  21
HETATM   21  O7  UNL     1      16.604  67.947  37.943  1.00  0.00    -0.392 OA
ATOM     22  H7  UNL     1      15.761  67.905  37.507  1.00  0.00     0.210 HD
ENDBRANCH  18  21
ENDBRANCH   9  12
ENDBRANCH   8   9
ENDBRANCH   4   7
BRANCH   1  23
HETATM   23  O3  UNL     1      15.650  62.970  31.246  1.00  0.00    -0.280 OA
BRANCH  23  24
HETATM   24  C4  UNL     1      15.440  61.666  31.000  1.00  0.00     0.263 C 
HETATM   25  O2  UNL     1      15.933  61.162  29.988  1.00  0.00    -0.265 OA
BRANCH  24  26
HETATM   26  C3  UNL     1      14.636  60.757  31.880  1.00  0.00     0.137 C 
BRANCH  26  27
HETATM   27  C2  UNL     1      15.594  59.908  32.697  1.00  0.00     0.176 C 
BRANCH  27  28
HETATM   28  O1  UNL     1      14.884  59.084  33.545  1.00  0.00    -0.395 OA
HETATM   29  C1  UNL     1      15.174  59.411  34.869  1.00  0.00     0.201 C 
ENDBRANCH  27  28
ENDBRANCH  26  27
ENDBRANCH  24  26
ENDBRANCH  23  24
ENDBRANCH   1  23
BRANCH   1  30
HETATM   30  C6  UNL     1      15.500  64.121  33.427  1.00  0.00     0.044 C 
HETATM   31  C7  UNL     1      15.294  63.188  34.550  1.00  0.00     0.015 C 
HETATM   32  C8  UNL     1      14.191  64.753  32.953  1.00  0.00     0.015 C 
ENDBRANCH   1  30
BRANCH   6  33
HETATM   33  O8  UNL     1      18.265  62.840  31.401  1.00  0.00    -0.390 OA
ATOM     34  H8  UNL     1      17.892  62.022  31.095  1.00  0.00     0.210 HD
ENDBRANCH   6  33
TORSDOF 13
ENDMDL
MODEL 2
REMARK VINA RESULT: -6.998076026      1.226      1.474
REMARK  13 active torsions:
REMARK  status: ('A' for Active; 'I' for Inactive)
REMARK    1  A    between atoms: O1_2  and  C2_3 
REMARK    2  A    between atoms: C2_3  and  C3_4 
REMARK    3  A    between atoms: C3_4  and  C4_5 
REMARK    4  A    between atoms: C4_5  and  O3_7 
REMARK    5  A    between atoms: O3_7  and  C5_8 
REMARK    6  A    between atoms: C5_8  and  C6_9 
REMARK    7  A    between atoms: C10_14  and  C11_15 
REMARK    8  A    between atoms: C12_16  and  C13_17 
REMARK    9  A    between atoms: C13_17  and  O5_18 
REMARK   10  A    between atoms: C13_17  and  C14_20 
REMARK   11  A    between atoms: C19_25  and  O6_26 
REMARK   12  A    between atoms: C20_28  and  O7_29 
REMARK   13  A    between atoms: C22_32  and  O8_33 
ROOT
HETATM    1  C5  UNL     1      15.660  62.916  33.245  1.00  0.00     0.207 C 
HETATM    2  O4  UNL     1      16.501  63.583  32.273  1.00  0.00    -0.315 OA
HETATM    3  C9  UNL     1      17.316  64.413  33.028  1.00  0.00     0.053 C 
HETATM    4  C10 UNL     1      17.787  65.612  32.686  1.00  0.00     0.032 C 
HETATM    5  C21 UNL     1      17.589  63.729  34.320  1.00  0.00     0.102 C 
HETATM    6  C22 UNL     1      16.770  62.468  34.211  1.00  0.00     0.188 C 
ENDROOT
BRANCH   4   7
HETATM    7  C11 UNL     1      18.640  66.362  33.602  1.00  0.00     0.001 C 
HETATM    8  C12 UNL     1      18.154  67.120  34.563  1.00  0.00     0.005 C 
BRANCH   8   9
HETATM    9  C13 UNL     1      19.056  67.851  35.455  1.00  0.00     0.147 C 
BRANCH   9  10
HETATM   10  O5  UNL     1      20.352  67.363  35.446  1.00  0.00    -0.391 OA
ATOM     11  H5  UNL     1      21.011  68.046  35.424  1.00  0.00     0.210 HD
ENDBRANCH   9  10
BRANCH   9  12
HETATM   12  C14 UNL     1      18.458  67.847  36.863  1.00  0.00     0.053 C 
HETATM   13  C15 UNL     1      19.498  67.319  37.805  1.00  0.00     0.037 C 
HETATM   14  C16 UNL     1      18.890  66.715  39.000  1.00  0.00    -0.021 C 
HETATM   15  C17 UNL     1      17.865  65.883  38.844  1.00  0.00    -0.057 C 
HETATM   16  C18 UNL     1      17.243  65.268  40.026  1.00  0.00     0.046 C 
HETATM   17  C19 UNL     1      17.420  65.637  37.439  1.00  0.00     0.175 C 
HETATM   18  C20 UNL     1      17.218  66.989  36.803  1.00  0.00     0.158 C 
BRANCH  17  19
HETATM   19  O6  UNL     1      16.202  64.982  37.456  1.00  0.00    -0.389 OA
ATOM     20  H6  UNL     1      15.612  65.402  36.842  1.00  0.00     0.210 HD
ENDBRANCH  17  19
BRANCH  18  21
HETATM   21  O7  UNL     1      16.180  67.621  37.486  1.00  0.00    -0.392 OA
ATOM     22  H7  UNL     1      15.359  67.463  37.034  1.00  0.00     0.210 HD
ENDBRANCH  18  21
ENDBRANCH   9  12
ENDBRANCH   8   9
ENDBRANCH   4   7
BRANCH   1  23
HETATM   23  O3  UNL     1      15.094  61.864  32.592  1.00  0.00    -0.280 OA
BRANCH  23  24
HETATM   24  C4  UNL     1      14.882  60.566  32.864  1.00  0.00     0.263 C 
HETATM   25  O2  UNL     1      15.512  59.712  32.234  1.00  0.00    -0.265 OA
BRANCH  24  26
HETATM   26  C3  UNL     1      13.918  60.064  33.896  1.00  0.00     0.137 C 
BRANCH  26  27
HETATM   27  C2  UNL     1      14.691  59.255  34.923  1.00  0.00     0.176 C 
BRANCH  27  28
HETATM   28  O1  UNL     1      14.193  57.969  34.979  1.00  0.00    -0.395 OA
HETATM   29  C1  UNL     1      13.055  57.942  35.784  1.00  0.00     0.201 C 
ENDBRANCH  27  28
ENDBRANCH  26  27
ENDBRANCH  24  26
ENDBRANCH  23  24
ENDBRANCH   1  23
BRANCH   1  30
HETATM   30  C6  UNL     1      14.827  63.984  33.831  1.00  0.00     0.044 C 
HETATM   31  C7  UNL     1      13.755  63.650  34.788  1.00  0.00     0.015 C 
HETATM   32  C8  UNL     1      14.325  64.866  32.687  1.00  0.00     0.015 C 
ENDBRANCH   1  30
BRANCH   6  33
HETATM   33  O8  UNL     1      17.527  61.535  33.516  1.00  0.00    -0.390 OA
ATOM     34  H8  UNL     1      17.773  61.954  32.700  1.00  0.00     0.210 HD
ENDBRANCH   6  33
TORSDOF 13
ENDMDL
MODEL 3
REMARK VINA RESULT: -6.937662288      3.151      4.492
REMARK  13 active torsions:
REMARK  status: ('A' for Active; 'I' for Inactive)
REMARK    1  A    between atoms: O1_2  and  C2_3 
REMARK    2  A    between atoms: C2_3  and  C3_4 
REMARK    3  A    between atoms: C3_4  and  C4_5 
REMARK    4  A    between atoms: C4_5  and  O3_7 
REMARK    5  A    between atoms: O3_7  and  C5_8 
REMARK    6  A    between atoms: C5_8  and  C6_9 
REMARK    7  A    between atoms: C10_14  and  C11_15 
REMARK    8  A    between atoms: C12_16  and  C13_17 
REMARK    9  A    between atoms: C13_17  and  O5_18 
REMARK   10  A    between atoms: C13_17  and  C14_20 
REMARK   11  A    between atoms: C19_25  and  O6_26 
REMARK   12  A    between atoms: C20_28  and  O7_29 
REMARK   13  A    between atoms: C22_32  and  O8_33 
ROOT
HETATM    1  C5  UNL     1      18.509  65.884  29.335  1.00  0.00     0.207 C 
HETATM    2  O4  UNL     1      17.525  66.306  30.311  1.00  0.00    -0.315 OA
HETATM    3  C9  UNL     1      18.273  66.778  31.380  1.00  0.00     0.053 C 
HETATM    4  C10 UNL     1      17.972  66.700  32.676  1.00  0.00     0.032 C 
HETATM    5  C21 UNL     1      19.505  67.406  30.830  1.00  0.00     0.102 C 
HETATM    6  C22 UNL     1      19.375  67.155  29.348  1.00  0.00     0.188 C 
ENDROOT
BRANCH   4   7
HETATM    7  C11 UNL     1      18.874  67.252  33.681  1.00  0.00     0.001 C 
HETATM    8  C12 UNL     1      18.512  67.438  34.933  1.00  0.00     0.005 C 
BRANCH   8   9
HETATM    9  C13 UNL     1      19.459  67.995  35.901  1.00  0.00     0.147 C 
BRANCH   9  10
HETATM   10  O5  UNL     1      20.701  67.385  35.869  1.00  0.00    -0.391 OA
ATOM     11  H5  UNL     1      20.674  66.492  35.548  1.00  0.00     0.210 HD
ENDBRANCH   9  10
BRANCH   9  12
HETATM   12  C14 UNL     1      18.829  67.927  37.293  1.00  0.00     0.053 C 
HETATM   13  C15 UNL     1      19.793  67.225  38.202  1.00  0.00     0.037 C 
HETATM   14  C16 UNL     1      19.104  66.581  39.330  1.00  0.00    -0.021 C 
HETATM   15  C17 UNL     1      18.010  65.865  39.085  1.00  0.00    -0.057 C 
HETATM   16  C18 UNL     1      17.306  65.212  40.199  1.00  0.00     0.046 C 
HETATM   17  C19 UNL     1      17.578  65.783  37.657  1.00  0.00     0.175 C 
HETATM   18  C20 UNL     1      17.517  67.198  37.138  1.00  0.00     0.158 C 
BRANCH  17  19
HETATM   19  O6  UNL     1      16.305  65.246  37.597  1.00  0.00    -0.389 OA
ATOM     20  H6  UNL     1      15.850  65.603  36.844  1.00  0.00     0.210 HD
ENDBRANCH  17  19
BRANCH  18  21
HETATM   21  O7  UNL     1      16.525  67.863  37.858  1.00  0.00    -0.392 OA
ATOM     22  H7  UNL     1      15.676  67.492  37.647  1.00  0.00     0.210 HD
ENDBRANCH  18  21
ENDBRANCH   9  12
ENDBRANCH   8   9
ENDBRANCH   4   7
BRANCH   1  23
HETATM   23  O3  UNL     1      17.834  65.737  28.163  1.00  0.00    -0.280 OA
BRANCH  23  24
HETATM   24  C4  UNL     1      18.166  65.693  26.862  1.00  0.00     0.263 C 
HETATM   25  O2  UNL     1      17.885  66.652  26.140  1.00  0.00    -0.265 OA
BRANCH  24  26
HETATM   26  C3  UNL     1      18.866  64.541  26.207  1.00  0.00     0.137 C 
BRANCH  26  27
HETATM   27  C2  UNL     1      17.820  63.636  25.579  1.00  0.00     0.176 C 
BRANCH  27  28
HETATM   28  O1  UNL     1      17.715  62.467  26.304  1.00  0.00    -0.395 OA
HETATM   29  C1  UNL     1      16.461  62.402  26.910  1.00  0.00     0.201 C 
ENDBRANCH  27  28
ENDBRANCH  26  27
ENDBRANCH  24  26
ENDBRANCH  23  24
ENDBRANCH   1  23
BRANCH   1  30
HETATM   30  C6  UNL     1      19.207  64.744  29.960  1.00  0.00     0.044 C 
HETATM   31  C7  UNL     1      20.513  64.297  29.440  1.00  0.00     0.015 C 
HETATM   32  C8  UNL     1      18.208  63.592  30.077  1.00  0.00     0.015 C 
ENDBRANCH   1  30
BRANCH   6  33
HETATM   33  O8  UNL     1      18.582  68.164  28.820  1.00  0.00    -0.390 OA
ATOM     34  H8  UNL     1      19.177  68.860  28.569  1.00  0.00     0.210 HD
ENDBRANCH   6  33
TORSDOF 13
ENDMDL
MODEL 4
REMARK VINA RESULT: -6.888268468      1.639      2.882
REMARK  13 active torsions:
REMARK  status: ('A' for Active; 'I' for Inactive)
REMARK    1  A    between atoms: O1_2  and  C2_3 
REMARK    2  A    between atoms: C2_3  and  C3_4 
REMARK    3  A    between atoms: C3_4  and  C4_5 
REMARK    4  A    between atoms: C4_5  and  O3_7 
REMARK    5  A    between atoms: O3_7  and  C5_8 
REMARK    6  A    between atoms: C5_8  and  C6_9 
REMARK    7  A    between atoms: C10_14  and  C11_15 
REMARK    8  A    between atoms: C12_16  and  C13_17 
REMARK    9  A    between atoms: C13_17  and  O5_18 
REMARK   10  A    between atoms: C13_17  and  C14_20 
REMARK   11  A    between atoms: C19_25  and  O6_26 
REMARK   12  A    between atoms: C20_28  and  O7_29 
REMARK   13  A    between atoms: C22_32  and  O8_33 
ROOT
HETATM    1  C5  UNL     1      16.514  63.971  31.949  1.00  0.00     0.207 C 
HETATM    2  O4  UNL     1      16.959  65.245  31.421  1.00  0.00    -0.315 OA
HETATM    3  C9  UNL     1      17.818  65.743  32.389  1.00  0.00     0.053 C 
HETATM    4  C10 UNL     1      18.003  67.019  32.727  1.00  0.00     0.032 C 
HETATM    5  C21 UNL     1      18.523  64.589  33.008  1.00  0.00     0.102 C 
HETATM    6  C22 UNL     1      17.895  63.404  32.319  1.00  0.00     0.188 C 
ENDROOT
BRANCH   4   7
HETATM    7  C11 UNL     1      18.954  67.377  33.775  1.00  0.00     0.001 C 
HETATM    8  C12 UNL     1      18.580  67.659  35.005  1.00  0.00     0.005 C 
BRANCH   8   9
HETATM    9  C13 UNL     1      19.576  68.013  36.018  1.00  0.00     0.147 C 
BRANCH   9  10
HETATM   10  O5  UNL     1      20.727  67.247  35.947  1.00  0.00    -0.391 OA
ATOM     11  H5  UNL     1      21.072  67.005  36.798  1.00  0.00     0.210 HD
ENDBRANCH   9  10
BRANCH   9  12
HETATM   12  C14 UNL     1      18.921  67.926  37.398  1.00  0.00     0.053 C 
HETATM   13  C15 UNL     1      19.850  67.174  38.303  1.00  0.00     0.037 C 
HETATM   14  C16 UNL     1      19.123  66.520  39.402  1.00  0.00    -0.021 C 
HETATM   15  C17 UNL     1      18.014  65.843  39.120  1.00  0.00    -0.057 C 
HETATM   16  C18 UNL     1      17.272  65.182  40.204  1.00  0.00     0.046 C 
HETATM   17  C19 UNL     1      17.604  65.811  37.684  1.00  0.00     0.175 C 
HETATM   18  C20 UNL     1      17.592  67.240  37.202  1.00  0.00     0.158 C 
BRANCH  17  19
HETATM   19  O6  UNL     1      16.318  65.312  37.589  1.00  0.00    -0.389 OA
ATOM     20  H6  UNL     1      15.717  66.027  37.418  1.00  0.00     0.210 HD
ENDBRANCH  17  19
BRANCH  18  21
HETATM   21  O7  UNL     1      16.607  67.914  37.922  1.00  0.00    -0.392 OA
ATOM     22  H7  UNL     1      16.606  68.832  37.677  1.00  0.00     0.210 HD
ENDBRANCH  18  21
ENDBRANCH   9  12
ENDBRANCH   8   9
ENDBRANCH   4   7
BRANCH   1  23
HETATM   23  O3  UNL     1      15.952  63.308  30.902  1.00  0.00    -0.280 OA
BRANCH  23  24
HETATM   24  C4  UNL     1      15.606  63.617  29.642  1.00  0.00     0.263 C 
HETATM   25  O2  UNL     1      14.573  64.262  29.446  1.00  0.00    -0.265 OA
BRANCH  24  26
HETATM   26  C3  UNL     1      16.396  63.229  28.429  1.00  0.00     0.137 C 
BRANCH  26  27
HETATM   27  C2  UNL     1      17.130  64.458  27.920  1.00  0.00     0.176 C 
BRANCH  27  28
HETATM   28  O1  UNL     1      18.365  64.553  28.528  1.00  0.00    -0.395 OA
HETATM   29  C1  UNL     1      18.787  65.881  28.526  1.00  0.00     0.201 C 
ENDBRANCH  27  28
ENDBRANCH  26  27
ENDBRANCH  24  26
ENDBRANCH  23  24
ENDBRANCH   1  23
BRANCH   1  30
HETATM   30  C6  UNL     1      15.724  64.307  33.150  1.00  0.00     0.044 C 
HETATM   31  C7  UNL     1      15.422  63.270  34.154  1.00  0.00     0.015 C 
HETATM   32  C8  UNL     1      14.470  65.050  32.691  1.00  0.00     0.015 C 
ENDBRANCH   1  30
BRANCH   6  33
HETATM   33  O8  UNL     1      18.564  63.214  31.118  1.00  0.00    -0.390 OA
ATOM     34  H8  UNL     1      18.859  62.312  31.123  1.00  0.00     0.210 HD
ENDBRANCH   6  33
TORSDOF 13
ENDMDL
MODEL 5
REMARK VINA RESULT: -6.875750035      4.818      8.435
REMARK  13 active torsions:
REMARK  status: ('A' for Active; 'I' for Inactive)
REMARK    1  A    between atoms: O1_2  and  C2_3 
REMARK    2  A    between atoms: C2_3  and  C3_4 
REMARK    3  A    between atoms: C3_4  and  C4_5 
REMARK    4  A    between atoms: C4_5  and  O3_7 
REMARK    5  A    between atoms: O3_7  and  C5_8 
REMARK    6  A    between atoms: C5_8  and  C6_9 
REMARK    7  A    between atoms: C10_14  and  C11_15 
REMARK    8  A    between atoms: C12_16  and  C13_17 
REMARK    9  A    between atoms: C13_17  and  O5_18 
REMARK   10  A    between atoms: C13_17  and  C14_20 
REMARK   11  A    between atoms: C19_25  and  O6_26 
REMARK   12  A    between atoms: C20_28  and  O7_29 
REMARK   13  A    between atoms: C22_32  and  O8_33 
ROOT
HETATM    1  C5  UNL     1      20.678  68.381  29.346  1.00  0.00     0.207 C 
HETATM    2  O4  UNL     1      21.034  68.140  30.729  1.00  0.00    -0.315 OA
HETATM    3  C9  UNL     1      19.855  67.714  31.324  1.00  0.00     0.053 C 
HETATM    4  C10 UNL     1      19.451  67.943  32.573  1.00  0.00     0.032 C 
HETATM    5  C21 UNL     1      19.092  66.935  30.313  1.00  0.00     0.102 C 
HETATM    6  C22 UNL     1      19.954  67.050  29.081  1.00  0.00     0.188 C 
ENDROOT
BRANCH   4   7
HETATM    7  C11 UNL     1      18.174  67.419  33.047  1.00  0.00     0.001 C 
HETATM    8  C12 UNL     1      18.067  66.257  33.657  1.00  0.00     0.005 C 
BRANCH   8   9
HETATM    9  C13 UNL     1      16.760  65.779  34.111  1.00  0.00     0.147 C 
BRANCH   9  10
HETATM   10  O5  UNL     1      16.619  65.791  35.488  1.00  0.00    -0.391 OA
ATOM     11  H5  UNL     1      16.759  64.941  35.889  1.00  0.00     0.210 HD
ENDBRANCH   9  10
BRANCH   9  12
HETATM   12  C14 UNL     1      16.522  64.384  33.528  1.00  0.00     0.053 C 
HETATM   13  C15 UNL     1      17.775  63.959  32.823  1.00  0.00     0.037 C 
HETATM   14  C16 UNL     1      17.493  62.982  31.760  1.00  0.00    -0.021 C 
HETATM   15  C17 UNL     1      16.485  63.218  30.927  1.00  0.00    -0.057 C 
HETATM   16  C18 UNL     1      16.186  62.254  29.857  1.00  0.00     0.046 C 
HETATM   17  C19 UNL     1      15.719  64.481  31.154  1.00  0.00     0.175 C 
HETATM   18  C20 UNL     1      15.330  64.498  32.611  1.00  0.00     0.158 C 
BRANCH  17  19
HETATM   19  O6  UNL     1      14.561  64.453  30.398  1.00  0.00    -0.389 OA
ATOM     20  H6  UNL     1      13.820  64.666  30.953  1.00  0.00     0.210 HD
ENDBRANCH  17  19
BRANCH  18  21
HETATM   21  O7  UNL     1      14.471  63.421  32.826  1.00  0.00    -0.392 OA
ATOM     22  H7  UNL     1      13.700  63.515  32.279  1.00  0.00     0.210 HD
ENDBRANCH  18  21
ENDBRANCH   9  12
ENDBRANCH   8   9
ENDBRANCH   4   7
BRANCH   1  23
HETATM   23  O3  UNL     1      21.853  68.469  28.666  1.00  0.00    -0.280 OA
BRANCH  23  24
HETATM   24  C4  UNL     1      22.232  68.358  27.383  1.00  0.00     0.263 C 
HETATM   25  O2  UNL     1      22.821  67.337  27.019  1.00  0.00    -0.265 OA
BRANCH  24  26
HETATM   26  C3  UNL     1      21.988  69.403  26.335  1.00  0.00     0.137 C 
BRANCH  26  27
HETATM   27  C2  UNL     1      22.492  70.736  26.860  1.00  0.00     0.176 C 
BRANCH  27  28
HETATM   28  O1  UNL     1      21.518  71.700  26.702  1.00  0.00    -0.395 OA
HETATM   29  C1  UNL     1      20.895  71.540  25.465  1.00  0.00     0.201 C 
ENDBRANCH  27  28
ENDBRANCH  26  27
ENDBRANCH  24  26
ENDBRANCH  23  24
ENDBRANCH   1  23
BRANCH   1  30
HETATM   30  C6  UNL     1      19.734  69.515  29.383  1.00  0.00     0.044 C 
HETATM   31  C7  UNL     1      18.890  69.818  28.212  1.00  0.00     0.015 C 
HETATM   32  C8  UNL     1      20.499  70.744  29.877  1.00  0.00     0.015 C 
ENDBRANCH   1  30
BRANCH   6  33
HETATM   33  O8  UNL     1      20.928  66.064  29.158  1.00  0.00    -0.390 OA
ATOM     34  H8  UNL     1      20.720  65.437  28.476  1.00  0.00     0.210 HD
ENDBRANCH   6  33
TORSDOF 13
ENDMDL
