MODEL 1
REMARK VINA RESULT: -7.781742747      0.000      0.000
REMARK  12 active torsions:
REMARK  status: ('A' for Active; 'I' for Inactive)
REMARK    1  A    between atoms: O1_1  and  N1_3 
REMARK    2  A    between atoms: C1_5  and  O2_6 
REMARK    3  A    between atoms: C1_5  and  C2_8 
REMARK    4  A    between atoms: C2_8  and  S1_9 
REMARK    5  A    between atoms: S1_9  and  C3_10 
REMARK    6  A    between atoms: C5_12  and  N2_13 
REMARK    7  A    between atoms: N2_13  and  C6_15 
REMARK    8  A    between atoms: C12_23  and  N4_24 
REMARK    9  A    between atoms: N4_24  and  C13_26 
REMARK   10  A    between atoms: C13_26  and  C14_27 
REMARK   11  A    between atoms: C14_27  and  C15_28 
REMARK   12  A    between atoms: C15_28  and  N5_29 
ROOT
HETATM    1  C3  UNL     1      19.388  68.479  33.019  1.00  0.00     0.090 A 
HETATM    2  C4  UNL     1      19.235  68.000  34.298  1.00  0.00     0.086 A 
HETATM    3  C5  UNL     1      18.196  67.131  34.609  1.00  0.00     0.119 A 
HETATM    4  N3  UNL     1      17.343  66.769  33.639  1.00  0.00    -0.177 N 
ATOM      5  H3  UNL     1      16.578  66.131  33.862  1.00  0.00     0.185 HD
HETATM    6  C12 UNL     1      17.474  67.232  32.361  1.00  0.00     0.680 A 
HETATM    7  N6  UNL     1      18.486  68.067  32.097  1.00  0.00    -0.186 N 
ATOM      8  H6  UNL     1      18.584  68.414  31.142  1.00  0.00     0.185 HD
ENDROOT
BRANCH   6   9
HETATM    9  N4  UNL     1      16.622  66.845  31.471  1.00  0.00    -0.226 N 
ATOM     10  H4  UNL     1      15.630  67.033  31.620  1.00  0.00     0.177 HD
BRANCH   9  11
HETATM   11  C13 UNL     1      17.030  66.157  30.280  1.00  0.00     0.140 C 
BRANCH  11  12
HETATM   12  C14 UNL     1      17.050  64.655  30.567  1.00  0.00     0.050 C 
BRANCH  12  13
HETATM   13  C15 UNL     1      15.658  64.291  31.007  1.00  0.00     0.274 C 
BRANCH  13  14
HETATM   14  N5  UNL     1      15.704  63.468  32.200  1.00  0.00     0.092 N 
HETATM   15  C16 UNL     1      14.815  63.982  33.165  1.00  0.00     0.298 C 
HETATM   16  C17 UNL     1      15.279  64.140  34.563  1.00  0.00     0.198 C 
HETATM   17  O3  UNL     1      16.613  63.952  34.810  1.00  0.00    -0.388 OA
HETATM   18  C18 UNL     1      17.185  62.966  34.022  1.00  0.00     0.198 C 
HETATM   19  C19 UNL     1      17.058  63.262  32.560  1.00  0.00     0.298 C 
ENDBRANCH  13  14
ENDBRANCH  12  13
ENDBRANCH  11  12
ENDBRANCH   9  11
ENDBRANCH   6   9
BRANCH   3  20
HETATM   20  N2  UNL     1      18.025  66.665  35.785  1.00  0.00    -0.371 N 
ATOM     21  H2  UNL     1      18.498  65.799  36.045  1.00  0.00     0.161 HD
BRANCH  20  22
HETATM   22  C6  UNL     1      17.194  67.314  36.753  1.00  0.00     0.083 C 
HETATM   23  C7  UNL     1      16.122  66.422  37.335  1.00  0.00     0.025 C 
HETATM   24  C8  UNL     1      16.687  65.339  38.224  1.00  0.00     0.002 C 
HETATM   25  C9  UNL     1      17.714  65.822  39.189  1.00  0.00     0.000 C 
HETATM   26  C10 UNL     1      18.794  66.586  38.438  1.00  0.00     0.002 C 
HETATM   27  C11 UNL     1      18.131  67.818  37.860  1.00  0.00     0.025 C 
ENDBRANCH  20  22
ENDBRANCH   3  20
BRANCH   1  28
HETATM   28  S1  UNL     1      20.679  69.571  32.505  1.00  0.00    -0.103 SA
BRANCH  28  29
HETATM   29  C2  UNL     1      21.075  69.508  30.770  1.00  0.00     0.166 C 
BRANCH  29  30
HETATM   30  C1  UNL     1      22.140  70.478  30.453  1.00  0.00     0.145 C 
HETATM   31  N1  UNL     1      22.811  70.371  29.373  1.00  0.00    -0.250 N 
ATOM     32  H1  UNL     1      22.575  69.597  28.753  1.00  0.00     0.196 HD
BRANCH  31  33
HETATM   33  O1  UNL     1      23.808  71.195  28.978  1.00  0.00    -0.288 OA
ATOM     34  H1  UNL     1      24.212  71.206  28.118  1.00  0.00     0.244 HD
ENDBRANCH  31  33
BRANCH  30  35
HETATM   35  O2  UNL     1      22.405  71.502  31.337  1.00  0.00    -0.348 OA
ATOM     36  H2  UNL     1      22.510  71.319  32.263  1.00  0.00     0.219 HD
ENDBRANCH  30  35
ENDBRANCH  29  30
ENDBRANCH  28  29
ENDBRANCH   1  28
TORSDOF 12
ENDMDL
MODEL 2
REMARK VINA RESULT: -7.727196396      2.949      7.294
REMARK  12 active torsions:
REMARK  status: ('A' for Active; 'I' for Inactive)
REMARK    1  A    between atoms: O1_1  and  N1_3 
REMARK    2  A    between atoms: C1_5  and  O2_6 
REMARK    3  A    between atoms: C1_5  and  C2_8 
REMARK    4  A    between atoms: C2_8  and  S1_9 
REMARK    5  A    between atoms: S1_9  and  C3_10 
REMARK    6  A    between atoms: C5_12  and  N2_13 
REMARK    7  A    between atoms: N2_13  and  C6_15 
REMARK    8  A    between atoms: C12_23  and  N4_24 
REMARK    9  A    between atoms: N4_24  and  C13_26 
REMARK   10  A    between atoms: C13_26  and  C14_27 
REMARK   11  A    between atoms: C14_27  and  C15_28 
REMARK   12  A    between atoms: C15_28  and  N5_29 
ROOT
HETATM    1  C3  UNL     1      15.178  63.804  33.849  1.00  0.00     0.090 A 
HETATM    2  C4  UNL     1      15.831  64.243  34.977  1.00  0.00     0.086 A 
HETATM    3  C5  UNL     1      16.593  65.404  34.946  1.00  0.00     0.119 A 
HETATM    4  N3  UNL     1      16.683  66.090  33.797  1.00  0.00    -0.177 N 
ATOM      5  H3  UNL     1      17.241  66.944  33.769  1.00  0.00     0.185 HD
HETATM    6  C12 UNL     1      16.045  65.674  32.664  1.00  0.00     0.680 A 
HETATM    7  N6  UNL     1      15.319  64.551  32.728  1.00  0.00    -0.186 N 
ATOM      8  H6  UNL     1      14.842  64.239  31.882  1.00  0.00     0.185 HD
ENDROOT
BRANCH   6   9
HETATM    9  N4  UNL     1      16.168  66.378  31.589  1.00  0.00    -0.226 N 
ATOM     10  H4  UNL     1      15.358  66.888  31.235  1.00  0.00     0.177 HD
BRANCH   9  11
HETATM   11  C13 UNL     1      17.411  66.465  30.877  1.00  0.00     0.140 C 
BRANCH  11  12
HETATM   12  C14 UNL     1      18.018  67.847  31.124  1.00  0.00     0.050 C 
BRANCH  12  13
HETATM   13  C15 UNL     1      19.333  67.613  31.816  1.00  0.00     0.274 C 
BRANCH  13  14
HETATM   14  N5  UNL     1      19.534  68.595  32.864  1.00  0.00     0.092 N 
HETATM   15  C16 UNL     1      20.482  69.550  32.445  1.00  0.00     0.298 C 
HETATM   16  C17 UNL     1      21.577  69.933  33.365  1.00  0.00     0.198 C 
HETATM   17  O3  UNL     1      21.723  69.198  34.512  1.00  0.00    -0.388 OA
HETATM   18  C18 UNL     1      20.518  68.768  35.047  1.00  0.00     0.198 C 
HETATM   19  C19 UNL     1      19.744  67.918  34.090  1.00  0.00     0.298 C 
ENDBRANCH  13  14
ENDBRANCH  12  13
ENDBRANCH  11  12
ENDBRANCH   9  11
ENDBRANCH   6   9
BRANCH   3  20
HETATM   20  N2  UNL     1      17.211  65.842  35.975  1.00  0.00    -0.371 N 
ATOM     21  H2  UNL     1      18.231  65.867  35.963  1.00  0.00     0.161 HD
BRANCH  20  22
HETATM   22  C6  UNL     1      16.522  66.299  37.143  1.00  0.00     0.083 C 
HETATM   23  C7  UNL     1      16.665  65.381  38.335  1.00  0.00     0.025 C 
HETATM   24  C8  UNL     1      18.067  65.372  38.897  1.00  0.00     0.002 C 
HETATM   25  C9  UNL     1      18.665  66.728  39.056  1.00  0.00     0.000 C 
HETATM   26  C10 UNL     1      18.567  67.481  37.738  1.00  0.00     0.002 C 
HETATM   27  C11 UNL     1      17.092  67.688  37.466  1.00  0.00     0.025 C 
ENDBRANCH  20  22
ENDBRANCH   3  20
BRANCH   1  28
HETATM   28  S1  UNL     1      14.168  62.355  33.774  1.00  0.00    -0.103 SA
BRANCH  28  29
HETATM   29  C2  UNL     1      14.978  60.902  33.138  1.00  0.00     0.166 C 
BRANCH  29  30
HETATM   30  C1  UNL     1      15.017  59.847  34.167  1.00  0.00     0.145 C 
HETATM   31  N1  UNL     1      15.694  60.011  35.236  1.00  0.00    -0.250 N 
ATOM     32  H1  UNL     1      16.194  60.894  35.339  1.00  0.00     0.196 HD
BRANCH  31  33
HETATM   33  O1  UNL     1      15.807  59.117  36.244  1.00  0.00    -0.288 OA
ATOM     34  H1  UNL     1      15.932  59.328  37.162  1.00  0.00     0.244 HD
ENDBRANCH  31  33
BRANCH  30  35
HETATM   35  O2  UNL     1      14.316  58.677  33.962  1.00  0.00    -0.348 OA
ATOM     36  H2  UNL     1      13.456  58.700  33.559  1.00  0.00     0.219 HD
ENDBRANCH  30  35
ENDBRANCH  29  30
ENDBRANCH  28  29
ENDBRANCH   1  28
TORSDOF 12
ENDMDL
MODEL 3
REMARK VINA RESULT: -7.664603918      2.748      7.457
REMARK  12 active torsions:
REMARK  status: ('A' for Active; 'I' for Inactive)
REMARK    1  A    between atoms: O1_1  and  N1_3 
REMARK    2  A    between atoms: C1_5  and  O2_6 
REMARK    3  A    between atoms: C1_5  and  C2_8 
REMARK    4  A    between atoms: C2_8  and  S1_9 
REMARK    5  A    between atoms: S1_9  and  C3_10 
REMARK    6  A    between atoms: C5_12  and  N2_13 
REMARK    7  A    between atoms: N2_13  and  C6_15 
REMARK    8  A    between atoms: C12_23  and  N4_24 
REMARK    9  A    between atoms: N4_24  and  C13_26 
REMARK   10  A    between atoms: C13_26  and  C14_27 
REMARK   11  A    between atoms: C14_27  and  C15_28 
REMARK   12  A    between atoms: C15_28  and  N5_29 
ROOT
HETATM    1  C3  UNL     1      15.020  63.857  34.151  1.00  0.00     0.090 A 
HETATM    2  C4  UNL     1      15.721  64.297  35.248  1.00  0.00     0.086 A 
HETATM    3  C5  UNL     1      16.670  65.305  35.124  1.00  0.00     0.119 A 
HETATM    4  N3  UNL     1      16.891  65.841  33.915  1.00  0.00    -0.177 N 
ATOM      5  H3  UNL     1      17.587  66.581  33.818  1.00  0.00     0.185 HD
HETATM    6  C12 UNL     1      16.209  65.419  32.810  1.00  0.00     0.680 A 
HETATM    7  N6  UNL     1      15.301  64.447  32.965  1.00  0.00    -0.186 N 
ATOM      8  H6  UNL     1      14.791  64.132  32.139  1.00  0.00     0.185 HD
ENDROOT
BRANCH   6   9
HETATM    9  N4  UNL     1      16.465  65.976  31.673  1.00  0.00    -0.226 N 
ATOM     10  H4  UNL     1      16.566  65.388  30.845  1.00  0.00     0.177 HD
BRANCH   9  11
HETATM   11  C13 UNL     1      16.615  67.397  31.541  1.00  0.00     0.140 C 
BRANCH  11  12
HETATM   12  C14 UNL     1      18.026  67.694  31.034  1.00  0.00     0.050 C 
BRANCH  12  13
HETATM   13  C15 UNL     1      18.706  68.488  32.116  1.00  0.00     0.274 C 
BRANCH  13  14
HETATM   14  N5  UNL     1      20.016  68.926  31.674  1.00  0.00     0.092 N 
HETATM   15  C16 UNL     1      20.694  69.549  32.740  1.00  0.00     0.298 C 
HETATM   16  C17 UNL     1      21.373  70.844  32.508  1.00  0.00     0.198 C 
HETATM   17  O3  UNL     1      21.149  71.466  31.308  1.00  0.00    -0.388 OA
HETATM   18  C18 UNL     1      21.008  70.584  30.248  1.00  0.00     0.198 C 
HETATM   19  C19 UNL     1      19.874  69.629  30.452  1.00  0.00     0.298 C 
ENDBRANCH  13  14
ENDBRANCH  12  13
ENDBRANCH  11  12
ENDBRANCH   9  11
ENDBRANCH   6   9
BRANCH   3  20
HETATM   20  N2  UNL     1      17.337  65.740  36.122  1.00  0.00    -0.371 N 
ATOM     21  H2  UNL     1      18.350  65.616  36.129  1.00  0.00     0.161 HD
BRANCH  20  22
HETATM   22  C6  UNL     1      16.715  66.396  37.232  1.00  0.00     0.083 C 
HETATM   23  C7  UNL     1      16.840  65.642  38.536  1.00  0.00     0.025 C 
HETATM   24  C8  UNL     1      18.256  65.621  39.061  1.00  0.00     0.002 C 
HETATM   25  C9  UNL     1      18.939  66.944  39.017  1.00  0.00     0.000 C 
HETATM   26  C10 UNL     1      18.845  67.515  37.610  1.00  0.00     0.002 C 
HETATM   27  C11 UNL     1      17.377  67.776  37.346  1.00  0.00     0.025 C 
ENDBRANCH  20  22
ENDBRANCH   3  20
BRANCH   1  28
HETATM   28  S1  UNL     1      13.780  62.598  34.191  1.00  0.00    -0.103 SA
BRANCH  28  29
HETATM   29  C2  UNL     1      14.227  61.071  33.392  1.00  0.00     0.166 C 
BRANCH  29  30
HETATM   30  C1  UNL     1      15.250  60.361  34.182  1.00  0.00     0.145 C 
HETATM   31  N1  UNL     1      14.949  59.832  35.303  1.00  0.00    -0.250 N 
ATOM     32  H1  UNL     1      13.982  59.923  35.616  1.00  0.00     0.196 HD
BRANCH  31  33
HETATM   33  O1  UNL     1      15.799  59.161  36.114  1.00  0.00    -0.288 OA
ATOM     34  H1  UNL     1      15.913  59.311  37.045  1.00  0.00     0.244 HD
ENDBRANCH  31  33
BRANCH  30  35
HETATM   35  O2  UNL     1      16.538  60.276  33.698  1.00  0.00    -0.348 OA
ATOM     36  H2  UNL     1      16.717  60.450  32.781  1.00  0.00     0.219 HD
ENDBRANCH  30  35
ENDBRANCH  29  30
ENDBRANCH  28  29
ENDBRANCH   1  28
TORSDOF 12
ENDMDL
MODEL 4
REMARK VINA RESULT: -7.643267729      1.516      4.837
REMARK  12 active torsions:
REMARK  status: ('A' for Active; 'I' for Inactive)
REMARK    1  A    between atoms: O1_1  and  N1_3 
REMARK    2  A    between atoms: C1_5  and  O2_6 
REMARK    3  A    between atoms: C1_5  and  C2_8 
REMARK    4  A    between atoms: C2_8  and  S1_9 
REMARK    5  A    between atoms: S1_9  and  C3_10 
REMARK    6  A    between atoms: C5_12  and  N2_13 
REMARK    7  A    between atoms: N2_13  and  C6_15 
REMARK    8  A    between atoms: C12_23  and  N4_24 
REMARK    9  A    between atoms: N4_24  and  C13_26 
REMARK   10  A    between atoms: C13_26  and  C14_27 
REMARK   11  A    between atoms: C14_27  and  C15_28 
REMARK   12  A    between atoms: C15_28  and  N5_29 
ROOT
HETATM    1  C3  UNL     1      19.193  68.294  32.186  1.00  0.00     0.090 A 
HETATM    2  C4  UNL     1      18.229  67.321  32.313  1.00  0.00     0.086 A 
HETATM    3  C5  UNL     1      17.951  66.759  33.553  1.00  0.00     0.119 A 
HETATM    4  N3  UNL     1      18.640  67.180  34.624  1.00  0.00    -0.177 N 
ATOM      5  H3  UNL     1      18.439  66.771  35.538  1.00  0.00     0.185 HD
HETATM    6  C12 UNL     1      19.602  68.144  34.523  1.00  0.00     0.680 A 
HETATM    7  N6  UNL     1      19.845  68.665  33.314  1.00  0.00    -0.186 N 
ATOM      8  H6  UNL     1      20.564  69.385  33.237  1.00  0.00     0.185 HD
ENDROOT
BRANCH   6   9
HETATM    9  N4  UNL     1      20.229  68.509  35.591  1.00  0.00    -0.226 N 
ATOM     10  H4  UNL     1      20.534  69.479  35.680  1.00  0.00     0.177 HD
BRANCH   9  11
HETATM   11  C13 UNL     1      20.511  67.590  36.657  1.00  0.00     0.140 C 
BRANCH  11  12
HETATM   12  C14 UNL     1      19.871  68.122  37.940  1.00  0.00     0.050 C 
BRANCH  12  13
HETATM   13  C15 UNL     1      19.461  66.916  38.740  1.00  0.00     0.274 C 
BRANCH  13  14
HETATM   14  N5  UNL     1      18.022  66.742  38.691  1.00  0.00     0.092 N 
HETATM   15  C16 UNL     1      17.717  65.407  38.357  1.00  0.00     0.298 C 
HETATM   16  C17 UNL     1      16.702  65.136  37.314  1.00  0.00     0.198 C 
HETATM   17  O3  UNL     1      16.243  66.205  36.589  1.00  0.00    -0.388 OA
HETATM   18  C18 UNL     1      16.147  67.372  37.330  1.00  0.00     0.198 C 
HETATM   19  C19 UNL     1      17.463  67.784  37.913  1.00  0.00     0.298 C 
ENDBRANCH  13  14
ENDBRANCH  12  13
ENDBRANCH  11  12
ENDBRANCH   9  11
ENDBRANCH   6   9
BRANCH   3  20
HETATM   20  N2  UNL     1      17.062  65.856  33.709  1.00  0.00    -0.371 N 
ATOM     21  H2  UNL     1      16.538  65.827  34.584  1.00  0.00     0.161 HD
BRANCH  20  22
HETATM   22  C6  UNL     1      16.774  64.884  32.699  1.00  0.00     0.083 C 
HETATM   23  C7  UNL     1      17.542  63.592  32.858  1.00  0.00     0.025 C 
HETATM   24  C8  UNL     1      17.097  62.796  34.061  1.00  0.00     0.002 C 
HETATM   25  C9  UNL     1      15.617  62.683  34.200  1.00  0.00     0.000 C 
HETATM   26  C10 UNL     1      14.999  64.073  34.156  1.00  0.00     0.002 C 
HETATM   27  C11 UNL     1      15.263  64.620  32.770  1.00  0.00     0.025 C 
ENDBRANCH  20  22
ENDBRANCH   3  20
BRANCH   1  28
HETATM   28  S1  UNL     1      19.619  69.091  30.667  1.00  0.00    -0.103 SA
BRANCH  28  29
HETATM   29  C2  UNL     1      21.336  68.979  30.210  1.00  0.00     0.166 C 
BRANCH  29  30
HETATM   30  C1  UNL     1      22.094  70.105  30.787  1.00  0.00     0.145 C 
HETATM   31  N1  UNL     1      22.824  70.841  30.044  1.00  0.00    -0.250 N 
ATOM     32  H1  UNL     1      22.853  70.615  29.050  1.00  0.00     0.196 HD
BRANCH  31  33
HETATM   33  O1  UNL     1      23.563  71.895  30.459  1.00  0.00    -0.288 OA
ATOM     34  H1  UNL     1      23.232  72.765  30.646  1.00  0.00     0.244 HD
ENDBRANCH  31  33
BRANCH  30  35
HETATM   35  O2  UNL     1      22.006  70.354  32.140  1.00  0.00    -0.348 OA
ATOM     36  H2  UNL     1      22.744  70.167  32.709  1.00  0.00     0.219 HD
ENDBRANCH  30  35
ENDBRANCH  29  30
ENDBRANCH  28  29
ENDBRANCH   1  28
TORSDOF 12
ENDMDL
MODEL 5
REMARK VINA RESULT: -7.615141116      4.139      6.692
REMARK  12 active torsions:
REMARK  status: ('A' for Active; 'I' for Inactive)
REMARK    1  A    between atoms: O1_1  and  N1_3 
REMARK    2  A    between atoms: C1_5  and  O2_6 
REMARK    3  A    between atoms: C1_5  and  C2_8 
REMARK    4  A    between atoms: C2_8  and  S1_9 
REMARK    5  A    between atoms: S1_9  and  C3_10 
REMARK    6  A    between atoms: C5_12  and  N2_13 
REMARK    7  A    between atoms: N2_13  and  C6_15 
REMARK    8  A    between atoms: C12_23  and  N4_24 
REMARK    9  A    between atoms: N4_24  and  C13_26 
REMARK   10  A    between atoms: C13_26  and  C14_27 
REMARK   11  A    between atoms: C14_27  and  C15_28 
REMARK   12  A    between atoms: C15_28  and  N5_29 
ROOT
HETATM    1  C3  UNL     1      15.261  63.923  33.878  1.00  0.00     0.090 A 
HETATM    2  C4  UNL     1      15.956  64.317  34.997  1.00  0.00     0.086 A 
HETATM    3  C5  UNL     1      16.712  65.482  34.987  1.00  0.00     0.119 A 
HETATM    4  N3  UNL     1      16.754  66.217  33.865  1.00  0.00    -0.177 N 
ATOM      5  H3  UNL     1      17.307  67.074  33.852  1.00  0.00     0.185 HD
HETATM    6  C12 UNL     1      16.074  65.846  32.741  1.00  0.00     0.680 A 
HETATM    7  N6  UNL     1      15.355  64.718  32.785  1.00  0.00    -0.186 N 
ATOM      8  H6  UNL     1      14.846  64.440  31.945  1.00  0.00     0.185 HD
ENDROOT
BRANCH   6   9
HETATM    9  N4  UNL     1      16.152  66.597  31.693  1.00  0.00    -0.226 N 
ATOM     10  H4  UNL     1      15.361  66.633  31.049  1.00  0.00     0.177 HD
BRANCH   9  11
HETATM   11  C13 UNL     1      17.319  67.382  31.407  1.00  0.00     0.140 C 
BRANCH  11  12
HETATM   12  C14 UNL     1      17.913  66.905  30.082  1.00  0.00     0.050 C 
BRANCH  12  13
HETATM   13  C15 UNL     1      19.055  65.991  30.434  1.00  0.00     0.274 C 
BRANCH  13  14
HETATM   14  N5  UNL     1      18.734  64.622  30.080  1.00  0.00     0.092 N 
HETATM   15  C16 UNL     1      17.700  64.609  29.121  1.00  0.00     0.298 C 
HETATM   16  C17 UNL     1      16.553  63.691  29.307  1.00  0.00     0.198 C 
HETATM   17  O3  UNL     1      16.462  63.031  30.503  1.00  0.00    -0.388 OA
HETATM   18  C18 UNL     1      17.694  62.680  31.034  1.00  0.00     0.198 C 
HETATM   19  C19 UNL     1      18.571  63.870  31.268  1.00  0.00     0.298 C 
ENDBRANCH  13  14
ENDBRANCH  12  13
ENDBRANCH  11  12
ENDBRANCH   9  11
ENDBRANCH   6   9
BRANCH   3  20
HETATM   20  N2  UNL     1      17.367  65.880  36.008  1.00  0.00    -0.371 N 
ATOM     21  H2  UNL     1      18.379  65.751  36.024  1.00  0.00     0.161 HD
BRANCH  20  22
HETATM   22  C6  UNL     1      16.732  66.500  37.131  1.00  0.00     0.083 C 
HETATM   23  C7  UNL     1      16.752  65.658  38.386  1.00  0.00     0.025 C 
HETATM   24  C8  UNL     1      18.138  65.516  38.969  1.00  0.00     0.002 C 
HETATM   25  C9  UNL     1      18.897  66.796  39.043  1.00  0.00     0.000 C 
HETATM   26  C10 UNL     1      18.903  67.461  37.675  1.00  0.00     0.002 C 
HETATM   27  C11 UNL     1      17.467  67.827  37.366  1.00  0.00     0.025 C 
ENDBRANCH  20  22
ENDBRANCH   3  20
BRANCH   1  28
HETATM   28  S1  UNL     1      14.255  62.473  33.780  1.00  0.00    -0.103 SA
BRANCH  28  29
HETATM   29  C2  UNL     1      15.060  61.038  33.100  1.00  0.00     0.166 C 
BRANCH  29  30
HETATM   30  C1  UNL     1      15.059  59.938  34.081  1.00  0.00     0.145 C 
HETATM   31  N1  UNL     1      15.708  60.045  35.174  1.00  0.00    -0.250 N 
ATOM     32  H1  UNL     1      16.215  60.917  35.331  1.00  0.00     0.196 HD
BRANCH  31  33
HETATM   33  O1  UNL     1      15.782  59.105  36.144  1.00  0.00    -0.288 OA
ATOM     34  H1  UNL     1      16.568  58.857  36.616  1.00  0.00     0.244 HD
ENDBRANCH  31  33
BRANCH  30  35
HETATM   35  O2  UNL     1      14.351  58.788  33.804  1.00  0.00    -0.348 OA
ATOM     36  H2  UNL     1      14.345  58.429  32.925  1.00  0.00     0.219 HD
ENDBRANCH  30  35
ENDBRANCH  29  30
ENDBRANCH  28  29
ENDBRANCH   1  28
TORSDOF 12
ENDMDL
