MODEL 1
REMARK VINA RESULT: -7.619844081      0.000      0.000
REMARK  13 active torsions:
REMARK  status: ('A' for Active; 'I' for Inactive)
REMARK    1  A    between atoms: O1_2  and  C2_3 
REMARK    2  A    between atoms: C4_5  and  N1_6 
REMARK       I    between atoms: N1_6  and  C5_8 
REMARK    3  A    between atoms: C5_8  and  C6_10 
REMARK    4  A    between atoms: C6_10  and  C7_11 
REMARK    5  A    between atoms: C7_11  and  C8_12 
REMARK    6  A    between atoms: C12_16  and  O3_17 
REMARK    7  A    between atoms: C12_16  and  C13_19 
REMARK    8  A    between atoms: C13_19  and  O4_20 
REMARK    9  A    between atoms: C14_22  and  O5_23 
REMARK   10  A    between atoms: C15_25  and  O6_26 
REMARK   11  A    between atoms: O6_26  and  C16_27 
REMARK   12  A    between atoms: C20_32  and  N2_33 
REMARK   13  A    between atoms: N2_33  and  N3_35 
ROOT
HETATM    1  C2  UNL     1      10.770  -3.436  32.660  1.00  0.00     0.105 C 
HETATM    2  C3  UNL     1       9.337  -2.918  32.644  1.00  0.00     0.051 C 
HETATM    3  C4  UNL     1      10.736  -4.825  31.892  1.00  0.00     0.124 C 
HETATM    4  C11 UNL     1       9.710  -5.696  32.497  1.00  0.00     0.071 C 
HETATM    5  C12 UNL     1      10.112  -6.054  33.908  1.00  0.00     0.109 C 
HETATM    6  C14 UNL     1      10.760  -5.004  34.671  1.00  0.00     0.186 C 
HETATM    7  C15 UNL     1      11.308  -3.773  33.974  1.00  0.00     0.192 C 
ENDROOT
BRANCH   7   8
HETATM    8  O6  UNL     1      11.189  -2.682  34.842  1.00  0.00    -0.348 OA
BRANCH   8   9
HETATM    9  C16 UNL     1      12.306  -1.896  34.956  1.00  0.00     0.288 C 
HETATM   10  O7  UNL     1      12.526  -1.703  36.359  1.00  0.00    -0.346 OA
HETATM   11  C17 UNL     1      11.862  -0.479  36.320  1.00  0.00     0.083 C 
HETATM   12  C18 UNL     1      10.386  -0.520  36.578  1.00  0.00     0.048 C 
HETATM   13  C19 UNL     1      12.565   0.548  37.150  1.00  0.00     0.048 C 
HETATM   14  C20 UNL     1      12.242  -0.438  34.832  1.00  0.00     0.189 C 
BRANCH  14  15
HETATM   15  N2  UNL     1      13.520   0.219  34.693  1.00  0.00    -0.310 N 
ATOM     16  H2  UNL     1      14.273  -0.046  35.327  1.00  0.00     0.182 HD
BRANCH  15  17
HETATM   17  N3  UNL     1      13.747   1.091  33.840  1.00  0.00    -0.253 N 
HETATM   18  N4  UNL     1      13.530   1.880  32.916  1.00  0.00    -0.331 N 
ATOM     19  H42 UNL     1      12.539   1.670  32.787  1.00  0.00     0.178 HD
ATOM     20  H41 UNL     1      13.716   2.597  32.214  1.00  0.00     0.178 HD
ATOM     21  H3  UNL     1      14.738   1.264  34.008  1.00  0.00     0.207 HD
ENDBRANCH  15  17
ENDBRANCH  14  15
ENDBRANCH   8   9
ENDBRANCH   7   8
BRANCH   1  22
HETATM   22  O1  UNL     1      11.583  -2.712  31.857  1.00  0.00    -0.381 OA
HETATM   23  C1  UNL     1      11.331  -1.479  31.435  1.00  0.00     0.202 C 
ENDBRANCH   1  22
BRANCH   6  24
HETATM   24  O5  UNL     1       9.808  -4.505  35.601  1.00  0.00    -0.390 OA
ATOM     25  H5  UNL     1      10.138  -3.677  35.930  1.00  0.00     0.210 HD
ENDBRANCH   6  24
BRANCH   3  26
HETATM   26  N1  UNL     1      10.622  -4.524  30.518  1.00  0.00    -0.353 N 
HETATM   27  C5  UNL     1      11.183  -5.311  29.460  1.00  0.00     0.217 C 
HETATM   28  O2  UNL     1      11.832  -6.355  29.697  1.00  0.00    -0.274 OA
ATOM     29  H1  UNL     1      10.102  -3.686  30.259  1.00  0.00     0.163 HD
BRANCH  27  30
HETATM   30  C6  UNL     1      10.995  -4.884  28.074  1.00  0.00     0.103 C 
BRANCH  30  31
HETATM   31  C7  UNL     1      10.731  -3.480  27.752  1.00  0.00     0.013 C 
BRANCH  31  32
HETATM   32  C8  UNL     1      11.814  -2.532  27.471  1.00  0.00    -0.022 C 
HETATM   33  C9  UNL     1      11.459  -1.116  27.298  1.00  0.00     0.009 C 
HETATM   34  C10 UNL     1      12.676  -2.982  26.279  1.00  0.00     0.009 C 
ENDBRANCH  31  32
ENDBRANCH  30  31
ENDBRANCH  27  30
ENDBRANCH   3  26
BRANCH   5  35
HETATM   35  O3  UNL     1       9.027  -6.600  34.633  1.00  0.00    -0.385 OA
ATOM     36  H3  UNL     1       9.067  -6.362  35.551  1.00  0.00     0.210 HD
ENDBRANCH   5  35
BRANCH   5  37
HETATM   37  C13 UNL     1      11.087  -7.242  33.780  1.00  0.00     0.204 C 
BRANCH  37  38
HETATM   38  O4  UNL     1      12.011  -7.222  34.820  1.00  0.00    -0.398 OA
ATOM     39  H4  UNL     1      12.428  -8.071  34.906  1.00  0.00     0.209 HD
ENDBRANCH  37  38
ENDBRANCH   5  37
TORSDOF 13
ENDMDL
MODEL 2
REMARK VINA RESULT: -7.359666715      3.399      5.084
REMARK  13 active torsions:
REMARK  status: ('A' for Active; 'I' for Inactive)
REMARK    1  A    between atoms: O1_2  and  C2_3 
REMARK    2  A    between atoms: C4_5  and  N1_6 
REMARK       I    between atoms: N1_6  and  C5_8 
REMARK    3  A    between atoms: C5_8  and  C6_10 
REMARK    4  A    between atoms: C6_10  and  C7_11 
REMARK    5  A    between atoms: C7_11  and  C8_12 
REMARK    6  A    between atoms: C12_16  and  O3_17 
REMARK    7  A    between atoms: C12_16  and  C13_19 
REMARK    8  A    between atoms: C13_19  and  O4_20 
REMARK    9  A    between atoms: C14_22  and  O5_23 
REMARK   10  A    between atoms: C15_25  and  O6_26 
REMARK   11  A    between atoms: O6_26  and  C16_27 
REMARK   12  A    between atoms: C20_32  and  N2_33 
REMARK   13  A    between atoms: N2_33  and  N3_35 
ROOT
HETATM    1  C2  UNL     1      10.642  -2.969  33.330  1.00  0.00     0.105 C 
HETATM    2  C3  UNL     1      11.693  -4.071  33.341  1.00  0.00     0.051 C 
HETATM    3  C4  UNL     1      11.093  -1.953  32.195  1.00  0.00     0.124 C 
HETATM    4  C11 UNL     1      12.487  -1.536  32.435  1.00  0.00     0.071 C 
HETATM    5  C12 UNL     1      12.568  -0.735  33.713  1.00  0.00     0.109 C 
HETATM    6  C14 UNL     1      11.713  -1.179  34.798  1.00  0.00     0.186 C 
HETATM    7  C15 UNL     1      10.574  -2.144  34.533  1.00  0.00     0.192 C 
ENDROOT
BRANCH   7   8
HETATM    8  O6  UNL     1      10.403  -2.950  35.664  1.00  0.00    -0.348 OA
BRANCH   8   9
HETATM    9  C16 UNL     1       9.356  -2.607  36.479  1.00  0.00     0.288 C 
HETATM   10  O7  UNL     1       9.870  -1.665  37.428  1.00  0.00    -0.346 OA
HETATM   11  C17 UNL     1      10.061  -2.677  38.366  1.00  0.00     0.083 C 
HETATM   12  C18 UNL     1      11.398  -3.353  38.343  1.00  0.00     0.048 C 
HETATM   13  C19 UNL     1       9.663  -2.232  39.737  1.00  0.00     0.048 C 
HETATM   14  C20 UNL     1       8.956  -3.438  37.617  1.00  0.00     0.189 C 
BRANCH  14  15
HETATM   15  N2  UNL     1       7.679  -3.102  38.200  1.00  0.00    -0.310 N 
ATOM     16  H2  UNL     1       7.449  -2.117  38.330  1.00  0.00     0.182 HD
BRANCH  15  17
HETATM   17  N3  UNL     1       6.847  -3.952  38.551  1.00  0.00    -0.253 N 
HETATM   18  N4  UNL     1       5.794  -4.597  38.557  1.00  0.00    -0.331 N 
ATOM     19  H42 UNL     1       5.335  -4.115  37.783  1.00  0.00     0.178 HD
ATOM     20  H41 UNL     1       5.109  -5.296  38.845  1.00  0.00     0.178 HD
ATOM     21  H3  UNL     1       7.348  -4.401  39.317  1.00  0.00     0.207 HD
ENDBRANCH  15  17
ENDBRANCH  14  15
ENDBRANCH   8   9
ENDBRANCH   7   8
BRANCH   1  22
HETATM   22  O1  UNL     1       9.456  -3.400  32.841  1.00  0.00    -0.381 OA
HETATM   23  C1  UNL     1       8.943  -4.606  33.047  1.00  0.00     0.202 C 
ENDBRANCH   1  22
BRANCH   6  24
HETATM   24  O5  UNL     1      12.540  -1.839  35.747  1.00  0.00    -0.390 OA
ATOM     25  H5  UNL     1      12.032  -1.941  36.544  1.00  0.00     0.210 HD
ENDBRANCH   6  24
BRANCH   3  26
HETATM   26  N1  UNL     1      10.788  -2.566  30.961  1.00  0.00    -0.353 N 
HETATM   27  C5  UNL     1      10.443  -1.861  29.762  1.00  0.00     0.217 C 
HETATM   28  O2  UNL     1      10.391  -0.611  29.733  1.00  0.00    -0.274 OA
ATOM     29  H1  UNL     1      10.816  -3.585  30.920  1.00  0.00     0.163 HD
BRANCH  27  30
HETATM   30  C6  UNL     1      10.145  -2.619  28.548  1.00  0.00     0.103 C 
BRANCH  30  31
HETATM   31  C7  UNL     1      10.768  -3.923  28.307  1.00  0.00     0.013 C 
BRANCH  31  32
HETATM   32  C8  UNL     1      11.490  -4.219  27.066  1.00  0.00    -0.022 C 
HETATM   33  C9  UNL     1      12.280  -5.458  27.010  1.00  0.00     0.009 C 
HETATM   34  C10 UNL     1      12.372  -3.042  26.618  1.00  0.00     0.009 C 
ENDBRANCH  31  32
ENDBRANCH  30  31
ENDBRANCH  27  30
ENDBRANCH   3  26
BRANCH   5  35
HETATM   35  O3  UNL     1      13.905  -0.598  34.155  1.00  0.00    -0.385 OA
ATOM     36  H3  UNL     1      13.944  -0.348  35.070  1.00  0.00     0.210 HD
ENDBRANCH   5  35
BRANCH   5  37
HETATM   37  C13 UNL     1      12.172   0.706  33.333  1.00  0.00     0.204 C 
BRANCH  37  38
HETATM   38  O4  UNL     1      13.264   1.383  32.800  1.00  0.00    -0.398 OA
ATOM     39  H4  UNL     1      13.053   1.725  31.940  1.00  0.00     0.209 HD
ENDBRANCH  37  38
ENDBRANCH   5  37
TORSDOF 13
ENDMDL
MODEL 3
REMARK VINA RESULT: -7.314006110      1.924      2.535
REMARK  13 active torsions:
REMARK  status: ('A' for Active; 'I' for Inactive)
REMARK    1  A    between atoms: O1_2  and  C2_3 
REMARK    2  A    between atoms: C4_5  and  N1_6 
REMARK       I    between atoms: N1_6  and  C5_8 
REMARK    3  A    between atoms: C5_8  and  C6_10 
REMARK    4  A    between atoms: C6_10  and  C7_11 
REMARK    5  A    between atoms: C7_11  and  C8_12 
REMARK    6  A    between atoms: C12_16  and  O3_17 
REMARK    7  A    between atoms: C12_16  and  C13_19 
REMARK    8  A    between atoms: C13_19  and  O4_20 
REMARK    9  A    between atoms: C14_22  and  O5_23 
REMARK   10  A    between atoms: C15_25  and  O6_26 
REMARK   11  A    between atoms: O6_26  and  C16_27 
REMARK   12  A    between atoms: C20_32  and  N2_33 
REMARK   13  A    between atoms: N2_33  and  N3_35 
ROOT
HETATM    1  C2  UNL     1      10.772  -5.668  31.998  1.00  0.00     0.105 C 
HETATM    2  C3  UNL     1       9.285  -5.341  31.975  1.00  0.00     0.051 C 
HETATM    3  C4  UNL     1      10.971  -6.853  30.960  1.00  0.00     0.124 C 
HETATM    4  C11 UNL     1      10.045  -7.954  31.289  1.00  0.00     0.071 C 
HETATM    5  C12 UNL     1      10.419  -8.554  32.623  1.00  0.00     0.109 C 
HETATM    6  C14 UNL     1      10.874  -7.620  33.636  1.00  0.00     0.186 C 
HETATM    7  C15 UNL     1      11.283  -6.211  33.254  1.00  0.00     0.192 C 
ENDROOT
BRANCH   7   8
HETATM    8  O6  UNL     1      10.969  -5.355  34.315  1.00  0.00    -0.348 OA
BRANCH   8   9
HETATM    9  C16 UNL     1      11.979  -4.520  34.717  1.00  0.00     0.288 C 
HETATM   10  O7  UNL     1      11.958  -4.515  36.150  1.00  0.00    -0.346 OA
HETATM   11  C17 UNL     1      11.201  -3.345  36.159  1.00  0.00     0.083 C 
HETATM   12  C18 UNL     1       9.713  -3.523  36.159  1.00  0.00     0.048 C 
HETATM   13  C19 UNL     1      11.669  -2.402  37.222  1.00  0.00     0.048 C 
HETATM   14  C20 UNL     1      11.804  -3.067  34.774  1.00  0.00     0.189 C 
BRANCH  14  15
HETATM   15  N2  UNL     1      13.023  -2.311  34.938  1.00  0.00    -0.310 N 
ATOM     16  H2  UNL     1      13.652  -2.565  35.700  1.00  0.00     0.182 HD
BRANCH  15  17
HETATM   17  N3  UNL     1      13.345  -1.369  34.198  1.00  0.00    -0.253 N 
HETATM   18  N4  UNL     1      13.295  -0.256  33.664  1.00  0.00    -0.331 N 
ATOM     19  H42 UNL     1      12.464   0.088  34.147  1.00  0.00     0.178 HD
ATOM     20  H41 UNL     1      13.559   0.518  33.056  1.00  0.00     0.178 HD
ATOM     21  H3  UNL     1      14.170  -1.760  33.744  1.00  0.00     0.207 HD
ENDBRANCH  15  17
ENDBRANCH  14  15
ENDBRANCH   8   9
ENDBRANCH   7   8
BRANCH   1  22
HETATM   22  O1  UNL     1      11.518  -4.693  31.430  1.00  0.00    -0.381 OA
HETATM   23  C1  UNL     1      11.137  -3.430  31.289  1.00  0.00     0.202 C 
ENDBRANCH   1  22
BRANCH   6  24
HETATM   24  O5  UNL     1       9.815  -7.456  34.569  1.00  0.00    -0.390 OA
ATOM     25  H5  UNL     1       9.653  -6.523  34.653  1.00  0.00     0.210 HD
ENDBRANCH   6  24
BRANCH   3  26
HETATM   26  N1  UNL     1      10.888  -6.281  29.673  1.00  0.00    -0.353 N 
HETATM   27  C5  UNL     1      11.667  -6.693  28.544  1.00  0.00     0.217 C 
HETATM   28  O2  UNL     1      12.499  -7.625  28.630  1.00  0.00    -0.274 OA
ATOM     29  H1  UNL     1      10.225  -5.517  29.537  1.00  0.00     0.163 HD
BRANCH  27  30
HETATM   30  C6  UNL     1      11.487  -6.012  27.263  1.00  0.00     0.103 C 
BRANCH  30  31
HETATM   31  C7  UNL     1      12.260  -4.811  26.938  1.00  0.00     0.013 C 
BRANCH  31  32
HETATM   32  C8  UNL     1      11.856  -3.479  27.400  1.00  0.00    -0.022 C 
HETATM   33  C9  UNL     1      10.423  -3.231  27.608  1.00  0.00     0.009 C 
HETATM   34  C10 UNL     1      12.436  -2.363  26.515  1.00  0.00     0.009 C 
ENDBRANCH  31  32
ENDBRANCH  30  31
ENDBRANCH  27  30
ENDBRANCH   3  26
BRANCH   5  35
HETATM   35  O3  UNL     1       9.383  -9.374  33.130  1.00  0.00    -0.385 OA
ATOM     36  H3  UNL     1       9.646  -9.810  33.932  1.00  0.00     0.210 HD
ENDBRANCH   5  35
BRANCH   5  37
HETATM   37  C13 UNL     1      11.553  -9.557  32.332  1.00  0.00     0.204 C 
BRANCH  37  38
HETATM   38  O4  UNL     1      11.198 -10.828  32.771  1.00  0.00    -0.398 OA
ATOM     39  H4  UNL     1      10.342 -10.809  33.181  1.00  0.00     0.209 HD
ENDBRANCH  37  38
ENDBRANCH   5  37
TORSDOF 13
ENDMDL
MODEL 4
REMARK VINA RESULT: -7.179554855      3.075      5.274
REMARK  13 active torsions:
REMARK  status: ('A' for Active; 'I' for Inactive)
REMARK    1  A    between atoms: O1_2  and  C2_3 
REMARK    2  A    between atoms: C4_5  and  N1_6 
REMARK       I    between atoms: N1_6  and  C5_8 
REMARK    3  A    between atoms: C5_8  and  C6_10 
REMARK    4  A    between atoms: C6_10  and  C7_11 
REMARK    5  A    between atoms: C7_11  and  C8_12 
REMARK    6  A    between atoms: C12_16  and  O3_17 
REMARK    7  A    between atoms: C12_16  and  C13_19 
REMARK    8  A    between atoms: C13_19  and  O4_20 
REMARK    9  A    between atoms: C14_22  and  O5_23 
REMARK   10  A    between atoms: C15_25  and  O6_26 
REMARK   11  A    between atoms: O6_26  and  C16_27 
REMARK   12  A    between atoms: C20_32  and  N2_33 
REMARK   13  A    between atoms: N2_33  and  N3_35 
ROOT
HETATM    1  C2  UNL     1      10.800  -3.967  32.654  1.00  0.00     0.105 C 
HETATM    2  C3  UNL     1      12.039  -4.691  32.145  1.00  0.00     0.051 C 
HETATM    3  C4  UNL     1      10.758  -2.583  31.875  1.00  0.00     0.124 C 
HETATM    4  C11 UNL     1      12.048  -1.887  32.041  1.00  0.00     0.071 C 
HETATM    5  C12 UNL     1      12.237  -1.499  33.488  1.00  0.00     0.109 C 
HETATM    6  C14 UNL     1      11.762  -2.456  34.470  1.00  0.00     0.186 C 
HETATM    7  C15 UNL     1      10.826  -3.577  34.061  1.00  0.00     0.192 C 
ENDROOT
BRANCH   7   8
HETATM    8  O6  UNL     1      11.089  -4.690  34.867  1.00  0.00    -0.348 OA
BRANCH   8   9
HETATM    9  C16 UNL     1      10.257  -4.846  35.945  1.00  0.00     0.288 C 
HETATM   10  O7  UNL     1      11.001  -4.433  37.098  1.00  0.00    -0.346 OA
HETATM   11  C17 UNL     1      11.349  -5.752  37.377  1.00  0.00     0.083 C 
HETATM   12  C18 UNL     1      12.622  -6.243  36.757  1.00  0.00     0.048 C 
HETATM   13  C19 UNL     1      11.274  -6.037  38.843  1.00  0.00     0.048 C 
HETATM   14  C20 UNL     1      10.080  -6.142  36.605  1.00  0.00     0.189 C 
BRANCH  14  15
HETATM   15  N2  UNL     1       8.973  -6.210  37.529  1.00  0.00    -0.310 N 
ATOM     16  H2  UNL     1       8.922  -5.519  38.277  1.00  0.00     0.182 HD
BRANCH  15  17
HETATM   17  N3  UNL     1       8.079  -7.067  37.457  1.00  0.00    -0.253 N 
HETATM   18  N4  UNL     1       7.316  -7.895  36.948  1.00  0.00    -0.331 N 
ATOM     19  H42 UNL     1       7.636  -7.799  35.984  1.00  0.00     0.178 HD
ATOM     20  H41 UNL     1       6.582  -8.600  36.889  1.00  0.00     0.178 HD
ATOM     21  H3  UNL     1       7.796  -7.126  38.435  1.00  0.00     0.207 HD
ENDBRANCH  15  17
ENDBRANCH  14  15
ENDBRANCH   8   9
ENDBRANCH   7   8
BRANCH   1  22
HETATM   22  O1  UNL     1       9.657  -4.546  32.223  1.00  0.00    -0.381 OA
HETATM   23  C1  UNL     1       9.447  -5.855  32.154  1.00  0.00     0.202 C 
ENDBRANCH   1  22
BRANCH   6  24
HETATM   24  O5  UNL     1      12.901  -3.108  35.015  1.00  0.00    -0.390 OA
ATOM     25  H5  UNL     1      13.634  -2.930  34.437  1.00  0.00     0.210 HD
ENDBRANCH   6  24
BRANCH   3  26
HETATM   26  N1  UNL     1      10.325  -2.872  30.564  1.00  0.00    -0.353 N 
HETATM   27  C5  UNL     1      10.259  -1.917  29.497  1.00  0.00     0.217 C 
HETATM   28  O2  UNL     1      10.598  -0.724  29.667  1.00  0.00    -0.274 OA
ATOM     29  H1  UNL     1      10.038  -3.829  30.360  1.00  0.00     0.163 HD
BRANCH  27  30
HETATM   30  C6  UNL     1       9.787  -2.347  28.181  1.00  0.00     0.103 C 
BRANCH  30  31
HETATM   31  C7  UNL     1      10.355  -3.531  27.532  1.00  0.00     0.013 C 
BRANCH  31  32
HETATM   32  C8  UNL     1      11.800  -3.693  27.342  1.00  0.00    -0.022 C 
HETATM   33  C9  UNL     1      12.489  -2.734  26.466  1.00  0.00     0.009 C 
HETATM   34  C10 UNL     1      12.166  -5.121  26.907  1.00  0.00     0.009 C 
ENDBRANCH  31  32
ENDBRANCH  30  31
ENDBRANCH  27  30
ENDBRANCH   3  26
BRANCH   5  35
HETATM   35  O3  UNL     1      13.578  -1.135  33.755  1.00  0.00    -0.385 OA
ATOM     36  H3  UNL     1      13.643  -0.598  34.536  1.00  0.00     0.210 HD
ENDBRANCH   5  35
BRANCH   5  37
HETATM   37  C13 UNL     1      11.467  -0.177  33.675  1.00  0.00     0.204 C 
BRANCH  37  38
HETATM   38  O4  UNL     1      11.449   0.544  32.486  1.00  0.00    -0.398 OA
ATOM     39  H4  UNL     1      12.268   0.432  32.019  1.00  0.00     0.209 HD
ENDBRANCH  37  38
ENDBRANCH   5  37
TORSDOF 13
ENDMDL
MODEL 5
REMARK VINA RESULT: -7.179388137      2.687      5.925
REMARK  13 active torsions:
REMARK  status: ('A' for Active; 'I' for Inactive)
REMARK    1  A    between atoms: O1_2  and  C2_3 
REMARK    2  A    between atoms: C4_5  and  N1_6 
REMARK       I    between atoms: N1_6  and  C5_8 
REMARK    3  A    between atoms: C5_8  and  C6_10 
REMARK    4  A    between atoms: C6_10  and  C7_11 
REMARK    5  A    between atoms: C7_11  and  C8_12 
REMARK    6  A    between atoms: C12_16  and  O3_17 
REMARK    7  A    between atoms: C12_16  and  C13_19 
REMARK    8  A    between atoms: C13_19  and  O4_20 
REMARK    9  A    between atoms: C14_22  and  O5_23 
REMARK   10  A    between atoms: C15_25  and  O6_26 
REMARK   11  A    between atoms: O6_26  and  C16_27 
REMARK   12  A    between atoms: C20_32  and  N2_33 
REMARK   13  A    between atoms: N2_33  and  N3_35 
ROOT
HETATM    1  C2  UNL     1      10.507  -4.490  32.284  1.00  0.00     0.105 C 
HETATM    2  C3  UNL     1      12.027  -4.541  32.372  1.00  0.00     0.051 C 
HETATM    3  C4  UNL     1      10.151  -3.012  31.824  1.00  0.00     0.124 C 
HETATM    4  C11 UNL     1      10.795  -2.046  32.734  1.00  0.00     0.071 C 
HETATM    5  C12 UNL     1      10.196  -2.167  34.114  1.00  0.00     0.109 C 
HETATM    6  C14 UNL     1       9.865  -3.511  34.549  1.00  0.00     0.186 C 
HETATM    7  C15 UNL     1       9.793  -4.647  33.548  1.00  0.00     0.192 C 
ENDROOT
BRANCH   7   8
HETATM    8  O6  UNL     1      10.191  -5.827  34.186  1.00  0.00    -0.348 OA
BRANCH   8   9
HETATM    9  C16 UNL     1       9.567  -6.968  33.755  1.00  0.00     0.288 C 
HETATM   10  O7  UNL     1       8.913  -7.532  34.900  1.00  0.00    -0.346 OA
HETATM   11  C17 UNL     1       9.987  -8.391  35.120  1.00  0.00     0.083 C 
HETATM   12  C18 UNL     1      11.071  -7.876  36.018  1.00  0.00     0.048 C 
HETATM   13  C19 UNL     1       9.520  -9.759  35.506  1.00  0.00     0.048 C 
HETATM   14  C20 UNL     1      10.284  -8.238  33.621  1.00  0.00     0.189 C 
BRANCH  14  15
HETATM   15  N2  UNL     1       9.574  -9.266  32.896  1.00  0.00    -0.310 N 
ATOM     16  H2  UNL     1       8.670  -9.574  33.252  1.00  0.00     0.182 HD
BRANCH  15  17
HETATM   17  N3  UNL     1      10.010  -9.793  31.862  1.00  0.00    -0.253 N 
HETATM   18  N4  UNL     1      10.290  -9.921  30.665  1.00  0.00    -0.331 N 
ATOM     19  H42 UNL     1       9.929  -9.022  30.344  1.00  0.00     0.178 HD
ATOM     20  H41 UNL     1      10.649 -10.354  29.814  1.00  0.00     0.178 HD
ATOM     21  H3  UNL     1      10.356 -10.678  32.232  1.00  0.00     0.207 HD
ENDBRANCH  15  17
ENDBRANCH  14  15
ENDBRANCH   8   9
ENDBRANCH   7   8
BRANCH   1  22
HETATM   22  O1  UNL     1      10.032  -5.211  31.243  1.00  0.00    -0.381 OA
HETATM   23  C1  UNL     1      10.725  -6.121  30.570  1.00  0.00     0.202 C 
ENDBRANCH   1  22
BRANCH   6  24
HETATM   24  O5  UNL     1      10.854  -3.910  35.488  1.00  0.00    -0.390 OA
ATOM     25  H5  UNL     1      11.702  -3.784  35.078  1.00  0.00     0.210 HD
ENDBRANCH   6  24
BRANCH   3  26
HETATM   26  N1  UNL     1      10.458  -2.932  30.449  1.00  0.00    -0.353 N 
HETATM   27  C5  UNL     1      10.448  -1.724  29.678  1.00  0.00     0.217 C 
HETATM   28  O2  UNL     1      10.158  -0.622  30.197  1.00  0.00    -0.274 OA
ATOM     29  H1  UNL     1      10.705  -3.798  29.969  1.00  0.00     0.163 HD
BRANCH  27  30
HETATM   30  C6  UNL     1      10.782  -1.781  28.256  1.00  0.00     0.103 C 
BRANCH  30  31
HETATM   31  C7  UNL     1      10.780  -3.057  27.536  1.00  0.00     0.013 C 
BRANCH  31  32
HETATM   32  C8  UNL     1      12.022  -3.754  27.190  1.00  0.00    -0.022 C 
HETATM   33  C9  UNL     1      12.868  -3.170  26.139  1.00  0.00     0.009 C 
HETATM   34  C10 UNL     1      11.779  -5.238  26.871  1.00  0.00     0.009 C 
ENDBRANCH  31  32
ENDBRANCH  30  31
ENDBRANCH  27  30
ENDBRANCH   3  26
BRANCH   5  35
HETATM   35  O3  UNL     1      10.991  -1.511  35.083  1.00  0.00    -0.385 OA
ATOM     36  H3  UNL     1      11.109  -0.592  34.874  1.00  0.00     0.210 HD
ENDBRANCH   5  35
BRANCH   5  37
HETATM   37  C13 UNL     1       8.905  -1.325  34.089  1.00  0.00     0.204 C 
BRANCH  37  38
HETATM   38  O4  UNL     1       8.820  -0.535  35.231  1.00  0.00    -0.398 OA
ATOM     39  H4  UNL     1       8.318  -0.980  35.903  1.00  0.00     0.209 HD
ENDBRANCH  37  38
ENDBRANCH   5  37
TORSDOF 13
ENDMDL
