MODEL 1
REMARK VINA RESULT: -6.935953737      0.000      0.000
REMARK  12 active torsions:
REMARK  status: ('A' for Active; 'I' for Inactive)
REMARK    1  A    between atoms: N1_2  and  C3_4 
REMARK    2  A    between atoms: C5_6  and  O1_7 
REMARK    3  A    between atoms: O1_7  and  S1_8 
REMARK    4  A    between atoms: C7_12  and  O4_13 
REMARK    5  A    between atoms: O4_13  and  C8_14 
REMARK    6  A    between atoms: C8_14  and  C9_15 
REMARK    7  A    between atoms: C9_15  and  N2_16 
REMARK    8  A    between atoms: C10_17  and  C11_18 
REMARK    9  A    between atoms: N4_27  and  O8_29 
REMARK   10  A    between atoms: C17_32  and  O9_33 
REMARK   11  A    between atoms: C20_38  and  O10_39 
REMARK   12  A    between atoms: C23_46  and  O11_47 
ROOT
HETATM    1  C3  UNL     1      -9.082   5.264  -1.901  1.00  0.00     0.046 A 
HETATM    2  C4  UNL     1      -9.823   6.110  -1.069  1.00  0.00     0.071 A 
HETATM    3  C5  UNL     1     -11.152   6.322  -1.258  1.00  0.00     0.125 A 
HETATM    4  C7  UNL     1     -11.792   5.688  -2.299  1.00  0.00     0.117 A 
HETATM    5  C16 UNL     1     -11.106   4.844  -3.137  1.00  0.00     0.050 A 
HETATM    6  C17 UNL     1     -11.810   4.194  -4.149  1.00  0.00     0.094 A 
HETATM    7  C18 UNL     1     -11.066   3.321  -4.982  1.00  0.00     0.052 A 
HETATM    8  C19 UNL     1     -11.784   2.669  -5.993  1.00  0.00     0.085 A 
HETATM    9 CL1  UNL     1     -13.477   2.937  -6.201  1.00  0.00    -0.080 Cl
HETATM   10  C20 UNL     1     -11.068   1.805  -6.807  1.00  0.00     0.127 A 
HETATM   11  C21 UNL     1      -9.717   1.630  -6.590  1.00  0.00     0.139 A 
HETATM   12 CL2  UNL     1      -8.880   0.514  -7.659  1.00  0.00    -0.061 Cl
HETATM   13  N5  UNL     1      -9.073   2.289  -5.597  1.00  0.00    -0.341 N 
ATOM     14  H5  UNL     1      -8.073   2.148  -5.453  1.00  0.00     0.167 HD
HETATM   15  C22 UNL     1      -9.767   3.138  -4.792  1.00  0.00     0.082 A 
HETATM   16  C23 UNL     1      -9.042   3.786  -3.762  1.00  0.00     0.106 A 
HETATM   17  C24 UNL     1      -9.718   4.635  -2.930  1.00  0.00     0.042 A 
ENDROOT
BRANCH   4  18
HETATM   18  O4  UNL     1     -13.127   5.972  -2.441  1.00  0.00    -0.346 OA
BRANCH  18  19
HETATM   19  C8  UNL     1     -13.604   6.991  -3.259  1.00  0.00     0.196 C 
BRANCH  19  20
HETATM   20  C9  UNL     1     -13.993   8.300  -2.704  1.00  0.00     0.158 C 
BRANCH  20  21
HETATM   21  N2  UNL     1     -15.398   8.174  -2.272  1.00  0.00    -0.322 N 
HETATM   22  C10 UNL     1     -16.443   8.312  -3.223  1.00  0.00     0.105 A 
HETATM   23  C12 UNL     1     -17.720   8.307  -2.778  1.00  0.00     0.094 A 
HETATM   24  C13 UNL     1     -18.044   8.163  -1.373  1.00  0.00     0.228 A 
HETATM   25  O6  UNL     1     -19.236   8.165  -1.013  1.00  0.00    -0.284 OA
HETATM   26  C14 UNL     1     -16.987   8.018  -0.393  1.00  0.00     0.267 A 
HETATM   27  O7  UNL     1     -17.270   7.893   0.806  1.00  0.00    -0.280 OA
HETATM   28  C15 UNL     1     -15.606   8.023  -0.861  1.00  0.00     0.183 A 
HETATM   29  N4  UNL     1     -14.623   7.892  -0.049  1.00  0.00    -0.249 N 
ATOM     30  H4  UNL     1     -13.661   7.892  -0.390  1.00  0.00     0.196 HD
BRANCH  22  31
HETATM   31  C11 UNL     1     -16.250   8.368  -4.653  1.00  0.00     0.281 C 
HETATM   32  N3  UNL     1     -16.467   7.142  -5.404  1.00  0.00    -0.056 NA
HETATM   33  O5  UNL     1     -15.913   9.362  -5.344  1.00  0.00    -0.269 OA
ENDBRANCH  22  31
BRANCH  29  34
HETATM   34  O8  UNL     1     -14.893   7.752   1.294  1.00  0.00    -0.288 OA
ATOM     35  H8  UNL     1     -14.163   7.689   1.900  1.00  0.00     0.244 HD
ENDBRANCH  29  34
ENDBRANCH  20  21
ENDBRANCH  19  20
ENDBRANCH  18  19
ENDBRANCH   4  18
BRANCH   3  36
HETATM   36  O1  UNL     1     -11.826   7.152  -0.402  1.00  0.00    -0.230 OA
BRANCH  36  37
HETATM   37  S1  UNL     1     -11.261   8.714  -0.007  1.00  0.00     0.266 S 
HETATM   38  C6  UNL     1     -10.716   9.585  -1.440  1.00  0.00     0.194 C 
HETATM   39  O2  UNL     1     -10.125   8.642   0.978  1.00  0.00    -0.199 OA
HETATM   40  O3  UNL     1     -12.375   9.473   0.640  1.00  0.00    -0.199 OA
ENDBRANCH  36  37
ENDBRANCH   3  36
BRANCH   6  41
HETATM   41  O9  UNL     1     -13.118   4.303  -4.396  1.00  0.00    -0.359 OA
ATOM     42  H9  UNL     1     -13.564   4.028  -5.188  1.00  0.00     0.217 HD
ENDBRANCH   6  41
BRANCH   1  43
HETATM   43  N1  UNL     1      -7.747   5.073  -1.539  1.00  0.00    -0.389 N 
HETATM   44  C1  UNL     1      -7.375   3.988  -0.648  1.00  0.00     0.149 C 
HETATM   45  C2  UNL     1      -6.727   5.980  -1.992  1.00  0.00     0.149 C 
ENDBRANCH   1  43
BRANCH  16  46
HETATM   46  O11 UNL     1      -7.754   3.520  -3.685  1.00  0.00    -0.357 OA
ATOM     47  H11 UNL     1      -7.308   3.790  -2.891  1.00  0.00     0.217 HD
ENDBRANCH  16  46
BRANCH  10  48
HETATM   48  O10 UNL     1     -11.749   1.147  -7.812  1.00  0.00    -0.356 OA
ATOM     49  H10 UNL     1     -11.261   0.546  -8.362  1.00  0.00     0.218 HD
ENDBRANCH  10  48
TORSDOF 12
ENDMDL
MODEL 2
REMARK VINA RESULT: -6.840639824      1.450      1.784
REMARK  12 active torsions:
REMARK  status: ('A' for Active; 'I' for Inactive)
REMARK    1  A    between atoms: N1_2  and  C3_4 
REMARK    2  A    between atoms: C5_6  and  O1_7 
REMARK    3  A    between atoms: O1_7  and  S1_8 
REMARK    4  A    between atoms: C7_12  and  O4_13 
REMARK    5  A    between atoms: O4_13  and  C8_14 
REMARK    6  A    between atoms: C8_14  and  C9_15 
REMARK    7  A    between atoms: C9_15  and  N2_16 
REMARK    8  A    between atoms: C10_17  and  C11_18 
REMARK    9  A    between atoms: N4_27  and  O8_29 
REMARK   10  A    between atoms: C17_32  and  O9_33 
REMARK   11  A    between atoms: C20_38  and  O10_39 
REMARK   12  A    between atoms: C23_46  and  O11_47 
ROOT
HETATM    1  C3  UNL     1      -7.964   5.249  -2.421  1.00  0.00     0.046 A 
HETATM    2  C4  UNL     1      -8.267   6.339  -1.600  1.00  0.00     0.071 A 
HETATM    3  C5  UNL     1      -9.507   6.894  -1.569  1.00  0.00     0.125 A 
HETATM    4  C7  UNL     1     -10.497   6.372  -2.370  1.00  0.00     0.117 A 
HETATM    5  C16 UNL     1     -10.246   5.298  -3.187  1.00  0.00     0.050 A 
HETATM    6  C17 UNL     1     -11.295   4.779  -3.946  1.00  0.00     0.094 A 
HETATM    7  C18 UNL     1     -10.996   3.662  -4.764  1.00  0.00     0.052 A 
HETATM    8  C19 UNL     1     -12.058   3.146  -5.519  1.00  0.00     0.085 A 
HETATM    9 CL1  UNL     1     -13.631   3.854  -5.448  1.00  0.00    -0.080 Cl
HETATM   10  C20 UNL     1     -11.779   2.046  -6.316  1.00  0.00     0.127 A 
HETATM   11  C21 UNL     1     -10.502   1.524  -6.329  1.00  0.00     0.139 A 
HETATM   12 CL2  UNL     1     -10.228   0.126  -7.360  1.00  0.00    -0.061 Cl
HETATM   13  N5  UNL     1      -9.512   2.065  -5.579  1.00  0.00    -0.341 N 
ATOM     14  H5  UNL     1      -8.574   1.665  -5.604  1.00  0.00     0.167 HD
HETATM   15  C22 UNL     1      -9.777   3.143  -4.793  1.00  0.00     0.082 A 
HETATM   16  C23 UNL     1      -8.705   3.654  -4.021  1.00  0.00     0.106 A 
HETATM   17  C24 UNL     1      -8.946   4.730  -3.212  1.00  0.00     0.042 A 
ENDROOT
BRANCH   4  18
HETATM   18  O4  UNL     1     -11.714   7.001  -2.302  1.00  0.00    -0.346 OA
BRANCH  18  19
HETATM   19  C8  UNL     1     -12.063   8.070  -3.121  1.00  0.00     0.196 C 
BRANCH  19  20
HETATM   20  C9  UNL     1     -12.712   9.275  -2.574  1.00  0.00     0.158 C 
BRANCH  20  21
HETATM   21  N2  UNL     1     -13.814   8.806  -1.714  1.00  0.00    -0.322 N 
HETATM   22  C10 UNL     1     -15.061   8.455  -2.295  1.00  0.00     0.105 A 
HETATM   23  C12 UNL     1     -16.087   8.140  -1.471  1.00  0.00     0.094 A 
HETATM   24  C13 UNL     1     -15.946   8.150  -0.029  1.00  0.00     0.228 A 
HETATM   25  O6  UNL     1     -16.921   7.853   0.687  1.00  0.00    -0.284 OA
HETATM   26  C14 UNL     1     -14.678   8.503   0.576  1.00  0.00     0.267 A 
HETATM   27  O7  UNL     1     -14.562   8.508   1.809  1.00  0.00    -0.280 OA
HETATM   28  C15 UNL     1     -13.565   8.845  -0.302  1.00  0.00     0.183 A 
HETATM   29  N4  UNL     1     -12.414   9.161   0.166  1.00  0.00    -0.249 N 
ATOM     30  H4  UNL     1     -11.643   9.394  -0.459  1.00  0.00     0.196 HD
BRANCH  22  31
HETATM   31  C11 UNL     1     -15.298   8.318  -3.713  1.00  0.00     0.281 C 
HETATM   32  N3  UNL     1     -15.137   6.994  -4.291  1.00  0.00    -0.056 NA
HETATM   33  O5  UNL     1     -15.631   9.216  -4.526  1.00  0.00    -0.269 OA
ENDBRANCH  22  31
BRANCH  29  34
HETATM   34  O8  UNL     1     -12.243   9.181   1.533  1.00  0.00    -0.288 OA
ATOM     35  H8  UNL     1     -11.385   8.973   1.886  1.00  0.00     0.244 HD
ENDBRANCH  29  34
ENDBRANCH  20  21
ENDBRANCH  19  20
ENDBRANCH  18  19
ENDBRANCH   4  18
BRANCH   3  36
HETATM   36  O1  UNL     1      -9.746   7.953  -0.734  1.00  0.00    -0.230 OA
BRANCH  36  37
HETATM   37  S1  UNL     1      -9.068   9.498  -0.998  1.00  0.00     0.266 S 
HETATM   38  C6  UNL     1      -8.848   9.821  -2.718  1.00  0.00     0.194 C 
HETATM   39  O2  UNL     1      -7.738   9.629  -0.307  1.00  0.00    -0.199 OA
HETATM   40  O3  UNL     1      -9.985  10.526  -0.415  1.00  0.00    -0.199 OA
ENDBRANCH  36  37
ENDBRANCH   3  36
BRANCH   6  41
HETATM   41  O9  UNL     1     -12.553   5.225  -3.960  1.00  0.00    -0.359 OA
ATOM     42  H9  UNL     1     -12.826   6.135  -3.970  1.00  0.00     0.217 HD
ENDBRANCH   6  41
BRANCH   1  43
HETATM   43  N1  UNL     1      -6.675   4.728  -2.288  1.00  0.00    -0.389 N 
HETATM   44  C1  UNL     1      -6.374   3.771  -1.239  1.00  0.00     0.149 C 
HETATM   45  C2  UNL     1      -5.612   5.173  -3.148  1.00  0.00     0.149 C 
ENDBRANCH   1  43
BRANCH  16  46
HETATM   46  O11 UNL     1      -7.541   3.050  -4.145  1.00  0.00    -0.357 OA
ATOM     47  H11 UNL     1      -6.802   3.591  -4.397  1.00  0.00     0.217 HD
ENDBRANCH  16  46
BRANCH  10  48
HETATM   48  O10 UNL     1     -12.806   1.515  -7.071  1.00  0.00    -0.356 OA
ATOM     49  H10 UNL     1     -13.058   0.614  -6.910  1.00  0.00     0.218 HD
ENDBRANCH  10  48
TORSDOF 12
ENDMDL
MODEL 3
REMARK VINA RESULT: -6.741580904      3.854      8.474
REMARK  12 active torsions:
REMARK  status: ('A' for Active; 'I' for Inactive)
REMARK    1  A    between atoms: N1_2  and  C3_4 
REMARK    2  A    between atoms: C5_6  and  O1_7 
REMARK    3  A    between atoms: O1_7  and  S1_8 
REMARK    4  A    between atoms: C7_12  and  O4_13 
REMARK    5  A    between atoms: O4_13  and  C8_14 
REMARK    6  A    between atoms: C8_14  and  C9_15 
REMARK    7  A    between atoms: C9_15  and  N2_16 
REMARK    8  A    between atoms: C10_17  and  C11_18 
REMARK    9  A    between atoms: N4_27  and  O8_29 
REMARK   10  A    between atoms: C17_32  and  O9_33 
REMARK   11  A    between atoms: C20_38  and  O10_39 
REMARK   12  A    between atoms: C23_46  and  O11_47 
ROOT
HETATM    1  C3  UNL     1     -11.905   5.503  -3.886  1.00  0.00     0.046 A 
HETATM    2  C4  UNL     1     -10.556   5.154  -4.012  1.00  0.00     0.071 A 
HETATM    3  C5  UNL     1      -9.633   5.498  -3.076  1.00  0.00     0.125 A 
HETATM    4  C7  UNL     1     -10.033   6.213  -1.969  1.00  0.00     0.117 A 
HETATM    5  C16 UNL     1     -11.347   6.571  -1.801  1.00  0.00     0.050 A 
HETATM    6  C17 UNL     1     -11.707   7.257  -0.641  1.00  0.00     0.094 A 
HETATM    7  C18 UNL     1     -13.076   7.595  -0.502  1.00  0.00     0.052 A 
HETATM    8  C19 UNL     1     -13.428   8.280   0.669  1.00  0.00     0.085 A 
HETATM    9 CL1  UNL     1     -12.242   8.688   1.856  1.00  0.00    -0.080 Cl
HETATM   10  C20 UNL     1     -14.767   8.607   0.821  1.00  0.00     0.127 A 
HETATM   11  C21 UNL     1     -15.668   8.252  -0.162  1.00  0.00     0.139 A 
HETATM   12 CL2  UNL     1     -17.348   8.696   0.106  1.00  0.00    -0.061 Cl
HETATM   13  N5  UNL     1     -15.271   7.591  -1.275  1.00  0.00    -0.341 N 
ATOM     14  H5  UNL     1     -15.952   7.339  -1.992  1.00  0.00     0.167 HD
HETATM   15  C22 UNL     1     -13.960   7.265  -1.433  1.00  0.00     0.082 A 
HETATM   16  C23 UNL     1     -13.610   6.561  -2.611  1.00  0.00     0.106 A 
HETATM   17  C24 UNL     1     -12.300   6.209  -2.788  1.00  0.00     0.042 A 
ENDROOT
BRANCH   4  18
HETATM   18  O4  UNL     1      -9.041   6.544  -1.081  1.00  0.00    -0.346 OA
BRANCH  18  19
HETATM   19  C8  UNL     1      -7.985   7.391  -1.404  1.00  0.00     0.196 C 
BRANCH  19  20
HETATM   20  C9  UNL     1      -8.224   8.743  -1.942  1.00  0.00     0.158 C 
BRANCH  20  21
HETATM   21  N2  UNL     1      -7.359   9.659  -1.175  1.00  0.00    -0.322 N 
HETATM   22  C10 UNL     1      -6.128  10.095  -1.730  1.00  0.00     0.105 A 
HETATM   23  C12 UNL     1      -5.304  10.841  -0.958  1.00  0.00     0.094 A 
HETATM   24  C13 UNL     1      -5.645  11.202   0.403  1.00  0.00     0.228 A 
HETATM   25  O6  UNL     1      -4.852  11.890   1.075  1.00  0.00    -0.284 OA
HETATM   26  C14 UNL     1      -6.900  10.766   0.980  1.00  0.00     0.267 A 
HETATM   27  O7  UNL     1      -7.187  11.080   2.143  1.00  0.00    -0.280 OA
HETATM   28  C15 UNL     1      -7.795   9.962   0.158  1.00  0.00     0.183 A 
HETATM   29  N4  UNL     1      -8.924   9.547   0.603  1.00  0.00    -0.249 N 
ATOM     30  H4  UNL     1      -9.544   8.989   0.015  1.00  0.00     0.196 HD
BRANCH  22  31
HETATM   31  C11 UNL     1      -5.721   9.880  -3.099  1.00  0.00     0.281 C 
HETATM   32  N3  UNL     1      -6.105  10.886  -4.075  1.00  0.00    -0.056 NA
HETATM   33  O5  UNL     1      -5.063   8.914  -3.561  1.00  0.00    -0.269 OA
ENDBRANCH  22  31
BRANCH  29  34
HETATM   34  O8  UNL     1      -9.282   9.873   1.892  1.00  0.00    -0.288 OA
ATOM     35  H8  UNL     1     -10.205   9.880   2.120  1.00  0.00     0.244 HD
ENDBRANCH  29  34
ENDBRANCH  20  21
ENDBRANCH  19  20
ENDBRANCH  18  19
ENDBRANCH   4  18
BRANCH   3  36
HETATM   36  O1  UNL     1      -8.329   5.116  -3.248  1.00  0.00    -0.230 OA
BRANCH  36  37
HETATM   37  S1  UNL     1      -7.702   3.677  -2.575  1.00  0.00     0.266 S 
HETATM   38  C6  UNL     1      -6.354   4.007  -1.486  1.00  0.00     0.194 C 
HETATM   39  O2  UNL     1      -7.233   2.737  -3.654  1.00  0.00    -0.199 OA
HETATM   40  O3  UNL     1      -8.793   2.990  -1.818  1.00  0.00    -0.199 OA
ENDBRANCH  36  37
ENDBRANCH   3  36
BRANCH   6  41
HETATM   41  O9  UNL     1     -10.888   7.608   0.353  1.00  0.00    -0.359 OA
ATOM     42  H9  UNL     1     -10.963   8.386   0.893  1.00  0.00     0.217 HD
ENDBRANCH   6  41
BRANCH   1  43
HETATM   43  N1  UNL     1     -12.755   5.011  -4.878  1.00  0.00    -0.389 N 
HETATM   44  C1  UNL     1     -13.476   3.767  -4.678  1.00  0.00     0.149 C 
HETATM   45  C2  UNL     1     -12.886   5.695  -6.137  1.00  0.00     0.149 C 
ENDBRANCH   1  43
BRANCH  16  46
HETATM   46  O11 UNL     1     -14.582   6.298  -3.458  1.00  0.00    -0.357 OA
ATOM     47  H11 UNL     1     -14.604   5.424  -3.829  1.00  0.00     0.217 HD
ENDBRANCH  16  46
BRANCH  10  48
HETATM   48  O10 UNL     1     -15.144   9.282   1.965  1.00  0.00    -0.356 OA
ATOM     49  H10 UNL     1     -14.906  10.198   2.042  1.00  0.00     0.218 HD
ENDBRANCH  10  48
TORSDOF 12
ENDMDL
MODEL 4
REMARK VINA RESULT: -6.728026178      2.972      4.807
REMARK  12 active torsions:
REMARK  status: ('A' for Active; 'I' for Inactive)
REMARK    1  A    between atoms: N1_2  and  C3_4 
REMARK    2  A    between atoms: C5_6  and  O1_7 
REMARK    3  A    between atoms: O1_7  and  S1_8 
REMARK    4  A    between atoms: C7_12  and  O4_13 
REMARK    5  A    between atoms: O4_13  and  C8_14 
REMARK    6  A    between atoms: C8_14  and  C9_15 
REMARK    7  A    between atoms: C9_15  and  N2_16 
REMARK    8  A    between atoms: C10_17  and  C11_18 
REMARK    9  A    between atoms: N4_27  and  O8_29 
REMARK   10  A    between atoms: C17_32  and  O9_33 
REMARK   11  A    between atoms: C20_38  and  O10_39 
REMARK   12  A    between atoms: C23_46  and  O11_47 
ROOT
HETATM    1  C3  UNL     1      -7.588   9.453  -2.835  1.00  0.00     0.046 A 
HETATM    2  C4  UNL     1      -8.454  10.132  -1.973  1.00  0.00     0.071 A 
HETATM    3  C5  UNL     1      -9.309   9.474  -1.146  1.00  0.00     0.125 A 
HETATM    4  C7  UNL     1      -9.327   8.098  -1.155  1.00  0.00     0.117 A 
HETATM    5  C16 UNL     1      -8.489   7.390  -1.980  1.00  0.00     0.050 A 
HETATM    6  C17 UNL     1      -8.515   5.997  -1.920  1.00  0.00     0.094 A 
HETATM    7  C18 UNL     1      -7.624   5.306  -2.778  1.00  0.00     0.052 A 
HETATM    8  C19 UNL     1      -7.656   3.907  -2.706  1.00  0.00     0.085 A 
HETATM    9 CL1  UNL     1      -8.735   3.092  -1.632  1.00  0.00    -0.080 Cl
HETATM   10  C20 UNL     1      -6.781   3.221  -3.534  1.00  0.00     0.127 A 
HETATM   11  C21 UNL     1      -5.941   3.928  -4.370  1.00  0.00     0.139 A 
HETATM   12 CL2  UNL     1      -4.856   2.987  -5.384  1.00  0.00    -0.061 Cl
HETATM   13  N5  UNL     1      -5.954   5.282  -4.398  1.00  0.00    -0.341 N 
ATOM     14  H5  UNL     1      -5.327   5.787  -5.025  1.00  0.00     0.167 HD
HETATM   15  C22 UNL     1      -6.808   5.964  -3.589  1.00  0.00     0.082 A 
HETATM   16  C23 UNL     1      -6.765   7.378  -3.654  1.00  0.00     0.106 A 
HETATM   17  C24 UNL     1      -7.604   8.089  -2.841  1.00  0.00     0.042 A 
ENDROOT
BRANCH   4  18
HETATM   18  O4  UNL     1     -10.233   7.507  -0.312  1.00  0.00    -0.346 OA
BRANCH  18  19
HETATM   19  C8  UNL     1     -11.609   7.630  -0.470  1.00  0.00     0.196 C 
BRANCH  19  20
HETATM   20  C9  UNL     1     -12.481   6.443  -0.546  1.00  0.00     0.158 C 
BRANCH  20  21
HETATM   21  N2  UNL     1     -13.298   6.599  -1.764  1.00  0.00    -0.322 N 
HETATM   22  C10 UNL     1     -14.481   7.382  -1.724  1.00  0.00     0.105 A 
HETATM   23  C12 UNL     1     -15.269   7.411  -2.823  1.00  0.00     0.094 A 
HETATM   24  C13 UNL     1     -14.939   6.672  -4.026  1.00  0.00     0.228 A 
HETATM   25  O6  UNL     1     -15.697   6.730  -5.012  1.00  0.00    -0.284 OA
HETATM   26  C14 UNL     1     -13.733   5.872  -4.080  1.00  0.00     0.267 A 
HETATM   27  O7  UNL     1     -13.454   5.245  -5.112  1.00  0.00    -0.280 OA
HETATM   28  C15 UNL     1     -12.876   5.833  -2.901  1.00  0.00     0.183 A 
HETATM   29  N4  UNL     1     -11.791   5.150  -2.883  1.00  0.00    -0.249 N 
ATOM     30  H4  UNL     1     -11.198   5.135  -2.053  1.00  0.00     0.196 HD
BRANCH  22  31
HETATM   31  C11 UNL     1     -14.867   8.232  -0.623  1.00  0.00     0.281 C 
HETATM   32  N3  UNL     1     -14.621   9.657  -0.761  1.00  0.00    -0.056 NA
HETATM   33  O5  UNL     1     -15.400   7.888   0.462  1.00  0.00    -0.269 OA
ENDBRANCH  22  31
BRANCH  29  34
HETATM   34  O8  UNL     1     -11.444   4.436  -4.009  1.00  0.00    -0.288 OA
ATOM     35  H8  UNL     1     -10.546   4.481  -4.316  1.00  0.00     0.244 HD
ENDBRANCH  29  34
ENDBRANCH  20  21
ENDBRANCH  19  20
ENDBRANCH  18  19
ENDBRANCH   4  18
BRANCH   3  36
HETATM   36  O1  UNL     1     -10.125  10.195  -0.314  1.00  0.00    -0.230 OA
BRANCH  36  37
HETATM   37  S1  UNL     1      -9.719  10.513   1.314  1.00  0.00     0.266 S 
HETATM   38  C6  UNL     1     -10.720   9.576   2.423  1.00  0.00     0.194 C 
HETATM   39  O2  UNL     1      -9.880  11.975   1.633  1.00  0.00    -0.199 OA
HETATM   40  O3  UNL     1      -8.282  10.158   1.524  1.00  0.00    -0.199 OA
ENDBRANCH  36  37
ENDBRANCH   3  36
BRANCH   6  41
HETATM   41  O9  UNL     1      -9.287   5.257  -1.119  1.00  0.00    -0.359 OA
ATOM     42  H9  UNL     1      -8.987   4.615  -0.488  1.00  0.00     0.217 HD
ENDBRANCH   6  41
BRANCH   1  43
HETATM   43  N1  UNL     1      -6.706  10.253  -3.565  1.00  0.00    -0.389 N 
HETATM   44  C1  UNL     1      -5.405  10.599  -3.020  1.00  0.00     0.149 C 
HETATM   45  C2  UNL     1      -7.092  10.796  -4.839  1.00  0.00     0.149 C 
ENDBRANCH   1  43
BRANCH  16  46
HETATM   46  O11 UNL     1      -5.912   7.908  -4.506  1.00  0.00    -0.357 OA
ATOM     47  H11 UNL     1      -5.149   8.339  -4.138  1.00  0.00     0.217 HD
ENDBRANCH  16  46
BRANCH  10  48
HETATM   48  O10 UNL     1      -6.789   1.841  -3.485  1.00  0.00    -0.356 OA
ATOM     49  H10 UNL     1      -7.381   1.377  -4.065  1.00  0.00     0.218 HD
ENDBRANCH  10  48
TORSDOF 12
ENDMDL
MODEL 5
REMARK VINA RESULT: -6.700640267      4.720     10.485
REMARK  12 active torsions:
REMARK  status: ('A' for Active; 'I' for Inactive)
REMARK    1  A    between atoms: N1_2  and  C3_4 
REMARK    2  A    between atoms: C5_6  and  O1_7 
REMARK    3  A    between atoms: O1_7  and  S1_8 
REMARK    4  A    between atoms: C7_12  and  O4_13 
REMARK    5  A    between atoms: O4_13  and  C8_14 
REMARK    6  A    between atoms: C8_14  and  C9_15 
REMARK    7  A    between atoms: C9_15  and  N2_16 
REMARK    8  A    between atoms: C10_17  and  C11_18 
REMARK    9  A    between atoms: N4_27  and  O8_29 
REMARK   10  A    between atoms: C17_32  and  O9_33 
REMARK   11  A    between atoms: C20_38  and  O10_39 
REMARK   12  A    between atoms: C23_46  and  O11_47 
ROOT
HETATM    1  C3  UNL     1     -18.338   9.486  -2.403  1.00  0.00     0.046 A 
HETATM    2  C4  UNL     1     -17.442   8.476  -2.770  1.00  0.00     0.071 A 
HETATM    3  C5  UNL     1     -16.435   8.076  -1.950  1.00  0.00     0.125 A 
HETATM    4  C7  UNL     1     -16.286   8.681  -0.723  1.00  0.00     0.117 A 
HETATM    5  C16 UNL     1     -17.146   9.672  -0.319  1.00  0.00     0.050 A 
HETATM    6  C17 UNL     1     -16.980  10.221   0.951  1.00  0.00     0.094 A 
HETATM    7  C18 UNL     1     -17.898  11.231   1.333  1.00  0.00     0.052 A 
HETATM    8  C19 UNL     1     -17.724  11.773   2.613  1.00  0.00     0.085 A 
HETATM    9 CL1  UNL     1     -16.450  11.234   3.646  1.00  0.00    -0.080 Cl
HETATM   10  C20 UNL     1     -18.623  12.755   3.001  1.00  0.00     0.127 A 
HETATM   11  C21 UNL     1     -19.622  13.143   2.132  1.00  0.00     0.139 A 
HETATM   12 CL2  UNL     1     -20.727  14.388   2.698  1.00  0.00    -0.061 Cl
HETATM   13  N5  UNL     1     -19.742  12.584   0.904  1.00  0.00    -0.341 N 
ATOM     14  H5  UNL     1     -20.486  12.885   0.274  1.00  0.00     0.167 HD
HETATM   15  C22 UNL     1     -18.866  11.619   0.515  1.00  0.00     0.082 A 
HETATM   16  C23 UNL     1     -19.052  11.063  -0.775  1.00  0.00     0.106 A 
HETATM   17  C24 UNL     1     -18.192  10.082  -1.186  1.00  0.00     0.042 A 
ENDROOT
BRANCH   4  18
HETATM   18  O4  UNL     1     -15.233   8.240   0.037  1.00  0.00    -0.346 OA
BRANCH  18  19
HETATM   19  C8  UNL     1     -13.914   8.614  -0.205  1.00  0.00     0.196 C 
BRANCH  19  20
HETATM   20  C9  UNL     1     -12.818   8.171   0.676  1.00  0.00     0.158 C 
BRANCH  20  21
HETATM   21  N2  UNL     1     -11.736   7.696  -0.206  1.00  0.00    -0.322 N 
HETATM   22  C10 UNL     1     -10.542   8.454  -0.328  1.00  0.00     0.105 A 
HETATM   23  C12 UNL     1      -9.618   8.053  -1.231  1.00  0.00     0.094 A 
HETATM   24  C13 UNL     1      -9.812   6.883  -2.063  1.00  0.00     0.228 A 
HETATM   25  O6  UNL     1      -8.931   6.555  -2.881  1.00  0.00    -0.284 OA
HETATM   26  C14 UNL     1     -11.024   6.099  -1.945  1.00  0.00     0.267 A 
HETATM   27  O7  UNL     1     -11.184   5.098  -2.657  1.00  0.00    -0.280 OA
HETATM   28  C15 UNL     1     -12.028   6.521  -0.976  1.00  0.00     0.183 A 
HETATM   29  N4  UNL     1     -13.121   5.870  -0.815  1.00  0.00    -0.249 N 
ATOM     30  H4  UNL     1     -13.813   6.174  -0.130  1.00  0.00     0.196 HD
BRANCH  22  31
HETATM   31  C11 UNL     1     -10.193   9.579   0.507  1.00  0.00     0.281 C 
HETATM   32  N3  UNL     1      -9.708   9.291   1.846  1.00  0.00    -0.056 NA
HETATM   33  O5  UNL     1     -10.257  10.800   0.216  1.00  0.00    -0.269 OA
ENDBRANCH  22  31
BRANCH  29  34
HETATM   34  O8  UNL     1     -13.340   4.751  -1.588  1.00  0.00    -0.288 OA
ATOM     35  H8  UNL     1     -14.036   4.776  -2.235  1.00  0.00     0.244 HD
ENDBRANCH  29  34
ENDBRANCH  20  21
ENDBRANCH  19  20
ENDBRANCH  18  19
ENDBRANCH   4  18
BRANCH   3  36
HETATM   36  O1  UNL     1     -15.596   7.072  -2.359  1.00  0.00    -0.230 OA
BRANCH  36  37
HETATM   37  S1  UNL     1     -14.861   7.066  -3.901  1.00  0.00     0.266 S 
HETATM   38  C6  UNL     1     -13.994   8.570  -4.208  1.00  0.00     0.194 C 
HETATM   39  O2  UNL     1     -15.886   6.867  -4.986  1.00  0.00    -0.199 OA
HETATM   40  O3  UNL     1     -13.903   5.920  -3.966  1.00  0.00    -0.199 OA
ENDBRANCH  36  37
ENDBRANCH   3  36
BRANCH   6  41
HETATM   41  O9  UNL     1     -16.050   9.875   1.844  1.00  0.00    -0.359 OA
ATOM     42  H9  UNL     1     -15.504  10.469   2.346  1.00  0.00     0.217 HD
ENDBRANCH   6  41
BRANCH   1  43
HETATM   43  N1  UNL     1     -19.374   9.735  -3.306  1.00  0.00    -0.389 N 
HETATM   44  C1  UNL     1     -20.614   8.983  -3.228  1.00  0.00     0.149 C 
HETATM   45  C2  UNL     1     -19.210  10.696  -4.363  1.00  0.00     0.149 C 
ENDBRANCH   1  43
BRANCH  16  46
HETATM   46  O11 UNL     1     -20.048  11.541  -1.490  1.00  0.00    -0.357 OA
ATOM     47  H11 UNL     1     -20.922  11.439  -1.131  1.00  0.00     0.217 HD
ENDBRANCH  16  46
BRANCH  10  48
HETATM   48  O10 UNL     1     -18.477  13.308   4.257  1.00  0.00    -0.356 OA
ATOM     49  H10 UNL     1     -17.843  14.007   4.367  1.00  0.00     0.218 HD
ENDBRANCH  10  48
TORSDOF 12
ENDMDL
