MODEL 1
REMARK VINA RESULT: -9.712670005      0.000      0.000
REMARK  5 active torsions:
REMARK  status: ('A' for Active; 'I' for Inactive)
REMARK    1  A    between atoms: C2_2  and  C3_3 
REMARK    2  A    between atoms: C6_6  and  N1_7 
REMARK    3  A    between atoms: N1_7  and  C7_9 
REMARK    4  A    between atoms: C7_9  and  C8_10 
REMARK    5  A    between atoms: C11_13  and  C12_14 
ROOT
HETATM    1  C8  UNL     1      16.010  -4.843 -12.221  1.00  0.00    -0.041 A 
HETATM    2  C9  UNL     1      17.064  -4.046 -12.690  1.00  0.00     0.009 A 
HETATM    3  C10 UNL     1      17.243  -2.760 -12.233  1.00  0.00     0.013 A 
HETATM    4  C11 UNL     1      16.407  -2.193 -11.302  1.00  0.00    -0.026 A 
HETATM    5  C18 UNL     1      15.372  -2.957 -10.834  1.00  0.00     0.013 A 
HETATM    6  C19 UNL     1      15.186  -4.266 -11.296  1.00  0.00     0.009 A 
ENDROOT
BRANCH   1   7
HETATM    7  C7  UNL     1      15.899  -6.209 -12.761  1.00  0.00     0.158 C 
BRANCH   7   8
HETATM    8  N1  UNL     1      15.551  -6.278 -14.159  1.00  0.00    -0.386 N 
ATOM      9  H1  UNL     1      15.809  -7.082 -14.732  1.00  0.00     0.160 HD
BRANCH   8  10
HETATM   10  C6  UNL     1      14.828  -5.170 -14.711  1.00  0.00     0.028 A 
HETATM   11  C5  UNL     1      15.313  -4.517 -15.848  1.00  0.00     0.029 A 
HETATM   12  C4  UNL     1      14.607  -3.446 -16.375  1.00  0.00     0.009 A 
HETATM   13  C3  UNL     1      13.431  -2.997 -15.812  1.00  0.00    -0.058 A 
HETATM   14  C21 UNL     1      12.980  -3.664 -14.692  1.00  0.00     0.009 A 
HETATM   15  C20 UNL     1      13.669  -4.729 -14.155  1.00  0.00     0.029 A 
BRANCH  13  16
HETATM   16  C2  UNL     1      12.649  -1.878 -16.324  1.00  0.00     0.034 C 
HETATM   17  C1  UNL     1      13.330  -0.545 -16.236  1.00  0.00     0.010 C 
ENDBRANCH  13  16
ENDBRANCH   8  10
ENDBRANCH   7   8
ENDBRANCH   1   7
BRANCH   4  18
HETATM   18  C12 UNL     1      16.633  -0.825 -10.846  1.00  0.00    -0.026 A 
HETATM   19  C13 UNL     1      15.730   0.186 -11.085  1.00  0.00     0.012 A 
HETATM   20  C14 UNL     1      15.975   1.480 -10.638  1.00  0.00     0.001 A 
HETATM   21  C15 UNL     1      17.130   1.782  -9.946  1.00  0.00     0.000 A 
HETATM   22  C16 UNL     1      18.044   0.770  -9.704  1.00  0.00     0.001 A 
HETATM   23  C17 UNL     1      17.788  -0.523 -10.156  1.00  0.00     0.012 A 
ENDBRANCH   4  18
TORSDOF 5
ENDMDL
MODEL 2
REMARK VINA RESULT: -9.365735049      3.098      8.428
REMARK  5 active torsions:
REMARK  status: ('A' for Active; 'I' for Inactive)
REMARK    1  A    between atoms: C2_2  and  C3_3 
REMARK    2  A    between atoms: C6_6  and  N1_7 
REMARK    3  A    between atoms: N1_7  and  C7_9 
REMARK    4  A    between atoms: C7_9  and  C8_10 
REMARK    5  A    between atoms: C11_13  and  C12_14 
ROOT
HETATM    1  C8  UNL     1      16.159   0.345 -10.851  1.00  0.00    -0.041 A 
HETATM    2  C9  UNL     1      16.930  -0.800 -10.611  1.00  0.00     0.009 A 
HETATM    3  C10 UNL     1      16.620  -2.004 -11.199  1.00  0.00     0.013 A 
HETATM    4  C11 UNL     1      15.546  -2.149 -12.044  1.00  0.00    -0.026 A 
HETATM    5  C18 UNL     1      14.781  -1.041 -12.289  1.00  0.00     0.013 A 
HETATM    6  C19 UNL     1      15.094   0.187 -11.694  1.00  0.00     0.009 A 
ENDROOT
BRANCH   1   7
HETATM    7  C7  UNL     1      16.569   1.594 -10.185  1.00  0.00     0.158 C 
BRANCH   7   8
HETATM    8  N1  UNL     1      17.988   1.719  -9.961  1.00  0.00    -0.386 N 
ATOM      9  H1  UNL     1      18.610   2.085 -10.682  1.00  0.00     0.160 HD
BRANCH   8  10
HETATM   10  C6  UNL     1      18.489   1.308  -8.683  1.00  0.00     0.028 A 
HETATM   11  C5  UNL     1      17.807   1.670  -7.517  1.00  0.00     0.029 A 
HETATM   12  C4  UNL     1      18.299   1.269  -6.284  1.00  0.00     0.009 A 
HETATM   13  C3  UNL     1      19.449   0.517  -6.165  1.00  0.00    -0.058 A 
HETATM   14  C21 UNL     1      20.097   0.176  -7.334  1.00  0.00     0.009 A 
HETATM   15  C20 UNL     1      19.623   0.566  -8.567  1.00  0.00     0.029 A 
BRANCH  13  16
HETATM   16  C2  UNL     1      20.010   0.067  -4.896  1.00  0.00     0.034 C 
HETATM   17  C1  UNL     1      21.435  -0.394  -4.969  1.00  0.00     0.010 C 
ENDBRANCH  13  16
ENDBRANCH   8  10
ENDBRANCH   7   8
ENDBRANCH   1   7
BRANCH   4  18
HETATM   18  C12 UNL     1      15.253  -3.447 -12.644  1.00  0.00    -0.026 A 
HETATM   19  C13 UNL     1      14.220  -3.624 -13.538  1.00  0.00     0.012 A 
HETATM   20  C14 UNL     1      13.965  -4.874 -14.092  1.00  0.00     0.001 A 
HETATM   21  C15 UNL     1      14.740  -5.966 -13.759  1.00  0.00     0.000 A 
HETATM   22  C16 UNL     1      15.779  -5.796 -12.861  1.00  0.00     0.001 A 
HETATM   23  C17 UNL     1      16.026  -4.539 -12.311  1.00  0.00     0.012 A 
ENDBRANCH   4  18
TORSDOF 5
ENDMDL
MODEL 3
REMARK VINA RESULT: -9.359270262      2.899      8.248
REMARK  5 active torsions:
REMARK  status: ('A' for Active; 'I' for Inactive)
REMARK    1  A    between atoms: C2_2  and  C3_3 
REMARK    2  A    between atoms: C6_6  and  N1_7 
REMARK    3  A    between atoms: N1_7  and  C7_9 
REMARK    4  A    between atoms: C7_9  and  C8_10 
REMARK    5  A    between atoms: C11_13  and  C12_14 
ROOT
HETATM    1  C8  UNL     1      15.727  -0.697 -11.317  1.00  0.00    -0.041 A 
HETATM    2  C9  UNL     1      14.735  -0.437 -12.272  1.00  0.00     0.009 A 
HETATM    3  C10 UNL     1      14.530  -1.285 -13.336  1.00  0.00     0.013 A 
HETATM    4  C11 UNL     1      15.280  -2.422 -13.519  1.00  0.00    -0.026 A 
HETATM    5  C18 UNL     1      16.254  -2.691 -12.596  1.00  0.00     0.013 A 
HETATM    6  C19 UNL     1      16.466  -1.831 -11.511  1.00  0.00     0.009 A 
ENDROOT
BRANCH   1   7
HETATM    7  C7  UNL     1      15.872   0.262 -10.208  1.00  0.00     0.158 C 
BRANCH   7   8
HETATM    8  N1  UNL     1      17.120   0.984 -10.194  1.00  0.00    -0.386 N 
ATOM      9  H1  UNL     1      17.336   1.685 -10.903  1.00  0.00     0.160 HD
BRANCH   8  10
HETATM   10  C6  UNL     1      18.045   0.676  -9.144  1.00  0.00     0.028 A 
HETATM   11  C5  UNL     1      18.042   1.433  -7.968  1.00  0.00     0.029 A 
HETATM   12  C4  UNL     1      18.941   1.130  -6.956  1.00  0.00     0.009 A 
HETATM   13  C3  UNL     1      19.847   0.096  -7.069  1.00  0.00    -0.058 A 
HETATM   14  C21 UNL     1      19.823  -0.631  -8.241  1.00  0.00     0.009 A 
HETATM   15  C20 UNL     1      18.937  -0.343  -9.256  1.00  0.00     0.029 A 
BRANCH  13  16
HETATM   16  C2  UNL     1      20.812  -0.268  -6.038  1.00  0.00     0.034 C 
HETATM   17  C1  UNL     1      20.343  -0.041  -4.632  1.00  0.00     0.010 C 
ENDBRANCH  13  16
ENDBRANCH   8  10
ENDBRANCH   7   8
ENDBRANCH   1   7
BRANCH   4  18
HETATM   18  C12 UNL     1      15.029  -3.293 -14.663  1.00  0.00    -0.026 A 
HETATM   19  C13 UNL     1      14.019  -3.044 -15.565  1.00  0.00     0.012 A 
HETATM   20  C14 UNL     1      13.804  -3.893 -16.645  1.00  0.00     0.001 A 
HETATM   21  C15 UNL     1      14.597  -5.006 -16.838  1.00  0.00     0.000 A 
HETATM   22  C16 UNL     1      15.614  -5.263 -15.934  1.00  0.00     0.001 A 
HETATM   23  C17 UNL     1      15.821  -4.405 -14.855  1.00  0.00     0.012 A 
ENDBRANCH   4  18
TORSDOF 5
ENDMDL
MODEL 4
REMARK VINA RESULT: -9.353692445      2.875      8.189
REMARK  5 active torsions:
REMARK  status: ('A' for Active; 'I' for Inactive)
REMARK    1  A    between atoms: C2_2  and  C3_3 
REMARK    2  A    between atoms: C6_6  and  N1_7 
REMARK    3  A    between atoms: N1_7  and  C7_9 
REMARK    4  A    between atoms: C7_9  and  C8_10 
REMARK    5  A    between atoms: C11_13  and  C12_14 
ROOT
HETATM    1  C8  UNL     1      15.669  -0.695 -11.320  1.00  0.00    -0.041 A 
HETATM    2  C9  UNL     1      14.711  -0.420 -12.305  1.00  0.00     0.009 A 
HETATM    3  C10 UNL     1      14.502  -1.284 -13.356  1.00  0.00     0.013 A 
HETATM    4  C11 UNL     1      15.215  -2.450 -13.496  1.00  0.00    -0.026 A 
HETATM    5  C18 UNL     1      16.155  -2.733 -12.542  1.00  0.00     0.013 A 
HETATM    6  C19 UNL     1      16.371  -1.858 -11.471  1.00  0.00     0.009 A 
ENDROOT
BRANCH   1   7
HETATM    7  C7  UNL     1      15.820   0.283 -10.227  1.00  0.00     0.158 C 
BRANCH   7   8
HETATM    8  N1  UNL     1      17.070   1.002 -10.231  1.00  0.00    -0.386 N 
ATOM      9  H1  UNL     1      17.281   1.696 -10.948  1.00  0.00     0.160 HD
BRANCH   8  10
HETATM   10  C6  UNL     1      18.002   0.702  -9.185  1.00  0.00     0.028 A 
HETATM   11  C5  UNL     1      18.848  -0.406  -9.301  1.00  0.00     0.029 A 
HETATM   12  C4  UNL     1      19.747  -0.690  -8.284  1.00  0.00     0.009 A 
HETATM   13  C3  UNL     1      19.839   0.090  -7.150  1.00  0.00    -0.058 A 
HETATM   14  C21 UNL     1      18.991   1.175  -7.067  1.00  0.00     0.009 A 
HETATM   15  C20 UNL     1      18.092   1.471  -8.068  1.00  0.00     0.029 A 
BRANCH  13  16
HETATM   16  C2  UNL     1      20.765  -0.161  -6.051  1.00  0.00     0.034 C 
HETATM   17  C1  UNL     1      20.191   0.063  -4.684  1.00  0.00     0.010 C 
ENDBRANCH  13  16
ENDBRANCH   8  10
ENDBRANCH   7   8
ENDBRANCH   1   7
BRANCH   4  18
HETATM   18  C12 UNL     1      14.962  -3.337 -14.627  1.00  0.00    -0.026 A 
HETATM   19  C13 UNL     1      13.935  -3.113 -15.517  1.00  0.00     0.012 A 
HETATM   20  C14 UNL     1      13.719  -3.976 -16.585  1.00  0.00     0.001 A 
HETATM   21  C15 UNL     1      14.526  -5.079 -16.779  1.00  0.00     0.000 A 
HETATM   22  C16 UNL     1      15.560  -5.310 -15.887  1.00  0.00     0.001 A 
HETATM   23  C17 UNL     1      15.768  -4.438 -14.820  1.00  0.00     0.012 A 
ENDBRANCH   4  18
TORSDOF 5
ENDMDL
MODEL 5
REMARK VINA RESULT: -9.345756303      2.887      8.301
REMARK  5 active torsions:
REMARK  status: ('A' for Active; 'I' for Inactive)
REMARK    1  A    between atoms: C2_2  and  C3_3 
REMARK    2  A    between atoms: C6_6  and  N1_7 
REMARK    3  A    between atoms: N1_7  and  C7_9 
REMARK    4  A    between atoms: C7_9  and  C8_10 
REMARK    5  A    between atoms: C11_13  and  C12_14 
ROOT
HETATM    1  C8  UNL     1      15.688  -0.732 -11.309  1.00  0.00    -0.041 A 
HETATM    2  C9  UNL     1      14.734  -0.457 -12.299  1.00  0.00     0.009 A 
HETATM    3  C10 UNL     1      14.538  -1.313 -13.357  1.00  0.00     0.013 A 
HETATM    4  C11 UNL     1      15.260  -2.474 -13.501  1.00  0.00    -0.026 A 
HETATM    5  C18 UNL     1      16.197  -2.758 -12.544  1.00  0.00     0.013 A 
HETATM    6  C19 UNL     1      16.399  -1.888 -11.465  1.00  0.00     0.009 A 
ENDROOT
BRANCH   1   7
HETATM    7  C7  UNL     1      15.826   0.238 -10.209  1.00  0.00     0.158 C 
BRANCH   7   8
HETATM    8  N1  UNL     1      17.067   0.973 -10.205  1.00  0.00    -0.386 N 
ATOM      9  H1  UNL     1      17.275   1.667 -10.923  1.00  0.00     0.160 HD
BRANCH   8  10
HETATM   10  C6  UNL     1      17.995   0.688  -9.150  1.00  0.00     0.028 A 
HETATM   11  C5  UNL     1      17.973   1.449  -7.978  1.00  0.00     0.029 A 
HETATM   12  C4  UNL     1      18.875   1.168  -6.962  1.00  0.00     0.009 A 
HETATM   13  C3  UNL     1      19.802   0.152  -7.068  1.00  0.00    -0.058 A 
HETATM   14  C21 UNL     1      19.796  -0.580  -8.238  1.00  0.00     0.009 A 
HETATM   15  C20 UNL     1      18.908  -0.313  -9.256  1.00  0.00     0.029 A 
BRANCH  13  16
HETATM   16  C2  UNL     1      20.771  -0.188  -6.033  1.00  0.00     0.034 C 
HETATM   17  C1  UNL     1      20.272  -0.026  -4.629  1.00  0.00     0.010 C 
ENDBRANCH  13  16
ENDBRANCH   8  10
ENDBRANCH   7   8
ENDBRANCH   1   7
BRANCH   4  18
HETATM   18  C12 UNL     1      15.020  -3.353 -14.641  1.00  0.00    -0.026 A 
HETATM   19  C13 UNL     1      15.716  -4.527 -14.821  1.00  0.00     0.012 A 
HETATM   20  C14 UNL     1      15.465  -5.343 -15.918  1.00  0.00     0.001 A 
HETATM   21  C15 UNL     1      14.512  -4.996 -16.854  1.00  0.00     0.000 A 
HETATM   22  C16 UNL     1      13.808  -3.816 -16.680  1.00  0.00     0.001 A 
HETATM   23  C17 UNL     1      14.068  -3.006 -15.576  1.00  0.00     0.012 A 
ENDBRANCH   4  18
TORSDOF 5
ENDMDL
