MODEL 1
REMARK VINA RESULT: -9.009767753      0.000      0.000
REMARK  5 active torsions:
REMARK  status: ('A' for Active; 'I' for Inactive)
REMARK    1  A    between atoms: C2_2  and  C3_3 
REMARK    2  A    between atoms: C6_6  and  N1_7 
REMARK    3  A    between atoms: N1_7  and  C7_9 
REMARK    4  A    between atoms: C7_9  and  C8_10 
REMARK    5  A    between atoms: C7_9  and  C14_16 
ROOT
HETATM    1  C7  UNL     1      18.248  -0.287  -9.296  1.00  0.00     0.148 C 
ENDROOT
BRANCH   1   2
HETATM    2  N1  UNL     1      17.037  -1.032  -9.110  1.00  0.00    -0.377 N 
ATOM      3  H1  UNL     1      16.491  -0.864  -8.264  1.00  0.00     0.160 HD
BRANCH   2   4
HETATM    4  C6  UNL     1      16.561  -1.987 -10.040  1.00  0.00     0.028 A 
HETATM    5  C5  UNL     1      15.434  -2.754  -9.723  1.00  0.00     0.030 A 
HETATM    6  C4  UNL     1      14.960  -3.698 -10.598  1.00  0.00     0.013 A 
HETATM    7  C3  UNL     1      15.529  -3.963 -11.818  1.00  0.00    -0.037 A 
HETATM    8  C21 UNL     1      16.661  -3.193 -12.137  1.00  0.00     0.013 A 
HETATM    9  C20 UNL     1      17.135  -2.249 -11.259  1.00  0.00     0.030 A 
BRANCH   7  10
HETATM   10  C2  UNL     1      15.053  -4.954 -12.769  1.00  0.00     0.001 C 
HETATM   11  C1  UNL     1      13.818  -4.976 -13.173  1.00  0.00     0.012 C 
ENDBRANCH   7  10
ENDBRANCH   2   4
ENDBRANCH   1   2
BRANCH   1  12
HETATM   12  C8  UNL     1      17.961   1.033  -9.890  1.00  0.00    -0.031 A 
HETATM   13  C9  UNL     1      18.917   2.006  -9.970  1.00  0.00     0.009 A 
HETATM   14  C10 UNL     1      18.689   3.250 -10.516  1.00  0.00     0.001 A 
HETATM   15  C11 UNL     1      17.447   3.555 -11.013  1.00  0.00     0.000 A 
HETATM   16  C12 UNL     1      16.460   2.584 -10.942  1.00  0.00     0.001 A 
HETATM   17  C13 UNL     1      16.706   1.329 -10.386  1.00  0.00     0.009 A 
ENDBRANCH   1  12
BRANCH   1  18
HETATM   18  C14 UNL     1      18.995  -0.145  -8.015  1.00  0.00    -0.031 A 
HETATM   19  C15 UNL     1      20.258  -0.676  -7.913  1.00  0.00     0.009 A 
HETATM   20  C16 UNL     1      20.988  -0.563  -6.725  1.00  0.00     0.001 A 
HETATM   21  C17 UNL     1      20.450   0.080  -5.653  1.00  0.00     0.000 A 
HETATM   22  C18 UNL     1      19.189   0.618  -5.739  1.00  0.00     0.001 A 
HETATM   23  C19 UNL     1      18.471   0.501  -6.917  1.00  0.00     0.009 A 
ENDBRANCH   1  18
TORSDOF 5
ENDMDL
MODEL 2
REMARK VINA RESULT: -9.008171157      0.028      1.005
REMARK  5 active torsions:
REMARK  status: ('A' for Active; 'I' for Inactive)
REMARK    1  A    between atoms: C2_2  and  C3_3 
REMARK    2  A    between atoms: C6_6  and  N1_7 
REMARK    3  A    between atoms: N1_7  and  C7_9 
REMARK    4  A    between atoms: C7_9  and  C8_10 
REMARK    5  A    between atoms: C7_9  and  C14_16 
ROOT
HETATM    1  C7  UNL     1      18.257  -0.273  -9.289  1.00  0.00     0.148 C 
ENDROOT
BRANCH   1   2
HETATM    2  N1  UNL     1      17.043  -1.013  -9.102  1.00  0.00    -0.377 N 
ATOM      3  H1  UNL     1      16.496  -0.840  -8.258  1.00  0.00     0.160 HD
BRANCH   2   4
HETATM    4  C6  UNL     1      16.565  -1.971 -10.029  1.00  0.00     0.028 A 
HETATM    5  C5  UNL     1      15.439  -2.738  -9.708  1.00  0.00     0.030 A 
HETATM    6  C4  UNL     1      14.964  -3.683 -10.580  1.00  0.00     0.013 A 
HETATM    7  C3  UNL     1      15.531  -3.951 -11.800  1.00  0.00    -0.037 A 
HETATM    8  C21 UNL     1      16.662  -3.182 -12.123  1.00  0.00     0.013 A 
HETATM    9  C20 UNL     1      17.137  -2.235 -11.248  1.00  0.00     0.030 A 
BRANCH   7  10
HETATM   10  C2  UNL     1      15.053  -4.945 -12.748  1.00  0.00     0.001 C 
HETATM   11  C1  UNL     1      13.826  -4.947 -13.176  1.00  0.00     0.012 C 
ENDBRANCH   7  10
ENDBRANCH   2   4
ENDBRANCH   1   2
BRANCH   1  12
HETATM   12  C8  UNL     1      17.974   1.047  -9.885  1.00  0.00    -0.031 A 
HETATM   13  C9  UNL     1      16.748   1.351 -10.406  1.00  0.00     0.009 A 
HETATM   14  C10 UNL     1      16.445   2.570 -10.970  1.00  0.00     0.001 A 
HETATM   15  C11 UNL     1      17.404   3.549 -11.026  1.00  0.00     0.000 A 
HETATM   16  C12 UNL     1      18.656   3.265 -10.503  1.00  0.00     0.001 A 
HETATM   17  C13 UNL     1      18.949   2.025  -9.935  1.00  0.00     0.009 A 
ENDBRANCH   1  12
BRANCH   1  18
HETATM   18  C14 UNL     1      19.003  -0.132  -8.008  1.00  0.00    -0.031 A 
HETATM   19  C15 UNL     1      20.269  -0.658  -7.909  1.00  0.00     0.009 A 
HETATM   20  C16 UNL     1      20.999  -0.545  -6.721  1.00  0.00     0.001 A 
HETATM   21  C17 UNL     1      20.459   0.092  -5.647  1.00  0.00     0.000 A 
HETATM   22  C18 UNL     1      19.196   0.624  -5.730  1.00  0.00     0.001 A 
HETATM   23  C19 UNL     1      18.477   0.509  -6.908  1.00  0.00     0.009 A 
ENDBRANCH   1  18
TORSDOF 5
ENDMDL
MODEL 3
REMARK VINA RESULT: -8.989945174      0.043      1.424
REMARK  5 active torsions:
REMARK  status: ('A' for Active; 'I' for Inactive)
REMARK    1  A    between atoms: C2_2  and  C3_3 
REMARK    2  A    between atoms: C6_6  and  N1_7 
REMARK    3  A    between atoms: N1_7  and  C7_9 
REMARK    4  A    between atoms: C7_9  and  C8_10 
REMARK    5  A    between atoms: C7_9  and  C14_16 
ROOT
HETATM    1  C7  UNL     1      18.269  -0.278  -9.311  1.00  0.00     0.148 C 
ENDROOT
BRANCH   1   2
HETATM    2  N1  UNL     1      17.050  -1.008  -9.121  1.00  0.00    -0.377 N 
ATOM      3  H1  UNL     1      16.503  -0.826  -8.280  1.00  0.00     0.160 HD
BRANCH   2   4
HETATM    4  C6  UNL     1      16.568  -1.970 -10.042  1.00  0.00     0.028 A 
HETATM    5  C5  UNL     1      15.454  -2.748  -9.705  1.00  0.00     0.030 A 
HETATM    6  C4  UNL     1      14.975  -3.697 -10.570  1.00  0.00     0.013 A 
HETATM    7  C3  UNL     1      15.526  -3.959 -11.799  1.00  0.00    -0.037 A 
HETATM    8  C21 UNL     1      16.645  -3.178 -12.139  1.00  0.00     0.013 A 
HETATM    9  C20 UNL     1      17.124  -2.228 -11.270  1.00  0.00     0.030 A 
BRANCH   7  10
HETATM   10  C2  UNL     1      15.044  -4.957 -12.741  1.00  0.00     0.001 C 
HETATM   11  C1  UNL     1      13.814  -4.962 -13.160  1.00  0.00     0.012 C 
ENDBRANCH   7  10
ENDBRANCH   2   4
ENDBRANCH   1   2
BRANCH   1  12
HETATM   12  C8  UNL     1      17.994   1.051  -9.892  1.00  0.00    -0.031 A 
HETATM   13  C9  UNL     1      16.765   1.372 -10.395  1.00  0.00     0.009 A 
HETATM   14  C10 UNL     1      16.467   2.600 -10.945  1.00  0.00     0.001 A 
HETATM   15  C11 UNL     1      17.437   3.568 -11.005  1.00  0.00     0.000 A 
HETATM   16  C12 UNL     1      18.693   3.265 -10.502  1.00  0.00     0.001 A 
HETATM   17  C13 UNL     1      18.979   2.018  -9.948  1.00  0.00     0.009 A 
ENDBRANCH   1  12
BRANCH   1  18
HETATM   18  C14 UNL     1      19.028  -0.155  -8.036  1.00  0.00    -0.031 A 
HETATM   19  C15 UNL     1      18.451   0.497  -6.973  1.00  0.00     0.009 A 
HETATM   20  C16 UNL     1      19.134   0.633  -5.760  1.00  0.00     0.001 A 
HETATM   21  C17 UNL     1      20.385   0.116  -5.621  1.00  0.00     0.000 A 
HETATM   22  C18 UNL     1      20.976  -0.539  -6.674  1.00  0.00     0.001 A 
HETATM   23  C19 UNL     1      20.295  -0.669  -7.873  1.00  0.00     0.009 A 
ENDBRANCH   1  18
TORSDOF 5
ENDMDL
MODEL 4
REMARK VINA RESULT: -8.867752773      0.580      3.956
REMARK  5 active torsions:
REMARK  status: ('A' for Active; 'I' for Inactive)
REMARK    1  A    between atoms: C2_2  and  C3_3 
REMARK    2  A    between atoms: C6_6  and  N1_7 
REMARK    3  A    between atoms: N1_7  and  C7_9 
REMARK    4  A    between atoms: C7_9  and  C8_10 
REMARK    5  A    between atoms: C7_9  and  C14_16 
ROOT
HETATM    1  C7  UNL     1      17.665  -0.222  -9.149  1.00  0.00     0.148 C 
ENDROOT
BRANCH   1   2
HETATM    2  N1  UNL     1      18.026  -1.292 -10.032  1.00  0.00    -0.377 N 
ATOM      3  H1  UNL     1      19.017  -1.488 -10.174  1.00  0.00     0.160 HD
BRANCH   2   4
HETATM    4  C6  UNL     1      17.077  -2.091 -10.715  1.00  0.00     0.028 A 
HETATM    5  C5  UNL     1      16.016  -2.660 -10.002  1.00  0.00     0.030 A 
HETATM    6  C4  UNL     1      15.091  -3.450 -10.635  1.00  0.00     0.013 A 
HETATM    7  C3  UNL     1      15.124  -3.741 -11.976  1.00  0.00    -0.037 A 
HETATM    8  C21 UNL     1      16.190  -3.170 -12.692  1.00  0.00     0.013 A 
HETATM    9  C20 UNL     1      17.116  -2.379 -12.056  1.00  0.00     0.030 A 
BRANCH   7  10
HETATM   10  C2  UNL     1      14.161  -4.574 -12.678  1.00  0.00     0.001 C 
HETATM   11  C1  UNL     1      13.843  -4.352 -13.919  1.00  0.00     0.012 C 
ENDBRANCH   7  10
ENDBRANCH   2   4
ENDBRANCH   1   2
BRANCH   1  12
HETATM   12  C8  UNL     1      18.634  -0.112  -8.040  1.00  0.00    -0.031 A 
HETATM   13  C9  UNL     1      18.320   0.529  -6.876  1.00  0.00     0.009 A 
HETATM   14  C10 UNL     1      19.194   0.653  -5.819  1.00  0.00     0.001 A 
HETATM   15  C11 UNL     1      20.453   0.114  -5.913  1.00  0.00     0.000 A 
HETATM   16  C12 UNL     1      20.794  -0.542  -7.085  1.00  0.00     0.001 A 
HETATM   17  C13 UNL     1      19.898  -0.659  -8.147  1.00  0.00     0.009 A 
ENDBRANCH   1  12
BRANCH   1  18
HETATM   18  C14 UNL     1      17.550   1.068  -9.886  1.00  0.00    -0.031 A 
HETATM   19  C15 UNL     1      16.374   1.369 -10.530  1.00  0.00     0.009 A 
HETATM   20  C16 UNL     1      16.231   2.569 -11.233  1.00  0.00     0.001 A 
HETATM   21  C17 UNL     1      17.261   3.457 -11.284  1.00  0.00     0.000 A 
HETATM   22  C18 UNL     1      18.443   3.171 -10.645  1.00  0.00     0.001 A 
HETATM   23  C19 UNL     1      18.580   1.980  -9.952  1.00  0.00     0.009 A 
ENDBRANCH   1  18
TORSDOF 5
ENDMDL
MODEL 5
REMARK VINA RESULT: -8.864744908      0.581      3.907
REMARK  5 active torsions:
REMARK  status: ('A' for Active; 'I' for Inactive)
REMARK    1  A    between atoms: C2_2  and  C3_3 
REMARK    2  A    between atoms: C6_6  and  N1_7 
REMARK    3  A    between atoms: N1_7  and  C7_9 
REMARK    4  A    between atoms: C7_9  and  C8_10 
REMARK    5  A    between atoms: C7_9  and  C14_16 
ROOT
HETATM    1  C7  UNL     1      17.661  -0.216  -9.147  1.00  0.00     0.148 C 
ENDROOT
BRANCH   1   2
HETATM    2  N1  UNL     1      18.024  -1.288 -10.026  1.00  0.00    -0.377 N 
ATOM      3  H1  UNL     1      19.015  -1.485 -10.165  1.00  0.00     0.160 HD
BRANCH   2   4
HETATM    4  C6  UNL     1      17.076  -2.088 -10.710  1.00  0.00     0.028 A 
HETATM    5  C5  UNL     1      16.016  -2.660  -9.997  1.00  0.00     0.030 A 
HETATM    6  C4  UNL     1      15.093  -3.451 -10.631  1.00  0.00     0.013 A 
HETATM    7  C3  UNL     1      15.126  -3.741 -11.972  1.00  0.00    -0.037 A 
HETATM    8  C21 UNL     1      16.190  -3.167 -12.688  1.00  0.00     0.013 A 
HETATM    9  C20 UNL     1      17.115  -2.375 -12.052  1.00  0.00     0.030 A 
BRANCH   7  10
HETATM   10  C2  UNL     1      14.164  -4.575 -12.675  1.00  0.00     0.001 C 
HETATM   11  C1  UNL     1      13.820  -4.333 -13.904  1.00  0.00     0.012 C 
ENDBRANCH   7  10
ENDBRANCH   2   4
ENDBRANCH   1   2
BRANCH   1  12
HETATM   12  C8  UNL     1      18.626  -0.105  -8.035  1.00  0.00    -0.031 A 
HETATM   13  C9  UNL     1      19.879  -0.644  -8.118  1.00  0.00     0.009 A 
HETATM   14  C10 UNL     1      20.808  -0.563  -7.104  1.00  0.00     0.001 A 
HETATM   15  C11 UNL     1      20.485   0.087  -5.939  1.00  0.00     0.000 A 
HETATM   16  C12 UNL     1      19.220   0.643  -5.832  1.00  0.00     0.001 A 
HETATM   17  C13 UNL     1      18.290   0.552  -6.867  1.00  0.00     0.009 A 
ENDBRANCH   1  12
BRANCH   1  18
HETATM   18  C14 UNL     1      17.549   1.072  -9.886  1.00  0.00    -0.031 A 
HETATM   19  C15 UNL     1      16.375   1.374 -10.532  1.00  0.00     0.009 A 
HETATM   20  C16 UNL     1      16.235   2.574 -11.238  1.00  0.00     0.001 A 
HETATM   21  C17 UNL     1      17.267   3.459 -11.290  1.00  0.00     0.000 A 
HETATM   22  C18 UNL     1      18.447   3.172 -10.648  1.00  0.00     0.001 A 
HETATM   23  C19 UNL     1      18.581   1.983  -9.953  1.00  0.00     0.009 A 
ENDBRANCH   1  18
TORSDOF 5
ENDMDL
