MODEL 1
REMARK VINA RESULT: -7.800557421      0.000      0.000
REMARK  5 active torsions:
REMARK  status: ('A' for Active; 'I' for Inactive)
REMARK    1  A    between atoms: C1_2  and  C2_4 
REMARK    2  A    between atoms: C2_4  and  C3_5 
REMARK    3  A    between atoms: C3_5  and  N1_6 
REMARK       I    between atoms: N1_6  and  C4_8 
REMARK       I    between atoms: C4_8  and  N2_10 
REMARK    4  A    between atoms: C9_15  and  C10_16 
REMARK       I    between atoms: C10_16  and  N3_18 
REMARK    5  A    between atoms: N3_18  and  C11_20 
ROOT
HETATM    1  N1  UNL     1      23.995   4.965  57.914  1.00  0.00    -0.342 N 
ATOM      2  H1  UNL     1      23.648   4.646  58.818  1.00  0.00     0.164 HD
HETATM    3  C4  UNL     1      25.328   5.435  57.836  1.00  0.00     0.319 C 
HETATM    4  O3  UNL     1      25.683   5.817  56.662  1.00  0.00    -0.247 OA
HETATM    5  N2  UNL     1      26.237   5.503  58.913  1.00  0.00    -0.321 N 
HETATM    6  C5  UNL     1      25.856   5.086  60.227  1.00  0.00     0.128 C 
HETATM    7  C6  UNL     1      26.745   3.873  60.543  1.00  0.00     0.020 C 
HETATM    8  C7  UNL     1      28.156   4.444  60.589  1.00  0.00     0.004 C 
HETATM    9  C8  UNL     1      28.569   5.059  59.296  1.00  0.00     0.035 C 
HETATM   10  C9  UNL     1      27.567   5.997  58.684  1.00  0.00     0.180 C 
ENDROOT
BRANCH  10  11
HETATM   11  C10 UNL     1      27.678   7.378  59.142  1.00  0.00     0.241 C 
HETATM   12  O4  UNL     1      26.676   7.909  59.685  1.00  0.00    -0.271 OA
HETATM   13  N3  UNL     1      28.855   8.170  59.016  1.00  0.00    -0.355 N 
ATOM     14  H3  UNL     1      29.677   7.752  58.579  1.00  0.00     0.162 HD
BRANCH  13  15
HETATM   15  C11 UNL     1      28.942   9.527  59.473  1.00  0.00     0.084 C 
HETATM   16  C12 UNL     1      30.350   9.755  60.040  1.00  0.00     0.025 C 
HETATM   17  C13 UNL     1      31.242  10.058  58.854  1.00  0.00     0.002 C 
HETATM   18  C14 UNL     1      31.045  11.515  58.476  1.00  0.00     0.000 C 
HETATM   19  C15 UNL     1      29.561  11.798  58.597  1.00  0.00     0.002 C 
HETATM   20  C16 UNL     1      28.747  10.539  58.381  1.00  0.00     0.025 C 
ENDBRANCH  13  15
ENDBRANCH  10  11
BRANCH   1  21
HETATM   21  C3  UNL     1      23.109   4.915  56.792  1.00  0.00     0.135 C 
BRANCH  21  22
HETATM   22  C2  UNL     1      22.746   3.501  56.415  1.00  0.00     0.133 C 
BRANCH  22  23
HETATM   23  C1  UNL     1      23.869   2.572  56.540  1.00  0.00     0.174 C 
HETATM   24  O1  UNL     1      23.887   1.731  57.454  1.00  0.00    -0.648 OA
HETATM   25  O2  UNL     1      24.911   2.636  55.633  1.00  0.00    -0.648 OA
ENDBRANCH  22  23
ENDBRANCH  21  22
ENDBRANCH   1  21
TORSDOF 5
ENDMDL
MODEL 2
REMARK VINA RESULT: -7.635424404      1.856      7.798
REMARK  5 active torsions:
REMARK  status: ('A' for Active; 'I' for Inactive)
REMARK    1  A    between atoms: C1_2  and  C2_4 
REMARK    2  A    between atoms: C2_4  and  C3_5 
REMARK    3  A    between atoms: C3_5  and  N1_6 
REMARK       I    between atoms: N1_6  and  C4_8 
REMARK       I    between atoms: C4_8  and  N2_10 
REMARK    4  A    between atoms: C9_15  and  C10_16 
REMARK       I    between atoms: C10_16  and  N3_18 
REMARK    5  A    between atoms: N3_18  and  C11_20 
ROOT
HETATM    1  N1  UNL     1      28.273   7.641  58.392  1.00  0.00    -0.342 N 
ATOM      2  H1  UNL     1      29.130   7.092  58.443  1.00  0.00     0.164 HD
HETATM    3  C4  UNL     1      27.049   7.005  58.712  1.00  0.00     0.319 C 
HETATM    4  O3  UNL     1      26.020   7.769  58.623  1.00  0.00    -0.247 OA
HETATM    5  N2  UNL     1      26.905   5.657  59.101  1.00  0.00    -0.321 N 
HETATM    6  C5  UNL     1      28.039   4.792  59.202  1.00  0.00     0.128 C 
HETATM    7  C6  UNL     1      28.139   4.421  60.689  1.00  0.00     0.020 C 
HETATM    8  C7  UNL     1      26.873   3.619  60.961  1.00  0.00     0.004 C 
HETATM    9  C8  UNL     1      25.631   4.403  60.710  1.00  0.00     0.035 C 
HETATM   10  C9  UNL     1      25.596   5.146  59.405  1.00  0.00     0.180 C 
ENDROOT
BRANCH  10  11
HETATM   11  C10 UNL     1      25.085   4.366  58.282  1.00  0.00     0.241 C 
HETATM   12  O4  UNL     1      24.769   4.975  57.228  1.00  0.00    -0.271 OA
HETATM   13  N3  UNL     1      24.922   2.951  58.300  1.00  0.00    -0.355 N 
ATOM     14  H3  UNL     1      25.176   2.445  59.148  1.00  0.00     0.162 HD
BRANCH  13  15
HETATM   15  C11 UNL     1      24.417   2.205  57.185  1.00  0.00     0.084 C 
HETATM   16  C12 UNL     1      25.047   0.806  57.217  1.00  0.00     0.025 C 
HETATM   17  C13 UNL     1      24.219  -0.011  58.186  1.00  0.00     0.002 C 
HETATM   18  C14 UNL     1      22.969  -0.478  57.461  1.00  0.00     0.000 C 
HETATM   19  C15 UNL     1      22.497   0.688  56.617  1.00  0.00     0.002 C 
HETATM   20  C16 UNL     1      22.929   2.008  57.220  1.00  0.00     0.025 C 
ENDBRANCH  13  15
ENDBRANCH  10  11
BRANCH   1  21
HETATM   21  C3  UNL     1      28.370   9.014  58.001  1.00  0.00     0.135 C 
BRANCH  21  22
HETATM   22  C2  UNL     1      29.117   9.844  59.014  1.00  0.00     0.133 C 
BRANCH  22  23
HETATM   23  C1  UNL     1      29.796   9.033  60.026  1.00  0.00     0.174 C 
HETATM   24  O1  UNL     1      30.965   8.656  59.845  1.00  0.00    -0.648 OA
HETATM   25  O2  UNL     1      29.125   8.689  61.186  1.00  0.00    -0.648 OA
ENDBRANCH  22  23
ENDBRANCH  21  22
ENDBRANCH   1  21
TORSDOF 5
ENDMDL
MODEL 3
REMARK VINA RESULT: -7.553878566      4.095      8.252
REMARK  5 active torsions:
REMARK  status: ('A' for Active; 'I' for Inactive)
REMARK    1  A    between atoms: C1_2  and  C2_4 
REMARK    2  A    between atoms: C2_4  and  C3_5 
REMARK    3  A    between atoms: C3_5  and  N1_6 
REMARK       I    between atoms: N1_6  and  C4_8 
REMARK       I    between atoms: C4_8  and  N2_10 
REMARK    4  A    between atoms: C9_15  and  C10_16 
REMARK       I    between atoms: C10_16  and  N3_18 
REMARK    5  A    between atoms: N3_18  and  C11_20 
ROOT
HETATM    1  N1  UNL     1      30.670   9.407  62.656  1.00  0.00    -0.342 N 
ATOM      2  H1  UNL     1      30.596  10.415  62.790  1.00  0.00     0.164 HD
HETATM    3  C4  UNL     1      30.341   8.873  61.386  1.00  0.00     0.319 C 
HETATM    4  O3  UNL     1      30.462   7.597  61.305  1.00  0.00    -0.247 OA
HETATM    5  N2  UNL     1      29.913   9.621  60.270  1.00  0.00    -0.321 N 
HETATM    6  C5  UNL     1      29.770  11.042  60.345  1.00  0.00     0.128 C 
HETATM    7  C6  UNL     1      30.813  11.610  59.371  1.00  0.00     0.020 C 
HETATM    8  C7  UNL     1      30.348  11.132  58.002  1.00  0.00     0.004 C 
HETATM    9  C8  UNL     1      30.302   9.646  57.898  1.00  0.00     0.035 C 
HETATM   10  C9  UNL     1      29.619   8.944  59.037  1.00  0.00     0.180 C 
ENDROOT
BRANCH  10  11
HETATM   11  C10 UNL     1      28.177   8.795  58.873  1.00  0.00     0.241 C 
HETATM   12  O4  UNL     1      27.523   8.266  59.808  1.00  0.00    -0.271 OA
HETATM   13  N3  UNL     1      27.456   9.213  57.718  1.00  0.00    -0.355 N 
ATOM     14  H3  UNL     1      27.974   9.644  56.953  1.00  0.00     0.162 HD
BRANCH  13  15
HETATM   15  C11 UNL     1      26.038   9.055  57.579  1.00  0.00     0.084 C 
HETATM   16  C12 UNL     1      25.434  10.421  57.226  1.00  0.00     0.025 C 
HETATM   17  C13 UNL     1      25.600  10.586  55.730  1.00  0.00     0.002 C 
HETATM   18  C14 UNL     1      24.494   9.805  55.043  1.00  0.00     0.000 C 
HETATM   19  C15 UNL     1      24.345   8.504  55.807  1.00  0.00     0.002 C 
HETATM   20  C16 UNL     1      25.646   8.113  56.477  1.00  0.00     0.025 C 
ENDBRANCH  13  15
ENDBRANCH  10  11
BRANCH   1  21
HETATM   21  C3  UNL     1      31.100   8.606  63.761  1.00  0.00     0.135 C 
BRANCH  21  22
HETATM   22  C2  UNL     1      32.577   8.749  64.028  1.00  0.00     0.133 C 
BRANCH  22  23
HETATM   23  C1  UNL     1      32.949   8.371  65.392  1.00  0.00     0.174 C 
HETATM   24  O1  UNL     1      32.430   8.945  66.364  1.00  0.00    -0.648 OA
HETATM   25  O2  UNL     1      33.882   7.370  65.592  1.00  0.00    -0.648 OA
ENDBRANCH  22  23
ENDBRANCH  21  22
ENDBRANCH   1  21
TORSDOF 5
ENDMDL
MODEL 4
REMARK VINA RESULT: -7.501162571      3.320      4.936
REMARK  5 active torsions:
REMARK  status: ('A' for Active; 'I' for Inactive)
REMARK    1  A    between atoms: C1_2  and  C2_4 
REMARK    2  A    between atoms: C2_4  and  C3_5 
REMARK    3  A    between atoms: C3_5  and  N1_6 
REMARK       I    between atoms: N1_6  and  C4_8 
REMARK       I    between atoms: C4_8  and  N2_10 
REMARK    4  A    between atoms: C9_15  and  C10_16 
REMARK       I    between atoms: C10_16  and  N3_18 
REMARK    5  A    between atoms: N3_18  and  C11_20 
ROOT
HETATM    1  N1  UNL     1      26.464   8.979  58.079  1.00  0.00    -0.342 N 
ATOM      2  H1  UNL     1      25.921   8.241  58.525  1.00  0.00     0.164 HD
HETATM    3  C4  UNL     1      27.823   9.129  58.448  1.00  0.00     0.319 C 
HETATM    4  O3  UNL     1      28.431  10.082  57.838  1.00  0.00    -0.247 OA
HETATM    5  N2  UNL     1      28.506   8.336  59.392  1.00  0.00    -0.321 N 
HETATM    6  C5  UNL     1      27.843   7.273  60.082  1.00  0.00     0.128 C 
HETATM    7  C6  UNL     1      28.544   5.987  59.622  1.00  0.00     0.020 C 
HETATM    8  C7  UNL     1      29.963   6.120  60.157  1.00  0.00     0.004 C 
HETATM    9  C8  UNL     1      30.672   7.313  59.614  1.00  0.00     0.035 C 
HETATM   10  C9  UNL     1      29.894   8.598  59.662  1.00  0.00     0.180 C 
ENDROOT
BRANCH  10  11
HETATM   11  C10 UNL     1      30.034   9.339  60.912  1.00  0.00     0.241 C 
HETATM   12  O4  UNL     1      29.408  10.423  61.035  1.00  0.00    -0.271 OA
HETATM   13  N3  UNL     1      30.836   8.913  62.009  1.00  0.00    -0.355 N 
ATOM     14  H3  UNL     1      31.347   8.034  61.922  1.00  0.00     0.162 HD
BRANCH  13  15
HETATM   15  C11 UNL     1      30.959   9.658  63.227  1.00  0.00     0.084 C 
HETATM   16  C12 UNL     1      30.853   8.678  64.404  1.00  0.00     0.025 C 
HETATM   17  C13 UNL     1      32.231   8.080  64.586  1.00  0.00     0.002 C 
HETATM   18  C14 UNL     1      33.079   9.075  65.358  1.00  0.00     0.000 C 
HETATM   19  C15 UNL     1      32.745  10.447  64.807  1.00  0.00     0.002 C 
HETATM   20  C16 UNL     1      32.280  10.359  63.369  1.00  0.00     0.025 C 
ENDBRANCH  13  15
ENDBRANCH  10  11
BRANCH   1  21
HETATM   21  C3  UNL     1      25.812   9.810  57.113  1.00  0.00     0.135 C 
BRANCH  21  22
HETATM   22  C2  UNL     1      25.843   9.210  55.730  1.00  0.00     0.133 C 
BRANCH  22  23
HETATM   23  C1  UNL     1      25.099   7.953  55.638  1.00  0.00     0.174 C 
HETATM   24  O1  UNL     1      24.030   7.902  55.007  1.00  0.00    -0.648 OA
HETATM   25  O2  UNL     1      25.594   6.820  56.260  1.00  0.00    -0.648 OA
ENDBRANCH  22  23
ENDBRANCH  21  22
ENDBRANCH   1  21
TORSDOF 5
ENDMDL
MODEL 5
REMARK VINA RESULT: -7.472088511      1.188      1.495
REMARK  5 active torsions:
REMARK  status: ('A' for Active; 'I' for Inactive)
REMARK    1  A    between atoms: C1_2  and  C2_4 
REMARK    2  A    between atoms: C2_4  and  C3_5 
REMARK    3  A    between atoms: C3_5  and  N1_6 
REMARK       I    between atoms: N1_6  and  C4_8 
REMARK       I    between atoms: C4_8  and  N2_10 
REMARK    4  A    between atoms: C9_15  and  C10_16 
REMARK       I    between atoms: C10_16  and  N3_18 
REMARK    5  A    between atoms: N3_18  and  C11_20 
ROOT
HETATM    1  N1  UNL     1      23.886   4.555  58.470  1.00  0.00    -0.342 N 
ATOM      2  H1  UNL     1      23.670   4.270  59.425  1.00  0.00     0.164 HD
HETATM    3  C4  UNL     1      25.167   5.096  58.206  1.00  0.00     0.319 C 
HETATM    4  O3  UNL     1      25.355   5.428  56.980  1.00  0.00    -0.247 OA
HETATM    5  N2  UNL     1      26.190   5.281  59.159  1.00  0.00    -0.321 N 
HETATM    6  C5  UNL     1      25.996   4.921  60.530  1.00  0.00     0.128 C 
HETATM    7  C6  UNL     1      26.992   3.783  60.798  1.00  0.00     0.020 C 
HETATM    8  C7  UNL     1      28.359   4.437  60.642  1.00  0.00     0.004 C 
HETATM    9  C8  UNL     1      28.575   4.998  59.278  1.00  0.00     0.035 C 
HETATM   10  C9  UNL     1      27.449   5.838  58.745  1.00  0.00     0.180 C 
ENDROOT
BRANCH  10  11
HETATM   11  C10 UNL     1      27.524   7.247  59.114  1.00  0.00     0.241 C 
HETATM   12  O4  UNL     1      26.501   7.790  59.607  1.00  0.00    -0.271 OA
HETATM   13  N3  UNL     1      28.685   8.056  58.953  1.00  0.00    -0.355 N 
ATOM     14  H3  UNL     1      29.521   7.629  58.555  1.00  0.00     0.162 HD
BRANCH  13  15
HETATM   15  C11 UNL     1      28.735   9.441  59.321  1.00  0.00     0.084 C 
HETATM   16  C12 UNL     1      30.071   9.702  60.031  1.00  0.00     0.025 C 
HETATM   17  C13 UNL     1      31.098   9.917  58.940  1.00  0.00     0.002 C 
HETATM   18  C14 UNL     1      30.965  11.345  58.442  1.00  0.00     0.000 C 
HETATM   19  C15 UNL     1      29.481  11.642  58.369  1.00  0.00     0.002 C 
HETATM   20  C16 UNL     1      28.681  10.375  58.147  1.00  0.00     0.025 C 
ENDBRANCH  13  15
ENDBRANCH  10  11
BRANCH   1  21
HETATM   21  C3  UNL     1      22.878   4.386  57.469  1.00  0.00     0.135 C 
BRANCH  21  22
HETATM   22  C2  UNL     1      21.806   3.415  57.895  1.00  0.00     0.133 C 
BRANCH  22  23
HETATM   23  C1  UNL     1      22.169   2.657  59.093  1.00  0.00     0.174 C 
HETATM   24  O1  UNL     1      22.902   1.658  59.003  1.00  0.00    -0.648 OA
HETATM   25  O2  UNL     1      21.690   3.060  60.326  1.00  0.00    -0.648 OA
ENDBRANCH  22  23
ENDBRANCH  21  22
ENDBRANCH   1  21
TORSDOF 5
ENDMDL
