MODEL 1
REMARK VINA RESULT: -7.536739233      0.000      0.000
REMARK  12 active torsions:
REMARK  status: ('A' for Active; 'I' for Inactive)
REMARK    1  A    between atoms: O1_2  and  C2_3 
REMARK    2  A    between atoms: C5_6  and  C6_7 
REMARK    3  A    between atoms: C6_7  and  O3_9 
REMARK    4  A    between atoms: O3_9  and  C7_10 
REMARK    5  A    between atoms: C7_10  and  O4_13 
REMARK    6  A    between atoms: O4_13  and  C10_14 
REMARK    7  A    between atoms: C10_14  and  C11_16 
REMARK    8  A    between atoms: C11_16  and  C12_17 
REMARK    9  A    between atoms: C12_17  and  C13_18 
REMARK   10  A    between atoms: C22_29  and  O8_30 
REMARK   11  A    between atoms: C22_29  and  C23_32 
REMARK   12  A    between atoms: C23_32  and  O9_35 
ROOT
HETATM    1  C13 UNL     1     -49.608  -2.276 -20.721  1.00  0.00     0.128 C 
HETATM    2  C14 UNL     1     -48.179  -2.546 -20.410  1.00  0.00     0.072 C 
HETATM    3  C15 UNL     1     -48.018  -3.775 -19.499  1.00  0.00     0.094 C 
HETATM    4  C16 UNL     1     -46.642  -3.766 -18.930  1.00  0.00     0.049 C 
HETATM    5  O6  UNL     1     -48.349  -4.858 -20.245  1.00  0.00    -0.342 OA
HETATM    6  C17 UNL     1     -49.322  -5.684 -19.845  1.00  0.00     0.161 C 
HETATM    7  C18 UNL     1     -49.811  -6.437 -21.096  1.00  0.00     0.078 C 
HETATM    8  C19 UNL     1     -48.797  -6.762 -18.913  1.00  0.00     0.078 C 
HETATM    9  O7  UNL     1     -50.451  -5.146 -19.277  1.00  0.00    -0.317 OA
HETATM   10  C20 UNL     1     -50.371  -3.774 -19.080  1.00  0.00     0.202 C 
HETATM   11  C21 UNL     1     -51.275  -3.256 -17.995  1.00  0.00     0.143 C 
HETATM   12  C22 UNL     1     -50.377  -2.269 -17.304  1.00  0.00     0.198 C 
HETATM   13  O10 UNL     1     -49.121  -2.324 -17.901  1.00  0.00    -0.338 OA
HETATM   14  C26 UNL     1     -49.017  -3.580 -18.399  1.00  0.00     0.222 C 
HETATM   15  O11 UNL     1     -50.534  -3.139 -20.248  1.00  0.00    -0.347 OA
ENDROOT
BRANCH   1  16
HETATM   16  C12 UNL     1     -49.803  -2.227 -22.245  1.00  0.00     0.042 C 
BRANCH  16  17
HETATM   17  C11 UNL     1     -50.704  -3.324 -22.718  1.00  0.00     0.114 C 
BRANCH  17  18
HETATM   18  C10 UNL     1     -50.640  -3.417 -24.184  1.00  0.00     0.261 C 
HETATM   19  O5  UNL     1     -50.436  -4.534 -24.718  1.00  0.00    -0.265 OA
BRANCH  18  20
HETATM   20  O4  UNL     1     -50.791  -2.340 -25.047  1.00  0.00    -0.284 OA
BRANCH  20  21
HETATM   21  C7  UNL     1     -52.061  -1.683 -25.188  1.00  0.00     0.175 C 
HETATM   22  C8  UNL     1     -52.357  -1.512 -26.663  1.00  0.00     0.080 C 
HETATM   23  C9  UNL     1     -53.113  -2.599 -24.612  1.00  0.00     0.080 C 
BRANCH  21  24
HETATM   24  O3  UNL     1     -52.025  -0.433 -24.559  1.00  0.00    -0.280 OA
BRANCH  24  25
HETATM   25  C6  UNL     1     -53.137   0.015 -23.854  1.00  0.00     0.296 C 
HETATM   26  O2  UNL     1     -54.171   0.279 -24.505  1.00  0.00    -0.259 OA
BRANCH  25  27
HETATM   27  C5  UNL     1     -53.141   0.185 -22.417  1.00  0.00     0.039 A 
HETATM   28  C4  UNL     1     -53.338   1.441 -21.895  1.00  0.00     0.020 A 
HETATM   29  C3  UNL     1     -53.353   1.665 -20.530  1.00  0.00     0.038 A 
HETATM   30  C2  UNL     1     -53.164   0.583 -19.701  1.00  0.00     0.068 A 
HETATM   31  C28 UNL     1     -52.968  -0.672 -20.222  1.00  0.00     0.038 A 
HETATM   32  C27 UNL     1     -52.951  -0.903 -21.581  1.00  0.00     0.020 A 
BRANCH  30  33
HETATM   33  O1  UNL     1     -53.176   0.787 -18.328  1.00  0.00    -0.356 OA
HETATM   34  C1  UNL     1     -53.161   2.082 -17.775  1.00  0.00     0.210 C 
ENDBRANCH  30  33
ENDBRANCH  25  27
ENDBRANCH  24  25
ENDBRANCH  21  24
ENDBRANCH  20  21
ENDBRANCH  18  20
ENDBRANCH  17  18
ENDBRANCH  16  17
ENDBRANCH   1  16
BRANCH  12  35
HETATM   35  O8  UNL     1     -50.829  -0.944 -17.507  1.00  0.00    -0.363 OA
ATOM     36  H8  UNL     1     -50.477  -0.360 -16.845  1.00  0.00     0.213 HD
ENDBRANCH  12  35
BRANCH  12  37
HETATM   37  C23 UNL     1     -50.338  -2.522 -15.811  1.00  0.00     0.107 C 
HETATM   38  C24 UNL     1     -51.268  -1.523 -15.154  1.00  0.00     0.051 C 
HETATM   39  C25 UNL     1     -48.971  -2.376 -15.237  1.00  0.00     0.051 C 
BRANCH  37  40
HETATM   40  O9  UNL     1     -50.812  -3.788 -15.494  1.00  0.00    -0.385 OA
ATOM     41  H9  UNL     1     -50.151  -4.308 -15.051  1.00  0.00     0.210 HD
ENDBRANCH  37  40
ENDBRANCH  12  37
TORSDOF 12
ENDMDL
MODEL 2
REMARK VINA RESULT: -7.320466456      1.787      3.381
REMARK  12 active torsions:
REMARK  status: ('A' for Active; 'I' for Inactive)
REMARK    1  A    between atoms: O1_2  and  C2_3 
REMARK    2  A    between atoms: C5_6  and  C6_7 
REMARK    3  A    between atoms: C6_7  and  O3_9 
REMARK    4  A    between atoms: O3_9  and  C7_10 
REMARK    5  A    between atoms: C7_10  and  O4_13 
REMARK    6  A    between atoms: O4_13  and  C10_14 
REMARK    7  A    between atoms: C10_14  and  C11_16 
REMARK    8  A    between atoms: C11_16  and  C12_17 
REMARK    9  A    between atoms: C12_17  and  C13_18 
REMARK   10  A    between atoms: C22_29  and  O8_30 
REMARK   11  A    between atoms: C22_29  and  C23_32 
REMARK   12  A    between atoms: C23_32  and  O9_35 
ROOT
HETATM    1  C13 UNL     1     -50.722  -4.267 -19.666  1.00  0.00     0.128 C 
HETATM    2  C14 UNL     1     -51.974  -3.560 -20.049  1.00  0.00     0.072 C 
HETATM    3  C15 UNL     1     -51.822  -2.034 -19.934  1.00  0.00     0.094 C 
HETATM    4  C16 UNL     1     -53.178  -1.420 -19.958  1.00  0.00     0.049 C 
HETATM    5  O6  UNL     1     -50.974  -1.652 -20.921  1.00  0.00    -0.342 OA
HETATM    6  C17 UNL     1     -49.852  -0.985 -20.629  1.00  0.00     0.161 C 
HETATM    7  C18 UNL     1     -48.893  -1.182 -21.817  1.00  0.00     0.078 C 
HETATM    8  C19 UNL     1     -50.092   0.514 -20.556  1.00  0.00     0.078 C 
HETATM    9  O7  UNL     1     -49.137  -1.353 -19.516  1.00  0.00    -0.317 OA
HETATM   10  C20 UNL     1     -49.765  -2.327 -18.752  1.00  0.00     0.202 C 
HETATM   11  C21 UNL     1     -49.341  -2.343 -17.309  1.00  0.00     0.143 C 
HETATM   12  C22 UNL     1     -50.656  -2.552 -16.614  1.00  0.00     0.198 C 
HETATM   13  O10 UNL     1     -51.664  -2.559 -17.572  1.00  0.00    -0.338 OA
HETATM   14  C26 UNL     1     -51.192  -1.805 -18.593  1.00  0.00     0.222 C 
HETATM   15  O11 UNL     1     -49.643  -3.520 -19.350  1.00  0.00    -0.347 OA
ENDROOT
BRANCH   1  16
HETATM   16  C12 UNL     1     -50.284  -5.194 -20.812  1.00  0.00     0.042 C 
BRANCH  16  17
HETATM   17  C11 UNL     1     -51.223  -5.111 -21.973  1.00  0.00     0.114 C 
BRANCH  17  18
HETATM   18  C10 UNL     1     -50.466  -4.827 -23.201  1.00  0.00     0.261 C 
HETATM   19  O5  UNL     1     -49.752  -5.729 -23.703  1.00  0.00    -0.265 OA
BRANCH  18  20
HETATM   20  O4  UNL     1     -50.479  -3.610 -23.869  1.00  0.00    -0.284 OA
BRANCH  20  21
HETATM   21  C7  UNL     1     -51.328  -3.405 -25.009  1.00  0.00     0.175 C 
HETATM   22  C8  UNL     1     -50.869  -4.317 -26.126  1.00  0.00     0.080 C 
HETATM   23  C9  UNL     1     -52.723  -3.826 -24.618  1.00  0.00     0.080 C 
BRANCH  21  24
HETATM   24  O3  UNL     1     -51.260  -2.069 -25.423  1.00  0.00    -0.280 OA
BRANCH  24  25
HETATM   25  C6  UNL     1     -52.428  -1.390 -25.751  1.00  0.00     0.296 C 
HETATM   26  O2  UNL     1     -52.886  -1.542 -26.904  1.00  0.00    -0.259 OA
BRANCH  25  27
HETATM   27  C5  UNL     1     -53.123  -0.526 -24.821  1.00  0.00     0.039 A 
HETATM   28  C4  UNL     1     -52.564  -0.289 -23.587  1.00  0.00     0.020 A 
HETATM   29  C3  UNL     1     -53.181   0.528 -22.657  1.00  0.00     0.038 A 
HETATM   30  C2  UNL     1     -54.381   1.105 -23.005  1.00  0.00     0.068 A 
HETATM   31  C28 UNL     1     -54.939   0.869 -24.238  1.00  0.00     0.038 A 
HETATM   32  C27 UNL     1     -54.331   0.055 -25.170  1.00  0.00     0.020 A 
BRANCH  30  33
HETATM   33  O1  UNL     1     -55.016   1.929 -22.086  1.00  0.00    -0.356 OA
HETATM   34  C1  UNL     1     -54.415   2.260 -20.857  1.00  0.00     0.210 C 
ENDBRANCH  30  33
ENDBRANCH  25  27
ENDBRANCH  24  25
ENDBRANCH  21  24
ENDBRANCH  20  21
ENDBRANCH  18  20
ENDBRANCH  17  18
ENDBRANCH  16  17
ENDBRANCH   1  16
BRANCH  12  35
HETATM   35  O8  UNL     1     -50.710  -3.828 -16.005  1.00  0.00    -0.363 OA
ATOM     36  H8  UNL     1     -50.341  -4.493 -16.576  1.00  0.00     0.213 HD
ENDBRANCH  12  35
BRANCH  12  37
HETATM   37  C23 UNL     1     -50.870  -1.515 -15.531  1.00  0.00     0.107 C 
HETATM   38  C24 UNL     1     -52.135  -1.885 -14.786  1.00  0.00     0.051 C 
HETATM   39  C25 UNL     1     -51.002  -0.134 -16.075  1.00  0.00     0.051 C 
BRANCH  37  40
HETATM   40  O9  UNL     1     -49.835  -1.521 -14.605  1.00  0.00    -0.385 OA
ATOM     41  H9  UNL     1     -49.848  -2.307 -14.071  1.00  0.00     0.210 HD
ENDBRANCH  37  40
ENDBRANCH  12  37
TORSDOF 12
ENDMDL
MODEL 3
REMARK VINA RESULT: -7.264669753      1.902      4.114
REMARK  12 active torsions:
REMARK  status: ('A' for Active; 'I' for Inactive)
REMARK    1  A    between atoms: O1_2  and  C2_3 
REMARK    2  A    between atoms: C5_6  and  C6_7 
REMARK    3  A    between atoms: C6_7  and  O3_9 
REMARK    4  A    between atoms: O3_9  and  C7_10 
REMARK    5  A    between atoms: C7_10  and  O4_13 
REMARK    6  A    between atoms: O4_13  and  C10_14 
REMARK    7  A    between atoms: C10_14  and  C11_16 
REMARK    8  A    between atoms: C11_16  and  C12_17 
REMARK    9  A    between atoms: C12_17  and  C13_18 
REMARK   10  A    between atoms: C22_29  and  O8_30 
REMARK   11  A    between atoms: C22_29  and  C23_32 
REMARK   12  A    between atoms: C23_32  and  O9_35 
ROOT
HETATM    1  C13 UNL     1     -50.289  -4.345 -19.487  1.00  0.00     0.128 C 
HETATM    2  C14 UNL     1     -51.591  -3.887 -20.042  1.00  0.00     0.072 C 
HETATM    3  C15 UNL     1     -51.719  -2.355 -19.999  1.00  0.00     0.094 C 
HETATM    4  C16 UNL     1     -53.149  -1.993 -20.204  1.00  0.00     0.049 C 
HETATM    5  O6  UNL     1     -50.842  -1.865 -20.909  1.00  0.00    -0.342 OA
HETATM    6  C17 UNL     1     -49.893  -0.999 -20.538  1.00  0.00     0.161 C 
HETATM    7  C18 UNL     1     -48.783  -1.066 -21.603  1.00  0.00     0.078 C 
HETATM    8  C19 UNL     1     -50.394   0.435 -20.577  1.00  0.00     0.078 C 
HETATM    9  O7  UNL     1     -49.258  -1.192 -19.335  1.00  0.00    -0.317 OA
HETATM   10  C20 UNL     1     -49.793  -2.232 -18.588  1.00  0.00     0.202 C 
HETATM   11  C21 UNL     1     -49.542  -2.118 -17.110  1.00  0.00     0.143 C 
HETATM   12  C22 UNL     1     -50.873  -2.532 -16.548  1.00  0.00     0.198 C 
HETATM   13  O10 UNL     1     -51.747  -2.754 -17.607  1.00  0.00    -0.338 OA
HETATM   14  C26 UNL     1     -51.297  -1.966 -18.613  1.00  0.00     0.222 C 
HETATM   15  O11 UNL     1     -49.399  -3.406 -19.100  1.00  0.00    -0.347 OA
ENDROOT
BRANCH   1  16
HETATM   16  C12 UNL     1     -49.568  -5.221 -20.524  1.00  0.00     0.042 C 
BRANCH  16  17
HETATM   17  C11 UNL     1     -50.517  -6.151 -21.211  1.00  0.00     0.114 C 
BRANCH  17  18
HETATM   18  C10 UNL     1     -50.258  -6.141 -22.658  1.00  0.00     0.261 C 
HETATM   19  O5  UNL     1     -50.315  -7.218 -23.299  1.00  0.00    -0.265 OA
BRANCH  18  20
HETATM   20  O4  UNL     1     -49.946  -5.004 -23.393  1.00  0.00    -0.284 OA
BRANCH  20  21
HETATM   21  C7  UNL     1     -50.935  -4.366 -24.216  1.00  0.00     0.175 C 
HETATM   22  C8  UNL     1     -51.119  -5.187 -25.475  1.00  0.00     0.080 C 
HETATM   23  C9  UNL     1     -52.240  -4.389 -23.459  1.00  0.00     0.080 C 
BRANCH  21  24
HETATM   24  O3  UNL     1     -50.520  -3.071 -24.546  1.00  0.00    -0.280 OA
BRANCH  24  25
HETATM   25  C6  UNL     1     -51.165  -2.381 -25.567  1.00  0.00     0.296 C 
HETATM   26  O2  UNL     1     -50.743  -2.538 -26.733  1.00  0.00    -0.259 OA
BRANCH  25  27
HETATM   27  C5  UNL     1     -52.290  -1.501 -25.333  1.00  0.00     0.039 A 
HETATM   28  C4  UNL     1     -53.354  -1.533 -26.201  1.00  0.00     0.020 A 
HETATM   29  C3  UNL     1     -54.457  -0.716 -26.028  1.00  0.00     0.038 A 
HETATM   30  C2  UNL     1     -54.459   0.139 -24.950  1.00  0.00     0.068 A 
HETATM   31  C28 UNL     1     -53.395   0.171 -24.081  1.00  0.00     0.038 A 
HETATM   32  C27 UNL     1     -52.293  -0.639 -24.247  1.00  0.00     0.020 A 
BRANCH  30  33
HETATM   33  O1  UNL     1     -55.556   0.967 -24.758  1.00  0.00    -0.356 OA
HETATM   34  C1  UNL     1     -56.715   0.848 -25.549  1.00  0.00     0.210 C 
ENDBRANCH  30  33
ENDBRANCH  25  27
ENDBRANCH  24  25
ENDBRANCH  21  24
ENDBRANCH  20  21
ENDBRANCH  18  20
ENDBRANCH  17  18
ENDBRANCH  16  17
ENDBRANCH   1  16
BRANCH  12  35
HETATM   35  O8  UNL     1     -50.776  -3.773 -15.877  1.00  0.00    -0.363 OA
ATOM     36  H8  UNL     1     -50.029  -3.786 -15.291  1.00  0.00     0.213 HD
ENDBRANCH  12  35
BRANCH  12  37
HETATM   37  C23 UNL     1     -51.386  -1.509 -15.557  1.00  0.00     0.107 C 
HETATM   38  C24 UNL     1     -51.569  -0.202 -16.300  1.00  0.00     0.051 C 
HETATM   39  C25 UNL     1     -50.457  -1.300 -14.411  1.00  0.00     0.051 C 
BRANCH  37  40
HETATM   40  O9  UNL     1     -52.629  -1.865 -15.050  1.00  0.00    -0.385 OA
ATOM     41  H9  UNL     1     -52.548  -2.387 -14.259  1.00  0.00     0.210 HD
ENDBRANCH  37  40
ENDBRANCH  12  37
TORSDOF 12
ENDMDL
MODEL 4
REMARK VINA RESULT: -7.241562895      3.263      6.608
REMARK  12 active torsions:
REMARK  status: ('A' for Active; 'I' for Inactive)
REMARK    1  A    between atoms: O1_2  and  C2_3 
REMARK    2  A    between atoms: C5_6  and  C6_7 
REMARK    3  A    between atoms: C6_7  and  O3_9 
REMARK    4  A    between atoms: O3_9  and  C7_10 
REMARK    5  A    between atoms: C7_10  and  O4_13 
REMARK    6  A    between atoms: O4_13  and  C10_14 
REMARK    7  A    between atoms: C10_14  and  C11_16 
REMARK    8  A    between atoms: C11_16  and  C12_17 
REMARK    9  A    between atoms: C12_17  and  C13_18 
REMARK   10  A    between atoms: C22_29  and  O8_30 
REMARK   11  A    between atoms: C22_29  and  C23_32 
REMARK   12  A    between atoms: C23_32  and  O9_35 
ROOT
HETATM    1  C13 UNL     1     -52.270   1.041 -15.143  1.00  0.00     0.128 C 
HETATM    2  C14 UNL     1     -50.830   1.076 -14.769  1.00  0.00     0.072 C 
HETATM    3  C15 UNL     1     -50.450  -0.104 -13.860  1.00  0.00     0.094 C 
HETATM    4  C16 UNL     1     -49.134   0.188 -13.228  1.00  0.00     0.049 C 
HETATM    5  O6  UNL     1     -50.510  -1.221 -14.627  1.00  0.00    -0.342 OA
HETATM    6  C17 UNL     1     -51.302  -2.241 -14.277  1.00  0.00     0.161 C 
HETATM    7  C18 UNL     1     -51.565  -3.061 -15.554  1.00  0.00     0.078 C 
HETATM    8  C19 UNL     1     -50.600  -3.198 -13.329  1.00  0.00     0.078 C 
HETATM    9  O7  UNL     1     -52.543  -1.965 -13.757  1.00  0.00    -0.317 OA
HETATM   10  C20 UNL     1     -52.766  -0.611 -13.548  1.00  0.00     0.202 C 
HETATM   11  C21 UNL     1     -53.805  -0.314 -12.503  1.00  0.00     0.143 C 
HETATM   12  C22 UNL     1     -53.169   0.830 -11.765  1.00  0.00     0.198 C 
HETATM   13  O10 UNL     1     -51.906   1.052 -12.304  1.00  0.00    -0.338 OA
HETATM   14  C26 UNL     1     -51.515  -0.144 -12.805  1.00  0.00     0.222 C 
HETATM   15  O11 UNL     1     -53.009  -0.006 -14.719  1.00  0.00    -0.347 OA
ENDROOT
BRANCH   1  16
HETATM   16  C12 UNL     1     -52.404   1.072 -16.674  1.00  0.00     0.042 C 
BRANCH  16  17
HETATM   17  C11 UNL     1     -51.088   0.836 -17.345  1.00  0.00     0.114 C 
BRANCH  17  18
HETATM   18  C10 UNL     1     -51.189  -0.330 -18.235  1.00  0.00     0.261 C 
HETATM   19  O5  UNL     1     -50.153  -0.980 -18.514  1.00  0.00    -0.265 OA
BRANCH  18  20
HETATM   20  O4  UNL     1     -52.372  -0.782 -18.806  1.00  0.00    -0.284 OA
BRANCH  20  21
HETATM   21  C7  UNL     1     -52.638  -0.581 -20.203  1.00  0.00     0.175 C 
HETATM   22  C8  UNL     1     -54.123  -0.348 -20.384  1.00  0.00     0.080 C 
HETATM   23  C9  UNL     1     -51.922   0.679 -20.625  1.00  0.00     0.080 C 
BRANCH  21  24
HETATM   24  O3  UNL     1     -52.237  -1.705 -20.933  1.00  0.00    -0.280 OA
BRANCH  24  25
HETATM   25  C6  UNL     1     -51.555  -1.538 -22.134  1.00  0.00     0.296 C 
HETATM   26  O2  UNL     1     -50.315  -1.395 -22.084  1.00  0.00    -0.259 OA
BRANCH  25  27
HETATM   27  C5  UNL     1     -52.219  -1.523 -23.420  1.00  0.00     0.039 A 
HETATM   28  C4  UNL     1     -52.294  -2.688 -24.145  1.00  0.00     0.020 A 
HETATM   29  C3  UNL     1     -52.917  -2.735 -25.380  1.00  0.00     0.038 A 
HETATM   30  C2  UNL     1     -53.467  -1.570 -25.865  1.00  0.00     0.068 A 
HETATM   31  C28 UNL     1     -53.393  -0.406 -25.140  1.00  0.00     0.038 A 
HETATM   32  C27 UNL     1     -52.774  -0.351 -23.910  1.00  0.00     0.020 A 
BRANCH  30  33
HETATM   33  O1  UNL     1     -54.097  -1.596 -27.102  1.00  0.00    -0.356 OA
HETATM   34  C1  UNL     1     -53.485  -2.181 -28.227  1.00  0.00     0.210 C 
ENDBRANCH  30  33
ENDBRANCH  25  27
ENDBRANCH  24  25
ENDBRANCH  21  24
ENDBRANCH  20  21
ENDBRANCH  18  20
ENDBRANCH  17  18
ENDBRANCH  16  17
ENDBRANCH   1  16
BRANCH  12  35
HETATM   35  O8  UNL     1     -53.884   2.031 -11.980  1.00  0.00    -0.363 OA
ATOM     36  H8  UNL     1     -53.312   2.713 -12.312  1.00  0.00     0.213 HD
ENDBRANCH  12  35
BRANCH  12  37
HETATM   37  C23 UNL     1     -53.142   0.567 -10.274  1.00  0.00     0.107 C 
HETATM   38  C24 UNL     1     -54.449   1.071  -9.697  1.00  0.00     0.051 C 
HETATM   39  C25 UNL     1     -52.006   1.246  -9.589  1.00  0.00     0.051 C 
BRANCH  37  40
HETATM   40  O9  UNL     1     -53.071  -0.791  -9.994  1.00  0.00    -0.385 OA
ATOM     41  H9  UNL     1     -52.304  -1.001  -9.473  1.00  0.00     0.210 HD
ENDBRANCH  37  40
ENDBRANCH  12  37
TORSDOF 12
ENDMDL
MODEL 5
REMARK VINA RESULT: -7.240223778      1.753      4.702
REMARK  12 active torsions:
REMARK  status: ('A' for Active; 'I' for Inactive)
REMARK    1  A    between atoms: O1_2  and  C2_3 
REMARK    2  A    between atoms: C5_6  and  C6_7 
REMARK    3  A    between atoms: C6_7  and  O3_9 
REMARK    4  A    between atoms: O3_9  and  C7_10 
REMARK    5  A    between atoms: C7_10  and  O4_13 
REMARK    6  A    between atoms: O4_13  and  C10_14 
REMARK    7  A    between atoms: C10_14  and  C11_16 
REMARK    8  A    between atoms: C11_16  and  C12_17 
REMARK    9  A    between atoms: C12_17  and  C13_18 
REMARK   10  A    between atoms: C22_29  and  O8_30 
REMARK   11  A    between atoms: C22_29  and  C23_32 
REMARK   12  A    between atoms: C23_32  and  O9_35 
ROOT
HETATM    1  C13 UNL     1     -52.104  -0.637 -19.939  1.00  0.00     0.128 C 
HETATM    2  C14 UNL     1     -50.865  -0.452 -20.741  1.00  0.00     0.072 C 
HETATM    3  C15 UNL     1     -50.043  -1.749 -20.824  1.00  0.00     0.094 C 
HETATM    4  C16 UNL     1     -48.672  -1.413 -21.298  1.00  0.00     0.049 C 
HETATM    5  O6  UNL     1     -50.750  -2.608 -21.601  1.00  0.00    -0.342 OA
HETATM    6  C17 UNL     1     -51.109  -3.807 -21.131  1.00  0.00     0.161 C 
HETATM    7  C18 UNL     1     -52.301  -4.282 -21.981  1.00  0.00     0.078 C 
HETATM    8  C19 UNL     1     -50.024  -4.847 -21.353  1.00  0.00     0.078 C 
HETATM    9  O7  UNL     1     -51.527  -3.906 -19.826  1.00  0.00    -0.317 OA
HETATM   10  C20 UNL     1     -51.401  -2.722 -19.114  1.00  0.00     0.202 C 
HETATM   11  C21 UNL     1     -51.294  -2.908 -17.625  1.00  0.00     0.143 C 
HETATM   12  C22 UNL     1     -50.223  -1.915 -17.276  1.00  0.00     0.198 C 
HETATM   13  O10 UNL     1     -49.760  -1.334 -18.452  1.00  0.00    -0.338 OA
HETATM   14  C26 UNL     1     -49.976  -2.261 -19.417  1.00  0.00     0.222 C 
HETATM   15  O11 UNL     1     -52.376  -1.874 -19.469  1.00  0.00    -0.347 OA
ENDROOT
BRANCH   1  16
HETATM   16  C12 UNL     1     -53.324  -0.216 -20.774  1.00  0.00     0.042 C 
BRANCH  16  17
HETATM   17  C11 UNL     1     -53.073   1.067 -21.502  1.00  0.00     0.114 C 
BRANCH  17  18
HETATM   18  C10 UNL     1     -53.785   1.052 -22.788  1.00  0.00     0.261 C 
HETATM   19  O5  UNL     1     -55.031   1.201 -22.800  1.00  0.00    -0.265 OA
BRANCH  18  20
HETATM   20  O4  UNL     1     -53.174   0.882 -24.023  1.00  0.00    -0.284 OA
BRANCH  20  21
HETATM   21  C7  UNL     1     -53.278  -0.363 -24.731  1.00  0.00     0.175 C 
HETATM   22  C8  UNL     1     -53.256  -1.495 -23.726  1.00  0.00     0.080 C 
HETATM   23  C9  UNL     1     -54.623  -0.386 -25.415  1.00  0.00     0.080 C 
BRANCH  21  24
HETATM   24  O3  UNL     1     -52.210  -0.496 -25.626  1.00  0.00    -0.280 OA
BRANCH  24  25
HETATM   25  C6  UNL     1     -52.148  -1.605 -26.463  1.00  0.00     0.296 C 
HETATM   26  O2  UNL     1     -52.398  -1.435 -27.675  1.00  0.00    -0.259 OA
BRANCH  25  27
HETATM   27  C5  UNL     1     -51.811  -2.930 -25.988  1.00  0.00     0.039 A 
HETATM   28  C4  UNL     1     -50.583  -3.138 -25.406  1.00  0.00     0.020 A 
HETATM   29  C3  UNL     1     -50.206  -4.382 -24.933  1.00  0.00     0.038 A 
HETATM   30  C2  UNL     1     -51.104  -5.417 -25.062  1.00  0.00     0.068 A 
HETATM   31  C28 UNL     1     -52.331  -5.210 -25.643  1.00  0.00     0.038 A 
HETATM   32  C27 UNL     1     -52.714  -3.973 -26.118  1.00  0.00     0.020 A 
BRANCH  30  33
HETATM   33  O1  UNL     1     -50.745  -6.673 -24.594  1.00  0.00    -0.356 OA
HETATM   34  C1  UNL     1     -49.769  -7.451 -25.247  1.00  0.00     0.210 C 
ENDBRANCH  30  33
ENDBRANCH  25  27
ENDBRANCH  24  25
ENDBRANCH  21  24
ENDBRANCH  20  21
ENDBRANCH  18  20
ENDBRANCH  17  18
ENDBRANCH  16  17
ENDBRANCH   1  16
BRANCH  12  35
HETATM   35  O8  UNL     1     -50.752  -0.846 -16.515  1.00  0.00    -0.363 OA
ATOM     36  H8  UNL     1     -51.082  -1.154 -15.679  1.00  0.00     0.213 HD
ENDBRANCH  12  35
BRANCH  12  37
HETATM   37  C23 UNL     1     -49.125  -2.564 -16.460  1.00  0.00     0.107 C 
HETATM   38  C24 UNL     1     -48.856  -1.673 -15.264  1.00  0.00     0.051 C 
HETATM   39  C25 UNL     1     -47.864  -2.747 -17.232  1.00  0.00     0.051 C 
BRANCH  37  40
HETATM   40  O9  UNL     1     -49.517  -3.800 -15.966  1.00  0.00    -0.385 OA
ATOM     41  H9  UNL     1     -49.304  -4.502 -16.570  1.00  0.00     0.210 HD
ENDBRANCH  37  40
ENDBRANCH  12  37
TORSDOF 12
ENDMDL
