MODEL 1
REMARK VINA RESULT: -9.077561905      0.000      0.000
REMARK  5 active torsions:
REMARK  status: ('A' for Active; 'I' for Inactive)
REMARK    1  A    between atoms: C2_2  and  C3_4 
REMARK    2  A    between atoms: C5_6  and  O2_7 
REMARK    3  A    between atoms: C19_23  and  O4_24 
REMARK    4  A    between atoms: C32_40  and  C33_41 
REMARK    5  A    between atoms: C33_41  and  N1_42 
REMARK       I    between atoms: N1_42  and  C34_43 
ROOT
HETATM    1  C3  UNL     1      82.586 -42.697 -47.233  1.00  0.00     0.062 C 
HETATM    2  C4  UNL     1      81.416 -43.281 -46.614  1.00  0.00     0.059 C 
HETATM    3  C5  UNL     1      80.555 -42.491 -45.632  1.00  0.00     0.074 C 
HETATM    4  C6  UNL     1      79.287 -43.216 -45.350  1.00  0.00    -0.016 C 
HETATM    5  C7  UNL     1      79.456 -44.296 -44.236  1.00  0.00     0.018 C 
HETATM    6  C8  UNL     1      78.673 -44.072 -46.416  1.00  0.00     0.018 C 
HETATM    7  C9  UNL     1      78.165 -42.364 -44.825  1.00  0.00     0.012 C 
HETATM    8  C10 UNL     1      77.977 -41.088 -45.540  1.00  0.00     0.002 C 
HETATM    9  C11 UNL     1      79.142 -40.596 -46.370  1.00  0.00     0.013 C 
HETATM   10  C12 UNL     1      80.469 -40.994 -45.812  1.00  0.00    -0.000 C 
HETATM   11  C13 UNL     1      80.381 -40.262 -44.449  1.00  0.00     0.019 C 
HETATM   12  C14 UNL     1      81.702 -40.425 -46.382  1.00  0.00     0.006 C 
HETATM   13  C15 UNL     1      82.704 -40.191 -45.262  1.00  0.00     0.022 C 
HETATM   14  C16 UNL     1      81.613 -39.119 -47.153  1.00  0.00     0.010 C 
HETATM   15  C17 UNL     1      80.999 -39.262 -48.470  1.00  0.00     0.178 C 
HETATM   16  O3  UNL     1      80.206 -38.447 -48.935  1.00  0.00    -0.288 OA
HETATM   17  C18 UNL     1      81.269 -40.432 -49.407  1.00  0.00     0.069 C 
HETATM   18  C19 UNL     1      81.655 -41.584 -48.678  1.00  0.00     0.115 C 
HETATM   19  C20 UNL     1      82.281 -41.288 -47.373  1.00  0.00     0.058 C 
HETATM   20  C21 UNL     1      82.806 -42.491 -48.723  1.00  0.00     0.147 C 
HETATM   21 CL1  UNL     1      82.597 -44.056 -49.636  1.00  0.00    -0.106 Cl
HETATM   22  C22 UNL     1      84.078 -41.985 -49.185  1.00  0.00     0.155 C 
HETATM   23  O5  UNL     1      85.095 -42.540 -48.719  1.00  0.00    -0.296 OA
HETATM   24  C23 UNL     1      84.468 -40.917 -50.130  1.00  0.00     0.086 C 
HETATM   25  C24 UNL     1      85.129 -39.697 -49.649  1.00  0.00     0.001 C 
HETATM   26  C25 UNL     1      86.206 -39.225 -50.593  1.00  0.00    -0.014 C 
HETATM   27  C26 UNL     1      87.470 -38.835 -49.886  1.00  0.00     0.010 C 
HETATM   28  C27 UNL     1      85.549 -38.013 -51.217  1.00  0.00     0.005 C 
HETATM   29  C28 UNL     1      85.145 -37.336 -49.906  1.00  0.00     0.006 C 
HETATM   30  C29 UNL     1      84.265 -38.477 -49.311  1.00  0.00    -0.002 C 
HETATM   31  C30 UNL     1      84.012 -38.285 -47.873  1.00  0.00     0.022 C 
HETATM   32  C31 UNL     1      84.822 -37.042 -47.425  1.00  0.00     0.015 C 
HETATM   33  C32 UNL     1      82.741 -38.197 -47.181  1.00  0.00    -0.014 C 
ENDROOT
BRANCH  33  34
HETATM   34  C33 UNL     1      82.129 -36.757 -47.243  1.00  0.00     0.196 C 
BRANCH  34  35
HETATM   35  N1  UNL     1      80.974 -36.551 -46.536  1.00  0.00    -0.367 NA
HETATM   36  C34 UNL     1      79.818 -36.345 -45.826  1.00  0.00     0.405 C 
HETATM   37  N2  UNL     1      79.039 -35.120 -46.053  1.00  0.00    -0.025 NA
HETATM   38  O6  UNL     1      79.247 -37.068 -44.939  1.00  0.00    -0.234 OA
ENDBRANCH  34  35
ENDBRANCH  33  34
BRANCH   3  39
HETATM   39  O2  UNL     1      81.128 -42.589 -44.307  1.00  0.00    -0.388 OA
ATOM     40  H2  UNL     1      80.723 -41.942 -43.741  1.00  0.00     0.210 HD
ENDBRANCH   3  39
BRANCH   1  41
HETATM   41  C2  UNL     1      83.826 -43.189 -46.637  1.00  0.00     0.134 C 
HETATM   42  C1  UNL     1      83.862 -44.679 -46.337  1.00  0.00     0.091 C 
HETATM   43  O1  UNL     1      84.841 -42.654 -46.323  1.00  0.00    -0.297 OA
ENDBRANCH   1  41
BRANCH  18  44
HETATM   44  O4  UNL     1      80.673 -42.507 -48.906  1.00  0.00    -0.383 OA
ATOM     45  H4  UNL     1      81.127 -43.312 -49.127  1.00  0.00     0.211 HD
ENDBRANCH  18  44
TORSDOF 5
ENDMDL
MODEL 2
REMARK VINA RESULT: -8.376691594      3.261      7.162
REMARK  5 active torsions:
REMARK  status: ('A' for Active; 'I' for Inactive)
REMARK    1  A    between atoms: C2_2  and  C3_4 
REMARK    2  A    between atoms: C5_6  and  O2_7 
REMARK    3  A    between atoms: C19_23  and  O4_24 
REMARK    4  A    between atoms: C32_40  and  C33_41 
REMARK    5  A    between atoms: C33_41  and  N1_42 
REMARK       I    between atoms: N1_42  and  C34_43 
ROOT
HETATM    1  C3  UNL     1      84.346 -40.807 -47.911  1.00  0.00     0.062 C 
HETATM    2  C4  UNL     1      85.280 -41.262 -48.918  1.00  0.00     0.059 C 
HETATM    3  C5  UNL     1      85.603 -42.743 -49.094  1.00  0.00     0.074 C 
HETATM    4  C6  UNL     1      86.373 -42.963 -50.348  1.00  0.00    -0.016 C 
HETATM    5  C7  UNL     1      87.902 -42.716 -50.157  1.00  0.00     0.018 C 
HETATM    6  C8  UNL     1      86.136 -42.068 -51.526  1.00  0.00     0.018 C 
HETATM    7  C9  UNL     1      86.324 -44.364 -50.892  1.00  0.00     0.012 C 
HETATM    8  C10 UNL     1      84.980 -44.972 -50.902  1.00  0.00     0.002 C 
HETATM    9  C11 UNL     1      83.943 -44.342 -50.000  1.00  0.00     0.013 C 
HETATM   10  C12 UNL     1      84.526 -43.747 -48.760  1.00  0.00    -0.000 C 
HETATM   11  C13 UNL     1      85.123 -45.036 -48.140  1.00  0.00     0.019 C 
HETATM   12  C14 UNL     1      83.635 -43.279 -47.685  1.00  0.00     0.006 C 
HETATM   13  C15 UNL     1      84.277 -43.583 -46.340  1.00  0.00     0.022 C 
HETATM   14  C16 UNL     1      82.223 -43.833 -47.616  1.00  0.00     0.010 C 
HETATM   15  C17 UNL     1      81.341 -43.309 -48.656  1.00  0.00     0.178 C 
HETATM   16  O3  UNL     1      80.527 -44.003 -49.260  1.00  0.00    -0.288 OA
HETATM   17  C18 UNL     1      81.336 -41.855 -49.107  1.00  0.00     0.069 C 
HETATM   18  C19 UNL     1      82.598 -41.251 -48.879  1.00  0.00     0.115 C 
HETATM   19  C20 UNL     1      83.372 -41.871 -47.784  1.00  0.00     0.058 C 
HETATM   20  C21 UNL     1      83.049 -40.055 -48.162  1.00  0.00     0.147 C 
HETATM   21 CL1  UNL     1      83.347 -38.554 -49.152  1.00  0.00    -0.106 Cl
HETATM   22  C22 UNL     1      82.278 -39.581 -47.035  1.00  0.00     0.155 C 
HETATM   23  O5  UNL     1      82.913 -38.970 -46.150  1.00  0.00    -0.296 OA
HETATM   24  C23 UNL     1      80.846 -39.654 -46.676  1.00  0.00     0.086 C 
HETATM   25  C24 UNL     1      80.398 -40.472 -45.542  1.00  0.00     0.001 C 
HETATM   26  C25 UNL     1      79.292 -39.806 -44.764  1.00  0.00    -0.014 C 
HETATM   27  C26 UNL     1      79.497 -39.880 -43.281  1.00  0.00     0.010 C 
HETATM   28  C27 UNL     1      78.094 -40.634 -45.178  1.00  0.00     0.005 C 
HETATM   29  C28 UNL     1      78.708 -42.001 -44.872  1.00  0.00     0.006 C 
HETATM   30  C29 UNL     1      79.954 -41.915 -45.807  1.00  0.00    -0.002 C 
HETATM   31  C30 UNL     1      80.961 -42.936 -45.478  1.00  0.00     0.022 C 
HETATM   32  C31 UNL     1      80.464 -43.685 -44.215  1.00  0.00     0.015 C 
HETATM   33  C32 UNL     1      81.535 -43.953 -46.336  1.00  0.00    -0.014 C 
ENDROOT
BRANCH  33  34
HETATM   34  C33 UNL     1      80.624 -45.223 -46.446  1.00  0.00     0.196 C 
BRANCH  34  35
HETATM   35  N1  UNL     1      81.080 -46.359 -45.834  1.00  0.00    -0.367 NA
HETATM   36  C34 UNL     1      81.537 -47.500 -45.221  1.00  0.00     0.405 C 
HETATM   37  N2  UNL     1      82.441 -47.387 -44.069  1.00  0.00    -0.025 NA
HETATM   38  O6  UNL     1      81.310 -48.731 -45.481  1.00  0.00    -0.234 OA
ENDBRANCH  34  35
ENDBRANCH  33  34
BRANCH   3  39
HETATM   39  O2  UNL     1      86.646 -43.119 -48.164  1.00  0.00    -0.388 OA
ATOM     40  H2  UNL     1      87.449 -42.665 -48.391  1.00  0.00     0.210 HD
ENDBRANCH   3  39
BRANCH   1  41
HETATM   41  C2  UNL     1      85.025 -40.207 -46.764  1.00  0.00     0.134 C 
HETATM   42  C1  UNL     1      86.060 -39.146 -47.098  1.00  0.00     0.091 C 
HETATM   43  O1  UNL     1      84.939 -40.382 -45.591  1.00  0.00    -0.297 OA
ENDBRANCH   1  41
BRANCH  18  44
HETATM   44  O4  UNL     1      83.077 -40.926 -50.117  1.00  0.00    -0.383 OA
ATOM     45  H4  UNL     1      82.903 -39.997 -50.221  1.00  0.00     0.211 HD
ENDBRANCH  18  44
TORSDOF 5
ENDMDL
MODEL 3
REMARK VINA RESULT: -8.323642639      3.098      7.284
REMARK  5 active torsions:
REMARK  status: ('A' for Active; 'I' for Inactive)
REMARK    1  A    between atoms: C2_2  and  C3_4 
REMARK    2  A    between atoms: C5_6  and  O2_7 
REMARK    3  A    between atoms: C19_23  and  O4_24 
REMARK    4  A    between atoms: C32_40  and  C33_41 
REMARK    5  A    between atoms: C33_41  and  N1_42 
REMARK       I    between atoms: N1_42  and  C34_43 
ROOT
HETATM    1  C3  UNL     1      81.569 -40.171 -46.276  1.00  0.00     0.062 C 
HETATM    2  C4  UNL     1      81.819 -39.032 -47.132  1.00  0.00     0.059 C 
HETATM    3  C5  UNL     1      83.122 -38.893 -47.914  1.00  0.00     0.074 C 
HETATM    4  C6  UNL     1      83.020 -37.788 -48.905  1.00  0.00    -0.016 C 
HETATM    5  C7  UNL     1      83.324 -36.394 -48.274  1.00  0.00     0.018 C 
HETATM    6  C8  UNL     1      81.694 -37.478 -49.532  1.00  0.00     0.018 C 
HETATM    7  C9  UNL     1      83.996 -37.860 -50.048  1.00  0.00     0.012 C 
HETATM    8  C10 UNL     1      84.132 -39.197 -50.656  1.00  0.00     0.002 C 
HETATM    9  C11 UNL     1      83.658 -40.371 -49.829  1.00  0.00     0.013 C 
HETATM   10  C12 UNL     1      83.818 -40.157 -48.359  1.00  0.00    -0.000 C 
HETATM   11  C13 UNL     1      85.360 -40.004 -48.311  1.00  0.00     0.019 C 
HETATM   12  C14 UNL     1      83.597 -41.277 -47.429  1.00  0.00     0.006 C 
HETATM   13  C15 UNL     1      84.596 -41.178 -46.286  1.00  0.00     0.022 C 
HETATM   14  C16 UNL     1      83.699 -42.696 -47.961  1.00  0.00     0.010 C 
HETATM   15  C17 UNL     1      82.566 -43.087 -48.795  1.00  0.00     0.178 C 
HETATM   16  O3  UNL     1      82.685 -43.745 -49.826  1.00  0.00    -0.288 OA
HETATM   17  C18 UNL     1      81.120 -42.723 -48.484  1.00  0.00     0.069 C 
HETATM   18  C19 UNL     1      81.054 -41.537 -47.712  1.00  0.00     0.115 C 
HETATM   19  C20 UNL     1      82.262 -41.278 -46.901  1.00  0.00     0.058 C 
HETATM   20  C21 UNL     1      80.442 -41.179 -46.428  1.00  0.00     0.147 C 
HETATM   21 CL1  UNL     1      78.822 -40.344 -46.483  1.00  0.00    -0.106 Cl
HETATM   22  C22 UNL     1      80.271 -42.204 -45.424  1.00  0.00     0.155 C 
HETATM   23  O5  UNL     1      80.288 -41.820 -44.236  1.00  0.00    -0.296 OA
HETATM   24  C23 UNL     1      80.069 -43.667 -45.484  1.00  0.00     0.086 C 
HETATM   25  C24 UNL     1      81.113 -44.588 -45.017  1.00  0.00     0.001 C 
HETATM   26  C25 UNL     1      80.537 -45.779 -44.294  1.00  0.00    -0.014 C 
HETATM   27  C26 UNL     1      81.268 -46.099 -43.024  1.00  0.00     0.010 C 
HETATM   28  C27 UNL     1      80.739 -46.877 -45.316  1.00  0.00     0.005 C 
HETATM   29  C28 UNL     1      82.225 -46.614 -45.568  1.00  0.00     0.006 C 
HETATM   30  C29 UNL     1      82.126 -45.128 -46.032  1.00  0.00    -0.002 C 
HETATM   31  C30 UNL     1      83.435 -44.455 -46.009  1.00  0.00     0.022 C 
HETATM   32  C31 UNL     1      84.457 -45.455 -45.410  1.00  0.00     0.015 C 
HETATM   33  C32 UNL     1      84.129 -43.784 -47.091  1.00  0.00    -0.014 C 
ENDROOT
BRANCH  33  34
HETATM   34  C33 UNL     1      84.921 -44.785 -48.000  1.00  0.00     0.196 C 
BRANCH  34  35
HETATM   35  N1  UNL     1      86.247 -44.511 -48.203  1.00  0.00    -0.367 NA
HETATM   36  C34 UNL     1      87.576 -44.236 -48.407  1.00  0.00     0.405 C 
HETATM   37  N2  UNL     1      88.530 -44.427 -47.307  1.00  0.00    -0.025 NA
HETATM   38  O6  UNL     1      88.187 -43.812 -49.447  1.00  0.00    -0.234 OA
ENDBRANCH  34  35
ENDBRANCH  33  34
BRANCH   3  39
HETATM   39  O2  UNL     1      84.128 -38.293 -47.066  1.00  0.00    -0.388 OA
ATOM     40  H2  UNL     1      84.990 -38.565 -47.360  1.00  0.00     0.210 HD
ENDBRANCH   3  39
BRANCH   1  41
HETATM   41  C2  UNL     1      81.714 -39.836 -44.861  1.00  0.00     0.134 C 
HETATM   42  C1  UNL     1      80.898 -38.646 -44.383  1.00  0.00     0.091 C 
HETATM   43  O1  UNL     1      82.359 -40.308 -43.980  1.00  0.00    -0.297 OA
ENDBRANCH   1  41
BRANCH  18  44
HETATM   44  O4  UNL     1      80.403 -40.626 -48.496  1.00  0.00    -0.383 OA
ATOM     45  H4  UNL     1      80.464 -40.962 -49.382  1.00  0.00     0.211 HD
ENDBRANCH  18  44
TORSDOF 5
ENDMDL
MODEL 4
REMARK VINA RESULT: -8.148389740      3.112      5.636
REMARK  5 active torsions:
REMARK  status: ('A' for Active; 'I' for Inactive)
REMARK    1  A    between atoms: C2_2  and  C3_4 
REMARK    2  A    between atoms: C5_6  and  O2_7 
REMARK    3  A    between atoms: C19_23  and  O4_24 
REMARK    4  A    between atoms: C32_40  and  C33_41 
REMARK    5  A    between atoms: C33_41  and  N1_42 
REMARK       I    between atoms: N1_42  and  C34_43 
ROOT
HETATM    1  C3  UNL     1      82.455 -39.107 -47.141  1.00  0.00     0.062 C 
HETATM    2  C4  UNL     1      81.493 -39.926 -46.436  1.00  0.00     0.059 C 
HETATM    3  C5  UNL     1      81.286 -41.396 -46.788  1.00  0.00     0.074 C 
HETATM    4  C6  UNL     1      80.449 -42.067 -45.758  1.00  0.00    -0.016 C 
HETATM    5  C7  UNL     1      78.922 -41.859 -46.005  1.00  0.00     0.018 C 
HETATM    6  C8  UNL     1      80.521 -41.606 -44.333  1.00  0.00     0.018 C 
HETATM    7  C9  UNL     1      80.579 -43.564 -45.701  1.00  0.00     0.012 C 
HETATM    8  C10 UNL     1      81.966 -44.063 -45.760  1.00  0.00     0.002 C 
HETATM    9  C11 UNL     1      83.009 -43.108 -46.299  1.00  0.00     0.013 C 
HETATM   10  C12 UNL     1      82.468 -42.168 -47.326  1.00  0.00    -0.000 C 
HETATM   11  C13 UNL     1      82.032 -43.206 -48.390  1.00  0.00     0.019 C 
HETATM   12  C14 UNL     1      83.391 -41.316 -48.095  1.00  0.00     0.006 C 
HETATM   13  C15 UNL     1      82.878 -41.189 -49.521  1.00  0.00     0.022 C 
HETATM   14  C16 UNL     1      84.848 -41.733 -48.203  1.00  0.00     0.010 C 
HETATM   15  C17 UNL     1      85.602 -41.538 -46.968  1.00  0.00     0.178 C 
HETATM   16  O3  UNL     1      86.427 -42.346 -46.549  1.00  0.00    -0.288 OA
HETATM   17  C18 UNL     1      85.448 -40.321 -46.066  1.00  0.00     0.069 C 
HETATM   18  C19 UNL     1      84.159 -39.749 -46.206  1.00  0.00     0.115 C 
HETATM   19  C20 UNL     1      83.524 -40.010 -47.514  1.00  0.00     0.058 C 
HETATM   20  C21 UNL     1      83.660 -38.410 -46.531  1.00  0.00     0.147 C 
HETATM   21 CL1  UNL     1      83.161 -37.346 -45.136  1.00  0.00    -0.106 Cl
HETATM   22  C22 UNL     1      84.467 -37.543 -47.359  1.00  0.00     0.155 C 
HETATM   23  O5  UNL     1      83.848 -36.708 -48.051  1.00  0.00    -0.296 OA
HETATM   24  C23 UNL     1      85.922 -37.409 -47.579  1.00  0.00     0.086 C 
HETATM   25  C24 UNL     1      86.521 -37.773 -48.869  1.00  0.00     0.001 C 
HETATM   26  C25 UNL     1      87.620 -36.823 -49.274  1.00  0.00    -0.014 C 
HETATM   27  C26 UNL     1      87.531 -36.407 -50.711  1.00  0.00     0.010 C 
HETATM   28  C27 UNL     1      88.852 -37.671 -49.039  1.00  0.00     0.005 C 
HETATM   29  C28 UNL     1      88.382 -38.890 -49.836  1.00  0.00     0.006 C 
HETATM   30  C29 UNL     1      87.069 -39.193 -49.051  1.00  0.00    -0.002 C 
HETATM   31  C30 UNL     1      86.180 -40.102 -49.794  1.00  0.00     0.022 C 
HETATM   32  C31 UNL     1      86.832 -40.354 -51.178  1.00  0.00     0.015 C 
HETATM   33  C32 UNL     1      85.635 -41.378 -49.378  1.00  0.00    -0.014 C 
ENDROOT
BRANCH  33  34
HETATM   34  C33 UNL     1      86.643 -42.557 -49.602  1.00  0.00     0.196 C 
BRANCH  34  35
HETATM   35  N1  UNL     1      86.136 -43.825 -49.500  1.00  0.00    -0.367 NA
HETATM   36  C34 UNL     1      85.627 -45.096 -49.398  1.00  0.00     0.405 C 
HETATM   37  N2  UNL     1      85.589 -45.755 -48.086  1.00  0.00    -0.025 NA
HETATM   38  O6  UNL     1      85.147 -45.873 -50.292  1.00  0.00    -0.234 OA
ENDBRANCH  34  35
ENDBRANCH  33  34
BRANCH   3  39
HETATM   39  O2  UNL     1      80.352 -41.499 -47.887  1.00  0.00    -0.388 OA
ATOM     40  H2  UNL     1      80.696 -41.029 -48.638  1.00  0.00     0.210 HD
ENDBRANCH   3  39
BRANCH   1  41
HETATM   41  C2  UNL     1      81.812 -38.198 -48.087  1.00  0.00     0.134 C 
HETATM   42  C1  UNL     1      80.731 -37.304 -47.504  1.00  0.00     0.091 C 
HETATM   43  O1  UNL     1      81.958 -38.008 -49.253  1.00  0.00    -0.297 OA
ENDBRANCH   1  41
BRANCH  18  44
HETATM   44  O4  UNL     1      83.564 -39.885 -44.983  1.00  0.00    -0.383 OA
ATOM     45  H4  UNL     1      84.228 -39.639 -44.348  1.00  0.00     0.211 HD
ENDBRANCH  18  44
TORSDOF 5
ENDMDL
MODEL 5
REMARK VINA RESULT: -8.135004522     12.276     16.089
REMARK  5 active torsions:
REMARK  status: ('A' for Active; 'I' for Inactive)
REMARK    1  A    between atoms: C2_2  and  C3_4 
REMARK    2  A    between atoms: C5_6  and  O2_7 
REMARK    3  A    between atoms: C19_23  and  O4_24 
REMARK    4  A    between atoms: C32_40  and  C33_41 
REMARK    5  A    between atoms: C33_41  and  N1_42 
REMARK       I    between atoms: N1_42  and  C34_43 
ROOT
HETATM    1  C3  UNL     1      67.893 -49.359 -42.580  1.00  0.00     0.062 C 
HETATM    2  C4  UNL     1      67.739 -50.225 -41.432  1.00  0.00     0.059 C 
HETATM    3  C5  UNL     1      68.877 -51.122 -40.951  1.00  0.00     0.074 C 
HETATM    4  C6  UNL     1      68.557 -51.702 -39.619  1.00  0.00    -0.016 C 
HETATM    5  C7  UNL     1      67.675 -52.985 -39.727  1.00  0.00     0.018 C 
HETATM    6  C8  UNL     1      67.717 -50.919 -38.656  1.00  0.00     0.018 C 
HETATM    7  C9  UNL     1      69.743 -52.175 -38.824  1.00  0.00     0.012 C 
HETATM    8  C10 UNL     1      70.884 -51.241 -38.811  1.00  0.00     0.002 C 
HETATM    9  C11 UNL     1      70.916 -50.190 -39.898  1.00  0.00     0.013 C 
HETATM   10  C12 UNL     1      70.293 -50.649 -41.176  1.00  0.00    -0.000 C 
HETATM   11  C13 UNL     1      71.244 -51.833 -41.489  1.00  0.00     0.019 C 
HETATM   12  C14 UNL     1      70.425 -49.827 -42.390  1.00  0.00     0.006 C 
HETATM   13  C15 UNL     1      70.584 -50.741 -43.595  1.00  0.00     0.022 C 
HETATM   14  C16 UNL     1      71.560 -48.820 -42.469  1.00  0.00     0.010 C 
HETATM   15  C17 UNL     1      71.357 -47.647 -41.624  1.00  0.00     0.178 C 
HETATM   16  O3  UNL     1      72.255 -47.126 -40.968  1.00  0.00    -0.288 OA
HETATM   17  C18 UNL     1      70.016 -46.945 -41.459  1.00  0.00     0.069 C 
HETATM   18  C19 UNL     1      68.944 -47.843 -41.693  1.00  0.00     0.115 C 
HETATM   19  C20 UNL     1      69.288 -48.971 -42.583  1.00  0.00     0.058 C 
HETATM   20  C21 UNL     1      67.781 -47.843 -42.584  1.00  0.00     0.147 C 
HETATM   21 CL1  UNL     1      66.189 -47.305 -41.876  1.00  0.00    -0.106 Cl
HETATM   22  C22 UNL     1      67.860 -47.133 -43.840  1.00  0.00     0.155 C 
HETATM   23  O5  UNL     1      67.152 -47.575 -44.769  1.00  0.00    -0.296 OA
HETATM   24  C23 UNL     1      68.618 -45.948 -44.296  1.00  0.00     0.086 C 
HETATM   25  C24 UNL     1      69.693 -46.082 -45.286  1.00  0.00     0.001 C 
HETATM   26  C25 UNL     1      69.708 -44.935 -46.266  1.00  0.00    -0.014 C 
HETATM   27  C26 UNL     1      69.878 -45.384 -47.686  1.00  0.00     0.010 C 
HETATM   28  C27 UNL     1      70.923 -44.160 -45.802  1.00  0.00     0.005 C 
HETATM   29  C28 UNL     1      71.893 -45.343 -45.791  1.00  0.00     0.006 C 
HETATM   30  C29 UNL     1      71.131 -46.265 -44.790  1.00  0.00    -0.002 C 
HETATM   31  C30 UNL     1      71.623 -47.652 -44.835  1.00  0.00     0.022 C 
HETATM   32  C31 UNL     1      72.676 -47.732 -45.970  1.00  0.00     0.015 C 
HETATM   33  C32 UNL     1      72.147 -48.464 -43.755  1.00  0.00    -0.014 C 
ENDROOT
BRANCH  33  34
HETATM   34  C33 UNL     1      73.663 -48.182 -43.482  1.00  0.00     0.196 C 
BRANCH  34  35
HETATM   35  N1  UNL     1      74.554 -49.105 -43.961  1.00  0.00    -0.367 NA
HETATM   36  C34 UNL     1      75.448 -50.030 -44.441  1.00  0.00     0.405 C 
HETATM   37  N2  UNL     1      75.240 -50.611 -45.774  1.00  0.00    -0.025 NA
HETATM   38  O6  UNL     1      76.503 -50.520 -43.910  1.00  0.00    -0.234 OA
ENDBRANCH  34  35
ENDBRANCH  33  34
BRANCH   3  39
HETATM   39  O2  UNL     1      68.863 -52.357 -41.704  1.00  0.00    -0.388 OA
ATOM     40  H2  UNL     1      69.671 -52.831 -41.545  1.00  0.00     0.210 HD
ENDBRANCH   3  39
BRANCH   1  41
HETATM   41  C2  UNL     1      67.210 -49.886 -43.760  1.00  0.00     0.134 C 
HETATM   42  C1  UNL     1      65.759 -50.287 -43.551  1.00  0.00     0.091 C 
HETATM   43  O1  UNL     1      67.562 -50.077 -44.880  1.00  0.00    -0.297 OA
ENDBRANCH   1  41
BRANCH  18  44
HETATM   44  O4  UNL     1      68.276 -47.933 -40.504  1.00  0.00    -0.383 OA
ATOM     45  H4  UNL     1      68.099 -48.858 -40.381  1.00  0.00     0.211 HD
ENDBRANCH  18  44
TORSDOF 5
ENDMDL
