MODEL 1
REMARK VINA RESULT: -5.333874324      0.000      0.000
REMARK  2 active torsions:
REMARK  status: ('A' for Active; 'I' for Inactive)
REMARK    1  A    between atoms: C1_2  and  N1_3 
REMARK    2  A    between atoms: N1_3  and  C2_5 
ROOT
HETATM    1  C2  UNL     1     -17.925   1.488 -12.014  1.00  0.00     0.081 C 
HETATM    2  C3  UNL     1     -16.786   2.493 -11.899  1.00  0.00     0.025 C 
HETATM    3  C4  UNL     1     -16.695   3.405 -13.078  1.00  0.00     0.002 C 
HETATM    4  C5  UNL     1     -16.848   2.734 -14.399  1.00  0.00     0.000 C 
HETATM    5  C6  UNL     1     -17.988   1.727 -14.430  1.00  0.00     0.002 C 
HETATM    6  C7  UNL     1     -17.695   0.737 -13.316  1.00  0.00     0.025 C 
ENDROOT
BRANCH   1   7
HETATM    7  N1  UNL     1     -17.783   0.524 -10.947  1.00  0.00    -0.386 N 
ATOM      8  H1  UNL     1     -17.429  -0.408 -11.163  1.00  0.00     0.160 HD
BRANCH   7   9
HETATM    9  C1  UNL     1     -18.090   0.812  -9.740  1.00  0.00     0.166 C 
HETATM   10  S1  UNL     1     -18.549   1.465  -8.316  1.00  0.00    -0.075 SA
ENDBRANCH   7   9
ENDBRANCH   1   7
TORSDOF 2
ENDMDL
MODEL 2
REMARK VINA RESULT: -5.295104576      0.609      1.743
REMARK  2 active torsions:
REMARK  status: ('A' for Active; 'I' for Inactive)
REMARK    1  A    between atoms: C1_2  and  N1_3 
REMARK    2  A    between atoms: N1_3  and  C2_5 
ROOT
HETATM    1  C2  UNL     1     -16.965   1.164 -11.920  1.00  0.00     0.081 C 
HETATM    2  C3  UNL     1     -17.770   1.030 -13.207  1.00  0.00     0.025 C 
HETATM    3  C4  UNL     1     -17.321   1.975 -14.272  1.00  0.00     0.002 C 
HETATM    4  C5  UNL     1     -17.057   3.364 -13.805  1.00  0.00     0.000 C 
HETATM    5  C6  UNL     1     -16.273   3.417 -12.502  1.00  0.00     0.002 C 
HETATM    6  C7  UNL     1     -17.085   2.620 -11.497  1.00  0.00     0.025 C 
ENDROOT
BRANCH   1   7
HETATM    7  N1  UNL     1     -17.619   0.379 -10.898  1.00  0.00    -0.386 N 
ATOM      8  H1  UNL     1     -17.847  -0.597 -11.089  1.00  0.00     0.160 HD
BRANCH   7   9
HETATM    9  C1  UNL     1     -17.919   0.880  -9.760  1.00  0.00     0.166 C 
HETATM   10  S1  UNL     1     -18.600   1.482  -8.404  1.00  0.00    -0.075 SA
ENDBRANCH   7   9
ENDBRANCH   1   7
TORSDOF 2
ENDMDL
MODEL 3
REMARK VINA RESULT: -5.254241053      1.719      2.264
REMARK  2 active torsions:
REMARK  status: ('A' for Active; 'I' for Inactive)
REMARK    1  A    between atoms: C1_2  and  N1_3 
REMARK    2  A    between atoms: N1_3  and  C2_5 
ROOT
HETATM    1  C2  UNL     1     -18.492   1.800 -10.106  1.00  0.00     0.081 C 
HETATM    2  C3  UNL     1     -17.468   2.849  -9.691  1.00  0.00     0.025 C 
HETATM    3  C4  UNL     1     -16.839   3.537 -10.857  1.00  0.00     0.002 C 
HETATM    4  C5  UNL     1     -16.439   2.636 -11.973  1.00  0.00     0.000 C 
HETATM    5  C6  UNL     1     -17.499   1.600 -12.313  1.00  0.00     0.002 C 
HETATM    6  C7  UNL     1     -17.759   0.836 -11.027  1.00  0.00     0.025 C 
ENDROOT
BRANCH   1   7
HETATM    7  N1  UNL     1     -18.866   1.048  -8.931  1.00  0.00    -0.386 N 
ATOM      8  H1  UNL     1     -19.109   0.061  -9.027  1.00  0.00     0.160 HD
BRANCH   7   9
HETATM    9  C1  UNL     1     -18.900   1.589  -7.773  1.00  0.00     0.166 C 
HETATM   10  S1  UNL     1     -18.910   1.985  -6.189  1.00  0.00    -0.075 SA
ENDBRANCH   7   9
ENDBRANCH   1   7
TORSDOF 2
ENDMDL
MODEL 4
REMARK VINA RESULT: -5.248853804      2.571      3.963
REMARK  2 active torsions:
REMARK  status: ('A' for Active; 'I' for Inactive)
REMARK    1  A    between atoms: C1_2  and  N1_3 
REMARK    2  A    between atoms: N1_3  and  C2_5 
ROOT
HETATM    1  C2  UNL     1     -17.132   1.093 -11.238  1.00  0.00     0.081 C 
HETATM    2  C3  UNL     1     -17.105   2.596 -11.483  1.00  0.00     0.025 C 
HETATM    3  C4  UNL     1     -16.954   3.386 -10.226  1.00  0.00     0.002 C 
HETATM    4  C5  UNL     1     -17.799   2.922  -9.090  1.00  0.00     0.000 C 
HETATM    5  C6  UNL     1     -17.796   1.410  -8.923  1.00  0.00     0.002 C 
HETATM    6  C7  UNL     1     -18.265   0.846 -10.253  1.00  0.00     0.025 C 
ENDROOT
BRANCH   1   7
HETATM    7  N1  UNL     1     -17.505   0.442 -12.472  1.00  0.00    -0.386 N 
ATOM      8  H1  UNL     1     -17.559  -0.576 -12.502  1.00  0.00     0.160 HD
BRANCH   7   9
HETATM    9  C1  UNL     1     -17.770   1.113 -13.529  1.00  0.00     0.166 C 
HETATM   10  S1  UNL     1     -17.854   1.825 -14.995  1.00  0.00    -0.075 SA
ENDBRANCH   7   9
ENDBRANCH   1   7
TORSDOF 2
ENDMDL
MODEL 5
REMARK VINA RESULT: -5.155729814      1.662      2.395
REMARK  2 active torsions:
REMARK  status: ('A' for Active; 'I' for Inactive)
REMARK    1  A    between atoms: C1_2  and  N1_3 
REMARK    2  A    between atoms: N1_3  and  C2_5 
ROOT
HETATM    1  C2  UNL     1     -16.440   2.928 -12.204  1.00  0.00     0.081 C 
HETATM    2  C3  UNL     1     -17.543   1.888 -12.057  1.00  0.00     0.025 C 
HETATM    3  C4  UNL     1     -17.767   1.099 -13.305  1.00  0.00     0.002 C 
HETATM    4  C5  UNL     1     -17.787   1.905 -14.558  1.00  0.00     0.000 C 
HETATM    5  C6  UNL     1     -16.673   2.939 -14.621  1.00  0.00     0.002 C 
HETATM    6  C7  UNL     1     -16.838   3.802 -13.384  1.00  0.00     0.025 C 
ENDROOT
BRANCH   1   7
HETATM    7  N1  UNL     1     -16.461   3.775 -11.034  1.00  0.00    -0.386 N 
ATOM      8  H1  UNL     1     -15.863   4.601 -11.006  1.00  0.00     0.160 HD
BRANCH   7   9
HETATM    9  C1  UNL     1     -17.212   3.513 -10.032  1.00  0.00     0.166 C 
HETATM   10  S1  UNL     1     -18.205   3.491  -8.736  1.00  0.00    -0.075 SA
ENDBRANCH   7   9
ENDBRANCH   1   7
TORSDOF 2
ENDMDL
