MODEL 1
REMARK VINA RESULT: -6.754012968      0.000      0.000
REMARK  12 active torsions:
REMARK  status: ('A' for Active; 'I' for Inactive)
REMARK    1  A    between atoms: N1_1  and  C1_4 
REMARK    2  A    between atoms: N5_15  and  C5_16 
REMARK    3  A    between atoms: C6_18  and  O2_19 
REMARK    4  A    between atoms: C6_18  and  C7_21 
REMARK    5  A    between atoms: C7_21  and  O3_22 
REMARK    6  A    between atoms: C8_24  and  O4_25 
REMARK    7  A    between atoms: C8_24  and  C9_27 
REMARK    8  A    between atoms: C9_27  and  N6_28 
REMARK    9  A    between atoms: C10_33  and  C11_34 
REMARK   10  A    between atoms: C11_34  and  N9_35 
REMARK   11  A    between atoms: C11_34  and  O5_39 
REMARK   12  A    between atoms: C13_43  and  O6_44 
ROOT
HETATM    1  C5  UNL     1      13.434  11.246 121.276  1.00  0.00     0.266 C 
HETATM    2  O1  UNL     1      13.512  12.541 121.815  1.00  0.00    -0.322 OA
HETATM    3  C6  UNL     1      14.868  12.814 121.900  1.00  0.00     0.221 C 
HETATM    4  C8  UNL     1      15.345  11.551 122.599  1.00  0.00     0.164 C 
HETATM    5  C13 UNL     1      14.679  10.529 121.663  1.00  0.00     0.209 C 
ENDROOT
BRANCH   1   6
HETATM    6  N5  UNL     1      13.151  11.370 119.883  1.00  0.00    -0.297 N 
HETATM    7  C4  UNL     1      12.632  12.471 119.298  1.00  0.00     0.188 A 
HETATM    8  N4  UNL     1      12.475  12.286 117.996  1.00  0.00    -0.346 N 
HETATM    9  C3  UNL     1      12.892  11.052 117.701  1.00  0.00     0.123 A 
ATOM     10  H4  UNL     1      12.102  12.967 117.335  1.00  0.00     0.167 HD
HETATM   11  C2  UNL     1      12.943  10.358 116.501  1.00  0.00     0.145 A 
HETATM   12  C14 UNL     1      13.321  10.467 118.897  1.00  0.00     0.157 A 
HETATM   13  N2  UNL     1      13.424   9.106 116.550  1.00  0.00    -0.175 N 
HETATM   14  N3  UNL     1      12.543  10.903 115.392  1.00  0.00    -0.383 N 
HETATM   15  C1  UNL     1      13.847   8.517 117.700  1.00  0.00     0.679 A 
ATOM     16  H2  UNL     1      13.474   8.570 115.683  1.00  0.00     0.186 HD
HETATM   17  N11 UNL     1      13.786   9.210 118.848  1.00  0.00    -0.174 N 
ATOM     18  H11 UNL     1      14.104   8.766 119.710  1.00  0.00     0.186 HD
ATOM     19  H32 UNL     1      12.581  10.394 114.510  1.00  0.00     0.157 HD
ATOM     20  H31 UNL     1      12.177  11.855 115.355  1.00  0.00     0.157 HD
BRANCH  15  21
HETATM   21  N1  UNL     1      14.292   7.311 117.646  1.00  0.00    -0.234 N 
ATOM     22  H12 UNL     1      13.881   6.554 118.191  1.00  0.00     0.174 HD
ATOM     23  H11 UNL     1      15.085   7.110 117.038  1.00  0.00     0.174 HD
ENDBRANCH  15  21
ENDBRANCH   1   6
BRANCH   5  24
HETATM   24  O6  UNL     1      14.403   9.439 122.529  1.00  0.00    -0.388 OA
ATOM     25  H6  UNL     1      15.034   9.390 123.237  1.00  0.00     0.210 HD
ENDBRANCH   5  24
BRANCH   3  26
HETATM   26  O2  UNL     1      15.407  12.866 120.639  1.00  0.00    -0.361 OA
ATOM     27  H2  UNL     1      15.618  11.987 120.346  1.00  0.00     0.213 HD
ENDBRANCH   3  26
BRANCH   3  28
HETATM   28  C7  UNL     1      15.159  14.045 122.717  1.00  0.00     0.235 C 
BRANCH  28  29
HETATM   29  O3  UNL     1      16.388  14.593 122.407  1.00  0.00    -0.395 OA
ATOM     30  H3  UNL     1      16.820  14.955 123.172  1.00  0.00     0.209 HD
ENDBRANCH  28  29
ENDBRANCH   3  28
BRANCH   4  31
HETATM   31  O4  UNL     1      14.727  11.484 123.816  1.00  0.00    -0.380 OA
ATOM     32  H4  UNL     1      13.864  11.872 123.729  1.00  0.00     0.211 HD
ENDBRANCH   4  31
BRANCH   4  33
HETATM   33  C9  UNL     1      16.834  11.444 122.627  1.00  0.00     0.198 C 
BRANCH  33  34
HETATM   34  N6  UNL     1      17.293  11.484 123.994  1.00  0.00    -0.259 N 
HETATM   35  N7  UNL     1      16.949  10.628 124.946  1.00  0.00    -0.239 N 
HETATM   36  N8  UNL     1      17.533  10.915 126.084  1.00  0.00    -0.283 N 
ATOM     37  H7  UNL     1      16.311   9.844 124.810  1.00  0.00     0.208 HD
HETATM   38  C10 UNL     1      18.306  12.008 125.906  1.00  0.00     0.125 A 
ATOM     39  H8  UNL     1      17.422  10.399 126.957  1.00  0.00     0.188 HD
HETATM   40  C12 UNL     1      18.140  12.350 124.582  1.00  0.00     0.163 A 
HETATM   41  N10 UNL     1      18.767  13.447 123.940  1.00  0.00    -0.079 NA
BRANCH  38  42
HETATM   42  C11 UNL     1      19.162  12.729 126.866  1.00  0.00     0.372 C 
BRANCH  42  43
HETATM   43  N9  UNL     1      18.786  14.109 127.029  1.00  0.00    -0.047 N 
ATOM     44  H93 UNL     1      19.440  14.596 127.642  1.00  0.00     0.277 HD
ATOM     45  H92 UNL     1      18.943  14.634 126.168  1.00  0.00     0.277 HD
ATOM     46  H91 UNL     1      17.827  14.224 127.355  1.00  0.00     0.277 HD
ENDBRANCH  42  43
BRANCH  42  47
HETATM   47  O5  UNL     1      20.512  12.706 126.487  1.00  0.00    -0.365 OA
ATOM     48  H5  UNL     1      20.653  13.121 125.645  1.00  0.00     0.212 HD
ENDBRANCH  42  47
ENDBRANCH  38  42
ENDBRANCH  33  34
ENDBRANCH   4  33
TORSDOF 12
ENDMDL
MODEL 2
REMARK VINA RESULT: -6.668537951      1.735      8.278
REMARK  12 active torsions:
REMARK  status: ('A' for Active; 'I' for Inactive)
REMARK    1  A    between atoms: N1_1  and  C1_4 
REMARK    2  A    between atoms: N5_15  and  C5_16 
REMARK    3  A    between atoms: C6_18  and  O2_19 
REMARK    4  A    between atoms: C6_18  and  C7_21 
REMARK    5  A    between atoms: C7_21  and  O3_22 
REMARK    6  A    between atoms: C8_24  and  O4_25 
REMARK    7  A    between atoms: C8_24  and  C9_27 
REMARK    8  A    between atoms: C9_27  and  N6_28 
REMARK    9  A    between atoms: C10_33  and  C11_34 
REMARK   10  A    between atoms: C11_34  and  N9_35 
REMARK   11  A    between atoms: C11_34  and  O5_39 
REMARK   12  A    between atoms: C13_43  and  O6_44 
ROOT
HETATM    1  C5  UNL     1      16.595  11.192 122.494  1.00  0.00     0.266 C 
HETATM    2  O1  UNL     1      16.267  12.540 122.718  1.00  0.00    -0.322 OA
HETATM    3  C6  UNL     1      14.883  12.587 122.662  1.00  0.00     0.221 C 
HETATM    4  C8  UNL     1      14.649  11.839 121.360  1.00  0.00     0.164 C 
HETATM    5  C13 UNL     1      15.506  10.601 121.671  1.00  0.00     0.209 C 
ENDROOT
BRANCH   1   6
HETATM    6  N5  UNL     1      16.862  10.593 123.762  1.00  0.00    -0.297 N 
HETATM    7  C4  UNL     1      16.542   9.326 124.098  1.00  0.00     0.188 A 
HETATM    8  N4  UNL     1      16.911   9.058 125.341  1.00  0.00    -0.346 N 
HETATM    9  C3  UNL     1      17.484  10.153 125.848  1.00  0.00     0.123 A 
ATOM     10  H4  UNL     1      16.781   8.170 125.828  1.00  0.00     0.167 HD
HETATM   11  C2  UNL     1      18.034  10.413 127.094  1.00  0.00     0.145 A 
HETATM   12  C14 UNL     1      17.454  11.131 124.847  1.00  0.00     0.157 A 
HETATM   13  N2  UNL     1      18.535  11.645 127.285  1.00  0.00    -0.175 N 
HETATM   14  N3  UNL     1      18.060   9.505 128.021  1.00  0.00    -0.383 N 
HETATM   15  C1  UNL     1      18.518  12.610 126.328  1.00  0.00     0.679 A 
ATOM     16  H2  UNL     1      18.948  11.866 128.191  1.00  0.00     0.186 HD
HETATM   17  N11 UNL     1      17.978  12.333 125.131  1.00  0.00    -0.174 N 
ATOM     18  H11 UNL     1      17.966  13.058 124.414  1.00  0.00     0.186 HD
ATOM     19  H32 UNL     1      18.465   9.696 128.936  1.00  0.00     0.157 HD
ATOM     20  H31 UNL     1      17.680   8.569 127.876  1.00  0.00     0.157 HD
BRANCH  15  21
HETATM   21  N1  UNL     1      19.023  13.760 126.605  1.00  0.00    -0.234 N 
ATOM     22  H12 UNL     1      19.253  14.039 127.559  1.00  0.00     0.174 HD
ATOM     23  H11 UNL     1      19.198  14.414 125.842  1.00  0.00     0.174 HD
ENDBRANCH  15  21
ENDBRANCH   1   6
BRANCH   5  24
HETATM   24  O6  UNL     1      15.976  10.210 120.391  1.00  0.00    -0.388 OA
ATOM     25  H6  UNL     1      15.328  10.377 119.717  1.00  0.00     0.210 HD
ENDBRANCH   5  24
BRANCH   3  26
HETATM   26  O2  UNL     1      14.356  11.862 123.703  1.00  0.00    -0.361 OA
ATOM     27  H2  UNL     1      13.611  12.325 124.069  1.00  0.00     0.213 HD
ENDBRANCH   3  26
BRANCH   3  28
HETATM   28  C7  UNL     1      14.355  13.995 122.597  1.00  0.00     0.235 C 
BRANCH  28  29
HETATM   29  O3  UNL     1      15.372  14.928 122.548  1.00  0.00    -0.395 OA
ATOM     30  H3  UNL     1      15.944  14.872 123.305  1.00  0.00     0.209 HD
ENDBRANCH  28  29
ENDBRANCH   3  28
BRANCH   4  31
HETATM   31  O4  UNL     1      15.257  12.539 120.356  1.00  0.00    -0.380 OA
ATOM     32  H4  UNL     1      15.133  12.059 119.546  1.00  0.00     0.211 HD
ENDBRANCH   4  31
BRANCH   4  33
HETATM   33  C9  UNL     1      13.208  11.518 121.139  1.00  0.00     0.198 C 
BRANCH  33  34
HETATM   34  N6  UNL     1      12.943  11.448 119.722  1.00  0.00    -0.259 N 
HETATM   35  N7  UNL     1      12.694  12.485 118.935  1.00  0.00    -0.239 N 
HETATM   36  N8  UNL     1      12.500  12.110 117.693  1.00  0.00    -0.283 N 
ATOM     37  H7  UNL     1      12.657  13.453 119.254  1.00  0.00     0.208 HD
HETATM   38  C10 UNL     1      12.622  10.767 117.627  1.00  0.00     0.125 A 
ATOM     39  H8  UNL     1      12.293  12.729 116.910  1.00  0.00     0.188 HD
HETATM   40  C12 UNL     1      12.900  10.370 118.916  1.00  0.00     0.163 A 
HETATM   41  N10 UNL     1      13.110   9.031 119.329  1.00  0.00    -0.079 NA
BRANCH  38  42
HETATM   42  C11 UNL     1      12.497   9.860 116.471  1.00  0.00     0.372 C 
BRANCH  42  43
HETATM   43  N9  UNL     1      11.366   8.975 116.570  1.00  0.00    -0.047 N 
ATOM     44  H93 UNL     1      11.506   8.285 117.309  1.00  0.00     0.277 HD
ATOM     45  H92 UNL     1      10.554   9.462 116.949  1.00  0.00     0.277 HD
ATOM     46  H91 UNL     1      11.138   8.520 115.686  1.00  0.00     0.277 HD
ENDBRANCH  42  43
BRANCH  42  47
HETATM   47  O5  UNL     1      13.638   9.064 116.302  1.00  0.00    -0.365 OA
ATOM     48  H5  UNL     1      13.731   8.760 115.407  1.00  0.00     0.212 HD
ENDBRANCH  42  47
ENDBRANCH  38  42
ENDBRANCH  33  34
ENDBRANCH   4  33
TORSDOF 12
ENDMDL
MODEL 3
REMARK VINA RESULT: -6.666106805      3.458      4.744
REMARK  12 active torsions:
REMARK  status: ('A' for Active; 'I' for Inactive)
REMARK    1  A    between atoms: N1_1  and  C1_4 
REMARK    2  A    between atoms: N5_15  and  C5_16 
REMARK    3  A    between atoms: C6_18  and  O2_19 
REMARK    4  A    between atoms: C6_18  and  C7_21 
REMARK    5  A    between atoms: C7_21  and  O3_22 
REMARK    6  A    between atoms: C8_24  and  O4_25 
REMARK    7  A    between atoms: C8_24  and  C9_27 
REMARK    8  A    between atoms: C9_27  and  N6_28 
REMARK    9  A    between atoms: C10_33  and  C11_34 
REMARK   10  A    between atoms: C11_34  and  N9_35 
REMARK   11  A    between atoms: C11_34  and  O5_39 
REMARK   12  A    between atoms: C13_43  and  O6_44 
ROOT
HETATM    1  C5  UNL     1      13.991  12.046 121.507  1.00  0.00     0.266 C 
HETATM    2  O1  UNL     1      14.171  10.693 121.843  1.00  0.00    -0.322 OA
HETATM    3  C6  UNL     1      14.974  10.707 122.973  1.00  0.00     0.221 C 
HETATM    4  C8  UNL     1      16.076  11.639 122.497  1.00  0.00     0.164 C 
HETATM    5  C13 UNL     1      15.182  12.787 122.002  1.00  0.00     0.209 C 
ENDROOT
BRANCH   1   6
HETATM    6  N5  UNL     1      12.713  12.449 121.996  1.00  0.00    -0.297 N 
HETATM    7  C4  UNL     1      12.307  13.730 122.128  1.00  0.00     0.188 A 
HETATM    8  N4  UNL     1      11.076  13.790 122.611  1.00  0.00    -0.346 N 
HETATM    9  C3  UNL     1      10.647  12.540 122.807  1.00  0.00     0.123 A 
ATOM     10  H4  UNL     1      10.547  14.642 122.800  1.00  0.00     0.167 HD
HETATM   11  C2  UNL     1       9.448  12.043 123.293  1.00  0.00     0.145 A 
HETATM   12  C14 UNL     1      11.685  11.686 122.417  1.00  0.00     0.157 A 
HETATM   13  N2  UNL     1       9.337  10.707 123.368  1.00  0.00    -0.175 N 
HETATM   14  N3  UNL     1       8.487  12.838 123.654  1.00  0.00    -0.383 N 
HETATM   15  C1  UNL     1      10.330   9.857 122.995  1.00  0.00     0.679 A 
ATOM     16  H2  UNL     1       8.466  10.310 123.721  1.00  0.00     0.186 HD
HETATM   17  N11 UNL     1      11.482  10.365 122.529  1.00  0.00    -0.174 N 
ATOM     18  H11 UNL     1      12.227   9.725 122.250  1.00  0.00     0.186 HD
ATOM     19  H32 UNL     1       7.605  12.472 124.011  1.00  0.00     0.157 HD
ATOM     20  H31 UNL     1       8.571  13.854 123.598  1.00  0.00     0.157 HD
BRANCH  15  21
HETATM   21  N1  UNL     1      10.130   8.591 123.103  1.00  0.00    -0.234 N 
ATOM     22  H12 UNL     1      10.447   7.927 122.397  1.00  0.00     0.174 HD
ATOM     23  H11 UNL     1       9.638   8.243 123.925  1.00  0.00     0.174 HD
ENDBRANCH  15  21
ENDBRANCH   1   6
BRANCH   5  24
HETATM   24  O6  UNL     1      15.934  13.337 120.932  1.00  0.00    -0.388 OA
ATOM     25  H6  UNL     1      16.622  13.910 121.249  1.00  0.00     0.210 HD
ENDBRANCH   5  24
BRANCH   3  26
HETATM   26  O2  UNL     1      14.296  11.297 124.011  1.00  0.00    -0.361 OA
ATOM     27  H2  UNL     1      13.435  10.904 124.094  1.00  0.00     0.213 HD
ENDBRANCH   3  26
BRANCH   3  28
HETATM   28  C7  UNL     1      15.509   9.343 123.317  1.00  0.00     0.235 C 
BRANCH  28  29
HETATM   29  O3  UNL     1      15.647   8.543 122.200  1.00  0.00    -0.395 OA
ATOM     30  H3  UNL     1      16.041   7.704 122.408  1.00  0.00     0.209 HD
ENDBRANCH  28  29
ENDBRANCH   3  28
BRANCH   4  31
HETATM   31  O4  UNL     1      16.676  11.064 121.412  1.00  0.00    -0.380 OA
ATOM     32  H4  UNL     1      16.086  10.403 121.067  1.00  0.00     0.211 HD
ENDBRANCH   4  31
BRANCH   4  33
HETATM   33  C9  UNL     1      16.996  12.041 123.602  1.00  0.00     0.198 C 
BRANCH  33  34
HETATM   34  N6  UNL     1      18.358  12.018 123.126  1.00  0.00    -0.259 N 
HETATM   35  N7  UNL     1      19.170  10.972 123.172  1.00  0.00    -0.239 N 
HETATM   36  N8  UNL     1      20.343  11.251 122.657  1.00  0.00    -0.283 N 
ATOM     37  H7  UNL     1      18.915  10.064 123.559  1.00  0.00     0.208 HD
HETATM   38  C10 UNL     1      20.335  12.537 122.242  1.00  0.00     0.125 A 
ATOM     39  H8  UNL     1      21.129  10.606 122.582  1.00  0.00     0.188 HD
HETATM   40  C12 UNL     1      19.074  13.001 122.548  1.00  0.00     0.163 A 
HETATM   41  N10 UNL     1      18.606  14.313 122.291  1.00  0.00    -0.079 NA
BRANCH  38  42
HETATM   42  C11 UNL     1      21.397  13.331 121.599  1.00  0.00     0.372 C 
BRANCH  42  43
HETATM   43  N9  UNL     1      22.718  12.969 122.044  1.00  0.00    -0.047 N 
ATOM     44  H93 UNL     1      23.224  12.468 121.313  1.00  0.00     0.277 HD
ATOM     45  H92 UNL     1      23.314  13.792 122.125  1.00  0.00     0.277 HD
ATOM     46  H91 UNL     1      22.712  12.437 122.914  1.00  0.00     0.277 HD
ENDBRANCH  42  43
BRANCH  42  47
HETATM   47  O5  UNL     1      21.240  14.705 121.832  1.00  0.00    -0.365 OA
ATOM     48  H5  UNL     1      20.828  15.145 121.098  1.00  0.00     0.212 HD
ENDBRANCH  42  47
ENDBRANCH  38  42
ENDBRANCH  33  34
ENDBRANCH   4  33
TORSDOF 12
ENDMDL
MODEL 4
REMARK VINA RESULT: -6.665346992      5.402      8.485
REMARK  12 active torsions:
REMARK  status: ('A' for Active; 'I' for Inactive)
REMARK    1  A    between atoms: N1_1  and  C1_4 
REMARK    2  A    between atoms: N5_15  and  C5_16 
REMARK    3  A    between atoms: C6_18  and  O2_19 
REMARK    4  A    between atoms: C6_18  and  C7_21 
REMARK    5  A    between atoms: C7_21  and  O3_22 
REMARK    6  A    between atoms: C8_24  and  O4_25 
REMARK    7  A    between atoms: C8_24  and  C9_27 
REMARK    8  A    between atoms: C9_27  and  N6_28 
REMARK    9  A    between atoms: C10_33  and  C11_34 
REMARK   10  A    between atoms: C11_34  and  N9_35 
REMARK   11  A    between atoms: C11_34  and  O5_39 
REMARK   12  A    between atoms: C13_43  and  O6_44 
ROOT
HETATM    1  C5  UNL     1      18.906  12.008 122.054  1.00  0.00     0.266 C 
HETATM    2  O1  UNL     1      19.140  11.121 120.990  1.00  0.00    -0.322 OA
HETATM    3  C6  UNL     1      20.520  11.019 120.904  1.00  0.00     0.221 C 
HETATM    4  C8  UNL     1      20.890  12.494 120.905  1.00  0.00     0.164 C 
HETATM    5  C13 UNL     1      20.083  12.912 122.146  1.00  0.00     0.209 C 
ENDROOT
BRANCH   1   6
HETATM    6  N5  UNL     1      18.581  11.230 123.205  1.00  0.00    -0.297 N 
HETATM    7  C4  UNL     1      18.218   9.930 123.179  1.00  0.00     0.188 A 
HETATM    8  N4  UNL     1      17.973   9.481 124.401  1.00  0.00    -0.346 N 
HETATM    9  C3  UNL     1      18.172  10.486 125.258  1.00  0.00     0.123 A 
ATOM     10  H4  UNL     1      17.683   8.534 124.645  1.00  0.00     0.167 HD
HETATM   11  C2  UNL     1      18.054  10.558 126.637  1.00  0.00     0.145 A 
HETATM   12  C14 UNL     1      18.558  11.598 124.502  1.00  0.00     0.157 A 
HETATM   13  N2  UNL     1      18.330  11.744 127.204  1.00  0.00    -0.175 N 
HETATM   14  N3  UNL     1      17.695   9.524 127.337  1.00  0.00    -0.383 N 
HETATM   15  C1  UNL     1      18.707  12.838 126.491  1.00  0.00     0.679 A 
ATOM     16  H2  UNL     1      18.253  11.828 128.217  1.00  0.00     0.186 HD
HETATM   17  N11 UNL     1      18.812  12.742 125.156  1.00  0.00    -0.174 N 
ATOM     18  H11 UNL     1      19.095  13.564 124.622  1.00  0.00     0.186 HD
ATOM     19  H32 UNL     1      17.609   9.577 128.351  1.00  0.00     0.157 HD
ATOM     20  H31 UNL     1      17.486   8.623 126.907  1.00  0.00     0.157 HD
BRANCH  15  21
HETATM   21  N1  UNL     1      18.950  13.931 127.123  1.00  0.00    -0.234 N 
ATOM     22  H12 UNL     1      19.319  13.940 128.074  1.00  0.00     0.174 HD
ATOM     23  H11 UNL     1      18.767  14.818 126.654  1.00  0.00     0.174 HD
ENDBRANCH  15  21
ENDBRANCH   1   6
BRANCH   5  24
HETATM   24  O6  UNL     1      19.731  14.255 121.857  1.00  0.00    -0.388 OA
ATOM     25  H6  UNL     1      19.306  14.670 122.599  1.00  0.00     0.210 HD
ENDBRANCH   5  24
BRANCH   3  26
HETATM   26  O2  UNL     1      21.010  10.428 122.041  1.00  0.00    -0.361 OA
ATOM     27  H2  UNL     1      21.902  10.138 121.891  1.00  0.00     0.213 HD
ENDBRANCH   3  26
BRANCH   3  28
HETATM   28  C7  UNL     1      20.971  10.335 119.642  1.00  0.00     0.235 C 
BRANCH  28  29
HETATM   29  O3  UNL     1      19.998  10.360 118.662  1.00  0.00    -0.395 OA
ATOM     30  H3  UNL     1      20.195   9.766 117.948  1.00  0.00     0.209 HD
ENDBRANCH  28  29
ENDBRANCH   3  28
BRANCH   4  31
HETATM   31  O4  UNL     1      20.318  13.073 119.808  1.00  0.00    -0.380 OA
ATOM     32  H4  UNL     1      20.997  13.198 119.154  1.00  0.00     0.211 HD
ENDBRANCH   4  31
BRANCH   4  33
HETATM   33  C9  UNL     1      22.359  12.711 121.055  1.00  0.00     0.198 C 
BRANCH  33  34
HETATM   34  N6  UNL     1      22.779  13.780 120.182  1.00  0.00    -0.259 N 
HETATM   35  N7  UNL     1      23.225  13.629 118.943  1.00  0.00    -0.239 N 
HETATM   36  N8  UNL     1      23.522  14.783 118.394  1.00  0.00    -0.283 N 
ATOM     37  H7  UNL     1      23.325  12.729 118.474  1.00  0.00     0.208 HD
HETATM   38  C10 UNL     1      23.269  15.761 119.291  1.00  0.00     0.125 A 
ATOM     39  H8  UNL     1      23.882  14.918 117.450  1.00  0.00     0.188 HD
HETATM   40  C12 UNL     1      22.802  15.107 120.410  1.00  0.00     0.163 A 
HETATM   41  N10 UNL     1      22.407  15.737 121.616  1.00  0.00    -0.079 NA
BRANCH  38  42
HETATM   42  C11 UNL     1      23.432  17.221 119.170  1.00  0.00     0.372 C 
BRANCH  42  43
HETATM   43  N9  UNL     1      24.340  17.768 120.146  1.00  0.00    -0.047 N 
ATOM     44  H93 UNL     1      24.527  17.093 120.888  1.00  0.00     0.277 HD
ATOM     45  H92 UNL     1      25.280  17.856 119.760  1.00  0.00     0.277 HD
ATOM     46  H91 UNL     1      24.020  18.655 120.533  1.00  0.00     0.277 HD
ENDBRANCH  42  43
BRANCH  42  47
HETATM   47  O5  UNL     1      22.213  17.900 119.307  1.00  0.00    -0.365 OA
ATOM     48  H5  UNL     1      21.956  18.334 118.502  1.00  0.00     0.212 HD
ENDBRANCH  42  47
ENDBRANCH  38  42
ENDBRANCH  33  34
ENDBRANCH   4  33
TORSDOF 12
ENDMDL
MODEL 5
REMARK VINA RESULT: -6.628368398      2.318      8.476
REMARK  12 active torsions:
REMARK  status: ('A' for Active; 'I' for Inactive)
REMARK    1  A    between atoms: N1_1  and  C1_4 
REMARK    2  A    between atoms: N5_15  and  C5_16 
REMARK    3  A    between atoms: C6_18  and  O2_19 
REMARK    4  A    between atoms: C6_18  and  C7_21 
REMARK    5  A    between atoms: C7_21  and  O3_22 
REMARK    6  A    between atoms: C8_24  and  O4_25 
REMARK    7  A    between atoms: C8_24  and  C9_27 
REMARK    8  A    between atoms: C9_27  and  N6_28 
REMARK    9  A    between atoms: C10_33  and  C11_34 
REMARK   10  A    between atoms: C11_34  and  N9_35 
REMARK   11  A    between atoms: C11_34  and  O5_39 
REMARK   12  A    between atoms: C13_43  and  O6_44 
ROOT
HETATM    1  C5  UNL     1      14.486  11.700 122.046  1.00  0.00     0.266 C 
HETATM    2  O1  UNL     1      14.068  10.359 121.989  1.00  0.00    -0.322 OA
HETATM    3  C6  UNL     1      14.455   9.916 120.734  1.00  0.00     0.221 C 
HETATM    4  C8  UNL     1      13.895  11.039 119.876  1.00  0.00     0.164 C 
HETATM    5  C13 UNL     1      14.504  12.219 120.653  1.00  0.00     0.209 C 
ENDROOT
BRANCH   1   6
HETATM    6  N5  UNL     1      15.708  11.743 122.782  1.00  0.00    -0.297 N 
HETATM    7  C4  UNL     1      16.743  12.567 122.509  1.00  0.00     0.188 A 
HETATM    8  N4  UNL     1      17.739  12.373 123.359  1.00  0.00    -0.346 N 
HETATM    9  C3  UNL     1      17.375  11.411 124.212  1.00  0.00     0.123 A 
ATOM     10  H4  UNL     1      18.629  12.872 123.363  1.00  0.00     0.167 HD
HETATM   11  C2  UNL     1      18.036  10.829 125.282  1.00  0.00     0.145 A 
HETATM   12  C14 UNL     1      16.085  11.009 123.847  1.00  0.00     0.157 A 
HETATM   13  N2  UNL     1      17.376   9.866 125.945  1.00  0.00    -0.175 N 
HETATM   14  N3  UNL     1      19.233  11.204 125.618  1.00  0.00    -0.383 N 
HETATM   15  C1  UNL     1      16.124   9.458 125.610  1.00  0.00     0.679 A 
ATOM     16  H2  UNL     1      17.836   9.418 126.738  1.00  0.00     0.186 HD
HETATM   17  N11 UNL     1      15.506  10.037 124.569  1.00  0.00    -0.174 N 
ATOM     18  H11 UNL     1      14.566   9.730 124.318  1.00  0.00     0.186 HD
ATOM     19  H32 UNL     1      19.719  10.776 126.405  1.00  0.00     0.157 HD
ATOM     20  H31 UNL     1      19.735  11.936 125.114  1.00  0.00     0.157 HD
BRANCH  15  21
HETATM   21  N1  UNL     1      15.572   8.527 126.306  1.00  0.00    -0.234 N 
ATOM     22  H12 UNL     1      16.089   7.986 126.999  1.00  0.00     0.174 HD
ATOM     23  H11 UNL     1      14.584   8.325 126.156  1.00  0.00     0.174 HD
ENDBRANCH  15  21
ENDBRANCH   1   6
BRANCH   5  24
HETATM   24  O6  UNL     1      13.544  13.248 120.469  1.00  0.00    -0.388 OA
ATOM     25  H6  UNL     1      12.660  12.929 120.613  1.00  0.00     0.210 HD
ENDBRANCH   5  24
BRANCH   3  26
HETATM   26  O2  UNL     1      15.825   9.919 120.647  1.00  0.00    -0.361 OA
ATOM     27  H2  UNL     1      16.090   9.658 119.773  1.00  0.00     0.213 HD
ENDBRANCH   3  26
BRANCH   3  28
HETATM   28  C7  UNL     1      13.844   8.588 120.377  1.00  0.00     0.235 C 
BRANCH  28  29
HETATM   29  O3  UNL     1      12.641   8.381 121.021  1.00  0.00    -0.395 OA
ATOM     30  H3  UNL     1      12.623   7.553 121.488  1.00  0.00     0.209 HD
ENDBRANCH  28  29
ENDBRANCH   3  28
BRANCH   4  31
HETATM   31  O4  UNL     1      12.540  11.066 120.049  1.00  0.00    -0.380 OA
ATOM     32  H4  UNL     1      12.225  11.916 119.764  1.00  0.00     0.211 HD
ENDBRANCH   4  31
BRANCH   4  33
HETATM   33  C9  UNL     1      14.363  10.961 118.460  1.00  0.00     0.198 C 
BRANCH  33  34
HETATM   34  N6  UNL     1      13.273  11.295 117.576  1.00  0.00    -0.259 N 
HETATM   35  N7  UNL     1      12.777  12.510 117.392  1.00  0.00    -0.239 N 
HETATM   36  N8  UNL     1      11.796  12.503 116.521  1.00  0.00    -0.283 N 
ATOM     37  H7  UNL     1      13.115  13.347 117.868  1.00  0.00     0.208 HD
HETATM   38  C10 UNL     1      11.613  11.235 116.092  1.00  0.00     0.125 A 
ATOM     39  H8  UNL     1      11.262  13.317 116.219  1.00  0.00     0.188 HD
HETATM   40  C12 UNL     1      12.554  10.491 116.769  1.00  0.00     0.163 A 
HETATM   41  N10 UNL     1      12.735   9.092 116.635  1.00  0.00    -0.079 NA
BRANCH  38  42
HETATM   42  C11 UNL     1      10.646  10.695 115.120  1.00  0.00     0.372 C 
BRANCH  42  43
HETATM   43  N9  UNL     1       9.449  11.490 115.017  1.00  0.00    -0.047 N 
ATOM     44  H93 UNL     1       8.759  11.202 115.710  1.00  0.00     0.277 HD
ATOM     45  H92 UNL     1       9.617  12.444 115.336  1.00  0.00     0.277 HD
ATOM     46  H91 UNL     1       9.048  11.486 114.079  1.00  0.00     0.277 HD
ENDBRANCH  42  43
BRANCH  42  47
HETATM   47  O5  UNL     1      10.252   9.388 115.441  1.00  0.00    -0.365 OA
ATOM     48  H5  UNL     1       9.327   9.336 115.648  1.00  0.00     0.212 HD
ENDBRANCH  42  47
ENDBRANCH  38  42
ENDBRANCH  33  34
ENDBRANCH   4  33
TORSDOF 12
ENDMDL
