MODEL 1
REMARK VINA RESULT: -7.082354346      0.000      0.000
REMARK  1 active torsions:
REMARK  status: ('A' for Active; 'I' for Inactive)
REMARK    1  A    between atoms: C2_2  and  C4_5 
ROOT
HETATM    1  C1  UNL     1      18.135  28.185   9.849  1.00  0.00     0.028 C 
HETATM    2  C2  UNL     1      19.475  27.578   9.511  1.00  0.00     0.121 C 
HETATM    3  C3  UNL     1      19.954  26.700  10.579  1.00  0.00     0.066 C 
HETATM    4  N1  UNL     1      20.327  26.007  11.417  1.00  0.00    -0.197 NA
ENDROOT
BRANCH   2   5
HETATM    5  C4  UNL     1      20.490  28.733   9.345  1.00  0.00     0.156 C 
HETATM    6  N2  UNL     1      21.255  28.709  10.538  1.00  0.00    -0.403 N 
HETATM    7  C5  UNL     1      22.595  29.278  10.436  1.00  0.00     0.078 C 
ATOM      8  H2  UNL     1      20.894  28.321  11.409  1.00  0.00     0.154 HD
HETATM    9  C6  UNL     1      22.926  29.920  11.782  1.00  0.00     0.024 C 
HETATM   10  C11 UNL     1      22.361  30.478   9.523  1.00  0.00     0.030 C 
HETATM   11  C7  UNL     1      23.366  31.358  11.659  1.00  0.00     0.002 C 
HETATM   12  C8  UNL     1      22.231  32.252  11.117  1.00  0.00     0.005 C 
HETATM   13  C9  UNL     1      21.389  31.324  10.363  1.00  0.00    -0.003 C 
HETATM   14  C10 UNL     1      20.341  31.768   9.434  1.00  0.00     0.080 C 
HETATM   15  S1  UNL     1      19.533  30.179   8.978  1.00  0.00    -0.142 SA
ENDBRANCH   2   5
TORSDOF 1
ENDMDL
MODEL 2
REMARK VINA RESULT: -6.654131238      1.969      4.877
REMARK  1 active torsions:
REMARK  status: ('A' for Active; 'I' for Inactive)
REMARK    1  A    between atoms: C2_2  and  C4_5 
ROOT
HETATM    1  C1  UNL     1      20.259  32.342   9.566  1.00  0.00     0.028 C 
HETATM    2  C2  UNL     1      21.111  31.794  10.685  1.00  0.00     0.121 C 
HETATM    3  C3  UNL     1      22.398  32.485  10.770  1.00  0.00     0.066 C 
HETATM    4  N1  UNL     1      23.407  33.031  10.840  1.00  0.00    -0.197 NA
ENDROOT
BRANCH   2   5
HETATM    5  C4  UNL     1      21.385  30.302  10.385  1.00  0.00     0.156 C 
HETATM    6  N2  UNL     1      20.134  29.787   9.962  1.00  0.00    -0.403 N 
HETATM    7  C5  UNL     1      20.197  28.609   9.105  1.00  0.00     0.078 C 
ATOM      8  H2  UNL     1      19.249  30.212  10.239  1.00  0.00     0.154 HD
HETATM    9  C6  UNL     1      18.973  27.748   9.414  1.00  0.00     0.024 C 
HETATM   10  C11 UNL     1      21.345  27.822   9.730  1.00  0.00     0.030 C 
HETATM   11  C7  UNL     1      19.323  26.319   9.748  1.00  0.00     0.002 C 
HETATM   12  C8  UNL     1      20.149  26.229  11.048  1.00  0.00     0.005 C 
HETATM   13  C9  UNL     1      20.796  27.537  11.139  1.00  0.00    -0.003 C 
HETATM   14  C10 UNL     1      21.903  27.820  12.063  1.00  0.00     0.080 C 
HETATM   15  S1  UNL     1      22.127  29.634  11.850  1.00  0.00    -0.142 SA
ENDBRANCH   2   5
TORSDOF 1
ENDMDL
MODEL 3
REMARK VINA RESULT: -6.407114015      2.215      4.891
REMARK  1 active torsions:
REMARK  status: ('A' for Active; 'I' for Inactive)
REMARK    1  A    between atoms: C2_2  and  C4_5 
ROOT
HETATM    1  C1  UNL     1      23.066  32.860  10.924  1.00  0.00     0.028 C 
HETATM    2  C2  UNL     1      23.128  31.577  11.717  1.00  0.00     0.121 C 
HETATM    3  C3  UNL     1      24.499  31.257  12.118  1.00  0.00     0.066 C 
HETATM    4  N1  UNL     1      25.575  31.010  12.436  1.00  0.00    -0.197 NA
ENDROOT
BRANCH   2   5
HETATM    5  C4  UNL     1      22.613  30.434  10.810  1.00  0.00     0.156 C 
HETATM    6  N2  UNL     1      21.418  30.940  10.243  1.00  0.00    -0.403 N 
HETATM    7  C5  UNL     1      21.029  30.347   8.968  1.00  0.00     0.078 C 
ATOM      8  H2  UNL     1      20.867  31.670  10.694  1.00  0.00     0.154 HD
HETATM    9  C6  UNL     1      19.501  30.326   8.917  1.00  0.00     0.024 C 
HETATM   10  C11 UNL     1      21.393  28.880   9.176  1.00  0.00     0.030 C 
HETATM   11  C7  UNL     1      18.939  28.960   8.611  1.00  0.00     0.002 C 
HETATM   12  C8  UNL     1      19.263  27.950   9.731  1.00  0.00     0.005 C 
HETATM   13  C9  UNL     1      20.473  28.494  10.347  1.00  0.00    -0.003 C 
HETATM   14  C10 UNL     1      21.313  27.726  11.277  1.00  0.00     0.080 C 
HETATM   15  S1  UNL     1      22.522  28.994  11.840  1.00  0.00    -0.142 SA
ENDBRANCH   2   5
TORSDOF 1
ENDMDL
MODEL 4
REMARK VINA RESULT: -6.322451146      1.488      2.051
REMARK  1 active torsions:
REMARK  status: ('A' for Active; 'I' for Inactive)
REMARK    1  A    between atoms: C2_2  and  C4_5 
ROOT
HETATM    1  C1  UNL     1      19.467  26.941   9.719  1.00  0.00     0.028 C 
HETATM    2  C2  UNL     1      19.225  28.411   9.960  1.00  0.00     0.121 C 
HETATM    3  C3  UNL     1      18.344  28.985   8.942  1.00  0.00     0.066 C 
HETATM    4  N1  UNL     1      17.649  29.435   8.145  1.00  0.00    -0.197 NA
ENDROOT
BRANCH   2   5
HETATM    5  C4  UNL     1      20.589  29.135   9.879  1.00  0.00     0.156 C 
HETATM    6  N2  UNL     1      21.306  28.674  11.011  1.00  0.00    -0.403 N 
HETATM    7  C5  UNL     1      22.759  28.731  10.900  1.00  0.00     0.078 C 
ATOM      8  H2  UNL     1      20.837  28.325  11.847  1.00  0.00     0.154 HD
HETATM    9  C6  UNL     1      23.316  29.019  12.294  1.00  0.00     0.024 C 
HETATM   10  C11 UNL     1      22.969  30.049  10.160  1.00  0.00     0.030 C 
HETATM   11  C7  UNL     1      24.248  30.205  12.325  1.00  0.00     0.002 C 
HETATM   12  C8  UNL     1      23.511  31.513  11.968  1.00  0.00     0.005 C 
HETATM   13  C9  UNL     1      22.381  31.063  11.157  1.00  0.00    -0.003 C 
HETATM   14  C10 UNL     1      21.557  31.978  10.355  1.00  0.00     0.080 C 
HETATM   15  S1  UNL     1      20.220  30.865   9.754  1.00  0.00    -0.142 SA
ENDBRANCH   2   5
TORSDOF 1
ENDMDL
MODEL 5
REMARK VINA RESULT: -6.298803338      2.259      4.891
REMARK  1 active torsions:
REMARK  status: ('A' for Active; 'I' for Inactive)
REMARK    1  A    between atoms: C2_2  and  C4_5 
ROOT
HETATM    1  C1  UNL     1      23.828  30.490  13.113  1.00  0.00     0.028 C 
HETATM    2  C2  UNL     1      24.055  30.954  11.695  1.00  0.00     0.121 C 
HETATM    3  C3  UNL     1      23.673  32.355  11.519  1.00  0.00     0.066 C 
HETATM    4  N1  UNL     1      23.376  33.457  11.383  1.00  0.00    -0.197 NA
ENDROOT
BRANCH   2   5
HETATM    5  C4  UNL     1      23.167  30.092  10.767  1.00  0.00     0.156 C 
HETATM    6  N2  UNL     1      22.152  30.975  10.324  1.00  0.00    -0.403 N 
HETATM    7  C5  UNL     1      21.529  30.628   9.051  1.00  0.00     0.078 C 
ATOM      8  H2  UNL     1      21.875  31.799  10.858  1.00  0.00     0.154 HD
HETATM    9  C6  UNL     1      20.067  31.069   9.119  1.00  0.00     0.024 C 
HETATM   10  C11 UNL     1      21.441  29.107   9.146  1.00  0.00     0.030 C 
HETATM   11  C7  UNL     1      19.100  29.962   8.779  1.00  0.00     0.002 C 
HETATM   12  C8  UNL     1      19.165  28.817   9.811  1.00  0.00     0.005 C 
HETATM   13  C9  UNL     1      20.516  28.924  10.361  1.00  0.00    -0.003 C 
HETATM   14  C10 UNL     1      21.134  27.869  11.177  1.00  0.00     0.080 C 
HETATM   15  S1  UNL     1      22.701  28.669  11.716  1.00  0.00    -0.142 SA
ENDBRANCH   2   5
TORSDOF 1
ENDMDL
