MODEL 1
REMARK VINA RESULT: -6.111795391      0.000      0.000
REMARK  4 active torsions:
REMARK  status: ('A' for Active; 'I' for Inactive)
REMARK    1  A    between atoms: C2_2  and  C4_4 
REMARK    2  A    between atoms: C4_4  and  C5_8 
REMARK    3  A    between atoms: C5_8  and  N2_9 
REMARK    4  A    between atoms: C5_8  and  C6_13 
ROOT
HETATM    1  C5  UNL     1      15.687  -7.997  -9.001  1.00  0.00     0.237 C 
ENDROOT
BRANCH   1   2
HETATM    2  C4  UNL     1      14.488  -8.769  -8.857  1.00  0.00     0.015 C 
HETATM    3  N1  UNL     1      13.427  -8.296  -9.426  1.00  0.00    -0.404 N 
ATOM      4  H12 UNL     1      12.574  -8.845  -9.323  1.00  0.00     0.155 HD
ATOM      5  H11 UNL     1      13.573  -7.413  -9.915  1.00  0.00     0.155 HD
BRANCH   2   6
HETATM    6  C2  UNL     1      14.274 -10.050  -8.148  1.00  0.00     0.025 C 
HETATM    7  C1  UNL     1      15.496 -10.402  -7.282  1.00  0.00     0.016 C 
HETATM    8  C3  UNL     1      13.137  -9.927  -7.145  1.00  0.00     0.016 C 
ENDBRANCH   2   6
ENDBRANCH   1   2
BRANCH   1   9
HETATM    9  N2  UNL     1      15.690  -7.207 -10.254  1.00  0.00    -0.069 N 
ATOM     10  H23 UNL     1      14.817  -6.692 -10.369  1.00  0.00     0.275 HD
ATOM     11  H22 UNL     1      16.335  -6.420 -10.194  1.00  0.00     0.275 HD
ATOM     12  H21 UNL     1      15.889  -7.786 -11.070  1.00  0.00     0.275 HD
ENDBRANCH   1   9
BRANCH   1  13
HETATM   13  C6  UNL     1      16.157  -7.075  -7.937  1.00  0.00    -0.006 C 
HETATM   14  C7  UNL     1      15.220  -6.799  -6.815  1.00  0.00     0.016 C 
HETATM   15  C8  UNL     1      15.717  -5.597  -6.001  1.00  0.00    -0.013 C 
HETATM   16  C9  UNL     1      17.022  -6.070  -5.379  1.00  0.00     0.009 C 
HETATM   17  C13 UNL     1      15.881  -4.364  -6.817  1.00  0.00     0.009 C 
HETATM   18  C10 UNL     1      18.029  -6.345  -6.486  1.00  0.00    -0.013 C 
HETATM   19  C11 UNL     1      18.223  -5.022  -7.217  1.00  0.00     0.009 C 
HETATM   20  C15 UNL     1      17.530  -7.407  -7.409  1.00  0.00     0.016 C 
HETATM   21  C12 UNL     1      16.930  -4.678  -7.872  1.00  0.00    -0.013 C 
HETATM   22  C14 UNL     1      16.344  -5.765  -8.719  1.00  0.00     0.016 C 
ENDBRANCH   1  13
TORSDOF 4
ENDMDL
MODEL 2
REMARK VINA RESULT: -6.065151038      0.664      1.897
REMARK  4 active torsions:
REMARK  status: ('A' for Active; 'I' for Inactive)
REMARK    1  A    between atoms: C2_2  and  C4_4 
REMARK    2  A    between atoms: C4_4  and  C5_8 
REMARK    3  A    between atoms: C5_8  and  N2_9 
REMARK    4  A    between atoms: C5_8  and  C6_13 
ROOT
HETATM    1  C5  UNL     1      15.523  -8.134  -9.141  1.00  0.00     0.237 C 
ENDROOT
BRANCH   1   2
HETATM    2  C4  UNL     1      14.331  -8.924  -9.053  1.00  0.00     0.015 C 
HETATM    3  N1  UNL     1      13.259  -8.405  -9.559  1.00  0.00    -0.404 N 
ATOM      4  H12 UNL     1      12.410  -8.967  -9.496  1.00  0.00     0.155 HD
ATOM      5  H11 UNL     1      13.394  -7.479  -9.964  1.00  0.00     0.155 HD
BRANCH   2   6
HETATM    6  C2  UNL     1      14.134 -10.267  -8.465  1.00  0.00     0.025 C 
HETATM    7  C1  UNL     1      13.129 -10.211  -7.303  1.00  0.00     0.016 C 
HETATM    8  C3  UNL     1      13.479 -11.203  -9.471  1.00  0.00     0.016 C 
ENDBRANCH   2   6
ENDBRANCH   1   2
BRANCH   1   9
HETATM    9  N2  UNL     1      15.623  -7.423 -10.437  1.00  0.00    -0.069 N 
ATOM     10  H23 UNL     1      16.154  -7.967 -11.117  1.00  0.00     0.275 HD
ATOM     11  H22 UNL     1      14.724  -7.400 -10.916  1.00  0.00     0.275 HD
ATOM     12  H21 UNL     1      16.009  -6.486 -10.330  1.00  0.00     0.275 HD
ENDBRANCH   1   9
BRANCH   1  13
HETATM   13  C6  UNL     1      15.881  -7.137  -8.101  1.00  0.00    -0.006 C 
HETATM   14  C7  UNL     1      15.865  -5.704  -8.499  1.00  0.00     0.016 C 
HETATM   15  C8  UNL     1      16.568  -4.855  -7.431  1.00  0.00    -0.013 C 
HETATM   16  C9  UNL     1      15.684  -4.981  -6.200  1.00  0.00     0.009 C 
HETATM   17  C13 UNL     1      17.972  -5.278  -7.178  1.00  0.00     0.009 C 
HETATM   18  C10 UNL     1      15.684  -6.430  -5.733  1.00  0.00    -0.013 C 
HETATM   19  C11 UNL     1      17.133  -6.764  -5.400  1.00  0.00     0.009 C 
HETATM   20  C15 UNL     1      15.150  -7.332  -6.796  1.00  0.00     0.016 C 
HETATM   21  C12 UNL     1      17.910  -6.710  -6.670  1.00  0.00    -0.013 C 
HETATM   22  C14 UNL     1      17.338  -7.517  -7.793  1.00  0.00     0.016 C 
ENDBRANCH   1  13
TORSDOF 4
ENDMDL
MODEL 3
REMARK VINA RESULT: -6.017948204      0.406      2.004
REMARK  4 active torsions:
REMARK  status: ('A' for Active; 'I' for Inactive)
REMARK    1  A    between atoms: C2_2  and  C4_4 
REMARK    2  A    between atoms: C4_4  and  C5_8 
REMARK    3  A    between atoms: C5_8  and  N2_9 
REMARK    4  A    between atoms: C5_8  and  C6_13 
ROOT
HETATM    1  C5  UNL     1      15.639  -7.797  -8.934  1.00  0.00     0.237 C 
ENDROOT
BRANCH   1   2
HETATM    2  C4  UNL     1      14.451  -8.548  -8.656  1.00  0.00     0.015 C 
HETATM    3  N1  UNL     1      13.464  -8.387  -9.477  1.00  0.00    -0.404 N 
ATOM      4  H12 UNL     1      12.618  -8.922  -9.280  1.00  0.00     0.155 HD
ATOM      5  H11 UNL     1      13.653  -7.731 -10.234  1.00  0.00     0.155 HD
BRANCH   2   6
HETATM    6  C2  UNL     1      14.176  -9.501  -7.558  1.00  0.00     0.025 C 
HETATM    7  C1  UNL     1      13.143 -10.553  -7.997  1.00  0.00     0.016 C 
HETATM    8  C3  UNL     1      15.417 -10.318  -7.232  1.00  0.00     0.016 C 
ENDBRANCH   2   6
ENDBRANCH   1   2
BRANCH   1   9
HETATM    9  N2  UNL     1      15.655  -7.277 -10.321  1.00  0.00    -0.069 N 
ATOM     10  H23 UNL     1      16.564  -7.423 -10.760  1.00  0.00     0.275 HD
ATOM     11  H22 UNL     1      15.084  -7.852 -10.938  1.00  0.00     0.275 HD
ATOM     12  H21 UNL     1      15.375  -6.297 -10.365  1.00  0.00     0.275 HD
ENDBRANCH   1   9
BRANCH   1  13
HETATM   13  C6  UNL     1      16.073  -6.670  -8.071  1.00  0.00    -0.006 C 
HETATM   14  C7  UNL     1      16.392  -5.382  -8.744  1.00  0.00     0.016 C 
HETATM   15  C8  UNL     1      17.128  -4.451  -7.772  1.00  0.00    -0.013 C 
HETATM   16  C9  UNL     1      16.105  -4.141  -6.690  1.00  0.00     0.009 C 
HETATM   17  C13 UNL     1      18.380  -5.043  -7.228  1.00  0.00     0.009 C 
HETATM   18  C10 UNL     1      15.759  -5.425  -5.950  1.00  0.00    -0.013 C 
HETATM   19  C11 UNL     1      17.063  -5.922  -5.339  1.00  0.00     0.009 C 
HETATM   20  C15 UNL     1      15.175  -6.436  -6.881  1.00  0.00     0.016 C 
HETATM   21  C12 UNL     1      17.972  -6.291  -6.460  1.00  0.00    -0.013 C 
HETATM   22  C14 UNL     1      17.379  -7.218  -7.474  1.00  0.00     0.016 C 
ENDBRANCH   1  13
TORSDOF 4
ENDMDL
MODEL 4
REMARK VINA RESULT: -5.957970233      1.416      4.805
REMARK  4 active torsions:
REMARK  status: ('A' for Active; 'I' for Inactive)
REMARK    1  A    between atoms: C2_2  and  C4_4 
REMARK    2  A    between atoms: C4_4  and  C5_8 
REMARK    3  A    between atoms: C5_8  and  N2_9 
REMARK    4  A    between atoms: C5_8  and  C6_13 
ROOT
HETATM    1  C5  UNL     1      15.554  -6.620  -8.202  1.00  0.00     0.237 C 
ENDROOT
BRANCH   1   2
HETATM    2  C4  UNL     1      16.451  -5.813  -7.428  1.00  0.00     0.015 C 
HETATM    3  N1  UNL     1      15.997  -4.667  -7.035  1.00  0.00    -0.404 N 
ATOM      4  H12 UNL     1      16.635  -4.092  -6.484  1.00  0.00     0.155 HD
ATOM      5  H11 UNL     1      15.041  -4.472  -7.330  1.00  0.00     0.155 HD
BRANCH   2   6
HETATM    6  C2  UNL     1      17.838  -6.095  -6.999  1.00  0.00     0.025 C 
HETATM    7  C1  UNL     1      18.723  -4.847  -7.165  1.00  0.00     0.016 C 
HETATM    8  C3  UNL     1      17.891  -6.385  -5.507  1.00  0.00     0.016 C 
ENDBRANCH   2   6
ENDBRANCH   1   2
BRANCH   1   9
HETATM    9  N2  UNL     1      15.950  -6.679  -9.628  1.00  0.00    -0.069 N 
ATOM     10  H23 UNL     1      15.605  -7.529 -10.073  1.00  0.00     0.275 HD
ATOM     11  H22 UNL     1      15.442  -5.990 -10.182  1.00  0.00     0.275 HD
ATOM     12  H21 UNL     1      16.958  -6.579  -9.749  1.00  0.00     0.275 HD
ENDBRANCH   1   9
BRANCH   1  13
HETATM   13  C6  UNL     1      15.223  -8.014  -7.813  1.00  0.00    -0.006 C 
HETATM   14  C7  UNL     1      16.177  -9.079  -8.226  1.00  0.00     0.016 C 
HETATM   15  C8  UNL     1      15.531 -10.459  -8.044  1.00  0.00    -0.013 C 
HETATM   16  C9  UNL     1      15.339 -10.598  -6.542  1.00  0.00     0.009 C 
HETATM   17  C13 UNL     1      14.262 -10.617  -8.804  1.00  0.00     0.009 C 
HETATM   18  C10 UNL     1      14.350  -9.543  -6.068  1.00  0.00    -0.013 C 
HETATM   19  C11 UNL     1      13.049  -9.823  -6.811  1.00  0.00     0.009 C 
HETATM   20  C15 UNL     1      14.855  -8.169  -6.358  1.00  0.00     0.016 C 
HETATM   21  C12 UNL     1      13.297  -9.576  -8.259  1.00  0.00    -0.013 C 
HETATM   22  C14 UNL     1      13.909  -8.246  -8.576  1.00  0.00     0.016 C 
ENDBRANCH   1  13
TORSDOF 4
ENDMDL
MODEL 5
REMARK VINA RESULT: -5.896678927      1.466      4.722
REMARK  4 active torsions:
REMARK  status: ('A' for Active; 'I' for Inactive)
REMARK    1  A    between atoms: C2_2  and  C4_4 
REMARK    2  A    between atoms: C4_4  and  C5_8 
REMARK    3  A    between atoms: C5_8  and  N2_9 
REMARK    4  A    between atoms: C5_8  and  C6_13 
ROOT
HETATM    1  C5  UNL     1      15.490  -6.690  -8.082  1.00  0.00     0.237 C 
ENDROOT
BRANCH   1   2
HETATM    2  C4  UNL     1      16.333  -6.143  -7.060  1.00  0.00     0.015 C 
HETATM    3  N1  UNL     1      15.907  -5.069  -6.477  1.00  0.00    -0.404 N 
ATOM      4  H12 UNL     1      16.506  -4.679  -5.750  1.00  0.00     0.155 HD
ATOM      5  H11 UNL     1      15.008  -4.735  -6.823  1.00  0.00     0.155 HD
BRANCH   2   6
HETATM    6  C2  UNL     1      17.638  -6.627  -6.557  1.00  0.00     0.025 C 
HETATM    7  C1  UNL     1      18.741  -5.588  -6.819  1.00  0.00     0.016 C 
HETATM    8  C3  UNL     1      17.613  -6.762  -5.042  1.00  0.00     0.016 C 
ENDBRANCH   2   6
ENDBRANCH   1   2
BRANCH   1   9
HETATM    9  N2  UNL     1      16.069  -6.513  -9.433  1.00  0.00    -0.069 N 
ATOM     10  H23 UNL     1      15.993  -5.544  -9.744  1.00  0.00     0.275 HD
ATOM     11  H22 UNL     1      17.085  -6.597  -9.414  1.00  0.00     0.275 HD
ATOM     12  H21 UNL     1      15.658  -7.153 -10.112  1.00  0.00     0.275 HD
ENDBRANCH   1   9
BRANCH   1  13
HETATM   13  C6  UNL     1      15.003  -8.091  -8.027  1.00  0.00    -0.006 C 
HETATM   14  C7  UNL     1      13.791  -8.420  -8.825  1.00  0.00     0.016 C 
HETATM   15  C8  UNL     1      13.240  -9.788  -8.401  1.00  0.00    -0.013 C 
HETATM   16  C9  UNL     1      14.319 -10.779  -8.809  1.00  0.00     0.009 C 
HETATM   17  C13 UNL     1      12.908  -9.862  -6.952  1.00  0.00     0.009 C 
HETATM   18  C10 UNL     1      15.579 -10.502  -8.002  1.00  0.00    -0.013 C 
HETATM   19  C11 UNL     1      15.192 -10.690  -6.540  1.00  0.00     0.009 C 
HETATM   20  C15 UNL     1      16.082  -9.120  -8.256  1.00  0.00     0.016 C 
HETATM   21  C12 UNL     1      14.206  -9.628  -6.196  1.00  0.00    -0.013 C 
HETATM   22  C14 UNL     1      14.634  -8.235  -6.542  1.00  0.00     0.016 C 
ENDBRANCH   1  13
TORSDOF 4
ENDMDL
