MODEL 1
REMARK VINA RESULT: -4.485013386      0.000      0.000
REMARK  5 active torsions:
REMARK  status: ('A' for Active; 'I' for Inactive)
REMARK    1  A    between atoms: C2_2  and  C4_4 
REMARK    2  A    between atoms: C11_11  and  C12_12 
REMARK    3  A    between atoms: C12_12  and  O1_13 
REMARK    4  A    between atoms: C12_12  and  O2_15 
REMARK    5  A    between atoms: C13_17  and  O3_18 
ROOT
HETATM    1  C4  UNL     1      19.450  -3.694 -12.369  1.00  0.00     0.053 C 
HETATM    2  C5  UNL     1      20.341  -4.442 -13.327  1.00  0.00     0.013 C 
HETATM    3  C6  UNL     1      19.444  -4.418 -14.578  1.00  0.00     0.013 C 
HETATM    4  C7  UNL     1      19.201  -2.909 -14.631  1.00  0.00    -0.004 C 
HETATM    5  C8  UNL     1      20.311  -2.206 -15.305  1.00  0.00     0.019 C 
HETATM    6  C9  UNL     1      17.780  -2.554 -15.003  1.00  0.00     0.049 C 
HETATM    7  C10 UNL     1      17.486  -2.626 -13.529  1.00  0.00    -0.043 C 
HETATM    8  C11 UNL     1      16.378  -2.730 -12.846  1.00  0.00     0.038 C 
HETATM    9  C13 UNL     1      18.929  -2.533 -13.170  1.00  0.00     0.098 C 
ENDROOT
BRANCH   8  10
HETATM   10  C12 UNL     1      15.045  -2.805 -13.494  1.00  0.00     0.278 C 
BRANCH  10  11
HETATM   11  O1  UNL     1      14.261  -3.838 -12.996  1.00  0.00    -0.368 OA
ATOM     12  H1  UNL     1      13.808  -3.603 -12.194  1.00  0.00     0.213 HD
ENDBRANCH  10  11
BRANCH  10  13
HETATM   13  O2  UNL     1      14.356  -1.606 -13.263  1.00  0.00    -0.368 OA
ATOM     14  H2  UNL     1      13.471  -1.687 -13.599  1.00  0.00     0.213 HD
ENDBRANCH  10  13
ENDBRANCH   8  10
BRANCH   9  15
HETATM   15  O3  UNL     1      19.335  -1.294 -12.766  1.00  0.00    -0.379 OA
HETATM   16  C14 UNL     1      18.442  -0.500 -12.123  1.00  0.00     0.203 C 
ENDBRANCH   9  15
BRANCH   1  17
HETATM   17  C2  UNL     1      20.095  -3.331 -11.118  1.00  0.00    -0.086 C 
HETATM   18  C1  UNL     1      21.406  -3.201 -11.060  1.00  0.00     0.014 C 
HETATM   19  C3  UNL     1      19.369  -3.086  -9.847  1.00  0.00     0.043 C 
ENDBRANCH   1  17
TORSDOF 5
ENDMDL
MODEL 2
REMARK VINA RESULT: -4.206975168      8.117      9.733
REMARK  5 active torsions:
REMARK  status: ('A' for Active; 'I' for Inactive)
REMARK    1  A    between atoms: C2_2  and  C4_4 
REMARK    2  A    between atoms: C11_11  and  C12_12 
REMARK    3  A    between atoms: C12_12  and  O1_13 
REMARK    4  A    between atoms: C12_12  and  O2_15 
REMARK    5  A    between atoms: C13_17  and  O3_18 
ROOT
HETATM    1  C4  UNL     1      14.803  -8.610  -6.780  1.00  0.00     0.053 C 
HETATM    2  C5  UNL     1      13.887  -8.996  -5.648  1.00  0.00     0.013 C 
HETATM    3  C6  UNL     1      12.780  -9.707  -6.448  1.00  0.00     0.013 C 
HETATM    4  C7  UNL     1      13.671 -10.692  -7.207  1.00  0.00    -0.004 C 
HETATM    5  C8  UNL     1      13.971 -11.886  -6.392  1.00  0.00     0.019 C 
HETATM    6  C9  UNL     1      13.251 -10.877  -8.646  1.00  0.00     0.049 C 
HETATM    7  C10 UNL     1      14.153  -9.711  -8.951  1.00  0.00    -0.043 C 
HETATM    8  C11 UNL     1      14.255  -8.908  -9.975  1.00  0.00     0.038 C 
HETATM    9  C13 UNL     1      14.864  -9.838  -7.648  1.00  0.00     0.098 C 
ENDROOT
BRANCH   8  10
HETATM   10  C12 UNL     1      13.383  -9.025 -11.171  1.00  0.00     0.278 C 
BRANCH  10  11
HETATM   11  O1  UNL     1      13.814  -8.237 -12.231  1.00  0.00    -0.368 OA
ATOM     12  H1  UNL     1      13.096  -7.898 -12.754  1.00  0.00     0.213 HD
ENDBRANCH  10  11
BRANCH  10  13
HETATM   13  O2  UNL     1      13.386 -10.356 -11.610  1.00  0.00    -0.368 OA
ATOM     14  H2  UNL     1      12.941 -10.407 -12.449  1.00  0.00     0.213 HD
ENDBRANCH  10  13
ENDBRANCH   8  10
BRANCH   9  15
HETATM   15  O3  UNL     1      16.076 -10.461  -7.721  1.00  0.00    -0.379 OA
HETATM   16  C14 UNL     1      16.913 -10.131  -8.737  1.00  0.00     0.203 C 
ENDBRANCH   9  15
BRANCH   1  17
HETATM   17  C2  UNL     1      16.096  -8.101  -6.352  1.00  0.00    -0.086 C 
HETATM   18  C1  UNL     1      16.644  -8.537  -5.235  1.00  0.00     0.014 C 
HETATM   19  C3  UNL     1      16.881  -7.087  -7.100  1.00  0.00     0.043 C 
ENDBRANCH   1  17
TORSDOF 5
ENDMDL
MODEL 3
REMARK VINA RESULT: -4.091805963      2.779      4.410
REMARK  5 active torsions:
REMARK  status: ('A' for Active; 'I' for Inactive)
REMARK    1  A    between atoms: C2_2  and  C4_4 
REMARK    2  A    between atoms: C11_11  and  C12_12 
REMARK    3  A    between atoms: C12_12  and  O1_13 
REMARK    4  A    between atoms: C12_12  and  O2_15 
REMARK    5  A    between atoms: C13_17  and  O3_18 
ROOT
HETATM    1  C4  UNL     1      17.260  -2.152 -16.459  1.00  0.00     0.053 C 
HETATM    2  C5  UNL     1      16.431  -1.964 -17.703  1.00  0.00     0.013 C 
HETATM    3  C6  UNL     1      15.032  -1.887 -17.066  1.00  0.00     0.013 C 
HETATM    4  C7  UNL     1      15.324  -0.779 -16.053  1.00  0.00    -0.004 C 
HETATM    5  C8  UNL     1      15.214   0.558 -16.669  1.00  0.00     0.019 C 
HETATM    6  C9  UNL     1      14.672  -1.020 -14.712  1.00  0.00     0.049 C 
HETATM    7  C10 UNL     1      15.923  -1.779 -14.356  1.00  0.00    -0.043 C 
HETATM    8  C11 UNL     1      16.206  -2.642 -13.418  1.00  0.00     0.038 C 
HETATM    9  C13 UNL     1      16.691  -1.165 -15.476  1.00  0.00     0.098 C 
ENDROOT
BRANCH   8  10
HETATM   10  C12 UNL     1      15.208  -3.079 -12.409  1.00  0.00     0.278 C 
BRANCH  10  11
HETATM   11  O1  UNL     1      14.228  -3.906 -12.944  1.00  0.00    -0.368 OA
ATOM     12  H1  UNL     1      14.578  -4.727 -13.272  1.00  0.00     0.213 HD
ENDBRANCH  10  11
BRANCH  10  13
HETATM   13  O2  UNL     1      15.863  -3.800 -11.402  1.00  0.00    -0.368 OA
ATOM     14  H2  UNL     1      16.112  -4.652 -11.742  1.00  0.00     0.213 HD
ENDBRANCH  10  13
ENDBRANCH   8  10
BRANCH   9  15
HETATM   15  O3  UNL     1      17.515  -0.143 -15.106  1.00  0.00    -0.379 OA
HETATM   16  C14 UNL     1      18.200  -0.255 -13.940  1.00  0.00     0.203 C 
ENDBRANCH   9  15
BRANCH   1  17
HETATM   17  C2  UNL     1      18.693  -2.038 -16.676  1.00  0.00    -0.086 C 
HETATM   18  C1  UNL     1      19.161  -1.236 -17.612  1.00  0.00     0.014 C 
HETATM   19  C3  UNL     1      19.715  -2.782 -15.898  1.00  0.00     0.043 C 
ENDBRANCH   1  17
TORSDOF 5
ENDMDL
MODEL 4
REMARK VINA RESULT: -4.004571580      7.604      9.620
REMARK  5 active torsions:
REMARK  status: ('A' for Active; 'I' for Inactive)
REMARK    1  A    between atoms: C2_2  and  C4_4 
REMARK    2  A    between atoms: C11_11  and  C12_12 
REMARK    3  A    between atoms: C12_12  and  O1_13 
REMARK    4  A    between atoms: C12_12  and  O2_15 
REMARK    5  A    between atoms: C13_17  and  O3_18 
ROOT
HETATM    1  C4  UNL     1      16.906  -7.256  -7.463  1.00  0.00     0.053 C 
HETATM    2  C5  UNL     1      16.411  -8.282  -8.449  1.00  0.00     0.013 C 
HETATM    3  C6  UNL     1      16.066  -9.424  -7.475  1.00  0.00     0.013 C 
HETATM    4  C7  UNL     1      15.160  -8.629  -6.534  1.00  0.00    -0.004 C 
HETATM    5  C8  UNL     1      13.782  -8.541  -7.059  1.00  0.00     0.019 C 
HETATM    6  C9  UNL     1      15.365  -8.981  -5.080  1.00  0.00     0.049 C 
HETATM    7  C10 UNL     1      16.428  -7.915  -5.079  1.00  0.00    -0.043 C 
HETATM    8  C11 UNL     1      17.418  -7.645  -4.272  1.00  0.00     0.038 C 
HETATM    9  C13 UNL     1      15.910  -7.307  -6.337  1.00  0.00     0.098 C 
ENDROOT
BRANCH   8  10
HETATM   10  C12 UNL     1      17.700  -8.450  -3.057  1.00  0.00     0.278 C 
BRANCH  10  11
HETATM   11  O1  UNL     1      19.052  -8.497  -2.744  1.00  0.00    -0.368 OA
ATOM     12  H1  UNL     1      19.221  -8.360  -1.819  1.00  0.00     0.213 HD
ENDBRANCH  10  11
BRANCH  10  13
HETATM   13  O2  UNL     1      17.035  -7.877  -1.964  1.00  0.00    -0.368 OA
ATOM     14  H2  UNL     1      16.348  -7.305  -2.284  1.00  0.00     0.213 HD
ENDBRANCH  10  13
ENDBRANCH   8  10
BRANCH   9  15
HETATM   15  O3  UNL     1      15.152  -6.187  -6.156  1.00  0.00    -0.379 OA
HETATM   16  C14 UNL     1      15.701  -5.133  -5.502  1.00  0.00     0.203 C 
ENDBRANCH   9  15
BRANCH   1  17
HETATM   17  C2  UNL     1      17.115  -5.935  -8.034  1.00  0.00    -0.086 C 
HETATM   18  C1  UNL     1      16.358  -5.516  -9.029  1.00  0.00     0.014 C 
HETATM   19  C3  UNL     1      18.152  -4.981  -7.569  1.00  0.00     0.043 C 
ENDBRANCH   1  17
TORSDOF 5
ENDMDL
MODEL 5
REMARK VINA RESULT: -4.004514295      1.717      2.996
REMARK  5 active torsions:
REMARK  status: ('A' for Active; 'I' for Inactive)
REMARK    1  A    between atoms: C2_2  and  C4_4 
REMARK    2  A    between atoms: C11_11  and  C12_12 
REMARK    3  A    between atoms: C12_12  and  O1_13 
REMARK    4  A    between atoms: C12_12  and  O2_15 
REMARK    5  A    between atoms: C13_17  and  O3_18 
ROOT
HETATM    1  C4  UNL     1      18.771  -3.045 -15.696  1.00  0.00     0.053 C 
HETATM    2  C5  UNL     1      18.831  -2.638 -17.145  1.00  0.00     0.013 C 
HETATM    3  C6  UNL     1      17.471  -1.927 -17.265  1.00  0.00     0.013 C 
HETATM    4  C7  UNL     1      17.638  -0.959 -16.092  1.00  0.00    -0.004 C 
HETATM    5  C8  UNL     1      18.401   0.242 -16.489  1.00  0.00     0.019 C 
HETATM    6  C9  UNL     1      16.372  -0.785 -15.286  1.00  0.00     0.049 C 
HETATM    7  C10 UNL     1      16.849  -1.963 -14.479  1.00  0.00    -0.043 C 
HETATM    8  C11 UNL     1      16.249  -2.779 -13.654  1.00  0.00     0.038 C 
HETATM    9  C13 UNL     1      18.243  -1.829 -14.986  1.00  0.00     0.098 C 
ENDROOT
BRANCH   8  10
HETATM   10  C12 UNL     1      14.805  -2.667 -13.330  1.00  0.00     0.278 C 
BRANCH  10  11
HETATM   11  O1  UNL     1      14.243  -3.880 -12.951  1.00  0.00    -0.368 OA
ATOM     12  H1  UNL     1      13.928  -4.388 -13.690  1.00  0.00     0.213 HD
ENDBRANCH  10  11
BRANCH  10  13
HETATM   13  O2  UNL     1      14.644  -1.777 -12.260  1.00  0.00    -0.368 OA
ATOM     14  H2  UNL     1      14.537  -0.897 -12.601  1.00  0.00     0.213 HD
ENDBRANCH  10  13
ENDBRANCH   8  10
BRANCH   9  15
HETATM   15  O3  UNL     1      19.104  -1.217 -14.121  1.00  0.00    -0.379 OA
HETATM   16  C14 UNL     1      18.940  -1.425 -12.791  1.00  0.00     0.203 C 
ENDBRANCH   9  15
BRANCH   1  17
HETATM   17  C2  UNL     1      20.025  -3.562 -15.170  1.00  0.00    -0.086 C 
HETATM   18  C1  UNL     1      20.022  -4.552 -14.301  1.00  0.00     0.014 C 
HETATM   19  C3  UNL     1      21.363  -3.043 -15.549  1.00  0.00     0.043 C 
ENDBRANCH   1  17
TORSDOF 5
ENDMDL
