MODEL 1
REMARK VINA RESULT: -6.648102971      0.000      0.000
REMARK  0 active torsions:
REMARK  status: ('A' for Active; 'I' for Inactive)
ROOT
HETATM    1  C1  UNL     1      -5.498   4.503 -27.359  1.00  0.00     0.000 C 
HETATM    2  C2  UNL     1      -6.802   3.951 -27.809  1.00  0.00     0.000 C 
HETATM    3  C3  UNL     1      -7.022   4.010 -29.331  1.00  0.00     0.005 C 
HETATM    4  C4  UNL     1      -6.740   5.398 -29.702  1.00  0.00    -0.010 A 
HETATM    5  C5  UNL     1      -5.867   6.021 -30.616  1.00  0.00     0.010 A 
HETATM    6  C6  UNL     1      -5.182   5.459 -29.519  1.00  0.00    -0.010 A 
HETATM    7  C7  UNL     1      -5.073   5.785 -28.097  1.00  0.00     0.005 C 
ENDROOT
TORSDOF 0
ENDMDL
MODEL 2
REMARK VINA RESULT: -6.635183773      0.024      1.938
REMARK  0 active torsions:
REMARK  status: ('A' for Active; 'I' for Inactive)
ROOT
HETATM    1  C1  UNL     1      -6.814   3.957 -27.823  1.00  0.00     0.000 C 
HETATM    2  C2  UNL     1      -5.517   4.519 -27.365  1.00  0.00     0.000 C 
HETATM    3  C3  UNL     1      -5.082   5.793 -28.111  1.00  0.00     0.005 C 
HETATM    4  C4  UNL     1      -5.179   5.453 -29.532  1.00  0.00    -0.010 A 
HETATM    5  C5  UNL     1      -5.855   6.006 -30.638  1.00  0.00     0.010 A 
HETATM    6  C6  UNL     1      -6.735   5.384 -29.731  1.00  0.00    -0.010 A 
HETATM    7  C7  UNL     1      -7.010   3.998 -29.349  1.00  0.00     0.005 C 
ENDROOT
TORSDOF 0
ENDMDL
MODEL 3
REMARK VINA RESULT: -6.587636154      0.950      2.627
REMARK  0 active torsions:
REMARK  status: ('A' for Active; 'I' for Inactive)
ROOT
HETATM    1  C1  UNL     1      -7.175   3.925 -30.068  1.00  0.00     0.000 C 
HETATM    2  C2  UNL     1      -6.411   4.801 -30.993  1.00  0.00     0.000 C 
HETATM    3  C3  UNL     1      -5.102   5.356 -30.403  1.00  0.00     0.005 C 
HETATM    4  C4  UNL     1      -5.485   5.943 -29.118  1.00  0.00    -0.010 A 
HETATM    5  C5  UNL     1      -5.066   5.765 -27.784  1.00  0.00     0.010 A 
HETATM    6  C6  UNL     1      -5.795   4.660 -28.268  1.00  0.00    -0.010 A 
HETATM    7  C7  UNL     1      -7.198   4.423 -28.612  1.00  0.00     0.005 C 
ENDROOT
TORSDOF 0
ENDMDL
MODEL 4
REMARK VINA RESULT: -6.565782560      0.941      2.347
REMARK  0 active torsions:
REMARK  status: ('A' for Active; 'I' for Inactive)
ROOT
HETATM    1  C1  UNL     1      -6.491   4.835 -31.026  1.00  0.00     0.000 C 
HETATM    2  C2  UNL     1      -7.204   3.932 -30.086  1.00  0.00     0.000 C 
HETATM    3  C3  UNL     1      -7.189   4.404 -28.622  1.00  0.00     0.005 C 
HETATM    4  C4  UNL     1      -5.780   4.672 -28.324  1.00  0.00    -0.010 A 
HETATM    5  C5  UNL     1      -5.064   5.788 -27.847  1.00  0.00     0.010 A 
HETATM    6  C6  UNL     1      -5.525   5.971 -29.166  1.00  0.00    -0.010 A 
HETATM    7  C7  UNL     1      -5.174   5.404 -30.469  1.00  0.00     0.005 C 
ENDROOT
TORSDOF 0
ENDMDL
MODEL 5
REMARK VINA RESULT: -6.427176422      1.134      2.245
REMARK  0 active torsions:
REMARK  status: ('A' for Active; 'I' for Inactive)
ROOT
HETATM    1  C1  UNL     1      -6.374   4.652 -28.008  1.00  0.00     0.000 C 
HETATM    2  C2  UNL     1      -5.224   5.348 -28.640  1.00  0.00     0.000 C 
HETATM    3  C3  UNL     1      -5.515   5.899 -30.047  1.00  0.00     0.005 C 
HETATM    4  C4  UNL     1      -6.080   4.770 -30.788  1.00  0.00    -0.010 A 
HETATM    5  C5  UNL     1      -7.274   4.553 -31.505  1.00  0.00     0.010 A 
HETATM    6  C6  UNL     1      -7.490   4.627 -30.114  1.00  0.00    -0.010 A 
HETATM    7  C7  UNL     1      -7.177   3.763 -28.975  1.00  0.00     0.005 C 
ENDROOT
TORSDOF 0
ENDMDL
