MODEL 1
REMARK VINA RESULT: -9.958018150      0.000      0.000
REMARK  2 active torsions:
REMARK  status: ('A' for Active; 'I' for Inactive)
REMARK    1  A    between atoms: C8_9  and  N1_10 
REMARK    2  A    between atoms: N1_10  and  C9_12 
ROOT
HETATM    1  C9  UNL     1     -13.288  46.504 -38.493  1.00  0.00     0.244 C 
HETATM    2  C10 UNL     1     -12.600  46.366 -39.754  1.00  0.00     0.078 C 
HETATM    3  N2  UNL     1     -12.062  46.243 -40.771  1.00  0.00    -0.196 NA
ENDROOT
BRANCH   1   4
HETATM    4  N1  UNL     1     -13.707  47.884 -38.242  1.00  0.00    -0.377 N 
ATOM      5  H1  UNL     1     -14.691  48.088 -38.066  1.00  0.00     0.160 HD
BRANCH   4   6
HETATM    6  C8  UNL     1     -12.771  48.929 -38.243  1.00  0.00     0.038 A 
HETATM    7  C7  UNL     1     -12.824  49.978 -39.124  1.00  0.00     0.015 A 
HETATM    8  C6  UNL     1     -13.925  50.122 -40.062  1.00  0.00     0.141 C 
HETATM    9  C14 UNL     1     -11.776  50.900 -39.036  1.00  0.00    -0.038 A 
HETATM   10  C2  UNL     1     -13.879  51.380 -40.887  1.00  0.00     0.002 C 
HETATM   11  C5  UNL     1     -15.308  50.151 -39.469  1.00  0.00     0.050 C 
HETATM   12  F1  UNL     1     -13.863  49.072 -40.994  1.00  0.00    -0.237 F 
HETATM   13  C1  UNL     1     -14.546  51.110 -42.218  1.00  0.00     0.019 C 
HETATM   14  C3  UNL     1     -14.788  52.312 -40.110  1.00  0.00     0.013 C 
HETATM   15  C19 UNL     1     -12.534  51.941 -41.144  1.00  0.00     0.013 C 
HETATM   16  C4  UNL     1     -16.003  51.410 -40.014  1.00  0.00     0.004 C 
HETATM   17  C15 UNL     1     -11.667  52.048 -39.932  1.00  0.00     0.046 C 
HETATM   18  C18 UNL     1     -12.630  53.383 -41.597  1.00  0.00     0.033 C 
HETATM   19  C16 UNL     1     -12.003  53.354 -39.360  1.00  0.00    -0.021 C 
HETATM   20  C17 UNL     1     -12.552  54.117 -40.303  1.00  0.00    -0.029 C 
HETATM   21  C13 UNL     1     -10.746  50.759 -38.103  1.00  0.00     0.009 A 
HETATM   22  C12 UNL     1     -10.720  49.717 -37.244  1.00  0.00     0.003 A 
HETATM   23  C11 UNL     1     -11.732  48.797 -37.311  1.00  0.00     0.030 A 
ENDBRANCH   4   6
ENDBRANCH   1   4
TORSDOF 2
ENDMDL
MODEL 2
REMARK VINA RESULT: -9.372432358      2.365      4.956
REMARK  2 active torsions:
REMARK  status: ('A' for Active; 'I' for Inactive)
REMARK    1  A    between atoms: C8_9  and  N1_10 
REMARK    2  A    between atoms: N1_10  and  C9_12 
ROOT
HETATM    1  C9  UNL     1     -11.981  53.267 -39.404  1.00  0.00     0.244 C 
HETATM    2  C10 UNL     1     -11.959  54.237 -40.473  1.00  0.00     0.078 C 
HETATM    3  N2  UNL     1     -11.928  55.025 -41.320  1.00  0.00    -0.196 NA
ENDROOT
BRANCH   1   4
HETATM    4  N1  UNL     1     -11.603  51.930 -39.866  1.00  0.00    -0.377 N 
ATOM      5  H1  UNL     1     -11.389  51.779 -40.852  1.00  0.00     0.160 HD
BRANCH   4   6
HETATM    6  C8  UNL     1     -11.531  50.855 -38.968  1.00  0.00     0.038 A 
HETATM    7  C7  UNL     1     -12.524  49.919 -38.845  1.00  0.00     0.015 A 
HETATM    8  C6  UNL     1     -13.686  49.930 -39.719  1.00  0.00     0.141 C 
HETATM    9  C14 UNL     1     -12.328  48.950 -37.855  1.00  0.00    -0.038 A 
HETATM   10  C2  UNL     1     -14.629  48.775 -39.515  1.00  0.00     0.002 C 
HETATM   11  C5  UNL     1     -13.409  49.889 -41.198  1.00  0.00     0.050 C 
HETATM   12  F1  UNL     1     -14.447  51.077 -39.441  1.00  0.00    -0.237 F 
HETATM   13  C1  UNL     1     -16.028  49.224 -39.874  1.00  0.00     0.019 C 
HETATM   14  C3  UNL     1     -14.184  47.797 -40.584  1.00  0.00     0.013 C 
HETATM   15  C19 UNL     1     -14.660  48.192 -38.155  1.00  0.00     0.013 C 
HETATM   16  C4  UNL     1     -14.239  48.731 -41.777  1.00  0.00     0.004 C 
HETATM   17  C15 UNL     1     -13.313  47.910 -37.573  1.00  0.00     0.046 C 
HETATM   18  C18 UNL     1     -15.296  46.818 -38.172  1.00  0.00     0.033 C 
HETATM   19  C16 UNL     1     -12.991  46.562 -38.044  1.00  0.00    -0.021 C 
HETATM   20  C17 UNL     1     -14.115  45.936 -38.387  1.00  0.00    -0.029 C 
HETATM   21  C13 UNL     1     -11.187  48.940 -37.049  1.00  0.00     0.009 A 
HETATM   22  C12 UNL     1     -10.222  49.873 -37.194  1.00  0.00     0.003 A 
HETATM   23  C11 UNL     1     -10.390  50.836 -38.153  1.00  0.00     0.030 A 
ENDBRANCH   4   6
ENDBRANCH   1   4
TORSDOF 2
ENDMDL
MODEL 3
REMARK VINA RESULT: -9.260164832      2.145      4.766
REMARK  2 active torsions:
REMARK  status: ('A' for Active; 'I' for Inactive)
REMARK    1  A    between atoms: C8_9  and  N1_10 
REMARK    2  A    between atoms: N1_10  and  C9_12 
ROOT
HETATM    1  C9  UNL     1     -15.917  50.878 -41.996  1.00  0.00     0.244 C 
HETATM    2  C10 UNL     1     -16.734  50.367 -43.070  1.00  0.00     0.078 C 
HETATM    3  N2  UNL     1     -17.393  49.976 -43.937  1.00  0.00    -0.196 NA
ENDROOT
BRANCH   1   4
HETATM    4  N1  UNL     1     -14.534  50.406 -42.083  1.00  0.00    -0.377 N 
ATOM      5  H1  UNL     1     -14.287  49.694 -42.771  1.00  0.00     0.160 HD
BRANCH   4   6
HETATM    6  C8  UNL     1     -13.545  50.921 -41.232  1.00  0.00     0.038 A 
HETATM    7  C7  UNL     1     -13.088  50.252 -40.127  1.00  0.00     0.015 A 
HETATM    8  C6  UNL     1     -13.540  48.904 -39.820  1.00  0.00     0.141 C 
HETATM    9  C14 UNL     1     -12.150  50.934 -39.347  1.00  0.00    -0.038 A 
HETATM   10  C2  UNL     1     -12.865  48.278 -38.630  1.00  0.00     0.002 C 
HETATM   11  C5  UNL     1     -13.351  47.874 -40.902  1.00  0.00     0.050 C 
HETATM   12  F1  UNL     1     -14.903  48.952 -39.485  1.00  0.00    -0.237 F 
HETATM   13  C1  UNL     1     -13.827  47.304 -37.986  1.00  0.00     0.019 C 
HETATM   14  C3  UNL     1     -11.762  47.461 -39.272  1.00  0.00     0.013 C 
HETATM   15  C19 UNL     1     -12.381  49.213 -37.590  1.00  0.00     0.013 C 
HETATM   16  C4  UNL     1     -12.606  46.688 -40.266  1.00  0.00     0.004 C 
HETATM   17  C15 UNL     1     -11.599  50.372 -38.116  1.00  0.00     0.046 C 
HETATM   18  C18 UNL     1     -11.376  48.535 -36.682  1.00  0.00     0.033 C 
HETATM   19  C16 UNL     1     -10.223  49.879 -38.184  1.00  0.00    -0.021 C 
HETATM   20  C17 UNL     1     -10.090  48.834 -37.371  1.00  0.00    -0.029 C 
HETATM   21  C13 UNL     1     -11.706  52.216 -39.680  1.00  0.00     0.009 A 
HETATM   22  C12 UNL     1     -12.171  52.852 -40.776  1.00  0.00     0.003 A 
HETATM   23  C11 UNL     1     -13.093  52.209 -41.557  1.00  0.00     0.030 A 
ENDBRANCH   4   6
ENDBRANCH   1   4
TORSDOF 2
ENDMDL
MODEL 4
REMARK VINA RESULT: -8.615379173      2.374      4.988
REMARK  2 active torsions:
REMARK  status: ('A' for Active; 'I' for Inactive)
REMARK    1  A    between atoms: C8_9  and  N1_10 
REMARK    2  A    between atoms: N1_10  and  C9_12 
ROOT
HETATM    1  C9  UNL     1     -11.989  53.464 -39.354  1.00  0.00     0.244 C 
HETATM    2  C10 UNL     1     -11.937  54.315 -40.519  1.00  0.00     0.078 C 
HETATM    3  N2  UNL     1     -11.876  54.997 -41.452  1.00  0.00    -0.196 NA
ENDROOT
BRANCH   1   4
HETATM    4  N1  UNL     1     -12.638  52.183 -39.636  1.00  0.00    -0.377 N 
ATOM      5  H1  UNL     1     -13.497  52.163 -40.185  1.00  0.00     0.160 HD
BRANCH   4   6
HETATM    6  C8  UNL     1     -12.092  50.982 -39.158  1.00  0.00     0.038 A 
HETATM    7  C7  UNL     1     -12.706  49.768 -39.317  1.00  0.00     0.015 A 
HETATM    8  C6  UNL     1     -13.933  49.637 -40.086  1.00  0.00     0.141 C 
HETATM    9  C14 UNL     1     -12.063  48.678 -38.723  1.00  0.00    -0.038 A 
HETATM   10  C2  UNL     1     -14.420  48.221 -40.245  1.00  0.00     0.002 C 
HETATM   11  C5  UNL     1     -13.892  50.146 -41.502  1.00  0.00     0.050 C 
HETATM   12  F1  UNL     1     -14.965  50.303 -39.404  1.00  0.00    -0.237 F 
HETATM   13  C1  UNL     1     -15.927  48.239 -40.371  1.00  0.00     0.019 C 
HETATM   14  C3  UNL     1     -13.861  47.835 -41.600  1.00  0.00     0.013 C 
HETATM   15  C19 UNL     1     -14.053  47.282 -39.163  1.00  0.00     0.013 C 
HETATM   16  C4  UNL     1     -14.393  49.005 -42.403  1.00  0.00     0.004 C 
HETATM   17  C15 UNL     1     -12.612  47.325 -38.768  1.00  0.00     0.046 C 
HETATM   18  C18 UNL     1     -14.216  45.846 -39.617  1.00  0.00     0.033 C 
HETATM   19  C16 UNL     1     -11.958  46.386 -39.681  1.00  0.00    -0.021 C 
HETATM   20  C17 UNL     1     -12.866  45.543 -40.167  1.00  0.00    -0.029 C 
HETATM   21  C13 UNL     1     -10.866  48.823 -38.017  1.00  0.00     0.009 A 
HETATM   22  C12 UNL     1     -10.280  50.032 -37.878  1.00  0.00     0.003 A 
HETATM   23  C11 UNL     1     -10.890  51.117 -38.447  1.00  0.00     0.030 A 
ENDBRANCH   4   6
ENDBRANCH   1   4
TORSDOF 2
ENDMDL
MODEL 5
REMARK VINA RESULT: -8.612712314      2.074      3.849
REMARK  2 active torsions:
REMARK  status: ('A' for Active; 'I' for Inactive)
REMARK    1  A    between atoms: C8_9  and  N1_10 
REMARK    2  A    between atoms: N1_10  and  C9_12 
ROOT
HETATM    1  C9  UNL     1     -10.367  49.047 -36.853  1.00  0.00     0.244 C 
HETATM    2  C10 UNL     1      -9.138  49.757 -36.586  1.00  0.00     0.078 C 
HETATM    3  N2  UNL     1      -8.144  50.308 -36.370  1.00  0.00    -0.196 NA
ENDROOT
BRANCH   1   4
HETATM    4  N1  UNL     1     -10.907  49.361 -38.177  1.00  0.00    -0.377 N 
ATOM      5  H1  UNL     1     -10.285  49.710 -38.906  1.00  0.00     0.160 HD
BRANCH   4   6
HETATM    6  C8  UNL     1     -12.271  49.186 -38.454  1.00  0.00     0.038 A 
HETATM    7  C7  UNL     1     -13.014  50.103 -39.151  1.00  0.00     0.015 A 
HETATM    8  C6  UNL     1     -12.401  51.284 -39.737  1.00  0.00     0.141 C 
HETATM    9  C14 UNL     1     -14.375  49.809 -39.282  1.00  0.00    -0.038 A 
HETATM   10  C2  UNL     1     -13.340  52.133 -40.552  1.00  0.00     0.002 C 
HETATM   11  C5  UNL     1     -11.252  51.043 -40.679  1.00  0.00     0.050 C 
HETATM   12  F1  UNL     1     -11.958  52.122 -38.700  1.00  0.00    -0.237 F 
HETATM   13  C1  UNL     1     -12.873  53.570 -40.485  1.00  0.00     0.019 C 
HETATM   14  C3  UNL     1     -13.080  51.642 -41.963  1.00  0.00     0.013 C 
HETATM   15  C19 UNL     1     -14.766  52.085 -40.161  1.00  0.00     0.013 C 
HETATM   16  C4  UNL     1     -11.572  51.797 -41.979  1.00  0.00     0.004 C 
HETATM   17  C15 UNL     1     -15.307  50.707 -39.961  1.00  0.00     0.046 C 
HETATM   18  C18 UNL     1     -15.647  52.616 -41.273  1.00  0.00     0.033 C 
HETATM   19  C16 UNL     1     -15.753  50.296 -41.294  1.00  0.00    -0.021 C 
HETATM   20  C17 UNL     1     -15.947  51.378 -42.044  1.00  0.00    -0.029 C 
HETATM   21  C13 UNL     1     -14.936  48.651 -38.740  1.00  0.00     0.009 A 
HETATM   22  C12 UNL     1     -14.180  47.763 -38.059  1.00  0.00     0.003 A 
HETATM   23  C11 UNL     1     -12.844  48.026 -37.912  1.00  0.00     0.030 A 
ENDBRANCH   4   6
ENDBRANCH   1   4
TORSDOF 2
ENDMDL
