MODEL 1
REMARK VINA RESULT: -8.877581005      0.000      0.000
REMARK  5 active torsions:
REMARK  status: ('A' for Active; 'I' for Inactive)
REMARK       I    between atoms: C1_2  and  N1_3 
REMARK    1  A    between atoms: C1_2  and  C18_23 
REMARK    2  A    between atoms: N1_3  and  C2_5 
REMARK    3  A    between atoms: C2_5  and  C3_6 
REMARK    4  A    between atoms: C3_6  and  C4_7 
REMARK       I    between atoms: N2_13  and  C10_14 
REMARK    5  A    between atoms: C10_14  and  C11_16 
ROOT
HETATM    1  C4  UNL     1     -10.703  19.140   5.314  1.00  0.00     0.012 C 
HETATM    2  C5  UNL     1     -10.713  18.671   6.757  1.00  0.00     0.032 C 
HETATM    3  C6  UNL     1      -9.478  19.302   7.383  1.00  0.00     0.088 C 
HETATM    4  C7  UNL     1      -9.850  20.746   7.651  1.00  0.00     0.027 C 
HETATM    5  C8  UNL     1      -9.926  21.315   6.236  1.00  0.00     0.028 C 
HETATM    6  C9  UNL     1      -9.574  20.145   5.324  1.00  0.00     0.091 C 
HETATM    7  N2  UNL     1      -8.659  19.459   6.209  1.00  0.00    -0.342 N 
HETATM    8  C10 UNL     1      -7.345  19.048   6.001  1.00  0.00     0.225 C 
HETATM    9  O2  UNL     1      -6.801  19.294   4.866  1.00  0.00    -0.273 OA
ENDROOT
BRANCH   1  10
HETATM   10  C3  UNL     1     -12.020  19.695   4.880  1.00  0.00     0.026 C 
BRANCH  10  11
HETATM   11  C2  UNL     1     -13.188  18.894   5.407  1.00  0.00     0.123 C 
BRANCH  11  12
HETATM   12  N1  UNL     1     -12.741  17.517   5.615  1.00  0.00    -0.361 N 
HETATM   13  C1  UNL     1     -13.646  16.432   5.614  1.00  0.00     0.221 C 
HETATM   14  O1  UNL     1     -14.869  16.619   5.437  1.00  0.00    -0.273 OA
ATOM     15  H1  UNL     1     -11.749  17.335   5.763  1.00  0.00     0.162 HD
BRANCH  13  16
HETATM   16  C18 UNL     1     -13.145  15.060   5.829  1.00  0.00     0.078 C 
HETATM   17  C19 UNL     1     -12.537  14.802   7.181  1.00  0.00     0.014 C 
HETATM   18  C20 UNL     1     -11.418  14.052   6.474  1.00  0.00     0.002 C 
HETATM   19  C21 UNL     1     -11.739  14.899   5.239  1.00  0.00     0.014 C 
ENDBRANCH  13  16
ENDBRANCH  11  12
ENDBRANCH  10  11
ENDBRANCH   1  10
BRANCH   8  20
HETATM   20  C11 UNL     1      -6.527  18.347   6.998  1.00  0.00     0.082 C 
HETATM   21  C12 UNL     1      -5.043  18.331   6.669  1.00  0.00     0.019 C 
HETATM   22  C13 UNL     1      -4.665  16.880   6.467  1.00  0.00    -0.013 C 
HETATM   23  C14 UNL     1      -4.641  16.204   7.794  1.00  0.00     0.005 C 
HETATM   24  C17 UNL     1      -5.999  16.352   5.904  1.00  0.00     0.010 C 
HETATM   25  C15 UNL     1      -6.098  16.304   8.240  1.00  0.00     0.006 C 
HETATM   26  C16 UNL     1      -6.855  16.885   7.066  1.00  0.00    -0.001 C 
ENDBRANCH   8  20
TORSDOF 5
ENDMDL
MODEL 2
REMARK VINA RESULT: -8.641324795      3.389      5.585
REMARK  5 active torsions:
REMARK  status: ('A' for Active; 'I' for Inactive)
REMARK       I    between atoms: C1_2  and  N1_3 
REMARK    1  A    between atoms: C1_2  and  C18_23 
REMARK    2  A    between atoms: N1_3  and  C2_5 
REMARK    3  A    between atoms: C2_5  and  C3_6 
REMARK    4  A    between atoms: C3_6  and  C4_7 
REMARK       I    between atoms: N2_13  and  C10_14 
REMARK    5  A    between atoms: C10_14  and  C11_16 
ROOT
HETATM    1  C4  UNL     1      -6.173  16.525   6.019  1.00  0.00     0.012 C 
HETATM    2  C5  UNL     1      -6.871  15.715   7.095  1.00  0.00     0.032 C 
HETATM    3  C6  UNL     1      -5.747  15.149   7.952  1.00  0.00     0.088 C 
HETATM    4  C7  UNL     1      -5.296  16.292   8.838  1.00  0.00     0.027 C 
HETATM    5  C8  UNL     1      -4.616  17.217   7.831  1.00  0.00     0.028 C 
HETATM    6  C9  UNL     1      -4.738  16.497   6.493  1.00  0.00     0.091 C 
HETATM    7  N2  UNL     1      -4.681  15.137   6.983  1.00  0.00    -0.342 N 
HETATM    8  C10 UNL     1      -3.840  14.087   6.626  1.00  0.00     0.225 C 
HETATM    9  O2  UNL     1      -2.948  14.297   5.729  1.00  0.00    -0.273 OA
ENDROOT
BRANCH   1  10
HETATM   10  C3  UNL     1      -6.747  17.896   5.869  1.00  0.00     0.026 C 
BRANCH  10  11
HETATM   11  C2  UNL     1      -7.965  18.112   6.736  1.00  0.00     0.123 C 
BRANCH  11  12
HETATM   12  N1  UNL     1      -9.155  17.918   5.907  1.00  0.00    -0.361 N 
HETATM   13  C1  UNL     1     -10.334  18.670   6.109  1.00  0.00     0.221 C 
HETATM   14  O1  UNL     1     -10.396  19.532   7.013  1.00  0.00    -0.273 OA
ATOM     15  H1  UNL     1      -9.133  17.221   5.164  1.00  0.00     0.162 HD
BRANCH  13  16
HETATM   16  C18 UNL     1     -11.509  18.435   5.247  1.00  0.00     0.078 C 
HETATM   17  C19 UNL     1     -12.762  19.160   5.658  1.00  0.00     0.014 C 
HETATM   18  C20 UNL     1     -13.529  17.875   5.384  1.00  0.00     0.002 C 
HETATM   19  C21 UNL     1     -12.214  17.131   5.636  1.00  0.00     0.014 C 
ENDBRANCH  13  16
ENDBRANCH  11  12
ENDBRANCH  10  11
ENDBRANCH   1  10
BRANCH   8  20
HETATM   20  C11 UNL     1      -3.900  12.741   7.208  1.00  0.00     0.082 C 
HETATM   21  C12 UNL     1      -3.761  12.723   8.722  1.00  0.00     0.019 C 
HETATM   22  C13 UNL     1      -2.489  11.962   9.026  1.00  0.00    -0.013 C 
HETATM   23  C14 UNL     1      -2.729  10.513   8.773  1.00  0.00     0.005 C 
HETATM   24  C17 UNL     1      -1.671  12.336   7.775  1.00  0.00     0.010 C 
HETATM   25  C15 UNL     1      -3.006  10.483   7.272  1.00  0.00     0.006 C 
HETATM   26  C16 UNL     1      -2.747  11.887   6.771  1.00  0.00    -0.001 C 
ENDBRANCH   8  20
TORSDOF 5
ENDMDL
MODEL 3
REMARK VINA RESULT: -8.439265263      3.358      7.500
REMARK  5 active torsions:
REMARK  status: ('A' for Active; 'I' for Inactive)
REMARK       I    between atoms: C1_2  and  N1_3 
REMARK    1  A    between atoms: C1_2  and  C18_23 
REMARK    2  A    between atoms: N1_3  and  C2_5 
REMARK    3  A    between atoms: C2_5  and  C3_6 
REMARK    4  A    between atoms: C3_6  and  C4_7 
REMARK       I    between atoms: N2_13  and  C10_14 
REMARK    5  A    between atoms: C10_14  and  C11_16 
ROOT
HETATM    1  C4  UNL     1      -5.683  16.049   5.559  1.00  0.00     0.012 C 
HETATM    2  C5  UNL     1      -4.912  17.109   6.324  1.00  0.00     0.032 C 
HETATM    3  C6  UNL     1      -5.833  17.514   7.467  1.00  0.00     0.088 C 
HETATM    4  C7  UNL     1      -5.712  16.410   8.498  1.00  0.00     0.027 C 
HETATM    5  C8  UNL     1      -6.417  15.251   7.797  1.00  0.00     0.028 C 
HETATM    6  C9  UNL     1      -6.875  15.823   6.460  1.00  0.00     0.091 C 
HETATM    7  N2  UNL     1      -7.108  17.186   6.885  1.00  0.00    -0.342 N 
HETATM    8  C10 UNL     1      -8.245  17.982   6.767  1.00  0.00     0.225 C 
HETATM    9  O2  UNL     1      -9.285  17.483   6.208  1.00  0.00    -0.273 OA
ENDROOT
BRANCH   1  10
HETATM   10  C3  UNL     1      -4.868  14.826   5.294  1.00  0.00     0.026 C 
BRANCH  10  11
HETATM   11  C2  UNL     1      -3.416  15.004   5.668  1.00  0.00     0.123 C 
BRANCH  11  12
HETATM   12  N1  UNL     1      -3.174  14.283   6.918  1.00  0.00    -0.361 N 
HETATM   13  C1  UNL     1      -2.960  12.887   6.943  1.00  0.00     0.221 C 
HETATM   14  O1  UNL     1      -2.973  12.219   5.885  1.00  0.00    -0.273 OA
ATOM     15  H1  UNL     1      -3.159  14.802   7.795  1.00  0.00     0.162 HD
BRANCH  13  16
HETATM   16  C18 UNL     1      -2.721  12.205   8.230  1.00  0.00     0.078 C 
HETATM   17  C19 UNL     1      -3.237  10.794   8.315  1.00  0.00     0.014 C 
HETATM   18  C20 UNL     1      -3.757  11.127   9.705  1.00  0.00     0.002 C 
HETATM   19  C21 UNL     1      -3.795  12.590   9.253  1.00  0.00     0.014 C 
ENDBRANCH  13  16
ENDBRANCH  11  12
ENDBRANCH  10  11
ENDBRANCH   1  10
BRANCH   8  20
HETATM   20  C11 UNL     1      -8.339  19.367   7.243  1.00  0.00     0.082 C 
HETATM   21  C12 UNL     1      -9.723  19.747   7.746  1.00  0.00     0.019 C 
HETATM   22  C13 UNL     1     -10.226  20.840   6.828  1.00  0.00    -0.013 C 
HETATM   23  C14 UNL     1      -9.488  22.097   7.135  1.00  0.00     0.005 C 
HETATM   24  C17 UNL     1      -9.527  20.411   5.524  1.00  0.00     0.010 C 
HETATM   25  C15 UNL     1      -8.052  21.731   6.767  1.00  0.00     0.006 C 
HETATM   26  C16 UNL     1      -8.118  20.357   6.139  1.00  0.00    -0.001 C 
ENDBRANCH   8  20
TORSDOF 5
ENDMDL
MODEL 4
REMARK VINA RESULT: -8.389253366      3.427      6.171
REMARK  5 active torsions:
REMARK  status: ('A' for Active; 'I' for Inactive)
REMARK       I    between atoms: C1_2  and  N1_3 
REMARK    1  A    between atoms: C1_2  and  C18_23 
REMARK    2  A    between atoms: N1_3  and  C2_5 
REMARK    3  A    between atoms: C2_5  and  C3_6 
REMARK    4  A    between atoms: C3_6  and  C4_7 
REMARK       I    between atoms: N2_13  and  C10_14 
REMARK    5  A    between atoms: C10_14  and  C11_16 
ROOT
HETATM    1  C4  UNL     1      -5.865  16.368   6.062  1.00  0.00     0.012 C 
HETATM    2  C5  UNL     1      -6.474  15.434   7.091  1.00  0.00     0.032 C 
HETATM    3  C6  UNL     1      -5.367  15.196   8.109  1.00  0.00     0.088 C 
HETATM    4  C7  UNL     1      -5.338  16.439   8.975  1.00  0.00     0.027 C 
HETATM    5  C8  UNL     1      -4.784  17.481   8.006  1.00  0.00     0.028 C 
HETATM    6  C9  UNL     1      -4.544  16.719   6.707  1.00  0.00     0.091 C 
HETATM    7  N2  UNL     1      -4.215  15.432   7.279  1.00  0.00    -0.342 N 
HETATM    8  C10 UNL     1      -3.097  14.623   7.088  1.00  0.00     0.225 C 
HETATM    9  O2  UNL     1      -2.176  15.031   6.296  1.00  0.00    -0.273 OA
ENDROOT
BRANCH   1  10
HETATM   10  C3  UNL     1      -6.738  17.543   5.764  1.00  0.00     0.026 C 
BRANCH  10  11
HETATM   11  C2  UNL     1      -8.041  17.505   6.528  1.00  0.00     0.123 C 
BRANCH  11  12
HETATM   12  N1  UNL     1      -8.426  18.881   6.843  1.00  0.00    -0.361 N 
HETATM   13  C1  UNL     1      -9.779  19.288   6.872  1.00  0.00     0.221 C 
HETATM   14  O1  UNL     1     -10.696  18.475   6.625  1.00  0.00    -0.273 OA
ATOM     15  H1  UNL     1      -7.698  19.565   7.046  1.00  0.00     0.162 HD
BRANCH  13  16
HETATM   16  C18 UNL     1     -10.116  20.688   7.194  1.00  0.00     0.078 C 
HETATM   17  C19 UNL     1     -10.310  21.591   6.006  1.00  0.00     0.014 C 
HETATM   18  C20 UNL     1      -9.497  22.645   6.743  1.00  0.00     0.002 C 
HETATM   19  C21 UNL     1      -8.849  21.490   7.513  1.00  0.00     0.014 C 
ENDBRANCH  13  16
ENDBRANCH  11  12
ENDBRANCH  10  11
ENDBRANCH   1  10
BRANCH   8  20
HETATM   20  C11 UNL     1      -2.896  13.321   7.736  1.00  0.00     0.082 C 
HETATM   21  C12 UNL     1      -1.518  12.725   7.494  1.00  0.00     0.019 C 
HETATM   22  C13 UNL     1      -1.737  11.442   6.722  1.00  0.00    -0.013 C 
HETATM   23  C14 UNL     1      -2.300  10.419   7.647  1.00  0.00     0.005 C 
HETATM   24  C17 UNL     1      -3.001  11.839   5.935  1.00  0.00     0.010 C 
HETATM   25  C15 UNL     1      -3.645  11.030   8.031  1.00  0.00     0.006 C 
HETATM   26  C16 UNL     1      -3.803  12.267   7.176  1.00  0.00    -0.001 C 
ENDBRANCH   8  20
TORSDOF 5
ENDMDL
MODEL 5
REMARK VINA RESULT: -8.357401687      3.417      8.177
REMARK  5 active torsions:
REMARK  status: ('A' for Active; 'I' for Inactive)
REMARK       I    between atoms: C1_2  and  N1_3 
REMARK    1  A    between atoms: C1_2  and  C18_23 
REMARK    2  A    between atoms: N1_3  and  C2_5 
REMARK    3  A    between atoms: C2_5  and  C3_6 
REMARK    4  A    between atoms: C3_6  and  C4_7 
REMARK       I    between atoms: N2_13  and  C10_14 
REMARK    5  A    between atoms: C10_14  and  C11_16 
ROOT
HETATM    1  C4  UNL     1      -5.608  16.044   5.566  1.00  0.00     0.012 C 
HETATM    2  C5  UNL     1      -4.865  17.137   6.313  1.00  0.00     0.032 C 
HETATM    3  C6  UNL     1      -5.793  17.532   7.453  1.00  0.00     0.088 C 
HETATM    4  C7  UNL     1      -5.638  16.447   8.499  1.00  0.00     0.027 C 
HETATM    5  C8  UNL     1      -6.312  15.259   7.817  1.00  0.00     0.028 C 
HETATM    6  C9  UNL     1      -6.790  15.798   6.474  1.00  0.00     0.091 C 
HETATM    7  N2  UNL     1      -7.061  17.160   6.880  1.00  0.00    -0.342 N 
HETATM    8  C10 UNL     1      -8.220  17.922   6.755  1.00  0.00     0.225 C 
HETATM    9  O2  UNL     1      -9.247  17.385   6.207  1.00  0.00    -0.273 OA
ENDROOT
BRANCH   1  10
HETATM   10  C3  UNL     1      -4.760  14.841   5.315  1.00  0.00     0.026 C 
BRANCH  10  11
HETATM   11  C2  UNL     1      -3.351  15.006   5.835  1.00  0.00     0.123 C 
BRANCH  11  12
HETATM   12  N1  UNL     1      -2.439  15.008   4.691  1.00  0.00    -0.361 N 
HETATM   13  C1  UNL     1      -1.526  16.062   4.468  1.00  0.00     0.221 C 
HETATM   14  O1  UNL     1      -1.471  17.036   5.250  1.00  0.00    -0.273 OA
ATOM     15  H1  UNL     1      -2.463  14.226   4.037  1.00  0.00     0.162 HD
BRANCH  13  16
HETATM   16  C18 UNL     1      -0.627  16.017   3.298  1.00  0.00     0.078 C 
HETATM   17  C19 UNL     1      -0.680  17.223   2.400  1.00  0.00     0.014 C 
HETATM   18  C20 UNL     1      -0.672  16.271   1.213  1.00  0.00     0.002 C 
HETATM   19  C21 UNL     1      -1.265  15.219   2.156  1.00  0.00     0.014 C 
ENDBRANCH  13  16
ENDBRANCH  11  12
ENDBRANCH  10  11
ENDBRANCH   1  10
BRANCH   8  20
HETATM   20  C11 UNL     1      -8.352  19.310   7.211  1.00  0.00     0.082 C 
HETATM   21  C12 UNL     1      -9.740  19.655   7.725  1.00  0.00     0.019 C 
HETATM   22  C13 UNL     1     -10.288  20.718   6.798  1.00  0.00    -0.013 C 
HETATM   23  C14 UNL     1      -9.586  22.002   7.076  1.00  0.00     0.005 C 
HETATM   24  C17 UNL     1      -9.592  20.291   5.492  1.00  0.00     0.010 C 
HETATM   25  C15 UNL     1      -8.144  21.675   6.697  1.00  0.00     0.006 C 
HETATM   26  C16 UNL     1      -8.174  20.290   6.090  1.00  0.00    -0.001 C 
ENDBRANCH   8  20
TORSDOF 5
ENDMDL
