MODEL 1
REMARK VINA RESULT: -7.642561606      0.000      0.000
REMARK  3 active torsions:
REMARK  status: ('A' for Active; 'I' for Inactive)
REMARK    1  A    between atoms: C4_4  and  N1_5 
REMARK    2  A    between atoms: N1_5  and  C5_8 
REMARK    3  A    between atoms: N2_22  and  O2_23 
ROOT
HETATM    1  C5  UNL     1       4.670  -9.199  -3.378  1.00  0.00     0.217 C 
HETATM    2  C6  UNL     1       5.655  -8.641  -4.400  1.00  0.00     0.002 C 
HETATM    3  C7  UNL     1       5.361  -8.592  -5.807  1.00  0.00    -0.028 C 
HETATM    4  C8  UNL     1       4.116  -8.126  -6.449  1.00  0.00     0.031 C 
HETATM    5  C9  UNL     1       2.896  -8.951  -6.266  1.00  0.00    -0.010 C 
HETATM    6  C10 UNL     1       1.626  -8.364  -5.851  1.00  0.00     0.009 C 
HETATM    7  C11 UNL     1       1.340  -8.090  -4.431  1.00  0.00    -0.013 C 
HETATM    8  C12 UNL     1       2.096  -6.780  -4.200  1.00  0.00     0.005 C 
HETATM    9  C13 UNL     1       3.424  -7.389  -3.870  1.00  0.00     0.012 C 
HETATM   10  C14 UNL     1       3.396  -8.837  -3.959  1.00  0.00    -0.008 C 
HETATM   11  C15 UNL     1       3.276  -9.753  -5.065  1.00  0.00     0.016 C 
HETATM   12  C16 UNL     1       2.049  -8.939  -3.373  1.00  0.00     0.016 C 
ENDROOT
BRANCH   1  13
HETATM   13  N1  UNL     1       4.959  -8.656  -2.075  1.00  0.00    -0.059 N 
ATOM     14  H12 UNL     1       4.307  -9.024  -1.382  1.00  0.00     0.278 HD
ATOM     15  H11 UNL     1       4.712  -7.667  -2.036  1.00  0.00     0.278 HD
BRANCH  13  16
HETATM   16  C4  UNL     1       6.314  -8.853  -1.645  1.00  0.00     0.238 C 
HETATM   17  C2  UNL     1       6.850  -7.536  -1.093  1.00  0.00     0.089 C 
HETATM   18  C1  UNL     1       8.208  -7.688  -0.467  1.00  0.00     0.039 C 
HETATM   19  C3  UNL     1       6.742  -6.407  -2.059  1.00  0.00     0.039 C 
HETATM   20  N2  UNL     1       5.909  -7.427   0.023  1.00  0.00    -0.060 NA
HETATM   21  O1  UNL     1       5.928  -8.626   0.620  1.00  0.00    -0.276 OA
HETATM   22  C17 UNL     1       6.249  -9.591  -0.311  1.00  0.00     0.231 C 
BRANCH  20  23
HETATM   23  O2  UNL     1       6.255  -6.406   0.819  1.00  0.00    -0.288 OA
ATOM     24  H2  UNL     1       6.398  -6.717   1.704  1.00  0.00     0.239 HD
ENDBRANCH  20  23
ENDBRANCH  13  16
ENDBRANCH   1  13
TORSDOF 3
ENDMDL
MODEL 2
REMARK VINA RESULT: -7.274463923      3.751      5.867
REMARK  3 active torsions:
REMARK  status: ('A' for Active; 'I' for Inactive)
REMARK    1  A    between atoms: C4_4  and  N1_5 
REMARK    2  A    between atoms: N1_5  and  C5_8 
REMARK    3  A    between atoms: N2_22  and  O2_23 
ROOT
HETATM    1  C5  UNL     1       6.569  -6.852   1.199  1.00  0.00     0.217 C 
HETATM    2  C6  UNL     1       6.721  -8.278   1.719  1.00  0.00     0.002 C 
HETATM    3  C7  UNL     1       6.205  -9.417   1.007  1.00  0.00    -0.028 C 
HETATM    4  C8  UNL     1       6.335  -9.711  -0.434  1.00  0.00     0.031 C 
HETATM    5  C9  UNL     1       5.600  -8.838  -1.383  1.00  0.00    -0.010 C 
HETATM    6  C10 UNL     1       6.253  -8.247  -2.547  1.00  0.00     0.009 C 
HETATM    7  C11 UNL     1       7.049  -7.012  -2.431  1.00  0.00    -0.013 C 
HETATM    8  C12 UNL     1       8.373  -7.536  -1.872  1.00  0.00     0.005 C 
HETATM    9  C13 UNL     1       7.993  -7.491  -0.424  1.00  0.00     0.012 C 
HETATM   10  C14 UNL     1       6.626  -7.046  -0.233  1.00  0.00    -0.008 C 
HETATM   11  C15 UNL     1       5.346  -7.641  -0.528  1.00  0.00     0.016 C 
HETATM   12  C16 UNL     1       6.709  -6.036  -1.301  1.00  0.00     0.016 C 
ENDROOT
BRANCH   1  13
HETATM   13  N1  UNL     1       7.589  -6.012   1.774  1.00  0.00    -0.059 N 
ATOM     14  H12 UNL     1       7.359  -5.027   1.638  1.00  0.00     0.278 HD
ATOM     15  H11 UNL     1       8.448  -6.066   1.226  1.00  0.00     0.278 HD
BRANCH  13  16
HETATM   16  C4  UNL     1       7.856  -6.279   3.158  1.00  0.00     0.238 C 
HETATM   17  C2  UNL     1       9.335  -6.022   3.430  1.00  0.00     0.089 C 
HETATM   18  C1  UNL     1       9.674  -6.117   4.892  1.00  0.00     0.039 C 
HETATM   19  C3  UNL     1      10.241  -6.799   2.539  1.00  0.00     0.039 C 
HETATM   20  N2  UNL     1       9.316  -4.591   3.120  1.00  0.00    -0.060 NA
HETATM   21  O1  UNL     1       8.268  -4.098   3.792  1.00  0.00    -0.276 OA
HETATM   22  C17 UNL     1       7.321  -5.088   3.947  1.00  0.00     0.231 C 
BRANCH  20  23
HETATM   23  O2  UNL     1      10.492  -4.035   3.440  1.00  0.00    -0.288 OA
ATOM     24  H2  UNL     1      10.812  -3.511   2.716  1.00  0.00     0.239 HD
ENDBRANCH  20  23
ENDBRANCH  13  16
ENDBRANCH   1  13
TORSDOF 3
ENDMDL
MODEL 3
REMARK VINA RESULT: -7.207580156      2.675      5.724
REMARK  3 active torsions:
REMARK  status: ('A' for Active; 'I' for Inactive)
REMARK    1  A    between atoms: C4_4  and  N1_5 
REMARK    2  A    between atoms: N1_5  and  C5_8 
REMARK    3  A    between atoms: N2_22  and  O2_23 
ROOT
HETATM    1  C5  UNL     1       4.631  -7.981  -3.105  1.00  0.00     0.217 C 
HETATM    2  C6  UNL     1       5.742  -8.391  -4.067  1.00  0.00     0.002 C 
HETATM    3  C7  UNL     1       7.110  -7.987  -3.880  1.00  0.00    -0.028 C 
HETATM    4  C8  UNL     1       7.897  -8.025  -2.632  1.00  0.00     0.031 C 
HETATM    5  C9  UNL     1       7.516  -7.084  -1.549  1.00  0.00    -0.010 C 
HETATM    6  C10 UNL     1       7.328  -7.531  -0.173  1.00  0.00     0.009 C 
HETATM    7  C11 UNL     1       6.060  -8.141   0.265  1.00  0.00    -0.013 C 
HETATM    8  C12 UNL     1       6.199  -9.574  -0.251  1.00  0.00     0.005 C 
HETATM    9  C13 UNL     1       5.667  -9.328  -1.628  1.00  0.00     0.012 C 
HETATM   10  C14 UNL     1       5.329  -7.933  -1.840  1.00  0.00    -0.008 C 
HETATM   11  C15 UNL     1       6.122  -6.735  -1.956  1.00  0.00     0.016 C 
HETATM   12  C16 UNL     1       4.779  -7.765  -0.485  1.00  0.00     0.016 C 
ENDROOT
BRANCH   1  13
HETATM   13  N1  UNL     1       3.535  -8.912  -3.199  1.00  0.00    -0.059 N 
ATOM     14  H12 UNL     1       3.504  -9.511  -2.374  1.00  0.00     0.278 HD
ATOM     15  H11 UNL     1       3.722  -9.613  -3.916  1.00  0.00     0.278 HD
BRANCH  13  16
HETATM   16  C4  UNL     1       2.259  -8.295  -3.420  1.00  0.00     0.238 C 
HETATM   17  C2  UNL     1       1.633  -8.900  -4.673  1.00  0.00     0.089 C 
HETATM   18  C1  UNL     1       0.221  -8.431  -4.891  1.00  0.00     0.039 C 
HETATM   19  C3  UNL     1       2.505  -8.795  -5.876  1.00  0.00     0.039 C 
HETATM   20  N2  UNL     1       1.522 -10.267  -4.162  1.00  0.00    -0.060 NA
HETATM   21  O1  UNL     1       0.964 -10.147  -2.951  1.00  0.00    -0.276 OA
HETATM   22  C17 UNL     1       1.290  -8.917  -2.420  1.00  0.00     0.231 C 
BRANCH  20  23
HETATM   23  O2  UNL     1       0.828 -11.024  -5.021  1.00  0.00    -0.288 OA
ATOM     24  H2  UNL     1       1.187 -10.938  -5.896  1.00  0.00     0.239 HD
ENDBRANCH  20  23
ENDBRANCH  13  16
ENDBRANCH   1  13
TORSDOF 3
ENDMDL
MODEL 4
REMARK VINA RESULT: -7.064573836      2.652      5.767
REMARK  3 active torsions:
REMARK  status: ('A' for Active; 'I' for Inactive)
REMARK    1  A    between atoms: C4_4  and  N1_5 
REMARK    2  A    between atoms: N1_5  and  C5_8 
REMARK    3  A    between atoms: N2_22  and  O2_23 
ROOT
HETATM    1  C5  UNL     1       4.888  -7.963  -2.934  1.00  0.00     0.217 C 
HETATM    2  C6  UNL     1       6.116  -8.291  -3.778  1.00  0.00     0.002 C 
HETATM    3  C7  UNL     1       7.434  -7.829  -3.433  1.00  0.00    -0.028 C 
HETATM    4  C8  UNL     1       8.082  -7.869  -2.108  1.00  0.00     0.031 C 
HETATM    5  C9  UNL     1       7.541  -6.981  -1.049  1.00  0.00    -0.010 C 
HETATM    6  C10 UNL     1       7.228  -7.478   0.286  1.00  0.00     0.009 C 
HETATM    7  C11 UNL     1       5.952  -8.161   0.567  1.00  0.00    -0.013 C 
HETATM    8  C12 UNL     1       6.218  -9.569   0.033  1.00  0.00     0.005 C 
HETATM    9  C13 UNL     1       5.825  -9.305  -1.388  1.00  0.00     0.012 C 
HETATM   10  C14 UNL     1       5.443  -7.922  -1.599  1.00  0.00    -0.008 C 
HETATM   11  C15 UNL     1       6.183  -6.685  -1.597  1.00  0.00     0.016 C 
HETATM   12  C16 UNL     1       4.743  -7.822  -0.308  1.00  0.00     0.016 C 
ENDROOT
BRANCH   1  13
HETATM   13  N1  UNL     1       3.857  -8.941  -3.171  1.00  0.00    -0.059 N 
ATOM     14  H12 UNL     1       3.063  -8.781  -2.551  1.00  0.00     0.278 HD
ATOM     15  H11 UNL     1       4.153  -9.860  -2.840  1.00  0.00     0.278 HD
BRANCH  13  16
HETATM   16  C4  UNL     1       3.422  -9.015  -4.536  1.00  0.00     0.238 C 
HETATM   17  C2  UNL     1       1.974  -9.494  -4.564  1.00  0.00     0.089 C 
HETATM   18  C1  UNL     1       1.381  -9.444  -5.945  1.00  0.00     0.039 C 
HETATM   19  C3  UNL     1       1.769 -10.788  -3.855  1.00  0.00     0.039 C 
HETATM   20  N2  UNL     1       1.406  -8.351  -3.847  1.00  0.00    -0.060 NA
HETATM   21  O1  UNL     1       1.916  -7.268  -4.448  1.00  0.00    -0.276 OA
HETATM   22  C17 UNL     1       3.145  -7.585  -4.987  1.00  0.00     0.231 C 
BRANCH  20  23
HETATM   23  O2  UNL     1       0.069  -8.416  -3.864  1.00  0.00    -0.288 OA
ATOM     24  H2  UNL     1      -0.302  -7.545  -3.782  1.00  0.00     0.239 HD
ENDBRANCH  20  23
ENDBRANCH  13  16
ENDBRANCH   1  13
TORSDOF 3
ENDMDL
MODEL 5
REMARK VINA RESULT: -6.785073018      4.771      6.827
REMARK  3 active torsions:
REMARK  status: ('A' for Active; 'I' for Inactive)
REMARK    1  A    between atoms: C4_4  and  N1_5 
REMARK    2  A    between atoms: N1_5  and  C5_8 
REMARK    3  A    between atoms: N2_22  and  O2_23 
ROOT
HETATM    1  C5  UNL     1       3.747  -7.412  -6.593  1.00  0.00     0.217 C 
HETATM    2  C6  UNL     1       4.885  -8.419  -6.465  1.00  0.00     0.002 C 
HETATM    3  C7  UNL     1       5.231  -9.036  -5.212  1.00  0.00    -0.028 C 
HETATM    4  C8  UNL     1       4.315  -9.638  -4.223  1.00  0.00     0.031 C 
HETATM    5  C9  UNL     1       3.412  -8.727  -3.476  1.00  0.00    -0.010 C 
HETATM    6  C10 UNL     1       1.982  -8.990  -3.356  1.00  0.00     0.009 C 
HETATM    7  C11 UNL     1       1.044  -8.618  -4.431  1.00  0.00    -0.013 C 
HETATM    8  C12 UNL     1       1.237  -9.758  -5.432  1.00  0.00     0.005 C 
HETATM    9  C13 UNL     1       2.398  -9.165  -6.168  1.00  0.00     0.012 C 
HETATM   10  C14 UNL     1       2.807  -7.892  -5.604  1.00  0.00    -0.008 C 
HETATM   11  C15 UNL     1       3.434  -7.522  -4.360  1.00  0.00     0.016 C 
HETATM   12  C16 UNL     1       1.424  -7.456  -5.352  1.00  0.00     0.016 C 
ENDROOT
BRANCH   1  13
HETATM   13  N1  UNL     1       3.280  -7.373  -7.956  1.00  0.00    -0.059 N 
ATOM     14  H12 UNL     1       2.675  -6.565  -8.103  1.00  0.00     0.278 HD
ATOM     15  H11 UNL     1       2.611  -8.124  -8.126  1.00  0.00     0.278 HD
BRANCH  13  16
HETATM   16  C4  UNL     1       4.329  -7.402  -8.935  1.00  0.00     0.238 C 
HETATM   17  C2  UNL     1       3.707  -7.276 -10.322  1.00  0.00     0.089 C 
HETATM   18  C1  UNL     1       4.743  -7.132 -11.402  1.00  0.00     0.039 C 
HETATM   19  C3  UNL     1       2.673  -8.311 -10.599  1.00  0.00     0.039 C 
HETATM   20  N2  UNL     1       3.143  -5.939 -10.132  1.00  0.00    -0.060 NA
HETATM   21  O1  UNL     1       4.139  -5.205  -9.618  1.00  0.00    -0.276 OA
HETATM   22  C17 UNL     1       4.990  -6.028  -8.911  1.00  0.00     0.231 C 
BRANCH  20  23
HETATM   23  O2  UNL     1       2.655  -5.476 -11.291  1.00  0.00    -0.288 OA
ATOM     24  H2  UNL     1       2.435  -4.556 -11.208  1.00  0.00     0.239 HD
ENDBRANCH  20  23
ENDBRANCH  13  16
ENDBRANCH   1  13
TORSDOF 3
ENDMDL
