MODEL 1
REMARK VINA RESULT: -7.636882859      0.000      0.000
REMARK  3 active torsions:
REMARK  status: ('A' for Active; 'I' for Inactive)
REMARK    1  A    between atoms: O1_1  and  C1_3 
REMARK    2  A    between atoms: C7_9  and  N1_10 
REMARK    3  A    between atoms: N2_13  and  C10_14 
ROOT
HETATM    1  C1  UNL     1       7.087  -6.844   0.530  1.00  0.00     0.059 C 
HETATM    2  C2  UNL     1       8.347  -7.561   0.925  1.00  0.00     0.042 C 
HETATM    3  C3  UNL     1       8.611  -8.665  -0.094  1.00  0.00    -0.011 C 
HETATM    4  C4  UNL     1       8.826  -7.989  -1.416  1.00  0.00     0.011 C 
HETATM    5  C5  UNL     1       7.521  -7.315  -1.881  1.00  0.00     0.012 C 
HETATM    6  C6  UNL     1       7.263  -6.246  -0.862  1.00  0.00     0.044 C 
HETATM    7  C7  UNL     1       6.501  -8.413  -1.934  1.00  0.00     0.087 C 
HETATM    8  C16 UNL     1       6.175  -8.872  -0.551  1.00  0.00     0.012 C 
HETATM    9  C17 UNL     1       7.439  -9.590  -0.043  1.00  0.00     0.011 C 
HETATM   10  C18 UNL     1       5.934  -7.789   0.449  1.00  0.00     0.044 C 
ENDROOT
BRANCH   7  11
HETATM   11  N1  UNL     1       5.432  -8.225  -2.823  1.00  0.00    -0.404 N 
HETATM   12  C8  UNL     1       4.161  -8.750  -2.579  1.00  0.00     0.147 C 
HETATM   13  C9  UNL     1       3.259  -8.308  -3.752  1.00  0.00     0.292 C 
HETATM   14  N2  UNL     1       3.542  -9.172  -4.845  1.00  0.00     0.096 N 
HETATM   15  C14 UNL     1       4.934  -9.474  -4.879  1.00  0.00     0.292 C 
HETATM   16  C15 UNL     1       5.803  -8.449  -4.198  1.00  0.00     0.147 C 
BRANCH  14  17
HETATM   17  C10 UNL     1       2.998  -8.754  -6.104  1.00  0.00     0.223 C 
HETATM   18  C11 UNL     1       3.923  -8.068  -7.047  1.00  0.00     0.036 C 
HETATM   19  C12 UNL     1       2.810  -7.046  -7.301  1.00  0.00     0.004 C 
HETATM   20  C13 UNL     1       2.281  -7.408  -5.922  1.00  0.00     0.036 C 
ENDBRANCH  14  17
ENDBRANCH   7  11
BRANCH   1  21
HETATM   21  O1  UNL     1       6.778  -5.847   1.434  1.00  0.00    -0.390 OA
ATOM     22  H1  UNL     1       6.997  -4.990   1.086  1.00  0.00     0.210 HD
ENDBRANCH   1  21
TORSDOF 3
ENDMDL
MODEL 2
REMARK VINA RESULT: -7.532491260      1.420      2.363
REMARK  3 active torsions:
REMARK  status: ('A' for Active; 'I' for Inactive)
REMARK    1  A    between atoms: O1_1  and  C1_3 
REMARK    2  A    between atoms: C7_9  and  N1_10 
REMARK    3  A    between atoms: N2_13  and  C10_14 
ROOT
HETATM    1  C1  UNL     1       6.696  -9.380   1.319  1.00  0.00     0.059 C 
HETATM    2  C2  UNL     1       7.543  -8.383   2.061  1.00  0.00     0.042 C 
HETATM    3  C3  UNL     1       8.037  -7.339   1.066  1.00  0.00    -0.011 C 
HETATM    4  C4  UNL     1       6.820  -6.644   0.529  1.00  0.00     0.011 C 
HETATM    5  C5  UNL     1       5.978  -7.628  -0.304  1.00  0.00     0.012 C 
HETATM    6  C6  UNL     1       5.514  -8.660   0.680  1.00  0.00     0.044 C 
HETATM    7  C7  UNL     1       6.896  -8.131  -1.378  1.00  0.00     0.087 C 
HETATM    8  C16 UNL     1       7.950  -9.005  -0.779  1.00  0.00     0.012 C 
HETATM    9  C17 UNL     1       8.850  -8.065   0.044  1.00  0.00     0.011 C 
HETATM   10  C18 UNL     1       7.465 -10.015   0.209  1.00  0.00     0.044 C 
ENDROOT
BRANCH   7  11
HETATM   11  N1  UNL     1       6.286  -8.572  -2.562  1.00  0.00    -0.404 N 
HETATM   12  C8  UNL     1       6.574  -8.003  -3.804  1.00  0.00     0.147 C 
HETATM   13  C9  UNL     1       5.740  -8.769  -4.854  1.00  0.00     0.292 C 
HETATM   14  N2  UNL     1       4.415  -8.260  -4.789  1.00  0.00     0.096 N 
HETATM   15  C14 UNL     1       4.068  -7.976  -3.435  1.00  0.00     0.292 C 
HETATM   16  C15 UNL     1       4.863  -8.757  -2.421  1.00  0.00     0.147 C 
BRANCH  14  17
HETATM   17  C10 UNL     1       3.435  -9.028  -5.500  1.00  0.00     0.223 C 
HETATM   18  C11 UNL     1       2.674  -8.328  -6.570  1.00  0.00     0.036 C 
HETATM   19  C12 UNL     1       1.406  -8.986  -6.015  1.00  0.00     0.004 C 
HETATM   20  C13 UNL     1       2.136  -9.068  -4.683  1.00  0.00     0.036 C 
ENDBRANCH  14  17
ENDBRANCH   7  11
BRANCH   1  21
HETATM   21  O1  UNL     1       6.241 -10.372   2.165  1.00  0.00    -0.390 OA
ATOM     22  H1  UNL     1       5.796 -11.057   1.681  1.00  0.00     0.210 HD
ENDBRANCH   1  21
TORSDOF 3
ENDMDL
MODEL 3
REMARK VINA RESULT: -7.474691694      1.185      1.898
REMARK  3 active torsions:
REMARK  status: ('A' for Active; 'I' for Inactive)
REMARK    1  A    between atoms: O1_1  and  C1_3 
REMARK    2  A    between atoms: C7_9  and  N1_10 
REMARK    3  A    between atoms: N2_13  and  C10_14 
ROOT
HETATM    1  C1  UNL     1       7.061  -6.906   0.189  1.00  0.00     0.059 C 
HETATM    2  C2  UNL     1       8.516  -7.163   0.467  1.00  0.00     0.042 C 
HETATM    3  C3  UNL     1       9.013  -8.223  -0.511  1.00  0.00    -0.011 C 
HETATM    4  C4  UNL     1       8.873  -7.638  -1.886  1.00  0.00     0.011 C 
HETATM    5  C5  UNL     1       7.384  -7.442  -2.226  1.00  0.00     0.012 C 
HETATM    6  C6  UNL     1       6.903  -6.415  -1.246  1.00  0.00     0.044 C 
HETATM    7  C7  UNL     1       6.761  -8.800  -2.092  1.00  0.00     0.087 C 
HETATM    8  C16 UNL     1       6.734  -9.207  -0.655  1.00  0.00     0.012 C 
HETATM    9  C17 UNL     1       8.203  -9.453  -0.265  1.00  0.00     0.011 C 
HETATM   10  C18 UNL     1       6.263  -8.162   0.303  1.00  0.00     0.044 C 
ENDROOT
BRANCH   7  11
HETATM   11  N1  UNL     1       5.605  -9.032  -2.853  1.00  0.00    -0.404 N 
HETATM   12  C8  UNL     1       5.544  -8.752  -4.219  1.00  0.00     0.147 C 
HETATM   13  C9  UNL     1       4.138  -9.167  -4.702  1.00  0.00     0.292 C 
HETATM   14  N2  UNL     1       3.243  -8.130  -4.323  1.00  0.00     0.096 N 
HETATM   15  C14 UNL     1       3.610  -7.610  -3.048  1.00  0.00     0.292 C 
HETATM   16  C15 UNL     1       4.405  -8.569  -2.199  1.00  0.00     0.147 C 
BRANCH  14  17
HETATM   17  C10 UNL     1       1.852  -8.455  -4.449  1.00  0.00     0.223 C 
HETATM   18  C11 UNL     1       1.353  -9.614  -3.661  1.00  0.00     0.036 C 
HETATM   19  C12 UNL     1       0.600 -10.067  -4.916  1.00  0.00     0.004 C 
HETATM   20  C13 UNL     1       1.644  -9.301  -5.714  1.00  0.00     0.036 C 
ENDBRANCH  14  17
ENDBRANCH   7  11
BRANCH   1  21
HETATM   21  O1  UNL     1       6.545  -5.973   1.065  1.00  0.00    -0.390 OA
ATOM     22  H1  UNL     1       6.619  -6.271   1.965  1.00  0.00     0.210 HD
ENDBRANCH   1  21
TORSDOF 3
ENDMDL
MODEL 4
REMARK VINA RESULT: -7.252759272      1.452      2.067
REMARK  3 active torsions:
REMARK  status: ('A' for Active; 'I' for Inactive)
REMARK    1  A    between atoms: O1_1  and  C1_3 
REMARK    2  A    between atoms: C7_9  and  N1_10 
REMARK    3  A    between atoms: N2_13  and  C10_14 
ROOT
HETATM    1  C1  UNL     1       7.013  -9.373   1.230  1.00  0.00     0.059 C 
HETATM    2  C2  UNL     1       8.283  -8.761   1.752  1.00  0.00     0.042 C 
HETATM    3  C3  UNL     1       8.701  -7.641   0.805  1.00  0.00    -0.011 C 
HETATM    4  C4  UNL     1       7.609  -6.613   0.845  1.00  0.00     0.011 C 
HETATM    5  C5  UNL     1       6.317  -7.193   0.239  1.00  0.00     0.012 C 
HETATM    6  C6  UNL     1       5.928  -8.304   1.167  1.00  0.00     0.044 C 
HETATM    7  C7  UNL     1       6.684  -7.615  -1.153  1.00  0.00     0.087 C 
HETATM    8  C16 UNL     1       7.598  -8.796  -1.102  1.00  0.00     0.012 C 
HETATM    9  C17 UNL     1       8.927  -8.267  -0.533  1.00  0.00     0.011 C 
HETATM   10  C18 UNL     1       7.196  -9.884  -0.161  1.00  0.00     0.044 C 
ENDROOT
BRANCH   7  11
HETATM   11  N1  UNL     1       5.638  -7.646  -2.089  1.00  0.00    -0.404 N 
HETATM   12  C8  UNL     1       4.402  -8.230  -1.805  1.00  0.00     0.147 C 
HETATM   13  C9  UNL     1       3.517  -8.038  -3.056  1.00  0.00     0.292 C 
HETATM   14  N2  UNL     1       3.906  -9.026  -4.000  1.00  0.00     0.096 N 
HETATM   15  C14 UNL     1       5.318  -9.218  -3.950  1.00  0.00     0.292 C 
HETATM   16  C15 UNL     1       6.080  -8.037  -3.405  1.00  0.00     0.147 C 
BRANCH  14  17
HETATM   17  C10 UNL     1       3.382  -8.842  -5.321  1.00  0.00     0.223 C 
HETATM   18  C11 UNL     1       2.709  -7.545  -5.608  1.00  0.00     0.036 C 
HETATM   19  C12 UNL     1       1.601  -8.343  -6.303  1.00  0.00     0.004 C 
HETATM   20  C13 UNL     1       2.004  -9.511  -5.415  1.00  0.00     0.036 C 
ENDBRANCH  14  17
ENDBRANCH   7  11
BRANCH   1  21
HETATM   21  O1  UNL     1       6.599 -10.417   2.033  1.00  0.00    -0.390 OA
ATOM     22  H1  UNL     1       6.105 -11.057   1.534  1.00  0.00     0.210 HD
ENDBRANCH   1  21
TORSDOF 3
ENDMDL
MODEL 5
REMARK VINA RESULT: -7.175802031      1.561      2.689
REMARK  3 active torsions:
REMARK  status: ('A' for Active; 'I' for Inactive)
REMARK    1  A    between atoms: O1_1  and  C1_3 
REMARK    2  A    between atoms: C7_9  and  N1_10 
REMARK    3  A    between atoms: N2_13  and  C10_14 
ROOT
HETATM    1  C1  UNL     1       8.958  -9.086   0.723  1.00  0.00     0.059 C 
HETATM    2  C2  UNL     1       8.681  -8.360   2.010  1.00  0.00     0.042 C 
HETATM    3  C3  UNL     1       7.384  -7.574   1.848  1.00  0.00    -0.011 C 
HETATM    4  C4  UNL     1       6.297  -8.580   1.610  1.00  0.00     0.011 C 
HETATM    5  C5  UNL     1       6.515  -9.280   0.256  1.00  0.00     0.012 C 
HETATM    6  C6  UNL     1       7.802 -10.033   0.421  1.00  0.00     0.044 C 
HETATM    7  C7  UNL     1       6.539  -8.181  -0.763  1.00  0.00     0.087 C 
HETATM    8  C16 UNL     1       7.777  -7.361  -0.598  1.00  0.00     0.012 C 
HETATM    9  C17 UNL     1       7.600  -6.605   0.732  1.00  0.00     0.011 C 
HETATM   10  C18 UNL     1       9.044  -8.134  -0.423  1.00  0.00     0.044 C 
ENDROOT
BRANCH   7  11
HETATM   11  N1  UNL     1       6.167  -8.535  -2.069  1.00  0.00    -0.404 N 
HETATM   12  C8  UNL     1       6.586  -7.809  -3.186  1.00  0.00     0.147 C 
HETATM   13  C9  UNL     1       6.005  -8.518  -4.428  1.00  0.00     0.292 C 
HETATM   14  N2  UNL     1       4.642  -8.130  -4.532  1.00  0.00     0.096 N 
HETATM   15  C14 UNL     1       4.063  -8.029  -3.233  1.00  0.00     0.292 C 
HETATM   16  C15 UNL     1       4.764  -8.851  -2.183  1.00  0.00     0.147 C 
BRANCH  14  17
HETATM   17  C10 UNL     1       3.865  -8.890  -5.466  1.00  0.00     0.223 C 
HETATM   18  C11 UNL     1       3.327  -8.165  -6.649  1.00  0.00     0.036 C 
HETATM   19  C12 UNL     1       1.994  -8.879  -6.406  1.00  0.00     0.004 C 
HETATM   20  C13 UNL     1       2.423  -9.000  -4.952  1.00  0.00     0.036 C 
ENDBRANCH  14  17
ENDBRANCH   7  11
BRANCH   1  21
HETATM   21  O1  UNL     1      10.140  -9.795   0.798  1.00  0.00    -0.390 OA
ATOM     22  H1  UNL     1      10.352 -10.013   1.698  1.00  0.00     0.210 HD
ENDBRANCH   1  21
TORSDOF 3
ENDMDL
