MODEL 1
REMARK VINA RESULT: -4.322910072      0.000      0.000
REMARK  2 active torsions:
REMARK  status: ('A' for Active; 'I' for Inactive)
REMARK    1  A    between atoms: C3_3  and  C4_4 
REMARK    2  A    between atoms: C4_4  and  N1_7 
ROOT
HETATM    1  C1  UNL     1       3.320  99.594  25.272  1.00  0.00     0.112 C 
HETATM    2  C2  UNL     1       3.502 100.948  24.776  1.00  0.00    -0.108 C 
HETATM    3  C3  UNL     1       3.659 102.075  24.384  1.00  0.00    -0.075 C 
ENDROOT
BRANCH   3   4
HETATM    4  C4  UNL     1       3.845 103.439  23.936  1.00  0.00     0.100 C 
HETATM    5  C5  UNL     1       4.809 104.140  24.825  1.00  0.00     0.054 C 
HETATM    6  C6  UNL     1       2.478 104.118  23.947  1.00  0.00     0.054 C 
BRANCH   4   7
HETATM    7  N1  UNL     1       4.316 103.520  22.575  1.00  0.00    -0.322 N 
HETATM    8  N2  UNL     1       4.759 102.507  21.973  1.00  0.00    -0.348 N 
ATOM      9  H22 UNL     1       4.777 101.617  22.472  1.00  0.00     0.176 HD
ATOM     10  H21 UNL     1       5.093 102.564  21.011  1.00  0.00     0.176 HD
ATOM     11  H1  UNL     1       4.290 104.417  22.091  1.00  0.00     0.181 HD
ENDBRANCH   4   7
ENDBRANCH   3   4
TORSDOF 2
ENDMDL
MODEL 2
REMARK VINA RESULT: -4.297471795      1.042      3.240
REMARK  2 active torsions:
REMARK  status: ('A' for Active; 'I' for Inactive)
REMARK    1  A    between atoms: C3_3  and  C4_4 
REMARK    2  A    between atoms: C4_4  and  N1_7 
ROOT
HETATM    1  C1  UNL     1       0.257 105.486  23.700  1.00  0.00     0.112 C 
HETATM    2  C2  UNL     1       1.518 104.768  23.798  1.00  0.00    -0.108 C 
HETATM    3  C3  UNL     1       2.566 104.183  23.861  1.00  0.00    -0.075 C 
ENDROOT
BRANCH   3   4
HETATM    4  C4  UNL     1       3.832 103.482  23.913  1.00  0.00     0.100 C 
HETATM    5  C5  UNL     1       3.616 102.069  24.325  1.00  0.00     0.054 C 
HETATM    6  C6  UNL     1       4.728 104.221  24.902  1.00  0.00     0.054 C 
BRANCH   4   7
HETATM    7  N1  UNL     1       4.533 103.501  22.653  1.00  0.00    -0.322 N 
HETATM    8  N2  UNL     1       4.744 102.443  22.004  1.00  0.00    -0.348 N 
ATOM      9  H22 UNL     1       4.405 101.562  22.391  1.00  0.00     0.176 HD
ATOM     10  H21 UNL     1       5.241 102.457  21.113  1.00  0.00     0.176 HD
ATOM     11  H1  UNL     1       4.865 104.390  22.280  1.00  0.00     0.181 HD
ENDBRANCH   4   7
ENDBRANCH   3   4
TORSDOF 2
ENDMDL
MODEL 3
REMARK VINA RESULT: -4.095517979      2.951      4.050
REMARK  2 active torsions:
REMARK  status: ('A' for Active; 'I' for Inactive)
REMARK    1  A    between atoms: C3_3  and  C4_4 
REMARK    2  A    between atoms: C4_4  and  N1_7 
ROOT
HETATM    1  C1  UNL     1       4.618 104.085  23.749  1.00  0.00     0.112 C 
HETATM    2  C2  UNL     1       3.453 103.319  24.165  1.00  0.00    -0.108 C 
HETATM    3  C3  UNL     1       2.503 102.670  24.514  1.00  0.00    -0.075 C 
ENDROOT
BRANCH   3   4
HETATM    4  C4  UNL     1       1.372 101.868  24.931  1.00  0.00     0.100 C 
HETATM    5  C5  UNL     1       0.676 102.523  26.071  1.00  0.00     0.054 C 
HETATM    6  C6  UNL     1       1.901 100.490  25.317  1.00  0.00     0.054 C 
BRANCH   4   7
HETATM    7  N1  UNL     1       0.424 101.644  23.868  1.00  0.00    -0.322 N 
HETATM    8  N2  UNL     1      -0.662 102.280  23.813  1.00  0.00    -0.348 N 
ATOM      9  H22 UNL     1      -0.859 102.964  24.543  1.00  0.00     0.176 HD
ATOM     10  H21 UNL     1      -1.332 102.121  23.061  1.00  0.00     0.176 HD
ATOM     11  H1  UNL     1       0.637 100.957  23.145  1.00  0.00     0.181 HD
ENDBRANCH   4   7
ENDBRANCH   3   4
TORSDOF 2
ENDMDL
MODEL 4
REMARK VINA RESULT: -4.066464327      2.947      3.316
REMARK  2 active torsions:
REMARK  status: ('A' for Active; 'I' for Inactive)
REMARK    1  A    between atoms: C3_3  and  C4_4 
REMARK    2  A    between atoms: C4_4  and  N1_7 
ROOT
HETATM    1  C1  UNL     1       3.466  98.787  26.214  1.00  0.00     0.112 C 
HETATM    2  C2  UNL     1       2.725  99.936  25.720  1.00  0.00    -0.108 C 
HETATM    3  C3  UNL     1       2.122 100.898  25.324  1.00  0.00    -0.075 C 
ENDROOT
BRANCH   3   4
HETATM    4  C4  UNL     1       1.402 102.069  24.869  1.00  0.00     0.100 C 
HETATM    5  C5  UNL     1       2.360 103.109  24.407  1.00  0.00     0.054 C 
HETATM    6  C6  UNL     1       0.552 102.569  26.033  1.00  0.00     0.054 C 
BRANCH   4   7
HETATM    7  N1  UNL     1       0.478 101.775  23.801  1.00  0.00    -0.322 N 
HETATM    8  N2  UNL     1      -0.716 102.175  23.839  1.00  0.00    -0.348 N 
ATOM      9  H22 UNL     1      -1.019 102.717  24.649  1.00  0.00     0.176 HD
ATOM     10  H21 UNL     1      -1.369 101.967  23.084  1.00  0.00     0.176 HD
ATOM     11  H1  UNL     1       0.797 101.233  22.999  1.00  0.00     0.181 HD
ENDBRANCH   4   7
ENDBRANCH   3   4
TORSDOF 2
ENDMDL
MODEL 5
REMARK VINA RESULT: -4.037567268      3.597      4.380
REMARK  2 active torsions:
REMARK  status: ('A' for Active; 'I' for Inactive)
REMARK    1  A    between atoms: C3_3  and  C4_4 
REMARK    2  A    between atoms: C4_4  and  N1_7 
ROOT
HETATM    1  C1  UNL     1       4.337 103.688  23.637  1.00  0.00     0.112 C 
HETATM    2  C2  UNL     1       3.122 103.101  24.180  1.00  0.00    -0.108 C 
HETATM    3  C3  UNL     1       2.129 102.599  24.635  1.00  0.00    -0.075 C 
ENDROOT
BRANCH   3   4
HETATM    4  C4  UNL     1       0.942 101.971  25.178  1.00  0.00     0.100 C 
HETATM    5  C5  UNL     1      -0.152 101.993  24.170  1.00  0.00     0.054 C 
HETATM    6  C6  UNL     1       0.554 102.735  26.440  1.00  0.00     0.054 C 
BRANCH   4   7
HETATM    7  N1  UNL     1       1.171 100.610  25.593  1.00  0.00    -0.322 N 
HETATM    8  N2  UNL     1       0.686 100.160  26.665  1.00  0.00    -0.348 N 
ATOM      9  H22 UNL     1       0.120 100.786  27.239  1.00  0.00     0.176 HD
ATOM     10  H21 UNL     1       0.848  99.198  26.959  1.00  0.00     0.176 HD
ATOM     11  H1  UNL     1       1.739  99.997  25.008  1.00  0.00     0.181 HD
ENDBRANCH   4   7
ENDBRANCH   3   4
TORSDOF 2
ENDMDL
