MODEL 1
REMARK VINA RESULT: -9.128792634      0.000      0.000
REMARK  6 active torsions:
REMARK  status: ('A' for Active; 'I' for Inactive)
REMARK    1  A    between atoms: C5_5  and  C6_7 
REMARK    2  A    between atoms: C6_7  and  S1_12 
REMARK    3  A    between atoms: C7_8  and  C8_9 
REMARK    4  A    between atoms: C8_9  and  O1_10 
REMARK    5  A    between atoms: S1_12  and  N1_13 
REMARK    6  A    between atoms: C22_33  and  O6_34 
ROOT
HETATM    1  C1  UNL     1      68.593  49.130   7.542  1.00  0.00     0.018 C 
HETATM    2  C2  UNL     1      68.453  48.796   9.027  1.00  0.00    -0.009 C 
HETATM    3  C3  UNL     1      69.345  47.588   9.254  1.00  0.00     0.060 C 
HETATM    4  C4  UNL     1      70.673  48.013   8.624  1.00  0.00     0.058 C 
HETATM    5  C5  UNL     1      71.305  47.210   7.856  1.00  0.00     0.151 C 
HETATM    6  F1  UNL     1      70.551  45.964   7.786  1.00  0.00    -0.204 F 
HETATM    7  C9  UNL     1      71.200  49.303   9.122  1.00  0.00     0.292 C 
HETATM    8  O4  UNL     1      72.407  49.426   9.441  1.00  0.00    -0.259 OA
HETATM    9  O5  UNL     1      70.259  50.337   9.210  1.00  0.00    -0.311 OA
HETATM   10  C10 UNL     1      69.024  49.957   9.797  1.00  0.00     0.141 C 
HETATM   11  C11 UNL     1      67.992  51.066   9.694  1.00  0.00     0.034 C 
HETATM   12  C12 UNL     1      66.919  50.696  10.698  1.00  0.00     0.008 C 
HETATM   13  C13 UNL     1      66.581  49.225  10.632  1.00  0.00    -0.005 C 
HETATM   14  C14 UNL     1      67.008  48.551   9.366  1.00  0.00     0.001 C 
HETATM   15  C15 UNL     1      66.676  47.081   9.458  1.00  0.00     0.007 C 
HETATM   16  C16 UNL     1      65.177  46.944   9.604  1.00  0.00     0.014 C 
HETATM   17  C17 UNL     1      64.628  47.664  10.798  1.00  0.00     0.005 C 
HETATM   18  C18 UNL     1      64.971  47.007  12.108  1.00  0.00     0.020 C 
HETATM   19  C19 UNL     1      65.111  49.096  10.857  1.00  0.00     0.002 C 
HETATM   20  C20 UNL     1      64.257  49.793   9.860  1.00  0.00     0.010 C 
HETATM   21  C21 UNL     1      62.873  49.206  10.169  1.00  0.00     0.055 C 
HETATM   22  C22 UNL     1      63.119  47.778  10.593  1.00  0.00     0.153 C 
HETATM   23  C23 UNL     1      62.667  46.877   9.521  1.00  0.00     0.098 C 
HETATM   24  N2  UNL     1      62.311  46.182   8.664  1.00  0.00    -0.194 NA
ENDROOT
BRANCH  22  25
HETATM   25  O6  UNL     1      62.422  47.516  11.771  1.00  0.00    -0.375 OA
ATOM     26  H6  UNL     1      61.899  46.727  11.697  1.00  0.00     0.212 HD
ENDBRANCH  22  25
BRANCH   5  27
HETATM   27  C6  UNL     1      72.331  47.301   6.879  1.00  0.00     0.116 C 
HETATM   28  C7  UNL     1      73.601  47.012   7.165  1.00  0.00     0.027 C 
BRANCH  28  29
HETATM   29  C8  UNL     1      74.189  46.585   8.417  1.00  0.00     0.193 C 
BRANCH  29  30
HETATM   30  O1  UNL     1      74.654  47.682   9.191  1.00  0.00    -0.397 OA
ATOM     31  H1  UNL     1      75.094  47.399   9.984  1.00  0.00     0.209 HD
ENDBRANCH  29  30
ENDBRANCH  28  29
BRANCH  27  32
HETATM   32  S1  UNL     1      72.102  47.492   5.127  1.00  0.00     0.259 S 
HETATM   33  O2  UNL     1      73.395  47.808   4.444  1.00  0.00    -0.201 OA
HETATM   34  O3  UNL     1      70.952  48.288   4.714  1.00  0.00    -0.201 OA
BRANCH  32  35
HETATM   35  N1  UNL     1      71.676  45.849   4.566  1.00  0.00    -0.324 N 
ATOM     36  H12 UNL     1      71.973  44.961   4.972  1.00  0.00     0.169 HD
ATOM     37  H11 UNL     1      71.074  46.013   3.759  1.00  0.00     0.169 HD
ENDBRANCH  32  35
ENDBRANCH  27  32
ENDBRANCH   5  27
TORSDOF 6
ENDMDL
MODEL 2
REMARK VINA RESULT: -9.098932851      0.887      1.010
REMARK  6 active torsions:
REMARK  status: ('A' for Active; 'I' for Inactive)
REMARK    1  A    between atoms: C5_5  and  C6_7 
REMARK    2  A    between atoms: C6_7  and  S1_12 
REMARK    3  A    between atoms: C7_8  and  C8_9 
REMARK    4  A    between atoms: C8_9  and  O1_10 
REMARK    5  A    between atoms: S1_12  and  N1_13 
REMARK    6  A    between atoms: C22_33  and  O6_34 
ROOT
HETATM    1  C1  UNL     1      68.328  48.500   7.322  1.00  0.00     0.018 C 
HETATM    2  C2  UNL     1      68.157  48.133   8.797  1.00  0.00    -0.009 C 
HETATM    3  C3  UNL     1      69.219  47.084   9.076  1.00  0.00     0.060 C 
HETATM    4  C4  UNL     1      70.494  47.725   8.526  1.00  0.00     0.058 C 
HETATM    5  C5  UNL     1      71.293  47.044   7.797  1.00  0.00     0.151 C 
HETATM    6  F1  UNL     1      70.758  45.693   7.682  1.00  0.00    -0.204 F 
HETATM    7  C9  UNL     1      70.774  49.079   9.055  1.00  0.00     0.292 C 
HETATM    8  O4  UNL     1      71.925  49.393   9.445  1.00  0.00    -0.259 OA
HETATM    9  O5  UNL     1      69.674  49.945   9.087  1.00  0.00    -0.311 OA
HETATM   10  C10 UNL     1      68.485  49.363   9.600  1.00  0.00     0.141 C 
HETATM   11  C11 UNL     1      67.294  50.290   9.436  1.00  0.00     0.034 C 
HETATM   12  C12 UNL     1      66.239  49.741  10.374  1.00  0.00     0.008 C 
HETATM   13  C13 UNL     1      66.149  48.235  10.287  1.00  0.00    -0.005 C 
HETATM   14  C14 UNL     1      66.754  47.652   9.049  1.00  0.00     0.001 C 
HETATM   15  C15 UNL     1      66.661  46.148   9.120  1.00  0.00     0.007 C 
HETATM   16  C16 UNL     1      65.199  45.767   9.177  1.00  0.00     0.014 C 
HETATM   17  C17 UNL     1      64.470  46.376  10.336  1.00  0.00     0.005 C 
HETATM   18  C18 UNL     1      64.839  45.770  11.665  1.00  0.00     0.020 C 
HETATM   19  C19 UNL     1      64.709  47.867  10.425  1.00  0.00     0.002 C 
HETATM   20  C20 UNL     1      63.813  48.426   9.378  1.00  0.00     0.010 C 
HETATM   21  C21 UNL     1      62.528  47.619   9.605  1.00  0.00     0.055 C 
HETATM   22  C22 UNL     1      62.977  46.246  10.042  1.00  0.00     0.153 C 
HETATM   23  C23 UNL     1      62.742  45.294   8.945  1.00  0.00     0.098 C 
HETATM   24  N2  UNL     1      62.555  44.558   8.068  1.00  0.00    -0.194 NA
ENDROOT
BRANCH  22  25
HETATM   25  O6  UNL     1      62.265  45.861  11.176  1.00  0.00    -0.375 OA
ATOM     26  H6  UNL     1      61.373  46.185  11.153  1.00  0.00     0.212 HD
ENDBRANCH  22  25
BRANCH   5  27
HETATM   27  C6  UNL     1      72.346  47.310   6.882  1.00  0.00     0.116 C 
HETATM   28  C7  UNL     1      73.627  47.215   7.240  1.00  0.00     0.027 C 
BRANCH  28  29
HETATM   29  C8  UNL     1      74.202  46.862   8.520  1.00  0.00     0.193 C 
BRANCH  29  30
HETATM   30  O1  UNL     1      74.321  47.984   9.382  1.00  0.00    -0.397 OA
ATOM     31  H1  UNL     1      74.399  48.800   8.901  1.00  0.00     0.209 HD
ENDBRANCH  29  30
ENDBRANCH  28  29
BRANCH  27  32
HETATM   32  S1  UNL     1      72.189  47.495   5.122  1.00  0.00     0.259 S 
HETATM   33  O2  UNL     1      73.506  47.828   4.494  1.00  0.00    -0.201 OA
HETATM   34  O3  UNL     1      71.047  48.276   4.659  1.00  0.00    -0.201 OA
BRANCH  32  35
HETATM   35  N1  UNL     1      71.809  45.847   4.547  1.00  0.00    -0.324 N 
ATOM     36  H12 UNL     1      70.901  45.490   4.247  1.00  0.00     0.169 HD
ATOM     37  H11 UNL     1      72.704  45.358   4.591  1.00  0.00     0.169 HD
ENDBRANCH  32  35
ENDBRANCH  27  32
ENDBRANCH   5  27
TORSDOF 6
ENDMDL
MODEL 3
REMARK VINA RESULT: -8.728210876      3.247      8.194
REMARK  6 active torsions:
REMARK  status: ('A' for Active; 'I' for Inactive)
REMARK    1  A    between atoms: C5_5  and  C6_7 
REMARK    2  A    between atoms: C6_7  and  S1_12 
REMARK    3  A    between atoms: C7_8  and  C8_9 
REMARK    4  A    between atoms: C8_9  and  O1_10 
REMARK    5  A    between atoms: S1_12  and  N1_13 
REMARK    6  A    between atoms: C22_33  and  O6_34 
ROOT
HETATM    1  C1  UNL     1      68.045  47.786   9.902  1.00  0.00     0.018 C 
HETATM    2  C2  UNL     1      68.626  47.321   8.566  1.00  0.00    -0.009 C 
HETATM    3  C3  UNL     1      67.750  46.161   8.127  1.00  0.00     0.060 C 
HETATM    4  C4  UNL     1      66.334  46.726   8.260  1.00  0.00     0.058 C 
HETATM    5  C5  UNL     1      65.417  46.035   8.822  1.00  0.00     0.151 C 
HETATM    6  F1  UNL     1      65.990  44.751   9.206  1.00  0.00    -0.204 F 
HETATM    7  C9  UNL     1      66.116  48.003   7.545  1.00  0.00     0.292 C 
HETATM    8  O4  UNL     1      65.093  48.180   6.841  1.00  0.00    -0.259 OA
HETATM    9  O5  UNL     1      67.125  48.959   7.713  1.00  0.00    -0.311 OA
HETATM   10  C10 UNL     1      68.444  48.449   7.587  1.00  0.00     0.141 C 
HETATM   11  C11 UNL     1      69.483  49.490   7.961  1.00  0.00     0.034 C 
HETATM   12  C12 UNL     1      70.785  48.966   7.388  1.00  0.00     0.008 C 
HETATM   13  C13 UNL     1      70.948  47.486   7.645  1.00  0.00    -0.005 C 
HETATM   14  C14 UNL     1      70.075  46.950   8.736  1.00  0.00     0.001 C 
HETATM   15  C15 UNL     1      70.283  45.459   8.842  1.00  0.00     0.007 C 
HETATM   16  C16 UNL     1      71.730  45.209   9.204  1.00  0.00     0.014 C 
HETATM   17  C17 UNL     1      72.698  45.788   8.219  1.00  0.00     0.005 C 
HETATM   18  C18 UNL     1      72.738  45.048   6.908  1.00  0.00     0.020 C 
HETATM   19  C19 UNL     1      72.394  47.239   7.923  1.00  0.00     0.002 C 
HETATM   20  C20 UNL     1      72.939  47.958   9.104  1.00  0.00     0.010 C 
HETATM   21  C21 UNL     1      74.289  47.254   9.301  1.00  0.00     0.055 C 
HETATM   22  C22 UNL     1      74.064  45.816   8.902  1.00  0.00     0.153 C 
HETATM   23  C23 UNL     1      74.061  44.979  10.112  1.00  0.00     0.098 C 
HETATM   24  N2  UNL     1      74.056  44.335  11.076  1.00  0.00    -0.194 NA
ENDROOT
BRANCH  22  25
HETATM   25  O6  UNL     1      75.077  45.410   8.035  1.00  0.00    -0.375 OA
ATOM     26  H6  UNL     1      75.931  45.474   8.444  1.00  0.00     0.212 HD
ENDBRANCH  22  25
BRANCH   5  27
HETATM   27  C6  UNL     1      64.143  46.276   9.401  1.00  0.00     0.116 C 
HETATM   28  C7  UNL     1      64.007  46.965  10.535  1.00  0.00     0.027 C 
BRANCH  28  29
HETATM   29  C8  UNL     1      65.020  47.570  11.373  1.00  0.00     0.193 C 
BRANCH  29  30
HETATM   30  O1  UNL     1      65.603  46.634  12.269  1.00  0.00    -0.397 OA
ATOM     31  H1  UNL     1      65.122  45.815  12.294  1.00  0.00     0.209 HD
ENDBRANCH  29  30
ENDBRANCH  28  29
BRANCH  27  32
HETATM   32  S1  UNL     1      62.566  46.008   8.627  1.00  0.00     0.259 S 
HETATM   33  O2  UNL     1      61.444  46.259   9.584  1.00  0.00    -0.201 OA
HETATM   34  O3  UNL     1      62.451  44.805   7.810  1.00  0.00    -0.201 OA
BRANCH  32  35
HETATM   35  N1  UNL     1      62.447  47.324   7.424  1.00  0.00    -0.324 N 
ATOM     36  H12 UNL     1      61.691  48.002   7.322  1.00  0.00     0.169 HD
ATOM     37  H11 UNL     1      63.303  47.235   6.876  1.00  0.00     0.169 HD
ENDBRANCH  32  35
ENDBRANCH  27  32
ENDBRANCH   5  27
TORSDOF 6
ENDMDL
MODEL 4
REMARK VINA RESULT: -8.680829110      3.309      8.441
REMARK  6 active torsions:
REMARK  status: ('A' for Active; 'I' for Inactive)
REMARK    1  A    between atoms: C5_5  and  C6_7 
REMARK    2  A    between atoms: C6_7  and  S1_12 
REMARK    3  A    between atoms: C7_8  and  C8_9 
REMARK    4  A    between atoms: C8_9  and  O1_10 
REMARK    5  A    between atoms: S1_12  and  N1_13 
REMARK    6  A    between atoms: C22_33  and  O6_34 
ROOT
HETATM    1  C1  UNL     1      68.290  48.463   9.801  1.00  0.00     0.018 C 
HETATM    2  C2  UNL     1      68.686  47.624   8.586  1.00  0.00    -0.009 C 
HETATM    3  C3  UNL     1      67.679  46.488   8.536  1.00  0.00     0.060 C 
HETATM    4  C4  UNL     1      66.335  47.210   8.639  1.00  0.00     0.058 C 
HETATM    5  C5  UNL     1      65.433  46.778   9.436  1.00  0.00     0.151 C 
HETATM    6  F1  UNL     1      65.943  45.578  10.087  1.00  0.00    -0.204 F 
HETATM    7  C9  UNL     1      66.140  48.285   7.641  1.00  0.00     0.292 C 
HETATM    8  O4  UNL     1      65.064  48.386   7.005  1.00  0.00    -0.259 OA
HETATM    9  O5  UNL     1      67.233  49.145   7.471  1.00  0.00    -0.311 OA
HETATM   10  C10 UNL     1      68.487  48.486   7.369  1.00  0.00     0.141 C 
HETATM   11  C11 UNL     1      69.638  49.475   7.373  1.00  0.00     0.034 C 
HETATM   12  C12 UNL     1      70.825  48.695   6.846  1.00  0.00     0.008 C 
HETATM   13  C13 UNL     1      70.900  47.317   7.460  1.00  0.00    -0.005 C 
HETATM   14  C14 UNL     1      70.111  47.161   8.721  1.00  0.00     0.001 C 
HETATM   15  C15 UNL     1      70.213  45.729   9.189  1.00  0.00     0.007 C 
HETATM   16  C16 UNL     1      71.666  45.430   9.479  1.00  0.00     0.014 C 
HETATM   17  C17 UNL     1      72.565  45.643   8.300  1.00  0.00     0.005 C 
HETATM   18  C18 UNL     1      72.405  44.602   7.224  1.00  0.00     0.020 C 
HETATM   19  C19 UNL     1      72.344  46.999   7.668  1.00  0.00     0.002 C 
HETATM   20  C20 UNL     1      73.068  47.929   8.574  1.00  0.00     0.010 C 
HETATM   21  C21 UNL     1      74.372  47.162   8.830  1.00  0.00     0.055 C 
HETATM   22  C22 UNL     1      73.995  45.701   8.834  1.00  0.00     0.153 C 
HETATM   23  C23 UNL     1      74.057  45.195  10.214  1.00  0.00     0.098 C 
HETATM   24  N2  UNL     1      74.107  44.814  11.308  1.00  0.00    -0.194 NA
ENDROOT
BRANCH  22  25
HETATM   25  O6  UNL     1      74.873  44.990   8.018  1.00  0.00    -0.375 OA
ATOM     26  H6  UNL     1      75.164  44.189   8.435  1.00  0.00     0.212 HD
ENDBRANCH  22  25
BRANCH   5  27
HETATM   27  C6  UNL     1      64.252  47.285  10.040  1.00  0.00     0.116 C 
HETATM   28  C7  UNL     1      63.048  47.083   9.504  1.00  0.00     0.027 C 
BRANCH  28  29
HETATM   29  C8  UNL     1      62.684  46.377   8.294  1.00  0.00     0.193 C 
BRANCH  29  30
HETATM   30  O1  UNL     1      62.559  47.250   7.180  1.00  0.00    -0.397 OA
ATOM     31  H1  UNL     1      62.135  48.068   7.412  1.00  0.00     0.209 HD
ENDBRANCH  29  30
ENDBRANCH  28  29
BRANCH  27  32
HETATM   32  S1  UNL     1      64.114  47.963  11.676  1.00  0.00     0.259 S 
HETATM   33  O2  UNL     1      64.545  49.395  11.707  1.00  0.00    -0.201 OA
HETATM   34  O3  UNL     1      64.610  47.124  12.761  1.00  0.00    -0.201 OA
BRANCH  32  35
HETATM   35  N1  UNL     1      62.352  48.007  11.977  1.00  0.00    -0.324 N 
ATOM     36  H12 UNL     1      61.750  47.227  12.242  1.00  0.00     0.169 HD
ATOM     37  H11 UNL     1      62.101  48.984  11.823  1.00  0.00     0.169 HD
ENDBRANCH  32  35
ENDBRANCH  27  32
ENDBRANCH   5  27
TORSDOF 6
ENDMDL
MODEL 5
REMARK VINA RESULT: -8.640524722      3.356      8.371
REMARK  6 active torsions:
REMARK  status: ('A' for Active; 'I' for Inactive)
REMARK    1  A    between atoms: C5_5  and  C6_7 
REMARK    2  A    between atoms: C6_7  and  S1_12 
REMARK    3  A    between atoms: C7_8  and  C8_9 
REMARK    4  A    between atoms: C8_9  and  O1_10 
REMARK    5  A    between atoms: S1_12  and  N1_13 
REMARK    6  A    between atoms: C22_33  and  O6_34 
ROOT
HETATM    1  C1  UNL     1      67.585  48.036   9.925  1.00  0.00     0.018 C 
HETATM    2  C2  UNL     1      68.154  47.483   8.618  1.00  0.00    -0.009 C 
HETATM    3  C3  UNL     1      67.313  46.259   8.299  1.00  0.00     0.060 C 
HETATM    4  C4  UNL     1      65.880  46.780   8.421  1.00  0.00     0.058 C 
HETATM    5  C5  UNL     1      65.003  46.104   9.062  1.00  0.00     0.151 C 
HETATM    6  F1  UNL     1      65.636  44.879   9.535  1.00  0.00    -0.204 F 
HETATM    7  C9  UNL     1      65.596  47.984   7.609  1.00  0.00     0.292 C 
HETATM    8  O4  UNL     1      64.551  48.063   6.919  1.00  0.00    -0.259 OA
HETATM    9  O5  UNL     1      66.570  48.988   7.672  1.00  0.00    -0.311 OA
HETATM   10  C10 UNL     1      67.905  48.518   7.554  1.00  0.00     0.141 C 
HETATM   11  C11 UNL     1      68.911  49.625   7.814  1.00  0.00     0.034 C 
HETATM   12  C12 UNL     1      70.219  49.104   7.253  1.00  0.00     0.008 C 
HETATM   13  C13 UNL     1      70.445  47.657   7.627  1.00  0.00    -0.005 C 
HETATM   14  C14 UNL     1      69.619  47.182   8.780  1.00  0.00     0.001 C 
HETATM   15  C15 UNL     1      69.888  45.714   9.002  1.00  0.00     0.007 C 
HETATM   16  C16 UNL     1      71.351  45.548   9.347  1.00  0.00     0.014 C 
HETATM   17  C17 UNL     1      72.274  46.079   8.292  1.00  0.00     0.005 C 
HETATM   18  C18 UNL     1      72.313  45.235   7.046  1.00  0.00     0.020 C 
HETATM   19  C19 UNL     1      71.905  47.488   7.886  1.00  0.00     0.002 C 
HETATM   20  C20 UNL     1      72.449  48.323   8.990  1.00  0.00     0.010 C 
HETATM   21  C21 UNL     1      73.830  47.689   9.209  1.00  0.00     0.055 C 
HETATM   22  C22 UNL     1      73.652  46.215   8.935  1.00  0.00     0.153 C 
HETATM   23  C23 UNL     1      73.709  45.482  10.210  1.00  0.00     0.098 C 
HETATM   24  N2  UNL     1      73.752  44.920  11.224  1.00  0.00    -0.194 NA
ENDROOT
BRANCH  22  25
HETATM   25  O6  UNL     1      74.660  45.776   8.079  1.00  0.00    -0.375 OA
ATOM     26  H6  UNL     1      75.073  46.501   7.627  1.00  0.00     0.212 HD
ENDBRANCH  22  25
BRANCH   5  27
HETATM   27  C6  UNL     1      63.735  46.345   9.652  1.00  0.00     0.116 C 
HETATM   28  C7  UNL     1      62.693  45.543   9.428  1.00  0.00     0.027 C 
BRANCH  28  29
HETATM   29  C8  UNL     1      62.605  44.355   8.607  1.00  0.00     0.193 C 
BRANCH  29  30
HETATM   30  O1  UNL     1      62.353  43.189   9.377  1.00  0.00    -0.397 OA
ATOM     31  H1  UNL     1      62.759  42.416   9.002  1.00  0.00     0.209 HD
ENDBRANCH  29  30
ENDBRANCH  28  29
BRANCH  27  32
HETATM   32  S1  UNL     1      63.384  47.492  10.963  1.00  0.00     0.259 S 
HETATM   33  O2  UNL     1      64.569  47.666  11.860  1.00  0.00    -0.201 OA
HETATM   34  O3  UNL     1      62.098  47.327  11.631  1.00  0.00    -0.201 OA
BRANCH  32  35
HETATM   35  N1  UNL     1      63.206  49.061  10.128  1.00  0.00    -0.324 N 
ATOM     36  H12 UNL     1      62.697  49.247   9.263  1.00  0.00     0.169 HD
ATOM     37  H11 UNL     1      63.726  49.714  10.715  1.00  0.00     0.169 HD
ENDBRANCH  32  35
ENDBRANCH  27  32
ENDBRANCH   5  27
TORSDOF 6
ENDMDL
