MODEL 1
REMARK VINA RESULT: -8.568627697      0.000      0.000
REMARK  13 active torsions:
REMARK  status: ('A' for Active; 'I' for Inactive)
REMARK    1  A    between atoms: C13_13  and  C14_14 
REMARK    2  A    between atoms: C15_15  and  C16_16 
REMARK    3  A    between atoms: C16_16  and  C17_18 
REMARK    4  A    between atoms: C17_18  and  C19_20 
REMARK    5  A    between atoms: C19_20  and  O2_21 
REMARK    6  A    between atoms: C19_20  and  C20_23 
REMARK    7  A    between atoms: C20_23  and  N1_24 
REMARK    8  A    between atoms: C20_23  and  O3_31 
REMARK    9  A    between atoms: C21_26  and  C22_27 
REMARK   10  A    between atoms: C22_27  and  C23_28 
REMARK   11  A    between atoms: C23_28  and  C24_29 
REMARK   12  A    between atoms: O3_31  and  C26_32 
REMARK   13  A    between atoms: C36_43  and  O5_44 
ROOT
HETATM    1  C1  UNL     1      13.436  37.563 -13.480  1.00  0.00     0.015 C 
HETATM    2  C2  UNL     1      14.003  38.519 -12.750  1.00  0.00    -0.074 C 
HETATM    3  C3  UNL     1      13.276  39.771 -12.380  1.00  0.00     0.039 C 
HETATM    4  C4  UNL     1      14.007  40.079 -11.059  1.00  0.00     0.040 C 
HETATM    5  C5  UNL     1      15.442  39.872 -11.558  1.00  0.00    -0.061 C 
HETATM    6  C6  UNL     1      16.504  40.347 -10.671  1.00  0.00    -0.067 C 
HETATM    7  C7  UNL     1      17.667  40.752 -11.520  1.00  0.00     0.036 C 
HETATM    8  C8  UNL     1      18.903  41.229 -10.826  1.00  0.00     0.011 C 
HETATM    9  C9  UNL     1      19.106  40.309  -9.674  1.00  0.00     0.007 C 
HETATM   10  C10 UNL     1      20.488  40.328  -9.055  1.00  0.00    -0.016 C 
HETATM   11  C11 UNL     1      20.978  38.876  -8.768  1.00  0.00     0.020 C 
HETATM   12  C12 UNL     1      21.434  40.807 -10.110  1.00  0.00     0.020 C 
HETATM   13  C13 UNL     1      20.608  41.016  -7.783  1.00  0.00    -0.053 C 
HETATM   14  C28 UNL     1      19.518  40.751  -6.964  1.00  0.00    -0.018 C 
HETATM   15  C29 UNL     1      18.442  39.863  -7.452  1.00  0.00     0.038 C 
HETATM   16  C30 UNL     1      17.958  40.405  -8.729  1.00  0.00    -0.025 C 
HETATM   17  C31 UNL     1      17.548  41.852  -8.452  1.00  0.00     0.017 C 
HETATM   18  C32 UNL     1      16.779  39.682  -9.376  1.00  0.00    -0.012 C 
HETATM   19  C33 UNL     1      15.572  39.980  -8.461  1.00  0.00     0.021 C 
HETATM   20  C34 UNL     1      16.954  38.224  -9.352  1.00  0.00     0.017 C 
HETATM   21  C35 UNL     1      16.903  37.459 -10.639  1.00  0.00     0.034 C 
HETATM   22  C36 UNL     1      15.538  37.390 -11.273  1.00  0.00     0.135 C 
HETATM   23  C37 UNL     1      15.400  38.558 -12.182  1.00  0.00     0.028 C 
HETATM   24  C38 UNL     1      16.247  38.400 -13.451  1.00  0.00     0.027 C 
ENDROOT
BRANCH  13  25
HETATM   25  C14 UNL     1      21.603  41.857  -7.203  1.00  0.00     0.011 C 
HETATM   26  C15 UNL     1      21.900  42.890  -6.549  1.00  0.00     0.051 C 
BRANCH  26  27
HETATM   27  C16 UNL     1      21.480  44.041  -5.863  1.00  0.00     0.155 C 
HETATM   28  O1  UNL     1      21.775  44.392  -4.713  1.00  0.00    -0.293 OA
BRANCH  27  29
HETATM   29  C17 UNL     1      20.521  45.031  -6.572  1.00  0.00     0.088 C 
HETATM   30  C18 UNL     1      21.370  46.120  -7.135  1.00  0.00     0.021 C 
BRANCH  29  31
HETATM   31  C19 UNL     1      19.585  45.581  -5.495  1.00  0.00     0.178 C 
BRANCH  31  32
HETATM   32  O2  UNL     1      19.079  44.608  -4.705  1.00  0.00    -0.390 OA
ATOM     33  H2  UNL     1      19.318  44.721  -3.793  1.00  0.00     0.210 HD
ENDBRANCH  31  32
BRANCH  31  34
HETATM   34  C20 UNL     1      18.664  46.613  -6.037  1.00  0.00     0.259 C 
BRANCH  34  35
HETATM   35  N1  UNL     1      17.463  46.300  -6.563  1.00  0.00    -0.374 N 
HETATM   36  C21 UNL     1      17.041  45.835  -7.742  1.00  0.00     0.058 C 
ATOM     37  H1  UNL     1      16.697  46.453  -5.906  1.00  0.00     0.161 HD
BRANCH  36  38
HETATM   38  C22 UNL     1      17.021  46.688  -8.969  1.00  0.00     0.044 C 
BRANCH  38  39
HETATM   39  C23 UNL     1      18.336  46.368  -9.709  1.00  0.00     0.005 C 
BRANCH  39  40
HETATM   40  C24 UNL     1      18.621  44.890  -9.719  1.00  0.00    -0.004 C 
HETATM   41  C25 UNL     1      20.004  44.593 -10.249  1.00  0.00     0.005 C 
ENDBRANCH  39  40
ENDBRANCH  38  39
ENDBRANCH  36  38
ENDBRANCH  34  35
BRANCH  34  42
HETATM   42  O3  UNL     1      18.526  47.591  -4.950  1.00  0.00    -0.293 OA
BRANCH  42  43
HETATM   43  C26 UNL     1      18.334  48.897  -5.219  1.00  0.00     0.256 C 
HETATM   44  C27 UNL     1      19.447  49.907  -5.219  1.00  0.00     0.126 C 
HETATM   45  O4  UNL     1      17.201  49.368  -5.491  1.00  0.00    -0.266 OA
ENDBRANCH  42  43
ENDBRANCH  34  42
ENDBRANCH  31  34
ENDBRANCH  29  31
ENDBRANCH  27  29
ENDBRANCH  26  27
ENDBRANCH  13  25
BRANCH  22  46
HETATM   46  O5  UNL     1      15.461  36.187 -11.968  1.00  0.00    -0.394 OA
ATOM     47  H5  UNL     1      15.991  36.277 -12.752  1.00  0.00     0.210 HD
ENDBRANCH  22  46
TORSDOF 13
ENDMDL
MODEL 2
REMARK VINA RESULT: -8.557242988      1.337      2.007
REMARK  13 active torsions:
REMARK  status: ('A' for Active; 'I' for Inactive)
REMARK    1  A    between atoms: C13_13  and  C14_14 
REMARK    2  A    between atoms: C15_15  and  C16_16 
REMARK    3  A    between atoms: C16_16  and  C17_18 
REMARK    4  A    between atoms: C17_18  and  C19_20 
REMARK    5  A    between atoms: C19_20  and  O2_21 
REMARK    6  A    between atoms: C19_20  and  C20_23 
REMARK    7  A    between atoms: C20_23  and  N1_24 
REMARK    8  A    between atoms: C20_23  and  O3_31 
REMARK    9  A    between atoms: C21_26  and  C22_27 
REMARK   10  A    between atoms: C22_27  and  C23_28 
REMARK   11  A    between atoms: C23_28  and  C24_29 
REMARK   12  A    between atoms: O3_31  and  C26_32 
REMARK   13  A    between atoms: C36_43  and  O5_44 
ROOT
HETATM    1  C1  UNL     1      13.340  37.282 -13.385  1.00  0.00     0.015 C 
HETATM    2  C2  UNL     1      13.916  38.278 -12.718  1.00  0.00    -0.074 C 
HETATM    3  C3  UNL     1      13.186  39.541 -12.393  1.00  0.00     0.039 C 
HETATM    4  C4  UNL     1      13.947  39.921 -11.108  1.00  0.00     0.040 C 
HETATM    5  C5  UNL     1      15.371  39.701 -11.633  1.00  0.00    -0.061 C 
HETATM    6  C6  UNL     1      16.450  40.230 -10.798  1.00  0.00    -0.067 C 
HETATM    7  C7  UNL     1      17.588  40.601 -11.696  1.00  0.00     0.036 C 
HETATM    8  C8  UNL     1      18.835  41.123 -11.059  1.00  0.00     0.011 C 
HETATM    9  C9  UNL     1      19.076  40.264  -9.868  1.00  0.00     0.007 C 
HETATM   10  C10 UNL     1      20.473  40.326  -9.286  1.00  0.00    -0.016 C 
HETATM   11  C11 UNL     1      20.985  38.895  -8.940  1.00  0.00     0.020 C 
HETATM   12  C12 UNL     1      21.388  40.760 -10.388  1.00  0.00     0.020 C 
HETATM   13  C13 UNL     1      20.619  41.077  -8.053  1.00  0.00    -0.053 C 
HETATM   14  C28 UNL     1      19.553  40.845  -7.194  1.00  0.00    -0.018 C 
HETATM   15  C29 UNL     1      18.474  39.923  -7.610  1.00  0.00     0.038 C 
HETATM   16  C30 UNL     1      17.952  40.397  -8.900  1.00  0.00    -0.025 C 
HETATM   17  C31 UNL     1      17.535  41.852  -8.684  1.00  0.00     0.017 C 
HETATM   18  C32 UNL     1      16.764  39.632  -9.479  1.00  0.00    -0.012 C 
HETATM   19  C33 UNL     1      15.578  39.966  -8.549  1.00  0.00     0.021 C 
HETATM   20  C34 UNL     1      16.954  38.179  -9.388  1.00  0.00     0.017 C 
HETATM   21  C35 UNL     1      16.879  37.351 -10.633  1.00  0.00     0.034 C 
HETATM   22  C36 UNL     1      15.499  37.238 -11.227  1.00  0.00     0.135 C 
HETATM   23  C37 UNL     1      15.326  38.357 -12.190  1.00  0.00     0.028 C 
HETATM   24  C38 UNL     1      16.142  38.143 -13.471  1.00  0.00     0.027 C 
ENDROOT
BRANCH  13  25
HETATM   25  C14 UNL     1      21.620  41.956  -7.542  1.00  0.00     0.011 C 
HETATM   26  C15 UNL     1      21.940  42.911  -6.788  1.00  0.00     0.051 C 
BRANCH  26  27
HETATM   27  C16 UNL     1      21.558  43.874  -5.841  1.00  0.00     0.155 C 
HETATM   28  O1  UNL     1      21.516  43.757  -4.610  1.00  0.00    -0.293 OA
BRANCH  27  29
HETATM   29  C17 UNL     1      21.114  45.276  -6.332  1.00  0.00     0.088 C 
HETATM   30  C18 UNL     1      21.622  46.260  -5.332  1.00  0.00     0.021 C 
BRANCH  29  31
HETATM   31  C19 UNL     1      19.585  45.270  -6.351  1.00  0.00     0.178 C 
BRANCH  31  32
HETATM   32  O2  UNL     1      19.068  44.102  -5.909  1.00  0.00    -0.390 OA
ATOM     33  H2  UNL     1      18.129  44.048  -6.040  1.00  0.00     0.210 HD
ENDBRANCH  31  32
BRANCH  31  34
HETATM   34  C20 UNL     1      19.045  45.862  -7.601  1.00  0.00     0.259 C 
BRANCH  34  35
HETATM   35  N1  UNL     1      18.856  45.134  -8.719  1.00  0.00    -0.374 N 
HETATM   36  C21 UNL     1      19.659  44.501  -9.580  1.00  0.00     0.058 C 
ATOM     37  H1  UNL     1      17.870  45.044  -8.966  1.00  0.00     0.161 HD
BRANCH  36  38
HETATM   38  C22 UNL     1      20.507  45.241 -10.564  1.00  0.00     0.044 C 
BRANCH  38  39
HETATM   39  C23 UNL     1      20.998  44.174 -11.563  1.00  0.00     0.005 C 
BRANCH  39  40
HETATM   40  C24 UNL     1      20.861  44.645 -12.986  1.00  0.00    -0.004 C 
HETATM   41  C25 UNL     1      20.927  43.493 -13.962  1.00  0.00     0.005 C 
ENDBRANCH  39  40
ENDBRANCH  38  39
ENDBRANCH  36  38
ENDBRANCH  34  35
BRANCH  34  42
HETATM   42  O3  UNL     1      17.800  46.525  -7.187  1.00  0.00    -0.293 OA
BRANCH  42  43
HETATM   43  C26 UNL     1      16.603  45.962  -7.442  1.00  0.00     0.256 C 
HETATM   44  C27 UNL     1      15.503  46.672  -8.179  1.00  0.00     0.126 C 
HETATM   45  O4  UNL     1      16.319  44.793  -7.078  1.00  0.00    -0.266 OA
ENDBRANCH  42  43
ENDBRANCH  34  42
ENDBRANCH  31  34
ENDBRANCH  29  31
ENDBRANCH  27  29
ENDBRANCH  26  27
ENDBRANCH  13  25
BRANCH  22  46
HETATM   46  O5  UNL     1      15.416  36.001 -11.860  1.00  0.00    -0.394 OA
ATOM     47  H5  UNL     1      14.812  35.465 -11.359  1.00  0.00     0.210 HD
ENDBRANCH  22  46
TORSDOF 13
ENDMDL
MODEL 3
REMARK VINA RESULT: -8.485797594      2.819      4.663
REMARK  13 active torsions:
REMARK  status: ('A' for Active; 'I' for Inactive)
REMARK    1  A    between atoms: C13_13  and  C14_14 
REMARK    2  A    between atoms: C15_15  and  C16_16 
REMARK    3  A    between atoms: C16_16  and  C17_18 
REMARK    4  A    between atoms: C17_18  and  C19_20 
REMARK    5  A    between atoms: C19_20  and  O2_21 
REMARK    6  A    between atoms: C19_20  and  C20_23 
REMARK    7  A    between atoms: C20_23  and  N1_24 
REMARK    8  A    between atoms: C20_23  and  O3_31 
REMARK    9  A    between atoms: C21_26  and  C22_27 
REMARK   10  A    between atoms: C22_27  and  C23_28 
REMARK   11  A    between atoms: C23_28  and  C24_29 
REMARK   12  A    between atoms: O3_31  and  C26_32 
REMARK   13  A    between atoms: C36_43  and  O5_44 
ROOT
HETATM    1  C1  UNL     1      13.371  36.817 -13.023  1.00  0.00     0.015 C 
HETATM    2  C2  UNL     1      13.915  37.931 -12.543  1.00  0.00    -0.074 C 
HETATM    3  C3  UNL     1      13.188  39.236 -12.550  1.00  0.00     0.039 C 
HETATM    4  C4  UNL     1      13.861  39.881 -11.323  1.00  0.00     0.040 C 
HETATM    5  C5  UNL     1      15.315  39.550 -11.681  1.00  0.00    -0.061 C 
HETATM    6  C6  UNL     1      16.341  40.242 -10.901  1.00  0.00    -0.067 C 
HETATM    7  C7  UNL     1      17.547  40.409 -11.771  1.00  0.00     0.036 C 
HETATM    8  C8  UNL     1      18.755  41.052 -11.168  1.00  0.00     0.011 C 
HETATM    9  C9  UNL     1      18.894  40.467  -9.807  1.00  0.00     0.007 C 
HETATM   10  C10 UNL     1      20.246  40.648  -9.150  1.00  0.00    -0.016 C 
HETATM   11  C11 UNL     1      20.705  39.323  -8.470  1.00  0.00     0.020 C 
HETATM   12  C12 UNL     1      21.246  40.833 -10.248  1.00  0.00     0.020 C 
HETATM   13  C13 UNL     1      20.317  41.646  -8.099  1.00  0.00    -0.053 C 
HETATM   14  C28 UNL     1      19.187  41.606  -7.291  1.00  0.00    -0.018 C 
HETATM   15  C29 UNL     1      18.124  40.620  -7.580  1.00  0.00     0.038 C 
HETATM   16  C30 UNL     1      17.705  40.808  -8.976  1.00  0.00    -0.025 C 
HETATM   17  C31 UNL     1      17.301  42.276  -9.108  1.00  0.00     0.017 C 
HETATM   18  C32 UNL     1      16.548  39.940  -9.465  1.00  0.00    -0.012 C 
HETATM   19  C33 UNL     1      15.304  40.468  -8.719  1.00  0.00     0.021 C 
HETATM   20  C34 UNL     1      16.704  38.540  -9.052  1.00  0.00     0.017 C 
HETATM   21  C35 UNL     1      16.703  37.464 -10.094  1.00  0.00     0.034 C 
HETATM   22  C36 UNL     1      15.367  37.230 -10.751  1.00  0.00     0.135 C 
HETATM   23  C37 UNL     1      15.286  38.118 -11.940  1.00  0.00     0.028 C 
HETATM   24  C38 UNL     1      16.187  37.632 -13.082  1.00  0.00     0.027 C 
ENDROOT
BRANCH  13  25
HETATM   25  C14 UNL     1      21.295  42.610  -7.714  1.00  0.00     0.011 C 
HETATM   26  C15 UNL     1      21.573  43.723  -7.196  1.00  0.00     0.051 C 
BRANCH  26  27
HETATM   27  C16 UNL     1      21.134  44.905  -6.579  1.00  0.00     0.155 C 
HETATM   28  O1  UNL     1      20.609  45.892  -7.110  1.00  0.00    -0.293 OA
BRANCH  27  29
HETATM   29  C17 UNL     1      21.307  45.062  -5.046  1.00  0.00     0.088 C 
HETATM   30  C18 UNL     1      22.611  44.429  -4.696  1.00  0.00     0.021 C 
BRANCH  29  31
HETATM   31  C19 UNL     1      20.149  44.304  -4.395  1.00  0.00     0.178 C 
BRANCH  31  32
HETATM   32  O2  UNL     1      18.947  44.843  -4.693  1.00  0.00    -0.390 OA
ATOM     33  H2  UNL     1      18.513  45.207  -3.930  1.00  0.00     0.210 HD
ENDBRANCH  31  32
BRANCH  31  34
HETATM   34  C20 UNL     1      20.444  43.952  -2.982  1.00  0.00     0.259 C 
BRANCH  34  35
HETATM   35  N1  UNL     1      19.470  43.750  -2.073  1.00  0.00    -0.374 N 
HETATM   36  C21 UNL     1      19.296  44.072  -0.788  1.00  0.00     0.058 C 
ATOM     37  H1  UNL     1      18.680  43.229  -2.456  1.00  0.00     0.161 HD
BRANCH  36  38
HETATM   38  C22 UNL     1      20.049  43.391   0.309  1.00  0.00     0.044 C 
BRANCH  38  39
HETATM   39  C23 UNL     1      20.370  44.499   1.332  1.00  0.00     0.005 C 
BRANCH  39  40
HETATM   40  C24 UNL     1      21.855  44.670   1.516  1.00  0.00    -0.004 C 
HETATM   41  C25 UNL     1      22.366  43.868   2.691  1.00  0.00     0.005 C 
ENDBRANCH  39  40
ENDBRANCH  38  39
ENDBRANCH  36  38
ENDBRANCH  34  35
BRANCH  34  42
HETATM   42  O3  UNL     1      21.334  42.787  -3.071  1.00  0.00    -0.293 OA
BRANCH  42  43
HETATM   43  C26 UNL     1      20.885  41.614  -3.557  1.00  0.00     0.256 C 
HETATM   44  C27 UNL     1      21.655  40.788  -4.549  1.00  0.00     0.126 C 
HETATM   45  O4  UNL     1      19.781  41.122  -3.212  1.00  0.00    -0.266 OA
ENDBRANCH  42  43
ENDBRANCH  34  42
ENDBRANCH  31  34
ENDBRANCH  29  31
ENDBRANCH  27  29
ENDBRANCH  26  27
ENDBRANCH  13  25
BRANCH  22  46
HETATM   46  O5  UNL     1      15.307  35.887 -11.109  1.00  0.00    -0.394 OA
ATOM     47  H5  UNL     1      16.018  35.722 -11.718  1.00  0.00     0.210 HD
ENDBRANCH  22  46
TORSDOF 13
ENDMDL
MODEL 4
REMARK VINA RESULT: -8.451619288      3.205      4.495
REMARK  13 active torsions:
REMARK  status: ('A' for Active; 'I' for Inactive)
REMARK    1  A    between atoms: C13_13  and  C14_14 
REMARK    2  A    between atoms: C15_15  and  C16_16 
REMARK    3  A    between atoms: C16_16  and  C17_18 
REMARK    4  A    between atoms: C17_18  and  C19_20 
REMARK    5  A    between atoms: C19_20  and  O2_21 
REMARK    6  A    between atoms: C19_20  and  C20_23 
REMARK    7  A    between atoms: C20_23  and  N1_24 
REMARK    8  A    between atoms: C20_23  and  O3_31 
REMARK    9  A    between atoms: C21_26  and  C22_27 
REMARK   10  A    between atoms: C22_27  and  C23_28 
REMARK   11  A    between atoms: C23_28  and  C24_29 
REMARK   12  A    between atoms: O3_31  and  C26_32 
REMARK   13  A    between atoms: C36_43  and  O5_44 
ROOT
HETATM    1  C1  UNL     1      13.312  37.438 -13.596  1.00  0.00     0.015 C 
HETATM    2  C2  UNL     1      13.893  38.396 -12.879  1.00  0.00    -0.074 C 
HETATM    3  C3  UNL     1      13.185  39.664 -12.528  1.00  0.00     0.039 C 
HETATM    4  C4  UNL     1      13.919  39.980 -11.211  1.00  0.00     0.040 C 
HETATM    5  C5  UNL     1      15.351  39.744 -11.706  1.00  0.00    -0.061 C 
HETATM    6  C6  UNL     1      16.419  40.216 -10.825  1.00  0.00    -0.067 C 
HETATM    7  C7  UNL     1      17.589  40.591 -11.679  1.00  0.00     0.036 C 
HETATM    8  C8  UNL     1      18.831  41.060 -10.991  1.00  0.00     0.011 C 
HETATM    9  C9  UNL     1      19.020  40.153  -9.826  1.00  0.00     0.007 C 
HETATM   10  C10 UNL     1      20.401  40.161  -9.206  1.00  0.00    -0.016 C 
HETATM   11  C11 UNL     1      20.870  38.707  -8.898  1.00  0.00     0.020 C 
HETATM   12  C12 UNL     1      21.356  40.610 -10.267  1.00  0.00     0.020 C 
HETATM   13  C13 UNL     1      20.532  40.865  -7.944  1.00  0.00    -0.053 C 
HETATM   14  C28 UNL     1      19.437  40.629  -7.122  1.00  0.00    -0.018 C 
HETATM   15  C29 UNL     1      18.348  39.749  -7.598  1.00  0.00     0.038 C 
HETATM   16  C30 UNL     1      17.873  40.280  -8.883  1.00  0.00    -0.025 C 
HETATM   17  C31 UNL     1      17.484  41.737  -8.627  1.00  0.00     0.017 C 
HETATM   18  C32 UNL     1      16.683  39.565  -9.520  1.00  0.00    -0.012 C 
HETATM   19  C33 UNL     1      15.481  39.895  -8.611  1.00  0.00     0.021 C 
HETATM   20  C34 UNL     1      16.837  38.106  -9.476  1.00  0.00     0.017 C 
HETATM   21  C35 UNL     1      16.776  37.323 -10.751  1.00  0.00     0.034 C 
HETATM   22  C36 UNL     1      15.410  37.266 -11.385  1.00  0.00     0.135 C 
HETATM   23  C37 UNL     1      15.290  38.422 -12.311  1.00  0.00     0.028 C 
HETATM   24  C38 UNL     1      16.135  38.233 -13.577  1.00  0.00     0.027 C 
ENDROOT
BRANCH  13  25
HETATM   25  C14 UNL     1      21.539  41.700  -7.376  1.00  0.00     0.011 C 
HETATM   26  C15 UNL     1      22.311  42.688  -7.479  1.00  0.00     0.051 C 
BRANCH  26  27
HETATM   27  C16 UNL     1      22.794  43.761  -8.244  1.00  0.00     0.155 C 
HETATM   28  O1  UNL     1      23.235  44.845  -7.842  1.00  0.00    -0.293 OA
BRANCH  27  29
HETATM   29  C17 UNL     1      22.795  43.642  -9.790  1.00  0.00     0.088 C 
HETATM   30  C18 UNL     1      24.181  43.262 -10.189  1.00  0.00     0.021 C 
BRANCH  29  31
HETATM   31  C19 UNL     1      22.438  45.025 -10.336  1.00  0.00     0.178 C 
BRANCH  31  32
HETATM   32  O2  UNL     1      21.257  45.479  -9.861  1.00  0.00    -0.390 OA
ATOM     33  H2  UNL     1      21.298  45.697  -8.937  1.00  0.00     0.210 HD
ENDBRANCH  31  32
BRANCH  31  34
HETATM   34  C20 UNL     1      22.710  45.132 -11.793  1.00  0.00     0.259 C 
BRANCH  34  35
HETATM   35  N1  UNL     1      21.731  45.345 -12.694  1.00  0.00    -0.374 N 
HETATM   36  C21 UNL     1      20.787  44.587 -13.259  1.00  0.00     0.058 C 
ATOM     37  H1  UNL     1      21.704  46.312 -13.020  1.00  0.00     0.161 HD
BRANCH  36  38
HETATM   38  C22 UNL     1      21.110  43.562 -14.298  1.00  0.00     0.044 C 
BRANCH  38  39
HETATM   39  C23 UNL     1      20.687  42.212 -13.684  1.00  0.00     0.005 C 
BRANCH  39  40
HETATM   40  C24 UNL     1      20.382  41.192 -14.748  1.00  0.00    -0.004 C 
HETATM   41  C25 UNL     1      20.541  39.782 -14.229  1.00  0.00     0.005 C 
ENDBRANCH  39  40
ENDBRANCH  38  39
ENDBRANCH  36  38
ENDBRANCH  34  35
BRANCH  34  42
HETATM   42  O3  UNL     1      23.757  46.158 -11.897  1.00  0.00    -0.293 OA
BRANCH  42  43
HETATM   43  C26 UNL     1      24.477  46.294 -13.028  1.00  0.00     0.256 C 
HETATM   44  C27 UNL     1      25.873  45.759 -13.180  1.00  0.00     0.126 C 
HETATM   45  O4  UNL     1      24.029  46.883 -14.043  1.00  0.00    -0.266 OA
ENDBRANCH  42  43
ENDBRANCH  34  42
ENDBRANCH  31  34
ENDBRANCH  29  31
ENDBRANCH  27  29
ENDBRANCH  26  27
ENDBRANCH  13  25
BRANCH  22  46
HETATM   46  O5  UNL     1      15.315  36.054 -12.063  1.00  0.00    -0.394 OA
ATOM     47  H5  UNL     1      15.211  35.370 -11.412  1.00  0.00     0.210 HD
ENDBRANCH  22  46
TORSDOF 13
ENDMDL
MODEL 5
REMARK VINA RESULT: -8.404027665      2.639      3.854
REMARK  13 active torsions:
REMARK  status: ('A' for Active; 'I' for Inactive)
REMARK    1  A    between atoms: C13_13  and  C14_14 
REMARK    2  A    between atoms: C15_15  and  C16_16 
REMARK    3  A    between atoms: C16_16  and  C17_18 
REMARK    4  A    between atoms: C17_18  and  C19_20 
REMARK    5  A    between atoms: C19_20  and  O2_21 
REMARK    6  A    between atoms: C19_20  and  C20_23 
REMARK    7  A    between atoms: C20_23  and  N1_24 
REMARK    8  A    between atoms: C20_23  and  O3_31 
REMARK    9  A    between atoms: C21_26  and  C22_27 
REMARK   10  A    between atoms: C22_27  and  C23_28 
REMARK   11  A    between atoms: C23_28  and  C24_29 
REMARK   12  A    between atoms: O3_31  and  C26_32 
REMARK   13  A    between atoms: C36_43  and  O5_44 
ROOT
HETATM    1  C1  UNL     1      13.367  37.439 -13.513  1.00  0.00     0.015 C 
HETATM    2  C2  UNL     1      13.947  38.400 -12.800  1.00  0.00    -0.074 C 
HETATM    3  C3  UNL     1      13.239  39.669 -12.454  1.00  0.00     0.039 C 
HETATM    4  C4  UNL     1      13.973  39.991 -11.139  1.00  0.00     0.040 C 
HETATM    5  C5  UNL     1      15.405  39.753 -11.632  1.00  0.00    -0.061 C 
HETATM    6  C6  UNL     1      16.473  40.229 -10.754  1.00  0.00    -0.067 C 
HETATM    7  C7  UNL     1      17.643  40.601 -11.609  1.00  0.00     0.036 C 
HETATM    8  C8  UNL     1      18.885  41.073 -10.923  1.00  0.00     0.011 C 
HETATM    9  C9  UNL     1      19.074  40.171  -9.754  1.00  0.00     0.007 C 
HETATM   10  C10 UNL     1      20.456  40.182  -9.134  1.00  0.00    -0.016 C 
HETATM   11  C11 UNL     1      20.925  38.729  -8.821  1.00  0.00     0.020 C 
HETATM   12  C12 UNL     1      21.410  40.627 -10.197  1.00  0.00     0.020 C 
HETATM   13  C13 UNL     1      20.586  40.891  -7.875  1.00  0.00    -0.053 C 
HETATM   14  C28 UNL     1      19.492  40.658  -7.052  1.00  0.00    -0.018 C 
HETATM   15  C29 UNL     1      18.403  39.776  -7.525  1.00  0.00     0.038 C 
HETATM   16  C30 UNL     1      17.927  40.302  -8.812  1.00  0.00    -0.025 C 
HETATM   17  C31 UNL     1      17.538  41.759  -8.562  1.00  0.00     0.017 C 
HETATM   18  C32 UNL     1      16.738  39.584  -9.446  1.00  0.00    -0.012 C 
HETATM   19  C33 UNL     1      15.535  39.917  -8.538  1.00  0.00     0.021 C 
HETATM   20  C34 UNL     1      16.892  38.125  -9.395  1.00  0.00     0.017 C 
HETATM   21  C35 UNL     1      16.831  37.337 -10.668  1.00  0.00     0.034 C 
HETATM   22  C36 UNL     1      15.465  37.276 -11.301  1.00  0.00     0.135 C 
HETATM   23  C37 UNL     1      15.345  38.428 -12.232  1.00  0.00     0.028 C 
HETATM   24  C38 UNL     1      16.189  38.234 -13.497  1.00  0.00     0.027 C 
ENDROOT
BRANCH  13  25
HETATM   25  C14 UNL     1      21.593  41.729  -7.311  1.00  0.00     0.011 C 
HETATM   26  C15 UNL     1      22.170  42.846  -7.263  1.00  0.00     0.051 C 
BRANCH  26  27
HETATM   27  C16 UNL     1      22.277  44.164  -7.731  1.00  0.00     0.155 C 
HETATM   28  O1  UNL     1      21.600  45.146  -7.403  1.00  0.00    -0.293 OA
BRANCH  27  29
HETATM   29  C17 UNL     1      23.350  44.498  -8.800  1.00  0.00     0.088 C 
HETATM   30  C18 UNL     1      23.178  45.939  -9.143  1.00  0.00     0.021 C 
BRANCH  29  31
HETATM   31  C19 UNL     1      23.050  43.617 -10.013  1.00  0.00     0.178 C 
BRANCH  31  32
HETATM   32  O2  UNL     1      24.118  42.881 -10.393  1.00  0.00    -0.390 OA
ATOM     33  H2  UNL     1      24.053  41.976 -10.113  1.00  0.00     0.210 HD
ENDBRANCH  31  32
BRANCH  31  34
HETATM   34  C20 UNL     1      22.281  44.349 -11.052  1.00  0.00     0.259 C 
BRANCH  34  35
HETATM   35  N1  UNL     1      22.537  44.211 -12.367  1.00  0.00    -0.374 N 
HETATM   36  C21 UNL     1      21.908  44.561 -13.493  1.00  0.00     0.058 C 
ATOM     37  H1  UNL     1      23.416  43.725 -12.545  1.00  0.00     0.161 HD
BRANCH  36  38
HETATM   38  C22 UNL     1      20.675  43.860 -13.964  1.00  0.00     0.044 C 
BRANCH  38  39
HETATM   39  C23 UNL     1      20.920  42.365 -13.674  1.00  0.00     0.005 C 
BRANCH  39  40
HETATM   40  C24 UNL     1      20.492  41.500 -14.829  1.00  0.00    -0.004 C 
HETATM   41  C25 UNL     1      20.349  40.053 -14.418  1.00  0.00     0.005 C 
ENDBRANCH  39  40
ENDBRANCH  38  39
ENDBRANCH  36  38
ENDBRANCH  34  35
BRANCH  34  42
HETATM   42  O3  UNL     1      20.875  44.044 -10.752  1.00  0.00    -0.293 OA
BRANCH  42  43
HETATM   43  C26 UNL     1      19.983  45.034 -10.553  1.00  0.00     0.256 C 
HETATM   44  C27 UNL     1      18.809  44.906  -9.623  1.00  0.00     0.126 C 
HETATM   45  O4  UNL     1      20.069  46.144 -11.137  1.00  0.00    -0.266 OA
ENDBRANCH  42  43
ENDBRANCH  34  42
ENDBRANCH  31  34
ENDBRANCH  29  31
ENDBRANCH  27  29
ENDBRANCH  26  27
ENDBRANCH  13  25
BRANCH  22  46
HETATM   46  O5  UNL     1      15.371  36.061 -11.974  1.00  0.00    -0.394 OA
ATOM     47  H5  UNL     1      14.785  36.189 -12.711  1.00  0.00     0.210 HD
ENDBRANCH  22  46
TORSDOF 13
ENDMDL
