MODEL 1
REMARK VINA RESULT: -9.481421293      0.000      0.000
REMARK  16 active torsions:
REMARK  status: ('A' for Active; 'I' for Inactive)
REMARK    1  A    between atoms: C3_3  and  C4_4 
REMARK    2  A    between atoms: C5_5  and  C6_6 
REMARK    3  A    between atoms: C8_8  and  C9_9 
REMARK    4  A    between atoms: C14_17  and  O3_18 
REMARK    5  A    between atoms: C17_24  and  C18_25 
REMARK    6  A    between atoms: C18_25  and  O6_26 
REMARK    7  A    between atoms: C18_25  and  C19_28 
REMARK    8  A    between atoms: C19_28  and  O7_29 
REMARK    9  A    between atoms: C19_28  and  C20_31 
REMARK   10  A    between atoms: C20_31  and  O8_32 
REMARK   11  A    between atoms: C21_35  and  C22_36 
REMARK   12  A    between atoms: C22_36  and  N2_37 
REMARK   13  A    between atoms: C22_36  and  C23_41 
REMARK   14  A    between atoms: C23_41  and  O11_43 
REMARK   15  A    between atoms: O11_43  and  C24_44 
REMARK   16  A    between atoms: C24_44  and  N3_45 
ROOT
HETATM    1  C9  UNL     1      20.957 -10.959 -19.685  1.00  0.00     0.044 A 
HETATM    2  C10 UNL     1      20.847 -12.256 -20.106  1.00  0.00     0.065 A 
HETATM    3  C11 UNL     1      19.997 -13.193 -19.395  1.00  0.00     0.100 C 
HETATM    4  N1  UNL     1      19.336 -13.957 -18.825  1.00  0.00    -0.191 NA
HETATM    5  C12 UNL     1      21.584 -12.728 -21.195  1.00  0.00     0.106 A 
HETATM    6  C13 UNL     1      22.420 -11.829 -21.815  1.00  0.00     0.291 A 
HETATM    7  O1  UNL     1      23.075 -12.300 -22.805  1.00  0.00    -0.260 OA
HETATM    8  O2  UNL     1      22.526 -10.605 -21.418  1.00  0.00    -0.251 OA
HETATM    9  C14 UNL     1      21.840 -10.151 -20.400  1.00  0.00     0.198 A 
ENDROOT
BRANCH   1  10
HETATM   10  C8  UNL     1      20.166 -10.429 -18.595  1.00  0.00     0.024 C 
HETATM   11  C6  UNL     1      20.477 -10.365 -17.346  1.00  0.00    -0.061 C 
HETATM   12  C7  UNL     1      19.508  -9.764 -16.372  1.00  0.00     0.048 C 
BRANCH  11  13
HETATM   13  C5  UNL     1      21.749 -10.844 -16.749  1.00  0.00     0.003 C 
HETATM   14  C4  UNL     1      22.723 -10.044 -16.468  1.00  0.00    -0.015 C 
BRANCH  14  15
HETATM   15  C3  UNL     1      24.035 -10.178 -15.913  1.00  0.00     0.063 C 
HETATM   16  C2  UNL     1      25.216  -9.888 -16.759  1.00  0.00    -0.046 C 
HETATM   17  C1  UNL     1      25.294  -9.103 -17.766  1.00  0.00     0.018 C 
HETATM   18  C28 UNL     1      26.500 -10.551 -16.214  1.00  0.00     0.209 C 
HETATM   19  C16 UNL     1      26.450 -10.279 -14.723  1.00  0.00     0.296 C 
HETATM   20  O15 UNL     1      26.485 -11.856 -16.579  1.00  0.00    -0.344 OA
HETATM   21  O4  UNL     1      25.682  -9.168 -14.482  1.00  0.00    -0.357 OA
HETATM   22  O5  UNL     1      26.044 -11.326 -13.948  1.00  0.00    -0.326 OA
HETATM   23  C15 UNL     1      24.315  -9.270 -14.685  1.00  0.00     0.184 C 
HETATM   24  C17 UNL     1      26.628 -12.542 -14.270  1.00  0.00     0.297 C 
HETATM   25  O9  UNL     1      27.877 -12.385 -14.909  1.00  0.00    -0.326 OA
HETATM   26  C21 UNL     1      27.655 -12.538 -16.260  1.00  0.00     0.304 C 
BRANCH  24  27
HETATM   27  C18 UNL     1      26.692 -13.542 -13.162  1.00  0.00     0.204 C 
BRANCH  27  28
HETATM   28  O6  UNL     1      27.975 -13.310 -12.555  1.00  0.00    -0.388 OA
ATOM     29  H6  UNL     1      28.235 -14.164 -12.231  1.00  0.00     0.210 HD
ENDBRANCH  27  28
BRANCH  27  30
HETATM   30  C19 UNL     1      25.717 -13.378 -12.052  1.00  0.00     0.175 C 
BRANCH  30  31
HETATM   31  O7  UNL     1      24.880 -14.461 -11.842  1.00  0.00    -0.391 OA
ATOM     32  H7  UNL     1      24.167 -14.306 -11.234  1.00  0.00     0.210 HD
ENDBRANCH  30  31
BRANCH  30  33
HETATM   33  C20 UNL     1      26.216 -12.725 -10.810  1.00  0.00     0.198 C 
BRANCH  33  34
HETATM   34  O8  UNL     1      26.135 -11.350 -10.924  1.00  0.00    -0.398 OA
ATOM     35  H8  UNL     1      26.695 -10.931 -10.280  1.00  0.00     0.209 HD
ENDBRANCH  33  34
ENDBRANCH  30  33
ENDBRANCH  27  30
ENDBRANCH  24  27
BRANCH  26  36
HETATM   36  C22 UNL     1      28.787 -12.097 -17.132  1.00  0.00     0.337 C 
BRANCH  36  37
HETATM   37  N2  UNL     1      29.388 -10.922 -16.531  1.00  0.00    -0.061 N 
ATOM     38  H23 UNL     1      28.880 -10.065 -16.747  1.00  0.00     0.275 HD
ATOM     39  H22 UNL     1      29.276 -10.897 -15.518  1.00  0.00     0.275 HD
ATOM     40  H21 UNL     1      30.366 -10.883 -16.820  1.00  0.00     0.275 HD
ENDBRANCH  36  37
BRANCH  36  41
HETATM   41  C23 UNL     1      28.356 -11.778 -18.502  1.00  0.00     0.296 C 
HETATM   42  O10 UNL     1      28.188 -10.579 -18.890  1.00  0.00    -0.263 OA
BRANCH  41  43
HETATM   43  O11 UNL     1      28.124 -12.784 -19.401  1.00  0.00    -0.299 OA
BRANCH  43  44
HETATM   44  C24 UNL     1      28.511 -12.746 -20.760  1.00  0.00     0.319 C 
BRANCH  44  45
HETATM   45  N3  UNL     1      27.553 -13.540 -21.504  1.00  0.00    -0.228 N 
HETATM   46  C25 UNL     1      27.721 -14.836 -21.809  1.00  0.00     0.336 A 
HETATM   47  O12 UNL     1      28.772 -15.402 -21.428  1.00  0.00    -0.246 OA
HETATM   48  N4  UNL     1      26.831 -15.564 -22.496  1.00  0.00    -0.260 N 
HETATM   49  C26 UNL     1      25.693 -14.988 -22.919  1.00  0.00     0.332 A 
ATOM     50  H4  UNL     1      27.016 -16.547 -22.697  1.00  0.00     0.175 HD
HETATM   51  O13 UNL     1      24.837 -15.647 -23.568  1.00  0.00    -0.246 OA
HETATM   52  N5  UNL     1      25.500 -13.696 -22.628  1.00  0.00    -0.260 N 
HETATM   53  C27 UNL     1      26.392 -12.972 -21.941  1.00  0.00     0.336 A 
ATOM     54  H5  UNL     1      24.641 -13.246 -22.942  1.00  0.00     0.175 HD
HETATM   55  O14 UNL     1      26.158 -11.766 -21.698  1.00  0.00    -0.246 OA
ENDBRANCH  44  45
ENDBRANCH  43  44
ENDBRANCH  41  43
ENDBRANCH  36  41
ENDBRANCH  26  36
ENDBRANCH  14  15
ENDBRANCH  11  13
ENDBRANCH   1  10
BRANCH   9  56
HETATM   56  O3  UNL     1      21.953  -8.832 -19.971  1.00  0.00    -0.340 OA
ATOM     57  H3  UNL     1      21.314  -8.221 -20.318  1.00  0.00     0.220 HD
ENDBRANCH   9  56
TORSDOF 16
ENDMDL
MODEL 2
REMARK VINA RESULT: -9.397093971      1.777      2.637
REMARK  16 active torsions:
REMARK  status: ('A' for Active; 'I' for Inactive)
REMARK    1  A    between atoms: C3_3  and  C4_4 
REMARK    2  A    between atoms: C5_5  and  C6_6 
REMARK    3  A    between atoms: C8_8  and  C9_9 
REMARK    4  A    between atoms: C14_17  and  O3_18 
REMARK    5  A    between atoms: C17_24  and  C18_25 
REMARK    6  A    between atoms: C18_25  and  O6_26 
REMARK    7  A    between atoms: C18_25  and  C19_28 
REMARK    8  A    between atoms: C19_28  and  O7_29 
REMARK    9  A    between atoms: C19_28  and  C20_31 
REMARK   10  A    between atoms: C20_31  and  O8_32 
REMARK   11  A    between atoms: C21_35  and  C22_36 
REMARK   12  A    between atoms: C22_36  and  N2_37 
REMARK   13  A    between atoms: C22_36  and  C23_41 
REMARK   14  A    between atoms: C23_41  and  O11_43 
REMARK   15  A    between atoms: O11_43  and  C24_44 
REMARK   16  A    between atoms: C24_44  and  N3_45 
ROOT
HETATM    1  C9  UNL     1      21.172 -10.823 -20.582  1.00  0.00     0.044 A 
HETATM    2  C10 UNL     1      22.098 -11.159 -21.531  1.00  0.00     0.065 A 
HETATM    3  C11 UNL     1      22.339 -12.550 -21.868  1.00  0.00     0.100 C 
HETATM    4  N1  UNL     1      22.554 -13.659 -22.133  1.00  0.00    -0.191 NA
HETATM    5  C12 UNL     1      22.872 -10.183 -22.164  1.00  0.00     0.106 A 
HETATM    6  C13 UNL     1      22.657  -8.878 -21.784  1.00  0.00     0.291 A 
HETATM    7  O1  UNL     1      23.384  -8.018 -22.386  1.00  0.00    -0.260 OA
HETATM    8  O2  UNL     1      21.785  -8.560 -20.888  1.00  0.00    -0.251 OA
HETATM    9  C14 UNL     1      21.053  -9.465 -20.289  1.00  0.00     0.198 A 
ENDROOT
BRANCH   1  10
HETATM   10  C8  UNL     1      20.319 -11.807 -19.950  1.00  0.00     0.024 C 
HETATM   11  C6  UNL     1      20.525 -12.448 -18.851  1.00  0.00    -0.061 C 
HETATM   12  C7  UNL     1      19.500 -13.428 -18.362  1.00  0.00     0.048 C 
BRANCH  11  13
HETATM   13  C5  UNL     1      21.721 -12.308 -17.983  1.00  0.00     0.003 C 
HETATM   14  C4  UNL     1      21.889 -11.297 -17.197  1.00  0.00    -0.015 C 
BRANCH  14  15
HETATM   15  C3  UNL     1      22.892 -10.872 -16.270  1.00  0.00     0.063 C 
HETATM   16  C2  UNL     1      24.146 -10.268 -16.782  1.00  0.00    -0.046 C 
HETATM   17  C1  UNL     1      24.329  -9.634 -17.877  1.00  0.00     0.018 C 
HETATM   18  C28 UNL     1      25.291 -10.343 -15.748  1.00  0.00     0.209 C 
HETATM   19  C16 UNL     1      24.636  -9.935 -14.443  1.00  0.00     0.296 C 
HETATM   20  O15 UNL     1      25.809 -11.594 -15.786  1.00  0.00    -0.344 OA
HETATM   21  O4  UNL     1      23.530  -9.165 -14.702  1.00  0.00    -0.357 OA
HETATM   22  O5  UNL     1      24.326 -10.959 -13.597  1.00  0.00    -0.326 OA
HETATM   23  C15 UNL     1      22.426  -9.787 -15.262  1.00  0.00     0.184 C 
HETATM   24  C17 UNL     1      25.331 -11.903 -13.442  1.00  0.00     0.297 C 
HETATM   25  O9  UNL     1      26.611 -11.373 -13.709  1.00  0.00    -0.326 OA
HETATM   26  C21 UNL     1      26.939 -11.754 -14.991  1.00  0.00     0.304 C 
BRANCH  24  27
HETATM   27  C18 UNL     1      25.303 -12.672 -12.160  1.00  0.00     0.204 C 
BRANCH  27  28
HETATM   28  O6  UNL     1      25.483 -14.039 -12.569  1.00  0.00    -0.388 OA
ATOM     29  H6  UNL     1      24.602 -14.394 -12.579  1.00  0.00     0.210 HD
ENDBRANCH  27  28
BRANCH  27  30
HETATM   30  C19 UNL     1      26.411 -12.419 -11.201  1.00  0.00     0.175 C 
BRANCH  30  31
HETATM   31  O7  UNL     1      26.019 -11.904  -9.976  1.00  0.00    -0.391 OA
ATOM     32  H7  UNL     1      26.707 -11.855  -9.323  1.00  0.00     0.210 HD
ENDBRANCH  30  31
BRANCH  30  33
HETATM   33  C20 UNL     1      27.488 -13.444 -11.132  1.00  0.00     0.198 C 
BRANCH  33  34
HETATM   34  O8  UNL     1      28.483 -13.159 -12.048  1.00  0.00    -0.398 OA
ATOM     35  H8  UNL     1      29.340 -13.291 -11.658  1.00  0.00     0.209 HD
ENDBRANCH  33  34
ENDBRANCH  30  33
ENDBRANCH  27  30
ENDBRANCH  24  27
BRANCH  26  36
HETATM   36  C22 UNL     1      28.112 -11.033 -15.576  1.00  0.00     0.337 C 
BRANCH  36  37
HETATM   37  N2  UNL     1      27.731  -9.650 -15.786  1.00  0.00    -0.061 N 
ATOM     38  H23 UNL     1      26.770  -9.550 -16.110  1.00  0.00     0.275 HD
ATOM     39  H22 UNL     1      27.636  -9.131 -14.913  1.00  0.00     0.275 HD
ATOM     40  H21 UNL     1      28.407  -9.228 -16.422  1.00  0.00     0.275 HD
ENDBRANCH  36  37
BRANCH  36  41
HETATM   41  C23 UNL     1      28.558 -11.616 -16.851  1.00  0.00     0.296 C 
HETATM   42  O10 UNL     1      29.693 -12.176 -16.971  1.00  0.00    -0.263 OA
BRANCH  41  43
HETATM   43  O11 UNL     1      27.745 -11.563 -17.952  1.00  0.00    -0.299 OA
BRANCH  43  44
HETATM   44  C24 UNL     1      27.997 -10.767 -19.092  1.00  0.00     0.319 C 
BRANCH  44  45
HETATM   45  N3  UNL     1      28.029 -11.654 -20.239  1.00  0.00    -0.228 N 
HETATM   46  C25 UNL     1      26.945 -12.028 -20.934  1.00  0.00     0.336 A 
HETATM   47  O12 UNL     1      25.829 -11.584 -20.575  1.00  0.00    -0.246 OA
HETATM   48  N4  UNL     1      26.981 -12.849 -21.994  1.00  0.00    -0.260 N 
HETATM   49  C26 UNL     1      28.162 -13.341 -22.406  1.00  0.00     0.332 A 
ATOM     50  H4  UNL     1      26.121 -13.097 -22.483  1.00  0.00     0.175 HD
HETATM   51  O13 UNL     1      28.228 -14.115 -23.398  1.00  0.00    -0.246 OA
HETATM   52  N5  UNL     1      29.260 -12.984 -21.729  1.00  0.00    -0.260 N 
HETATM   53  C27 UNL     1      29.219 -12.164 -20.672  1.00  0.00     0.336 A 
ATOM     54  H5  UNL     1      30.162 -13.350 -22.031  1.00  0.00     0.175 HD
HETATM   55  O14 UNL     1      30.280 -11.864 -20.077  1.00  0.00    -0.246 OA
ENDBRANCH  44  45
ENDBRANCH  43  44
ENDBRANCH  41  43
ENDBRANCH  36  41
ENDBRANCH  26  36
ENDBRANCH  14  15
ENDBRANCH  11  13
ENDBRANCH   1  10
BRANCH   9  56
HETATM   56  O3  UNL     1      20.112  -9.124 -19.323  1.00  0.00    -0.340 OA
ATOM     57  H3  UNL     1      20.396  -9.184 -18.419  1.00  0.00     0.220 HD
ENDBRANCH   9  56
TORSDOF 16
ENDMDL
MODEL 3
REMARK VINA RESULT: -9.330138782      1.162      1.854
REMARK  16 active torsions:
REMARK  status: ('A' for Active; 'I' for Inactive)
REMARK    1  A    between atoms: C3_3  and  C4_4 
REMARK    2  A    between atoms: C5_5  and  C6_6 
REMARK    3  A    between atoms: C8_8  and  C9_9 
REMARK    4  A    between atoms: C14_17  and  O3_18 
REMARK    5  A    between atoms: C17_24  and  C18_25 
REMARK    6  A    between atoms: C18_25  and  O6_26 
REMARK    7  A    between atoms: C18_25  and  C19_28 
REMARK    8  A    between atoms: C19_28  and  O7_29 
REMARK    9  A    between atoms: C19_28  and  C20_31 
REMARK   10  A    between atoms: C20_31  and  O8_32 
REMARK   11  A    between atoms: C21_35  and  C22_36 
REMARK   12  A    between atoms: C22_36  and  N2_37 
REMARK   13  A    between atoms: C22_36  and  C23_41 
REMARK   14  A    between atoms: C23_41  and  O11_43 
REMARK   15  A    between atoms: O11_43  and  C24_44 
REMARK   16  A    between atoms: C24_44  and  N3_45 
ROOT
HETATM    1  C9  UNL     1      20.926 -11.040 -19.686  1.00  0.00     0.044 A 
HETATM    2  C10 UNL     1      20.822 -12.357 -20.039  1.00  0.00     0.065 A 
HETATM    3  C11 UNL     1      19.951 -13.252 -19.300  1.00  0.00     0.100 C 
HETATM    4  N1  UNL     1      19.273 -13.983 -18.706  1.00  0.00    -0.191 NA
HETATM    5  C12 UNL     1      21.583 -12.889 -21.083  1.00  0.00     0.106 A 
HETATM    6  C13 UNL     1      22.438 -12.026 -21.729  1.00  0.00     0.291 A 
HETATM    7  O1  UNL     1      23.115 -12.551 -22.676  1.00  0.00    -0.260 OA
HETATM    8  O2  UNL     1      22.539 -10.783 -21.396  1.00  0.00    -0.251 OA
HETATM    9  C14 UNL     1      21.829 -10.274 -20.421  1.00  0.00     0.198 A 
ENDROOT
BRANCH   1  10
HETATM   10  C8  UNL     1      20.111 -10.450 -18.646  1.00  0.00     0.024 C 
HETATM   11  C6  UNL     1      20.405 -10.287 -17.402  1.00  0.00    -0.061 C 
HETATM   12  C7  UNL     1      19.412  -9.639 -16.484  1.00  0.00     0.048 C 
BRANCH  11  13
HETATM   13  C5  UNL     1      21.681 -10.689 -16.759  1.00  0.00     0.003 C 
HETATM   14  C4  UNL     1      22.473  -9.834 -16.201  1.00  0.00    -0.015 C 
BRANCH  14  15
HETATM   15  C3  UNL     1      23.732  -9.889 -15.524  1.00  0.00     0.063 C 
HETATM   16  C2  UNL     1      24.981  -9.682 -16.294  1.00  0.00    -0.046 C 
HETATM   17  C1  UNL     1      25.144  -9.015 -17.373  1.00  0.00     0.018 C 
HETATM   18  C28 UNL     1      26.214 -10.265 -15.569  1.00  0.00     0.209 C 
HETATM   19  C16 UNL     1      26.035  -9.827 -14.129  1.00  0.00     0.296 C 
HETATM   20  O15 UNL     1      26.234 -11.602 -15.784  1.00  0.00    -0.344 OA
HETATM   21  O4  UNL     1      25.246  -8.705 -14.082  1.00  0.00    -0.357 OA
HETATM   22  O5  UNL     1      25.566 -10.785 -13.278  1.00  0.00    -0.326 OA
HETATM   23  C15 UNL     1      23.903  -8.845 -14.388  1.00  0.00     0.184 C 
HETATM   24  C17 UNL     1      26.178 -12.022 -13.409  1.00  0.00     0.297 C 
HETATM   25  O9  UNL     1      27.477 -11.923 -13.952  1.00  0.00    -0.326 OA
HETATM   26  C21 UNL     1      27.373 -12.230 -15.291  1.00  0.00     0.304 C 
BRANCH  24  27
HETATM   27  C18 UNL     1      26.148 -12.890 -12.193  1.00  0.00     0.204 C 
BRANCH  27  28
HETATM   28  O6  UNL     1      27.460 -12.738 -11.623  1.00  0.00    -0.388 OA
ATOM     29  H6  UNL     1      27.346 -12.989 -10.714  1.00  0.00     0.210 HD
ENDBRANCH  27  28
BRANCH  27  30
HETATM   30  C19 UNL     1      25.218 -12.490 -11.104  1.00  0.00     0.175 C 
BRANCH  30  31
HETATM   31  O7  UNL     1      25.601 -11.367 -10.389  1.00  0.00    -0.391 OA
ATOM     32  H7  UNL     1      25.074 -11.181  -9.621  1.00  0.00     0.210 HD
ENDBRANCH  30  31
BRANCH  30  33
HETATM   33  C20 UNL     1      23.761 -12.573 -11.400  1.00  0.00     0.198 C 
BRANCH  33  34
HETATM   34  O8  UNL     1      23.504 -13.626 -12.258  1.00  0.00    -0.398 OA
ATOM     35  H8  UNL     1      24.101 -13.605 -12.997  1.00  0.00     0.209 HD
ENDBRANCH  33  34
ENDBRANCH  30  33
ENDBRANCH  27  30
ENDBRANCH  24  27
BRANCH  26  36
HETATM   36  C22 UNL     1      28.575 -11.877 -16.107  1.00  0.00     0.337 C 
BRANCH  36  37
HETATM   37  N2  UNL     1      28.705 -10.433 -16.118  1.00  0.00    -0.061 N 
ATOM     38  H23 UNL     1      29.668 -10.125 -16.251  1.00  0.00     0.275 HD
ATOM     39  H22 UNL     1      28.307 -10.008 -16.956  1.00  0.00     0.275 HD
ATOM     40  H21 UNL     1      28.292 -10.070 -15.259  1.00  0.00     0.275 HD
ENDBRANCH  36  37
BRANCH  36  41
HETATM   41  C23 UNL     1      28.486 -12.370 -17.490  1.00  0.00     0.296 C 
HETATM   42  O10 UNL     1      29.180 -13.355 -17.896  1.00  0.00    -0.263 OA
BRANCH  41  43
HETATM   43  O11 UNL     1      27.641 -11.765 -18.382  1.00  0.00    -0.299 OA
BRANCH  43  44
HETATM   44  C24 UNL     1      28.067 -11.027 -19.510  1.00  0.00     0.319 C 
BRANCH  44  45
HETATM   45  N3  UNL     1      27.998 -11.913 -20.656  1.00  0.00    -0.228 N 
HETATM   46  C25 UNL     1      26.864 -12.230 -21.298  1.00  0.00     0.336 A 
HETATM   47  O12 UNL     1      25.791 -11.730 -20.886  1.00  0.00    -0.246 OA
HETATM   48  N4  UNL     1      26.808 -13.049 -22.357  1.00  0.00    -0.260 N 
HETATM   49  C26 UNL     1      27.940 -13.601 -22.825  1.00  0.00     0.332 A 
ATOM     50  H4  UNL     1      25.913 -13.252 -22.804  1.00  0.00     0.175 HD
HETATM   51  O13 UNL     1      27.920 -14.376 -23.818  1.00  0.00    -0.246 OA
HETATM   52  N5  UNL     1      29.087 -13.301 -22.202  1.00  0.00    -0.260 N 
HETATM   53  C27 UNL     1      29.138 -12.482 -21.145  1.00  0.00     0.336 A 
ATOM     54  H5  UNL     1      29.954 -13.712 -22.546  1.00  0.00     0.175 HD
HETATM   55  O14 UNL     1      30.240 -12.237 -20.602  1.00  0.00    -0.246 OA
ENDBRANCH  44  45
ENDBRANCH  43  44
ENDBRANCH  41  43
ENDBRANCH  36  41
ENDBRANCH  26  36
ENDBRANCH  14  15
ENDBRANCH  11  13
ENDBRANCH   1  10
BRANCH   9  56
HETATM   56  O3  UNL     1      21.937  -8.934 -20.061  1.00  0.00    -0.340 OA
ATOM     57  H3  UNL     1      21.309  -8.340 -20.455  1.00  0.00     0.220 HD
ENDBRANCH   9  56
TORSDOF 16
ENDMDL
MODEL 4
REMARK VINA RESULT: -9.228009193      1.332      1.943
REMARK  16 active torsions:
REMARK  status: ('A' for Active; 'I' for Inactive)
REMARK    1  A    between atoms: C3_3  and  C4_4 
REMARK    2  A    between atoms: C5_5  and  C6_6 
REMARK    3  A    between atoms: C8_8  and  C9_9 
REMARK    4  A    between atoms: C14_17  and  O3_18 
REMARK    5  A    between atoms: C17_24  and  C18_25 
REMARK    6  A    between atoms: C18_25  and  O6_26 
REMARK    7  A    between atoms: C18_25  and  C19_28 
REMARK    8  A    between atoms: C19_28  and  O7_29 
REMARK    9  A    between atoms: C19_28  and  C20_31 
REMARK   10  A    between atoms: C20_31  and  O8_32 
REMARK   11  A    between atoms: C21_35  and  C22_36 
REMARK   12  A    between atoms: C22_36  and  N2_37 
REMARK   13  A    between atoms: C22_36  and  C23_41 
REMARK   14  A    between atoms: C23_41  and  O11_43 
REMARK   15  A    between atoms: O11_43  and  C24_44 
REMARK   16  A    between atoms: C24_44  and  N3_45 
ROOT
HETATM    1  C9  UNL     1      20.644 -11.575 -19.596  1.00  0.00     0.044 A 
HETATM    2  C10 UNL     1      21.597 -11.053 -20.427  1.00  0.00     0.065 A 
HETATM    3  C11 UNL     1      21.888  -9.632 -20.414  1.00  0.00     0.100 C 
HETATM    4  N1  UNL     1      22.118  -8.494 -20.428  1.00  0.00    -0.191 NA
HETATM    5  C12 UNL     1      22.278 -11.859 -21.343  1.00  0.00     0.106 A 
HETATM    6  C13 UNL     1      21.941 -13.192 -21.367  1.00  0.00     0.291 A 
HETATM    7  O1  UNL     1      22.587 -13.893 -22.218  1.00  0.00    -0.260 OA
HETATM    8  O2  UNL     1      21.042 -13.686 -20.585  1.00  0.00    -0.251 OA
HETATM    9  C14 UNL     1      20.398 -12.942 -19.722  1.00  0.00     0.198 A 
ENDROOT
BRANCH   1  10
HETATM   10  C8  UNL     1      19.962 -10.776 -18.601  1.00  0.00     0.024 C 
HETATM   11  C6  UNL     1      20.353 -10.488 -17.409  1.00  0.00    -0.061 C 
HETATM   12  C7  UNL     1      19.490  -9.628 -16.533  1.00  0.00     0.048 C 
BRANCH  11  13
HETATM   13  C5  UNL     1      21.624 -10.937 -16.786  1.00  0.00     0.003 C 
HETATM   14  C4  UNL     1      22.609 -10.131 -16.568  1.00  0.00    -0.015 C 
BRANCH  14  15
HETATM   15  C3  UNL     1      23.922 -10.240 -16.012  1.00  0.00     0.063 C 
HETATM   16  C2  UNL     1      25.099  -9.943 -16.864  1.00  0.00    -0.046 C 
HETATM   17  C1  UNL     1      25.165  -9.170 -17.880  1.00  0.00     0.018 C 
HETATM   18  C28 UNL     1      26.392 -10.582 -16.311  1.00  0.00     0.209 C 
HETATM   19  C16 UNL     1      26.339 -10.293 -14.824  1.00  0.00     0.296 C 
HETATM   20  O15 UNL     1      26.395 -11.891 -16.661  1.00  0.00    -0.344 OA
HETATM   21  O4  UNL     1      25.556  -9.189 -14.595  1.00  0.00    -0.357 OA
HETATM   22  O5  UNL     1      25.948 -11.336 -14.036  1.00  0.00    -0.326 OA
HETATM   23  C15 UNL     1      24.191  -9.313 -14.795  1.00  0.00     0.184 C 
HETATM   24  C17 UNL     1      26.549 -12.547 -14.344  1.00  0.00     0.297 C 
HETATM   25  O9  UNL     1      27.795 -12.381 -14.985  1.00  0.00    -0.326 OA
HETATM   26  C21 UNL     1      27.574 -12.553 -16.334  1.00  0.00     0.304 C 
BRANCH  24  27
HETATM   27  C18 UNL     1      26.627 -13.533 -13.223  1.00  0.00     0.204 C 
BRANCH  27  28
HETATM   28  O6  UNL     1      27.921 -13.297 -12.640  1.00  0.00    -0.388 OA
ATOM     29  H6  UNL     1      27.846 -13.652 -11.763  1.00  0.00     0.210 HD
ENDBRANCH  27  28
BRANCH  27  30
HETATM   30  C19 UNL     1      25.671 -13.351 -12.100  1.00  0.00     0.175 C 
BRANCH  30  31
HETATM   31  O7  UNL     1      24.833 -14.427 -11.862  1.00  0.00    -0.391 OA
ATOM     32  H7  UNL     1      24.359 -14.394 -11.041  1.00  0.00     0.210 HD
ENDBRANCH  30  31
BRANCH  30  33
HETATM   33  C20 UNL     1      26.193 -12.684 -10.874  1.00  0.00     0.198 C 
BRANCH  33  34
HETATM   34  O8  UNL     1      26.221 -11.313 -11.048  1.00  0.00    -0.398 OA
ATOM     35  H8  UNL     1      26.337 -10.875 -10.212  1.00  0.00     0.209 HD
ENDBRANCH  33  34
ENDBRANCH  30  33
ENDBRANCH  27  30
ENDBRANCH  24  27
BRANCH  26  36
HETATM   36  C22 UNL     1      28.699 -12.108 -17.212  1.00  0.00     0.337 C 
BRANCH  36  37
HETATM   37  N2  UNL     1      29.425 -11.060 -16.519  1.00  0.00    -0.061 N 
ATOM     38  H23 UNL     1      30.284 -10.793 -16.999  1.00  0.00     0.275 HD
ATOM     39  H22 UNL     1      28.954 -10.157 -16.568  1.00  0.00     0.275 HD
ATOM     40  H21 UNL     1      29.588 -11.368 -15.561  1.00  0.00     0.275 HD
ENDBRANCH  36  37
BRANCH  36  41
HETATM   41  C23 UNL     1      28.237 -11.602 -18.514  1.00  0.00     0.296 C 
HETATM   42  O10 UNL     1      28.237 -10.360 -18.789  1.00  0.00    -0.263 OA
BRANCH  41  43
HETATM   43  O11 UNL     1      27.789 -12.473 -19.470  1.00  0.00    -0.299 OA
BRANCH  43  44
HETATM   44  C24 UNL     1      28.055 -12.346 -20.853  1.00  0.00     0.319 C 
BRANCH  44  45
HETATM   45  N3  UNL     1      27.249 -13.338 -21.540  1.00  0.00    -0.228 N 
HETATM   46  C25 UNL     1      26.079 -13.076 -22.139  1.00  0.00     0.336 A 
HETATM   47  O12 UNL     1      25.647 -11.900 -22.107  1.00  0.00    -0.246 OA
HETATM   48  N4  UNL     1      25.339 -13.998 -22.772  1.00  0.00    -0.260 N 
HETATM   49  C26 UNL     1      25.773 -15.268 -22.825  1.00  0.00     0.332 A 
ATOM     50  H4  UNL     1      24.455 -13.737 -23.210  1.00  0.00     0.175 HD
HETATM   51  O13 UNL     1      25.101 -16.158 -23.413  1.00  0.00    -0.246 OA
HETATM   52  N5  UNL     1      26.940 -15.557 -22.235  1.00  0.00    -0.260 N 
HETATM   53  C27 UNL     1      27.674 -14.633 -21.604  1.00  0.00     0.336 A 
ATOM     54  H5  UNL     1      27.281 -16.517 -22.268  1.00  0.00     0.175 HD
HETATM   55  O14 UNL     1      28.759 -14.961 -21.069  1.00  0.00    -0.246 OA
ENDBRANCH  44  45
ENDBRANCH  43  44
ENDBRANCH  41  43
ENDBRANCH  36  41
ENDBRANCH  26  36
ENDBRANCH  14  15
ENDBRANCH  11  13
ENDBRANCH   1  10
BRANCH   9  56
HETATM   56  O3  UNL     1      19.427 -13.473 -18.878  1.00  0.00    -0.340 OA
ATOM     57  H3  UNL     1      18.813 -14.080 -19.273  1.00  0.00     0.220 HD
ENDBRANCH   9  56
TORSDOF 16
ENDMDL
MODEL 5
REMARK VINA RESULT: -8.990326979      1.750      2.429
REMARK  16 active torsions:
REMARK  status: ('A' for Active; 'I' for Inactive)
REMARK    1  A    between atoms: C3_3  and  C4_4 
REMARK    2  A    between atoms: C5_5  and  C6_6 
REMARK    3  A    between atoms: C8_8  and  C9_9 
REMARK    4  A    between atoms: C14_17  and  O3_18 
REMARK    5  A    between atoms: C17_24  and  C18_25 
REMARK    6  A    between atoms: C18_25  and  O6_26 
REMARK    7  A    between atoms: C18_25  and  C19_28 
REMARK    8  A    between atoms: C19_28  and  O7_29 
REMARK    9  A    between atoms: C19_28  and  C20_31 
REMARK   10  A    between atoms: C20_31  and  O8_32 
REMARK   11  A    between atoms: C21_35  and  C22_36 
REMARK   12  A    between atoms: C22_36  and  N2_37 
REMARK   13  A    between atoms: C22_36  and  C23_41 
REMARK   14  A    between atoms: C23_41  and  O11_43 
REMARK   15  A    between atoms: O11_43  and  C24_44 
REMARK   16  A    between atoms: C24_44  and  N3_45 
ROOT
HETATM    1  C9  UNL     1      21.013 -11.432 -20.232  1.00  0.00     0.044 A 
HETATM    2  C10 UNL     1      21.661 -10.713 -21.199  1.00  0.00     0.065 A 
HETATM    3  C11 UNL     1      21.483  -9.276 -21.293  1.00  0.00     0.100 C 
HETATM    4  N1  UNL     1      21.336  -8.129 -21.391  1.00  0.00    -0.191 NA
HETATM    5  C12 UNL     1      22.466 -11.343 -22.151  1.00  0.00     0.106 A 
HETATM    6  C13 UNL     1      22.571 -12.712 -22.067  1.00  0.00     0.291 A 
HETATM    7  O1  UNL     1      23.316 -13.248 -22.955  1.00  0.00    -0.260 OA
HETATM    8  O2  UNL     1      21.960 -13.392 -21.156  1.00  0.00    -0.251 OA
HETATM    9  C14 UNL     1      21.203 -12.813 -20.258  1.00  0.00     0.198 A 
ENDROOT
BRANCH   1  10
HETATM   10  C8  UNL     1      20.216 -10.802 -19.201  1.00  0.00     0.024 C 
HETATM   11  C6  UNL     1      20.560 -10.517 -17.993  1.00  0.00    -0.061 C 
HETATM   12  C7  UNL     1      19.576  -9.849 -17.080  1.00  0.00     0.048 C 
BRANCH  11  13
HETATM   13  C5  UNL     1      21.888 -10.792 -17.388  1.00  0.00     0.003 C 
HETATM   14  C4  UNL     1      22.359 -10.093 -16.409  1.00  0.00    -0.015 C 
BRANCH  14  15
HETATM   15  C3  UNL     1      23.559 -10.093 -15.632  1.00  0.00     0.063 C 
HETATM   16  C2  UNL     1      24.835  -9.682 -16.265  1.00  0.00    -0.046 C 
HETATM   17  C1  UNL     1      25.009  -8.893 -17.256  1.00  0.00     0.018 C 
HETATM   18  C28 UNL     1      26.064 -10.211 -15.492  1.00  0.00     0.209 C 
HETATM   19  C16 UNL     1      25.726  -9.946 -14.038  1.00  0.00     0.296 C 
HETATM   20  O15 UNL     1      26.245 -11.510 -15.832  1.00  0.00    -0.344 OA
HETATM   21  O4  UNL     1      24.819  -8.920 -13.954  1.00  0.00    -0.357 OA
HETATM   22  O5  UNL     1      25.298 -11.030 -13.328  1.00  0.00    -0.326 OA
HETATM   23  C15 UNL     1      23.527  -9.162 -14.390  1.00  0.00     0.184 C 
HETATM   24  C17 UNL     1      26.049 -12.179 -13.522  1.00  0.00     0.297 C 
HETATM   25  O9  UNL     1      27.368 -11.894 -13.935  1.00  0.00    -0.326 OA
HETATM   26  C21 UNL     1      27.403 -12.068 -15.301  1.00  0.00     0.304 C 
BRANCH  24  27
HETATM   27  C18 UNL     1      26.019 -13.168 -12.402  1.00  0.00     0.204 C 
BRANCH  27  28
HETATM   28  O6  UNL     1      27.393 -13.274 -11.992  1.00  0.00    -0.388 OA
ATOM     29  H6  UNL     1      27.692 -12.374 -11.954  1.00  0.00     0.210 HD
ENDBRANCH  27  28
BRANCH  27  30
HETATM   30  C19 UNL     1      25.290 -12.766 -11.170  1.00  0.00     0.175 C 
BRANCH  30  31
HETATM   31  O7  UNL     1      25.877 -11.738 -10.451  1.00  0.00    -0.391 OA
ATOM     32  H7  UNL     1      25.553 -11.633  -9.564  1.00  0.00     0.210 HD
ENDBRANCH  30  31
BRANCH  30  33
HETATM   33  C20 UNL     1      23.805 -12.697 -11.260  1.00  0.00     0.198 C 
BRANCH  33  34
HETATM   34  O8  UNL     1      23.348 -13.483 -12.301  1.00  0.00    -0.398 OA
ATOM     35  H8  UNL     1      22.399 -13.516 -12.300  1.00  0.00     0.209 HD
ENDBRANCH  33  34
ENDBRANCH  30  33
ENDBRANCH  27  30
ENDBRANCH  24  27
BRANCH  26  36
HETATM   36  C22 UNL     1      28.620 -11.514 -15.970  1.00  0.00     0.337 C 
BRANCH  36  37
HETATM   37  N2  UNL     1      28.470 -10.074 -16.058  1.00  0.00    -0.061 N 
ATOM     38  H23 UNL     1      27.683  -9.795 -16.644  1.00  0.00     0.275 HD
ATOM     39  H22 UNL     1      28.145  -9.658 -15.185  1.00  0.00     0.275 HD
ATOM     40  H21 UNL     1      29.355  -9.681 -16.376  1.00  0.00     0.275 HD
ENDBRANCH  36  37
BRANCH  36  41
HETATM   41  C23 UNL     1      28.828 -12.066 -17.318  1.00  0.00     0.296 C 
HETATM   42  O10 UNL     1      29.885 -12.704 -17.624  1.00  0.00    -0.263 OA
BRANCH  41  43
HETATM   43  O11 UNL     1      27.873 -11.899 -18.284  1.00  0.00    -0.299 OA
BRANCH  43  44
HETATM   44  C24 UNL     1      28.021 -11.068 -19.418  1.00  0.00     0.319 C 
BRANCH  44  45
HETATM   45  N3  UNL     1      27.983 -11.925 -20.588  1.00  0.00    -0.228 N 
HETATM   46  C25 UNL     1      26.864 -12.240 -21.256  1.00  0.00     0.336 A 
HETATM   47  O12 UNL     1      25.777 -11.767 -20.848  1.00  0.00    -0.246 OA
HETATM   48  N4  UNL     1      26.836 -13.033 -22.337  1.00  0.00    -0.260 N 
HETATM   49  C26 UNL     1      27.983 -13.556 -22.801  1.00  0.00     0.332 A 
ATOM     50  H4  UNL     1      25.951 -13.236 -22.803  1.00  0.00     0.175 HD
HETATM   51  O13 UNL     1      27.989 -14.304 -23.815  1.00  0.00    -0.246 OA
HETATM   52  N5  UNL     1      29.115 -13.257 -22.152  1.00  0.00    -0.260 N 
HETATM   53  C27 UNL     1      29.138 -12.465 -21.073  1.00  0.00     0.336 A 
ATOM     54  H5  UNL     1      29.993 -13.646 -22.493  1.00  0.00     0.175 HD
HETATM   55  O14 UNL     1      30.228 -12.220 -20.506  1.00  0.00    -0.246 OA
ENDBRANCH  44  45
ENDBRANCH  43  44
ENDBRANCH  41  43
ENDBRANCH  36  41
ENDBRANCH  26  36
ENDBRANCH  14  15
ENDBRANCH  11  13
ENDBRANCH   1  10
BRANCH   9  56
HETATM   56  O3  UNL     1      20.543 -13.545 -19.276  1.00  0.00    -0.340 OA
ATOM     57  H3  UNL     1      21.070 -14.169 -18.791  1.00  0.00     0.220 HD
ENDBRANCH   9  56
TORSDOF 16
ENDMDL
