MODEL 1
REMARK VINA RESULT: -7.188674352      0.000      0.000
REMARK  2 active torsions:
REMARK  status: ('A' for Active; 'I' for Inactive)
REMARK    1  A    between atoms: C2_2  and  N1_3 
REMARK       I    between atoms: N1_3  and  C3_5 
REMARK       I    between atoms: C3_5  and  N2_7 
REMARK    2  A    between atoms: N3_15  and  C10_16 
ROOT
HETATM    1  N1  UNL     1     -11.885   2.806   9.878  1.00  0.00    -0.343 N 
ATOM      2  H1  UNL     1     -11.635   3.424   9.105  1.00  0.00     0.164 HD
HETATM    3  C3  UNL     1     -13.058   3.043  10.612  1.00  0.00     0.318 C 
HETATM    4  O1  UNL     1     -13.375   2.285  11.570  1.00  0.00    -0.247 OA
HETATM    5  N2  UNL     1     -13.969   4.137  10.340  1.00  0.00    -0.331 N 
HETATM    6  C4  UNL     1     -13.499   4.912   9.240  1.00  0.00     0.129 C 
HETATM    7  C5  UNL     1     -14.349   6.005   8.739  1.00  0.00     0.046 C 
HETATM    8  C6  UNL     1     -14.874   6.959   9.749  1.00  0.00     0.170 C 
HETATM    9  O2  UNL     1     -15.324   6.453  10.909  1.00  0.00    -0.376 OA
HETATM   10  C7  UNL     1     -16.017   5.307  10.968  1.00  0.00     0.097 C 
HETATM   11  C8  UNL     1     -16.963   5.436  12.180  1.00  0.00     0.085 C 
HETATM   12  C9  UNL     1     -18.134   4.534  11.862  1.00  0.00     0.062 C 
HETATM   13  N3  UNL     1     -18.164   4.485  10.474  1.00  0.00    -0.386 N 
HETATM   14  C15 UNL     1     -16.997   5.009   9.873  1.00  0.00     0.162 C 
HETATM   15  C16 UNL     1     -15.088   4.162  11.231  1.00  0.00     0.167 C 
ENDROOT
BRANCH  13  16
HETATM   16  C10 UNL     1     -19.269   4.130   9.733  1.00  0.00     0.083 C 
HETATM   17  C11 UNL     1     -19.310   2.737   9.174  1.00  0.00     0.025 C 
HETATM   18  C12 UNL     1     -19.910   1.845  10.239  1.00  0.00     0.002 C 
HETATM   19  C13 UNL     1     -20.838   2.748  10.993  1.00  0.00     0.002 C 
HETATM   20  C14 UNL     1     -20.518   4.160  10.606  1.00  0.00     0.025 C 
ENDBRANCH  13  16
BRANCH   1  21
HETATM   21  C2  UNL     1     -11.031   1.694  10.215  1.00  0.00     0.120 C 
HETATM   22  C1  UNL     1      -9.829   2.183  10.988  1.00  0.00     0.026 C 
ENDBRANCH   1  21
TORSDOF 2
ENDMDL
MODEL 2
REMARK VINA RESULT: -6.969761359      2.098      6.366
REMARK  2 active torsions:
REMARK  status: ('A' for Active; 'I' for Inactive)
REMARK    1  A    between atoms: C2_2  and  N1_3 
REMARK       I    between atoms: N1_3  and  C3_5 
REMARK       I    between atoms: C3_5  and  N2_7 
REMARK    2  A    between atoms: N3_15  and  C10_16 
ROOT
HETATM    1  N1  UNL     1     -20.718   1.918  11.120  1.00  0.00    -0.343 N 
ATOM      2  H1  UNL     1     -20.818   2.012  12.131  1.00  0.00     0.164 HD
HETATM    3  C3  UNL     1     -19.732   2.654  10.443  1.00  0.00     0.318 C 
HETATM    4  O1  UNL     1     -19.599   2.543   9.193  1.00  0.00    -0.247 OA
HETATM    5  N2  UNL     1     -18.819   3.568  11.100  1.00  0.00    -0.331 N 
HETATM    6  C4  UNL     1     -19.071   3.598  12.502  1.00  0.00     0.129 C 
HETATM    7  C5  UNL     1     -18.169   4.386  13.360  1.00  0.00     0.046 C 
HETATM    8  C6  UNL     1     -17.897   5.783  12.937  1.00  0.00     0.170 C 
HETATM    9  O2  UNL     1     -17.685   6.008  11.630  1.00  0.00    -0.376 OA
HETATM   10  C7  UNL     1     -16.984   5.161  10.863  1.00  0.00     0.097 C 
HETATM   11  C8  UNL     1     -16.317   6.018   9.768  1.00  0.00     0.085 C 
HETATM   12  C9  UNL     1     -15.078   5.250   9.367  1.00  0.00     0.062 C 
HETATM   13  N3  UNL     1     -14.757   4.503  10.493  1.00  0.00    -0.386 N 
HETATM   14  C15 UNL     1     -15.788   4.482  11.460  1.00  0.00     0.162 C 
HETATM   15  C16 UNL     1     -17.912   4.196  10.190  1.00  0.00     0.167 C 
ENDROOT
BRANCH  13  16
HETATM   16  C10 UNL     1     -13.511   3.974  10.744  1.00  0.00     0.083 C 
HETATM   17  C11 UNL     1     -13.392   2.478  10.799  1.00  0.00     0.025 C 
HETATM   18  C12 UNL     1     -13.158   1.996   9.384  1.00  0.00     0.002 C 
HETATM   19  C13 UNL     1     -12.427   3.128   8.727  1.00  0.00     0.002 C 
HETATM   20  C14 UNL     1     -12.552   4.329   9.614  1.00  0.00     0.025 C 
ENDBRANCH  13  16
BRANCH   1  21
HETATM   21  C2  UNL     1     -21.588   1.029  10.390  1.00  0.00     0.120 C 
HETATM   22  C1  UNL     1     -20.877  -0.274  10.112  1.00  0.00     0.026 C 
ENDBRANCH   1  21
TORSDOF 2
ENDMDL
MODEL 3
REMARK VINA RESULT: -6.473124371      2.820      7.284
REMARK  2 active torsions:
REMARK  status: ('A' for Active; 'I' for Inactive)
REMARK    1  A    between atoms: C2_2  and  N1_3 
REMARK       I    between atoms: N1_3  and  C3_5 
REMARK       I    between atoms: C3_5  and  N2_7 
REMARK    2  A    between atoms: N3_15  and  C10_16 
ROOT
HETATM    1  N1  UNL     1     -17.286   3.989  10.311  1.00  0.00    -0.343 N 
ATOM      2  H1  UNL     1     -17.191   2.973  10.343  1.00  0.00     0.164 HD
HETATM    3  C3  UNL     1     -16.153   4.792  10.101  1.00  0.00     0.318 C 
HETATM    4  O1  UNL     1     -16.261   6.049  10.060  1.00  0.00    -0.247 OA
HETATM    5  N2  UNL     1     -14.816   4.262   9.922  1.00  0.00    -0.331 N 
HETATM    6  C4  UNL     1     -14.833   2.839   9.988  1.00  0.00     0.129 C 
HETATM    7  C5  UNL     1     -13.582   2.110   9.714  1.00  0.00     0.046 C 
HETATM    8  C6  UNL     1     -12.372   2.564  10.445  1.00  0.00     0.170 C 
HETATM    9  O2  UNL     1     -12.176   3.888  10.563  1.00  0.00    -0.376 OA
HETATM   10  C7  UNL     1     -12.449   4.743   9.568  1.00  0.00     0.097 C 
HETATM   11  C8  UNL     1     -11.460   5.916   9.722  1.00  0.00     0.085 C 
HETATM   12  C9  UNL     1     -11.299   6.481   8.329  1.00  0.00     0.062 C 
HETATM   13  N3  UNL     1     -11.574   5.410   7.489  1.00  0.00    -0.386 N 
HETATM   14  C15 UNL     1     -12.162   4.313   8.160  1.00  0.00     0.162 C 
HETATM   15  C16 UNL     1     -13.836   5.286   9.728  1.00  0.00     0.167 C 
ENDROOT
BRANCH  13  16
HETATM   16  C10 UNL     1     -11.170   5.329   6.175  1.00  0.00     0.083 C 
HETATM   17  C11 UNL     1      -9.862   5.970   5.812  1.00  0.00     0.025 C 
HETATM   18  C12 UNL     1      -8.778   4.943   6.061  1.00  0.00     0.002 C 
HETATM   19  C13 UNL     1      -9.456   3.628   5.822  1.00  0.00     0.002 C 
HETATM   20  C14 UNL     1     -10.934   3.876   5.787  1.00  0.00     0.025 C 
ENDBRANCH  13  16
BRANCH   1  21
HETATM   21  C2  UNL     1     -18.583   4.596  10.482  1.00  0.00     0.120 C 
HETATM   22  C1  UNL     1     -19.393   4.445   9.216  1.00  0.00     0.026 C 
ENDBRANCH   1  21
TORSDOF 2
ENDMDL
MODEL 4
REMARK VINA RESULT: -6.390269279      2.448      6.877
REMARK  2 active torsions:
REMARK  status: ('A' for Active; 'I' for Inactive)
REMARK    1  A    between atoms: C2_2  and  N1_3 
REMARK       I    between atoms: N1_3  and  C3_5 
REMARK       I    between atoms: C3_5  and  N2_7 
REMARK    2  A    between atoms: N3_15  and  C10_16 
ROOT
HETATM    1  N1  UNL     1     -17.023   5.992  11.694  1.00  0.00    -0.343 N 
ATOM      2  H1  UNL     1     -16.611   6.925  11.664  1.00  0.00     0.164 HD
HETATM    3  C3  UNL     1     -16.409   4.933  11.007  1.00  0.00     0.318 C 
HETATM    4  O1  UNL     1     -16.910   3.775  11.039  1.00  0.00    -0.247 OA
HETATM    5  N2  UNL     1     -15.192   5.076  10.233  1.00  0.00    -0.331 N 
HETATM    6  C4  UNL     1     -14.730   6.424  10.280  1.00  0.00     0.129 C 
HETATM    7  C5  UNL     1     -13.440   6.745   9.645  1.00  0.00     0.046 C 
HETATM    8  C6  UNL     1     -13.245   6.267   8.252  1.00  0.00     0.170 C 
HETATM    9  O2  UNL     1     -13.666   5.027   7.954  1.00  0.00    -0.376 OA
HETATM   10  C7  UNL     1     -13.528   4.001   8.806  1.00  0.00     0.097 C 
HETATM   11  C8  UNL     1     -13.377   2.735   7.938  1.00  0.00     0.085 C 
HETATM   12  C9  UNL     1     -12.586   1.768   8.788  1.00  0.00     0.062 C 
HETATM   13  N3  UNL     1     -11.851   2.580   9.641  1.00  0.00    -0.386 N 
HETATM   14  C15 UNL     1     -12.281   3.926   9.636  1.00  0.00     0.162 C 
HETATM   15  C16 UNL     1     -14.771   3.850   9.628  1.00  0.00     0.167 C 
ENDROOT
BRANCH  13  16
HETATM   16  C10 UNL     1     -10.711   2.181  10.303  1.00  0.00     0.083 C 
HETATM   17  C11 UNL     1      -9.972   0.994   9.757  1.00  0.00     0.025 C 
HETATM   18  C12 UNL     1      -9.013   1.509   8.705  1.00  0.00     0.002 C 
HETATM   19  C13 UNL     1      -8.670   2.892   9.167  1.00  0.00     0.002 C 
HETATM   20  C14 UNL     1      -9.653   3.275  10.232  1.00  0.00     0.025 C 
ENDBRANCH  13  16
BRANCH   1  21
HETATM   21  C2  UNL     1     -18.236   5.765  12.442  1.00  0.00     0.120 C 
HETATM   22  C1  UNL     1     -18.073   6.276  13.853  1.00  0.00     0.026 C 
ENDBRANCH   1  21
TORSDOF 2
ENDMDL
MODEL 5
REMARK VINA RESULT: -6.347532096      2.480      6.642
REMARK  2 active torsions:
REMARK  status: ('A' for Active; 'I' for Inactive)
REMARK    1  A    between atoms: C2_2  and  N1_3 
REMARK       I    between atoms: N1_3  and  C3_5 
REMARK       I    between atoms: C3_5  and  N2_7 
REMARK    2  A    between atoms: N3_15  and  C10_16 
ROOT
HETATM    1  N1  UNL     1     -16.922   6.048  11.736  1.00  0.00    -0.343 N 
ATOM      2  H1  UNL     1     -16.547   6.859  12.228  1.00  0.00     0.164 HD
HETATM    3  C3  UNL     1     -16.232   5.518  10.633  1.00  0.00     0.318 C 
HETATM    4  O1  UNL     1     -16.687   4.514  10.019  1.00  0.00    -0.247 OA
HETATM    5  N2  UNL     1     -14.986   6.060  10.129  1.00  0.00    -0.331 N 
HETATM    6  C4  UNL     1     -14.582   7.183  10.909  1.00  0.00     0.129 C 
HETATM    7  C5  UNL     1     -13.277   7.803  10.621  1.00  0.00     0.046 C 
HETATM    8  C6  UNL     1     -12.995   8.136   9.202  1.00  0.00     0.170 C 
HETATM    9  O2  UNL     1     -13.351   7.237   8.269  1.00  0.00    -0.376 OA
HETATM   10  C7  UNL     1     -13.212   5.917   8.458  1.00  0.00     0.097 C 
HETATM   11  C8  UNL     1     -12.969   5.303   7.064  1.00  0.00     0.085 C 
HETATM   12  C9  UNL     1     -12.181   4.040   7.323  1.00  0.00     0.062 C 
HETATM   13  N3  UNL     1     -11.521   4.284   8.521  1.00  0.00    -0.386 N 
HETATM   14  C15 UNL     1     -12.005   5.426   9.200  1.00  0.00     0.162 C 
HETATM   15  C16 UNL     1     -14.487   5.343   8.997  1.00  0.00     0.167 C 
ENDROOT
BRANCH  13  16
HETATM   16  C10 UNL     1     -10.399   3.606   8.942  1.00  0.00     0.083 C 
HETATM   17  C11 UNL     1     -10.301   3.268  10.402  1.00  0.00     0.025 C 
HETATM   18  C12 UNL     1     -11.005   1.943  10.601  1.00  0.00     0.002 C 
HETATM   19  C13 UNL     1     -10.818   1.228   9.297  1.00  0.00     0.002 C 
HETATM   20  C14 UNL     1     -10.342   2.230   8.291  1.00  0.00     0.025 C 
ENDBRANCH  13  16
BRANCH   1  21
HETATM   21  C2  UNL     1     -18.158   5.449  12.174  1.00  0.00     0.120 C 
HETATM   22  C1  UNL     1     -18.344   5.675  13.655  1.00  0.00     0.026 C 
ENDBRANCH   1  21
TORSDOF 2
ENDMDL
