MODEL 1
REMARK VINA RESULT: -6.754884700      0.000      0.000
REMARK  5 active torsions:
REMARK  status: ('A' for Active; 'I' for Inactive)
REMARK    1  A    between atoms: C2_2  and  C3_3 
REMARK    2  A    between atoms: C3_3  and  C6_6 
REMARK    3  A    between atoms: C6_6  and  C7_7 
REMARK    4  A    between atoms: C6_6  and  N2_15 
REMARK    5  A    between atoms: C15_19  and  N3_20 
ROOT
HETATM    1  C6  UNL     1     -14.910  -3.758   8.228  1.00  0.00     0.234 C 
ENDROOT
BRANCH   1   2
HETATM    2  C3  UNL     1     -14.722  -2.348   8.532  1.00  0.00    -0.017 C 
HETATM    3  C4  UNL     1     -13.492  -1.695   7.885  1.00  0.00     0.017 C 
HETATM    4  C5  UNL     1     -15.866  -1.591   7.834  1.00  0.00     0.017 C 
BRANCH   2   5
HETATM    5  C2  UNL     1     -14.801  -1.820   9.898  1.00  0.00     0.006 C 
HETATM    6  C1  UNL     1     -15.556  -0.590  10.210  1.00  0.00     0.006 C 
ENDBRANCH   2   5
ENDBRANCH   1   2
BRANCH   1   7
HETATM    7  C7  UNL     1     -16.252  -3.894   7.506  1.00  0.00     0.023 C 
HETATM    8  C8  UNL     1     -16.179  -4.328   6.084  1.00  0.00     0.034 C 
HETATM    9  C9  UNL     1     -16.825  -5.693   5.884  1.00  0.00     0.232 C 
HETATM   10  N1  UNL     1     -18.231  -5.526   6.191  1.00  0.00    -0.075 N 
HETATM   11  C10 UNL     1     -18.470  -4.846   7.435  1.00  0.00     0.232 C 
ATOM     12  H12 UNL     1     -18.715  -5.058   5.425  1.00  0.00     0.277 HD
ATOM     13  H11 UNL     1     -18.713  -6.425   6.173  1.00  0.00     0.277 HD
HETATM   14  C11 UNL     1     -17.198  -4.792   8.279  1.00  0.00     0.034 C 
ENDBRANCH   1   7
BRANCH   1  15
HETATM   15  N2  UNL     1     -14.631  -4.854   9.010  1.00  0.00     0.096 N 
HETATM   16  C12 UNL     1     -14.042  -5.995   8.278  1.00  0.00     0.273 C 
HETATM   17  C13 UNL     1     -14.593  -7.289   8.818  1.00  0.00     0.032 C 
HETATM   18  C14 UNL     1     -14.482  -7.238  10.298  1.00  0.00     0.029 C 
HETATM   19  C15 UNL     1     -13.611  -6.153  10.833  1.00  0.00     0.111 C 
HETATM   20  C21 UNL     1     -13.790  -4.804  10.149  1.00  0.00     0.298 C 
BRANCH  19  21
HETATM   21  N3  UNL     1     -12.229  -6.464  10.999  1.00  0.00    -0.387 N 
HETATM   22  C16 UNL     1     -11.670  -6.037  12.253  1.00  0.00     0.122 C 
HETATM   23  C17 UNL     1     -10.277  -6.561  12.428  1.00  0.00     0.020 C 
HETATM   24  C18 UNL     1     -10.242  -8.070  12.503  1.00  0.00     0.007 C 
HETATM   25  C19 UNL     1     -11.464  -8.663  11.808  1.00  0.00     0.044 C 
HETATM   26  C20 UNL     1     -11.752  -7.730  10.634  1.00  0.00     0.058 C 
ENDBRANCH  19  21
ENDBRANCH   1  15
TORSDOF 5
ENDMDL
MODEL 2
REMARK VINA RESULT: -6.586540859      0.417      1.125
REMARK  5 active torsions:
REMARK  status: ('A' for Active; 'I' for Inactive)
REMARK    1  A    between atoms: C2_2  and  C3_3 
REMARK    2  A    between atoms: C3_3  and  C6_6 
REMARK    3  A    between atoms: C6_6  and  C7_7 
REMARK    4  A    between atoms: C6_6  and  N2_15 
REMARK    5  A    between atoms: C15_19  and  N3_20 
ROOT
HETATM    1  C6  UNL     1     -15.037  -3.774   7.980  1.00  0.00     0.234 C 
ENDROOT
BRANCH   1   2
HETATM    2  C3  UNL     1     -14.833  -2.350   8.196  1.00  0.00    -0.017 C 
HETATM    3  C4  UNL     1     -15.856  -1.429   7.516  1.00  0.00     0.017 C 
HETATM    4  C5  UNL     1     -15.129  -2.083   9.682  1.00  0.00     0.017 C 
BRANCH   2   5
HETATM    5  C2  UNL     1     -13.524  -1.709   8.031  1.00  0.00     0.006 C 
HETATM    6  C1  UNL     1     -13.345  -0.526   7.167  1.00  0.00     0.006 C 
ENDBRANCH   2   5
ENDBRANCH   1   2
BRANCH   1   7
HETATM    7  C7  UNL     1     -16.397  -3.943   7.301  1.00  0.00     0.023 C 
HETATM    8  C8  UNL     1     -16.365  -4.485   5.915  1.00  0.00     0.034 C 
HETATM    9  C9  UNL     1     -17.035  -5.850   5.835  1.00  0.00     0.232 C 
HETATM   10  N1  UNL     1     -18.431  -5.638   6.160  1.00  0.00    -0.075 N 
HETATM   11  C10 UNL     1     -18.631  -4.860   7.353  1.00  0.00     0.232 C 
ATOM     12  H12 UNL     1     -18.927  -5.221   5.371  1.00  0.00     0.277 HD
ATOM     13  H11 UNL     1     -18.927  -6.527   6.222  1.00  0.00     0.277 HD
HETATM   14  C11 UNL     1     -17.338  -4.764   8.161  1.00  0.00     0.034 C 
ENDBRANCH   1   7
BRANCH   1  15
HETATM   15  N2  UNL     1     -14.745  -4.825   8.818  1.00  0.00     0.096 N 
HETATM   16  C12 UNL     1     -14.127  -5.988   8.149  1.00  0.00     0.273 C 
HETATM   17  C13 UNL     1     -14.658  -7.265   8.748  1.00  0.00     0.032 C 
HETATM   18  C14 UNL     1     -14.562  -7.138  10.224  1.00  0.00     0.029 C 
HETATM   19  C15 UNL     1     -13.717  -6.011  10.712  1.00  0.00     0.111 C 
HETATM   20  C21 UNL     1     -13.916  -4.702   9.959  1.00  0.00     0.298 C 
BRANCH  19  21
HETATM   21  N3  UNL     1     -12.331  -6.287  10.904  1.00  0.00    -0.387 N 
HETATM   22  C16 UNL     1     -11.807  -5.842  12.167  1.00  0.00     0.122 C 
HETATM   23  C17 UNL     1     -10.404  -6.330  12.370  1.00  0.00     0.020 C 
HETATM   24  C18 UNL     1     -10.333  -7.837  12.451  1.00  0.00     0.007 C 
HETATM   25  C19 UNL     1     -11.526  -8.463  11.735  1.00  0.00     0.044 C 
HETATM   26  C20 UNL     1     -11.816  -7.541  10.552  1.00  0.00     0.058 C 
ENDBRANCH  19  21
ENDBRANCH   1  15
TORSDOF 5
ENDMDL
MODEL 3
REMARK VINA RESULT: -6.541924202      0.907      1.306
REMARK  5 active torsions:
REMARK  status: ('A' for Active; 'I' for Inactive)
REMARK    1  A    between atoms: C2_2  and  C3_3 
REMARK    2  A    between atoms: C3_3  and  C6_6 
REMARK    3  A    between atoms: C6_6  and  C7_7 
REMARK    4  A    between atoms: C6_6  and  N2_15 
REMARK    5  A    between atoms: C15_19  and  N3_20 
ROOT
HETATM    1  C6  UNL     1     -15.444  -3.364   7.784  1.00  0.00     0.234 C 
ENDROOT
BRANCH   1   2
HETATM    2  C3  UNL     1     -15.324  -1.965   8.163  1.00  0.00    -0.017 C 
HETATM    3  C4  UNL     1     -15.280  -1.695   9.674  1.00  0.00     0.017 C 
HETATM    4  C5  UNL     1     -13.916  -1.513   7.736  1.00  0.00     0.017 C 
BRANCH   2   5
HETATM    5  C2  UNL     1     -16.166  -0.916   7.579  1.00  0.00     0.006 C 
HETATM    6  C1  UNL     1     -16.595   0.259   8.363  1.00  0.00     0.006 C 
ENDBRANCH   2   5
ENDBRANCH   1   2
BRANCH   1   7
HETATM    7  C7  UNL     1     -16.825  -3.549   7.151  1.00  0.00     0.023 C 
HETATM    8  C8  UNL     1     -16.833  -3.831   5.690  1.00  0.00     0.034 C 
HETATM    9  C9  UNL     1     -17.379  -5.222   5.394  1.00  0.00     0.232 C 
HETATM   10  N1  UNL     1     -18.764  -5.214   5.819  1.00  0.00    -0.075 N 
HETATM   11  C10 UNL     1     -18.956  -4.684   7.142  1.00  0.00     0.232 C 
ATOM     12  H12 UNL     1     -19.346  -4.718   5.143  1.00  0.00     0.277 HD
ATOM     13  H11 UNL     1     -19.170  -6.146   5.741  1.00  0.00     0.277 HD
HETATM   14  C11 UNL     1     -17.628  -4.600   7.891  1.00  0.00     0.034 C 
ENDBRANCH   1   7
BRANCH   1  15
HETATM   15  N2  UNL     1     -15.039  -4.483   8.473  1.00  0.00     0.096 N 
HETATM   16  C12 UNL     1     -14.125  -5.368   7.720  1.00  0.00     0.273 C 
HETATM   17  C13 UNL     1     -14.447  -6.809   8.019  1.00  0.00     0.032 C 
HETATM   18  C14 UNL     1     -14.545  -6.948   9.494  1.00  0.00     0.029 C 
HETATM   19  C15 UNL     1     -14.008  -5.799  10.277  1.00  0.00     0.111 C 
HETATM   20  C21 UNL     1     -14.385  -4.429   9.728  1.00  0.00     0.298 C 
BRANCH  19  21
HETATM   21  N3  UNL     1     -12.625  -5.850  10.623  1.00  0.00    -0.387 N 
HETATM   22  C16 UNL     1     -12.256  -4.995  11.719  1.00  0.00     0.122 C 
HETATM   23  C17 UNL     1     -10.838  -5.243  12.140  1.00  0.00     0.020 C 
HETATM   24  C18 UNL     1     -10.641  -6.641  12.679  1.00  0.00     0.007 C 
HETATM   25  C19 UNL     1     -11.707  -7.579  12.121  1.00  0.00     0.044 C 
HETATM   26  C20 UNL     1     -11.972  -7.087  10.699  1.00  0.00     0.058 C 
ENDBRANCH  19  21
ENDBRANCH   1  15
TORSDOF 5
ENDMDL
MODEL 4
REMARK VINA RESULT: -6.429019175      1.791      3.962
REMARK  5 active torsions:
REMARK  status: ('A' for Active; 'I' for Inactive)
REMARK    1  A    between atoms: C2_2  and  C3_3 
REMARK    2  A    between atoms: C3_3  and  C6_6 
REMARK    3  A    between atoms: C6_6  and  C7_7 
REMARK    4  A    between atoms: C6_6  and  N2_15 
REMARK    5  A    between atoms: C15_19  and  N3_20 
ROOT
HETATM    1  C6  UNL     1     -14.851  -5.297   8.863  1.00  0.00     0.234 C 
ENDROOT
BRANCH   1   2
HETATM    2  C3  UNL     1     -15.202  -6.376   7.953  1.00  0.00    -0.017 C 
HETATM    3  C4  UNL     1     -15.424  -7.745   8.611  1.00  0.00     0.017 C 
HETATM    4  C5  UNL     1     -16.614  -6.064   7.425  1.00  0.00     0.017 C 
BRANCH   2   5
HETATM    5  C2  UNL     1     -14.465  -6.628   6.710  1.00  0.00     0.006 C 
HETATM    6  C1  UNL     1     -15.105  -6.483   5.388  1.00  0.00     0.006 C 
ENDBRANCH   2   5
ENDBRANCH   1   2
BRANCH   1   7
HETATM    7  C7  UNL     1     -15.064  -3.980   8.115  1.00  0.00     0.023 C 
HETATM    8  C8  UNL     1     -15.625  -2.862   8.922  1.00  0.00     0.034 C 
HETATM    9  C9  UNL     1     -14.630  -1.717   9.055  1.00  0.00     0.232 C 
HETATM   10  N1  UNL     1     -14.428  -1.197   7.718  1.00  0.00    -0.075 N 
HETATM   11  C10 UNL     1     -14.153  -2.216   6.741  1.00  0.00     0.232 C 
ATOM     12  H12 UNL     1     -15.222  -0.625   7.429  1.00  0.00     0.277 HD
ATOM     13  H11 UNL     1     -13.696  -0.486   7.714  1.00  0.00     0.277 HD
HETATM   14  C11 UNL     1     -13.793  -3.536   7.419  1.00  0.00     0.034 C 
ENDBRANCH   1   7
BRANCH   1  15
HETATM   15  N2  UNL     1     -13.802  -5.223   9.750  1.00  0.00     0.096 N 
HETATM   16  C12 UNL     1     -14.203  -5.001  11.155  1.00  0.00     0.273 C 
HETATM   17  C13 UNL     1     -13.226  -4.070  11.825  1.00  0.00     0.032 C 
HETATM   18  C14 UNL     1     -11.859  -4.568  11.527  1.00  0.00     0.029 C 
HETATM   19  C15 UNL     1     -11.793  -5.949  10.969  1.00  0.00     0.111 C 
HETATM   20  C21 UNL     1     -12.840  -6.250   9.905  1.00  0.00     0.298 C 
BRANCH  19  21
HETATM   21  N3  UNL     1     -11.697  -7.016  11.910  1.00  0.00    -0.387 N 
HETATM   22  C16 UNL     1     -11.220  -8.255  11.357  1.00  0.00     0.122 C 
HETATM   23  C17 UNL     1     -10.971  -9.265  12.436  1.00  0.00     0.020 C 
HETATM   24  C18 UNL     1      -9.870  -8.833  13.376  1.00  0.00     0.007 C 
HETATM   25  C19 UNL     1      -9.729  -7.314  13.364  1.00  0.00     0.044 C 
HETATM   26  C20 UNL     1     -11.147  -6.779  13.177  1.00  0.00     0.058 C 
ENDBRANCH  19  21
ENDBRANCH   1  15
TORSDOF 5
ENDMDL
MODEL 5
REMARK VINA RESULT: -6.098075011      0.708      1.204
REMARK  5 active torsions:
REMARK  status: ('A' for Active; 'I' for Inactive)
REMARK    1  A    between atoms: C2_2  and  C3_3 
REMARK    2  A    between atoms: C3_3  and  C6_6 
REMARK    3  A    between atoms: C6_6  and  C7_7 
REMARK    4  A    between atoms: C6_6  and  N2_15 
REMARK    5  A    between atoms: C15_19  and  N3_20 
ROOT
HETATM    1  C6  UNL     1     -15.126  -4.013   8.307  1.00  0.00     0.234 C 
ENDROOT
BRANCH   1   2
HETATM    2  C3  UNL     1     -14.853  -2.658   8.764  1.00  0.00    -0.017 C 
HETATM    3  C4  UNL     1     -13.546  -2.042   8.247  1.00  0.00     0.017 C 
HETATM    4  C5  UNL     1     -15.899  -1.750   8.094  1.00  0.00     0.017 C 
BRANCH   2   5
HETATM    5  C2  UNL     1     -14.970  -2.265  10.171  1.00  0.00     0.006 C 
HETATM    6  C1  UNL     1     -14.966  -0.846  10.581  1.00  0.00     0.006 C 
ENDBRANCH   2   5
ENDBRANCH   1   2
BRANCH   1   7
HETATM    7  C7  UNL     1     -16.437  -3.975   7.521  1.00  0.00     0.023 C 
HETATM    8  C8  UNL     1     -16.325  -4.255   6.064  1.00  0.00     0.034 C 
HETATM    9  C9  UNL     1     -17.049  -5.541   5.686  1.00  0.00     0.232 C 
HETATM   10  N1  UNL     1     -18.455  -5.310   5.953  1.00  0.00    -0.075 N 
HETATM   11  C10 UNL     1     -18.708  -4.753   7.255  1.00  0.00     0.232 C 
ATOM     12  H12 UNL     1     -18.869  -4.728   5.225  1.00  0.00     0.277 HD
ATOM     13  H11 UNL     1     -18.993  -6.164   5.815  1.00  0.00     0.277 HD
HETATM   14  C11 UNL     1     -17.476  -4.882   8.150  1.00  0.00     0.034 C 
ENDBRANCH   1   7
BRANCH   1  15
HETATM   15  N2  UNL     1     -14.963  -5.200   8.982  1.00  0.00     0.096 N 
HETATM   16  C12 UNL     1     -13.870  -6.051   8.468  1.00  0.00     0.273 C 
HETATM   17  C13 UNL     1     -14.281  -7.500   8.520  1.00  0.00     0.032 C 
HETATM   18  C14 UNL     1     -14.831  -7.759   9.875  1.00  0.00     0.029 C 
HETATM   19  C15 UNL     1     -14.552  -6.700  10.887  1.00  0.00     0.111 C 
HETATM   20  C21 UNL     1     -14.729  -5.277  10.377  1.00  0.00     0.298 C 
BRANCH  19  21
HETATM   21  N3  UNL     1     -13.344  -6.832  11.634  1.00  0.00    -0.387 N 
HETATM   22  C16 UNL     1     -12.529  -7.953  11.253  1.00  0.00     0.122 C 
HETATM   23  C17 UNL     1     -11.202  -7.916  11.949  1.00  0.00     0.020 C 
HETATM   24  C18 UNL     1     -10.384  -6.711  11.547  1.00  0.00     0.007 C 
HETATM   25  C19 UNL     1     -11.295  -5.593  11.051  1.00  0.00     0.044 C 
HETATM   26  C20 UNL     1     -12.562  -5.700  11.897  1.00  0.00     0.058 C 
ENDBRANCH  19  21
ENDBRANCH   1  15
TORSDOF 5
ENDMDL
