MODEL 1
REMARK VINA RESULT: -9.109123173      0.000      0.000
REMARK  13 active torsions:
REMARK  status: ('A' for Active; 'I' for Inactive)
REMARK    1  A    between atoms: N1_2  and  C2_3 
REMARK       I    between atoms: N1_2  and  C4_11 
REMARK    2  A    between atoms: C2_3  and  C3_4 
REMARK    3  A    between atoms: C3_4  and  O1_5 
REMARK    4  A    between atoms: N2_7  and  O2_9 
REMARK    5  A    between atoms: C4_11  and  C5_13 
REMARK    6  A    between atoms: C5_13  and  C6_14 
REMARK    7  A    between atoms: C5_13  and  C13_21 
REMARK    8  A    between atoms: C6_14  and  C7_15 
REMARK       I    between atoms: C13_21  and  N3_23 
REMARK    9  A    between atoms: N4_26  and  C16_27 
REMARK   10  A    between atoms: C16_27  and  C17_28 
REMARK   11  A    between atoms: C20_31  and  O5_32 
REMARK   12  A    between atoms: C21_34  and  C22_35 
REMARK   13  A    between atoms: C22_35  and  C23_36 
ROOT
HETATM    1  C13 UNL     1     -85.556 -14.441  11.091  1.00  0.00     0.241 C 
HETATM    2  O4  UNL     1     -84.328 -14.712  10.821  1.00  0.00    -0.272 OA
HETATM    3  N3  UNL     1     -86.526 -14.783  10.154  1.00  0.00    -0.268 N 
HETATM    4  C14 UNL     1     -86.265 -15.411   8.849  1.00  0.00     0.157 C 
HETATM    5  C15 UNL     1     -87.308 -14.709   7.989  1.00  0.00     0.148 C 
HETATM    6  N4  UNL     1     -88.486 -14.874   8.858  1.00  0.00    -0.332 N 
HETATM    7  C25 UNL     1     -87.957 -14.675  10.166  1.00  0.00     0.327 C 
HETATM    8  O6  UNL     1     -88.623 -14.438  11.203  1.00  0.00    -0.247 OA
ENDROOT
BRANCH   1   9
HETATM    9  C5  UNL     1     -85.738 -13.786  12.406  1.00  0.00     0.171 C 
BRANCH   9  10
HETATM   10  C4  UNL     1     -86.154 -14.924  13.322  1.00  0.00     0.233 C 
HETATM   11  N1  UNL     1     -87.095 -14.839  14.345  1.00  0.00    -0.348 N 
HETATM   12  C1  UNL     1     -87.415 -16.070  15.093  1.00  0.00     0.153 C 
HETATM   13  O3  UNL     1     -85.602 -16.071  13.145  1.00  0.00    -0.272 OA
BRANCH  11  14
HETATM   14  C2  UNL     1     -87.783 -13.667  14.806  1.00  0.00     0.210 C 
BRANCH  14  15
HETATM   15  C3  UNL     1     -89.044 -13.384  14.074  1.00  0.00     0.153 C 
HETATM   16  N2  UNL     1     -89.174 -12.271  13.444  1.00  0.00    -0.250 N 
ATOM     17  H2  UNL     1     -90.045 -12.090  12.945  1.00  0.00     0.196 HD
BRANCH  15  18
HETATM   18  O1  UNL     1     -90.075 -14.289  14.056  1.00  0.00    -0.347 OA
ATOM     19  H1  UNL     1     -90.819 -14.178  13.475  1.00  0.00     0.219 HD
ENDBRANCH  15  18
BRANCH  16  20
HETATM   20  O2  UNL     1     -88.184 -11.311  13.414  1.00  0.00    -0.288 OA
ATOM     21  H2  UNL     1     -88.122 -10.617  14.060  1.00  0.00     0.244 HD
ENDBRANCH  16  20
ENDBRANCH  14  15
ENDBRANCH  11  14
ENDBRANCH   9  10
BRANCH   9  22
HETATM   22  C6  UNL     1     -84.459 -13.283  13.008  1.00  0.00     0.028 C 
BRANCH  22  23
HETATM   23  C7  UNL     1     -84.279 -11.847  13.308  1.00  0.00    -0.013 C 
HETATM   24  C8  UNL     1     -84.746 -11.522  14.725  1.00  0.00     0.005 C 
HETATM   25  C9  UNL     1     -83.674 -11.524  15.740  1.00  0.00     0.000 C 
HETATM   26  C10 UNL     1     -82.388 -10.896  15.353  1.00  0.00     0.000 C 
HETATM   27  C11 UNL     1     -82.591 -10.171  14.039  1.00  0.00     0.000 C 
HETATM   28  C12 UNL     1     -82.924 -11.328  13.042  1.00  0.00     0.005 C 
ENDBRANCH  22  23
ENDBRANCH   9  22
ENDBRANCH   1   9
BRANCH   6  29
HETATM   29  C16 UNL     1     -89.834 -15.165   8.464  1.00  0.00     0.132 C 
BRANCH  29  30
HETATM   30  C17 UNL     1     -90.853 -14.929   9.576  1.00  0.00     0.004 C 
HETATM   31  C18 UNL     1     -92.103 -14.392   8.948  1.00  0.00     0.009 C 
HETATM   32  C19 UNL     1     -93.233 -14.269   9.953  1.00  0.00     0.032 C 
HETATM   33  C20 UNL     1     -92.964 -15.059  11.193  1.00  0.00     0.122 C 
HETATM   34  C21 UNL     1     -92.436 -16.437  10.745  1.00  0.00     0.023 C 
HETATM   35  C24 UNL     1     -91.042 -16.260  10.278  1.00  0.00     0.013 C 
BRANCH  33  36
HETATM   36  O5  UNL     1     -92.139 -14.440  12.091  1.00  0.00    -0.395 OA
ATOM     37  H5  UNL     1     -92.586 -13.880  12.714  1.00  0.00     0.210 HD
ENDBRANCH  33  36
BRANCH  34  38
HETATM   38  C22 UNL     1     -92.639 -17.415  11.848  1.00  0.00     0.124 C 
BRANCH  38  39
HETATM   39  C23 UNL     1     -93.572 -18.520  11.450  1.00  0.00     0.388 C 
HETATM   40  F1  UNL     1     -94.859 -17.981  11.354  1.00  0.00    -0.171 F 
HETATM   41  F2  UNL     1     -93.192 -19.098  10.271  1.00  0.00    -0.171 F 
HETATM   42  F3  UNL     1     -93.610 -19.455  12.476  1.00  0.00    -0.171 F 
ENDBRANCH  38  39
ENDBRANCH  34  38
ENDBRANCH  29  30
ENDBRANCH   6  29
TORSDOF 13
ENDMDL
MODEL 2
REMARK VINA RESULT: -8.917822936      2.261      4.579
REMARK  13 active torsions:
REMARK  status: ('A' for Active; 'I' for Inactive)
REMARK    1  A    between atoms: N1_2  and  C2_3 
REMARK       I    between atoms: N1_2  and  C4_11 
REMARK    2  A    between atoms: C2_3  and  C3_4 
REMARK    3  A    between atoms: C3_4  and  O1_5 
REMARK    4  A    between atoms: N2_7  and  O2_9 
REMARK    5  A    between atoms: C4_11  and  C5_13 
REMARK    6  A    between atoms: C5_13  and  C6_14 
REMARK    7  A    between atoms: C5_13  and  C13_21 
REMARK    8  A    between atoms: C6_14  and  C7_15 
REMARK       I    between atoms: C13_21  and  N3_23 
REMARK    9  A    between atoms: N4_26  and  C16_27 
REMARK   10  A    between atoms: C16_27  and  C17_28 
REMARK   11  A    between atoms: C20_31  and  O5_32 
REMARK   12  A    between atoms: C21_34  and  C22_35 
REMARK   13  A    between atoms: C22_35  and  C23_36 
ROOT
HETATM    1  C13 UNL     1     -85.872 -15.695  11.895  1.00  0.00     0.241 C 
HETATM    2  O4  UNL     1     -84.891 -16.420  12.301  1.00  0.00    -0.272 OA
HETATM    3  N3  UNL     1     -87.071 -15.759  12.598  1.00  0.00    -0.268 N 
HETATM    4  C14 UNL     1     -87.329 -16.617  13.765  1.00  0.00     0.157 C 
HETATM    5  C15 UNL     1     -88.777 -17.014  13.504  1.00  0.00     0.148 C 
HETATM    6  N4  UNL     1     -89.340 -15.685  13.210  1.00  0.00    -0.332 N 
HETATM    7  C25 UNL     1     -88.314 -15.056  12.449  1.00  0.00     0.327 C 
HETATM    8  O6  UNL     1     -88.446 -14.030  11.738  1.00  0.00    -0.247 OA
ENDROOT
BRANCH   1   9
HETATM    9  C5  UNL     1     -85.547 -14.881  10.702  1.00  0.00     0.171 C 
BRANCH   9  10
HETATM   10  C4  UNL     1     -84.375 -14.028  11.155  1.00  0.00     0.233 C 
HETATM   11  N1  UNL     1     -84.466 -12.829  11.856  1.00  0.00    -0.348 N 
HETATM   12  C1  UNL     1     -83.212 -12.169  12.265  1.00  0.00     0.153 C 
HETATM   13  O3  UNL     1     -83.189 -14.440  10.876  1.00  0.00    -0.272 OA
BRANCH  11  14
HETATM   14  C2  UNL     1     -85.659 -12.111  12.209  1.00  0.00     0.210 C 
BRANCH  14  15
HETATM   15  C3  UNL     1     -86.152 -12.401  13.579  1.00  0.00     0.153 C 
HETATM   16  N2  UNL     1     -87.314 -11.981  13.936  1.00  0.00    -0.250 N 
ATOM     17  H2  UNL     1     -87.640 -12.188  14.880  1.00  0.00     0.196 HD
BRANCH  15  18
HETATM   18  O1  UNL     1     -85.392 -13.111  14.474  1.00  0.00    -0.347 OA
ATOM     19  H1  UNL     1     -84.585 -12.755  14.826  1.00  0.00     0.219 HD
ENDBRANCH  15  18
BRANCH  16  20
HETATM   20  O2  UNL     1     -88.137 -11.262  13.094  1.00  0.00    -0.288 OA
ATOM     21  H2  UNL     1     -88.876 -11.652  12.642  1.00  0.00     0.244 HD
ENDBRANCH  16  20
ENDBRANCH  14  15
ENDBRANCH  11  14
ENDBRANCH   9  10
BRANCH   9  22
HETATM   22  C6  UNL     1     -84.994 -15.683   9.561  1.00  0.00     0.028 C 
BRANCH  22  23
HETATM   23  C7  UNL     1     -85.486 -15.472   8.183  1.00  0.00    -0.013 C 
HETATM   24  C8  UNL     1     -87.007 -15.350   8.157  1.00  0.00     0.005 C 
HETATM   25  C9  UNL     1     -87.513 -13.964   8.191  1.00  0.00     0.000 C 
HETATM   26  C10 UNL     1     -86.799 -12.973   7.351  1.00  0.00     0.000 C 
HETATM   27  C11 UNL     1     -85.837 -13.720   6.450  1.00  0.00     0.000 C 
HETATM   28  C12 UNL     1     -84.832 -14.363   7.460  1.00  0.00     0.005 C 
ENDBRANCH  22  23
ENDBRANCH   9  22
ENDBRANCH   1   9
BRANCH   6  29
HETATM   29  C16 UNL     1     -90.618 -15.167  13.605  1.00  0.00     0.132 C 
BRANCH  29  30
HETATM   30  C17 UNL     1     -91.748 -15.559  12.657  1.00  0.00     0.004 C 
HETATM   31  C18 UNL     1     -91.925 -14.450  11.665  1.00  0.00     0.009 C 
HETATM   32  C19 UNL     1     -92.923 -14.813  10.583  1.00  0.00     0.032 C 
HETATM   33  C20 UNL     1     -93.184 -16.283  10.535  1.00  0.00     0.122 C 
HETATM   34  C21 UNL     1     -91.816 -16.988  10.632  1.00  0.00     0.023 C 
HETATM   35  C24 UNL     1     -91.348 -16.883  12.032  1.00  0.00     0.013 C 
BRANCH  33  36
HETATM   36  O5  UNL     1     -94.079 -16.730  11.467  1.00  0.00    -0.395 OA
ATOM     37  H5  UNL     1     -94.978 -16.768  11.163  1.00  0.00     0.210 HD
ENDBRANCH  33  36
BRANCH  34  38
HETATM   38  C22 UNL     1     -91.942 -18.366  10.084  1.00  0.00     0.124 C 
BRANCH  38  39
HETATM   39  C23 UNL     1     -91.482 -18.445   8.659  1.00  0.00     0.388 C 
HETATM   40  F1  UNL     1     -90.291 -19.178   8.632  1.00  0.00    -0.171 F 
HETATM   41  F2  UNL     1     -92.429 -19.016   7.856  1.00  0.00    -0.171 F 
HETATM   42  F3  UNL     1     -91.166 -17.164   8.226  1.00  0.00    -0.171 F 
ENDBRANCH  38  39
ENDBRANCH  34  38
ENDBRANCH  29  30
ENDBRANCH   6  29
TORSDOF 13
ENDMDL
MODEL 3
REMARK VINA RESULT: -8.913190151      2.445      3.405
REMARK  13 active torsions:
REMARK  status: ('A' for Active; 'I' for Inactive)
REMARK    1  A    between atoms: N1_2  and  C2_3 
REMARK       I    between atoms: N1_2  and  C4_11 
REMARK    2  A    between atoms: C2_3  and  C3_4 
REMARK    3  A    between atoms: C3_4  and  O1_5 
REMARK    4  A    between atoms: N2_7  and  O2_9 
REMARK    5  A    between atoms: C4_11  and  C5_13 
REMARK    6  A    between atoms: C5_13  and  C6_14 
REMARK    7  A    between atoms: C5_13  and  C13_21 
REMARK    8  A    between atoms: C6_14  and  C7_15 
REMARK       I    between atoms: C13_21  and  N3_23 
REMARK    9  A    between atoms: N4_26  and  C16_27 
REMARK   10  A    between atoms: C16_27  and  C17_28 
REMARK   11  A    between atoms: C20_31  and  O5_32 
REMARK   12  A    between atoms: C21_34  and  C22_35 
REMARK   13  A    between atoms: C22_35  and  C23_36 
ROOT
HETATM    1  C13 UNL     1     -85.129 -12.924  14.015  1.00  0.00     0.241 C 
HETATM    2  O4  UNL     1     -84.100 -12.814  13.249  1.00  0.00    -0.272 OA
HETATM    3  N3  UNL     1     -86.364 -13.170  13.424  1.00  0.00    -0.268 N 
HETATM    4  C14 UNL     1     -86.608 -13.290  11.977  1.00  0.00     0.157 C 
HETATM    5  C15 UNL     1     -87.968 -12.612  11.867  1.00  0.00     0.148 C 
HETATM    6  N4  UNL     1     -88.667 -13.298  12.968  1.00  0.00    -0.332 N 
HETATM    7  C25 UNL     1     -87.668 -13.397  13.978  1.00  0.00     0.327 C 
HETATM    8  O6  UNL     1     -87.869 -13.648  15.192  1.00  0.00    -0.247 OA
ENDROOT
BRANCH   1   9
HETATM    9  C5  UNL     1     -84.811 -12.764  15.451  1.00  0.00     0.171 C 
BRANCH   9  10
HETATM   10  C4  UNL     1     -84.882 -14.180  15.997  1.00  0.00     0.233 C 
HETATM   11  N1  UNL     1     -85.381 -14.546  17.244  1.00  0.00    -0.348 N 
HETATM   12  C1  UNL     1     -85.426 -15.982  17.577  1.00  0.00     0.153 C 
HETATM   13  O3  UNL     1     -84.452 -15.134  15.250  1.00  0.00    -0.272 OA
BRANCH  11  14
HETATM   14  C2  UNL     1     -85.833 -13.677  18.294  1.00  0.00     0.210 C 
BRANCH  14  15
HETATM   15  C3  UNL     1     -87.272 -13.321  18.202  1.00  0.00     0.153 C 
HETATM   16  N2  UNL     1     -87.611 -12.094  18.023  1.00  0.00    -0.250 N 
ATOM     17  H2  UNL     1     -88.603 -11.865  17.962  1.00  0.00     0.196 HD
BRANCH  15  18
HETATM   18  O1  UNL     1     -88.249 -14.279  18.304  1.00  0.00    -0.347 OA
ATOM     19  H1  UNL     1     -88.550 -14.760  17.541  1.00  0.00     0.219 HD
ENDBRANCH  15  18
BRANCH  16  20
HETATM   20  O2  UNL     1     -86.688 -11.075  17.911  1.00  0.00    -0.288 OA
ATOM     21  H2  UNL     1     -86.933 -10.157  17.928  1.00  0.00     0.244 HD
ENDBRANCH  16  20
ENDBRANCH  14  15
ENDBRANCH  11  14
ENDBRANCH   9  10
BRANCH   9  22
HETATM   22  C6  UNL     1     -83.394 -12.346  15.710  1.00  0.00     0.028 C 
BRANCH  22  23
HETATM   23  C7  UNL     1     -83.098 -11.136  16.506  1.00  0.00    -0.013 C 
HETATM   24  C8  UNL     1     -82.683 -11.504  17.928  1.00  0.00     0.005 C 
HETATM   25  C9  UNL     1     -81.224 -11.592  18.139  1.00  0.00     0.000 C 
HETATM   26  C10 UNL     1     -80.395 -10.538  17.506  1.00  0.00     0.000 C 
HETATM   27  C11 UNL     1     -81.319  -9.461  16.979  1.00  0.00     0.000 C 
HETATM   28  C12 UNL     1     -82.141 -10.205  15.877  1.00  0.00     0.005 C 
ENDBRANCH  22  23
ENDBRANCH   9  22
ENDBRANCH   1   9
BRANCH   6  29
HETATM   29  C16 UNL     1     -90.028 -13.750  12.996  1.00  0.00     0.132 C 
BRANCH  29  30
HETATM   30  C17 UNL     1     -90.383 -14.668  11.830  1.00  0.00     0.004 C 
HETATM   31  C18 UNL     1     -89.459 -15.848  11.874  1.00  0.00     0.009 C 
HETATM   32  C19 UNL     1     -89.833 -16.898  10.845  1.00  0.00     0.032 C 
HETATM   33  C20 UNL     1     -91.220 -16.699  10.324  1.00  0.00     0.122 C 
HETATM   34  C21 UNL     1     -92.123 -16.412  11.542  1.00  0.00     0.023 C 
HETATM   35  C24 UNL     1     -91.847 -15.031  11.996  1.00  0.00     0.013 C 
BRANCH  33  36
HETATM   36  O5  UNL     1     -91.327 -15.749   9.348  1.00  0.00    -0.395 OA
ATOM     37  H5  UNL     1     -91.740 -16.052   8.548  1.00  0.00     0.210 HD
ENDBRANCH  33  36
BRANCH  34  38
HETATM   38  C22 UNL     1     -93.534 -16.715  11.180  1.00  0.00     0.124 C 
BRANCH  38  39
HETATM   39  C23 UNL     1     -93.845 -18.175  11.318  1.00  0.00     0.388 C 
HETATM   40  F1  UNL     1     -95.195 -18.295  11.665  1.00  0.00    -0.171 F 
HETATM   41  F2  UNL     1     -93.571 -18.859  10.166  1.00  0.00    -0.171 F 
HETATM   42  F3  UNL     1     -93.117 -18.682  12.386  1.00  0.00    -0.171 F 
ENDBRANCH  38  39
ENDBRANCH  34  38
ENDBRANCH  29  30
ENDBRANCH   6  29
TORSDOF 13
ENDMDL
MODEL 4
REMARK VINA RESULT: -8.876972534      2.677      4.586
REMARK  13 active torsions:
REMARK  status: ('A' for Active; 'I' for Inactive)
REMARK    1  A    between atoms: N1_2  and  C2_3 
REMARK       I    between atoms: N1_2  and  C4_11 
REMARK    2  A    between atoms: C2_3  and  C3_4 
REMARK    3  A    between atoms: C3_4  and  O1_5 
REMARK    4  A    between atoms: N2_7  and  O2_9 
REMARK    5  A    between atoms: C4_11  and  C5_13 
REMARK    6  A    between atoms: C5_13  and  C6_14 
REMARK    7  A    between atoms: C5_13  and  C13_21 
REMARK    8  A    between atoms: C6_14  and  C7_15 
REMARK       I    between atoms: C13_21  and  N3_23 
REMARK    9  A    between atoms: N4_26  and  C16_27 
REMARK   10  A    between atoms: C16_27  and  C17_28 
REMARK   11  A    between atoms: C20_31  and  O5_32 
REMARK   12  A    between atoms: C21_34  and  C22_35 
REMARK   13  A    between atoms: C22_35  and  C23_36 
ROOT
HETATM    1  C13 UNL     1     -85.436 -14.111  14.723  1.00  0.00     0.241 C 
HETATM    2  O4  UNL     1     -84.275 -14.667  14.729  1.00  0.00    -0.272 OA
HETATM    3  N3  UNL     1     -86.556 -14.929  14.824  1.00  0.00    -0.268 N 
HETATM    4  C14 UNL     1     -86.533 -16.399  14.910  1.00  0.00     0.157 C 
HETATM    5  C15 UNL     1     -87.763 -16.745  14.080  1.00  0.00     0.148 C 
HETATM    6  N4  UNL     1     -88.730 -15.814  14.685  1.00  0.00    -0.332 N 
HETATM    7  C25 UNL     1     -87.959 -14.637  14.902  1.00  0.00     0.327 C 
HETATM    8  O6  UNL     1     -88.413 -13.489  15.132  1.00  0.00    -0.247 OA
ENDROOT
BRANCH   1   9
HETATM    9  C5  UNL     1     -85.380 -12.637  14.606  1.00  0.00     0.171 C 
BRANCH   9  10
HETATM   10  C4  UNL     1     -84.343 -12.231  15.639  1.00  0.00     0.233 C 
HETATM   11  N1  UNL     1     -84.414 -12.487  17.005  1.00  0.00    -0.348 N 
HETATM   12  C1  UNL     1     -83.277 -12.067  17.847  1.00  0.00     0.153 C 
HETATM   13  O3  UNL     1     -83.301 -11.599  15.227  1.00  0.00    -0.272 OA
BRANCH  11  14
HETATM   14  C2  UNL     1     -85.500 -13.088  17.727  1.00  0.00     0.210 C 
BRANCH  14  15
HETATM   15  C3  UNL     1     -86.679 -12.200  17.888  1.00  0.00     0.153 C 
HETATM   16  N2  UNL     1     -87.839 -12.718  18.084  1.00  0.00    -0.250 N 
ATOM     17  H2  UNL     1     -88.640 -12.096  18.193  1.00  0.00     0.196 HD
BRANCH  15  18
HETATM   18  O1  UNL     1     -86.555 -10.835  17.832  1.00  0.00    -0.347 OA
ATOM     19  H1  UNL     1     -87.301 -10.266  17.976  1.00  0.00     0.219 HD
ENDBRANCH  15  18
BRANCH  16  20
HETATM   20  O2  UNL     1     -88.046 -14.080  18.153  1.00  0.00    -0.288 OA
ATOM     21  H2  UNL     1     -88.664 -14.476  18.756  1.00  0.00     0.244 HD
ENDBRANCH  16  20
ENDBRANCH  14  15
ENDBRANCH  11  14
ENDBRANCH   9  10
BRANCH   9  22
HETATM   22  C6  UNL     1     -84.805 -12.159  13.305  1.00  0.00     0.028 C 
BRANCH  22  23
HETATM   23  C7  UNL     1     -85.617 -12.176  12.070  1.00  0.00    -0.013 C 
HETATM   24  C8  UNL     1     -85.102 -13.228  11.091  1.00  0.00     0.005 C 
HETATM   25  C9  UNL     1     -85.797 -14.528  11.165  1.00  0.00     0.000 C 
HETATM   26  C10 UNL     1     -87.272 -14.488  11.311  1.00  0.00     0.000 C 
HETATM   27  C11 UNL     1     -87.730 -13.060  11.098  1.00  0.00     0.000 C 
HETATM   28  C12 UNL     1     -87.071 -12.294  12.291  1.00  0.00     0.005 C 
ENDBRANCH  22  23
ENDBRANCH   9  22
ENDBRANCH   1   9
BRANCH   6  29
HETATM   29  C16 UNL     1     -90.114 -16.053  14.978  1.00  0.00     0.132 C 
BRANCH  29  30
HETATM   30  C17 UNL     1     -91.030 -15.852  13.775  1.00  0.00     0.004 C 
HETATM   31  C18 UNL     1     -90.638 -14.569  13.107  1.00  0.00     0.009 C 
HETATM   32  C19 UNL     1     -91.390 -14.355  11.807  1.00  0.00     0.032 C 
HETATM   33  C20 UNL     1     -92.024 -15.616  11.316  1.00  0.00     0.122 C 
HETATM   34  C21 UNL     1     -90.972 -16.735  11.458  1.00  0.00     0.023 C 
HETATM   35  C24 UNL     1     -90.864 -17.076  12.895  1.00  0.00     0.013 C 
BRANCH  33  36
HETATM   36  O5  UNL     1     -93.213 -15.924  11.917  1.00  0.00    -0.395 OA
ATOM     37  H5  UNL     1     -93.941 -15.376  11.650  1.00  0.00     0.210 HD
ENDBRANCH  33  36
BRANCH  34  38
HETATM   38  C22 UNL     1     -91.328 -17.854  10.544  1.00  0.00     0.124 C 
BRANCH  38  39
HETATM   39  C23 UNL     1     -90.685 -17.700   9.198  1.00  0.00     0.388 C 
HETATM   40  F1  UNL     1     -91.626 -17.129   8.335  1.00  0.00    -0.171 F 
HETATM   41  F2  UNL     1     -89.554 -16.937   9.265  1.00  0.00    -0.171 F 
HETATM   42  F3  UNL     1     -90.406 -18.965   8.696  1.00  0.00    -0.171 F 
ENDBRANCH  38  39
ENDBRANCH  34  38
ENDBRANCH  29  30
ENDBRANCH   6  29
TORSDOF 13
ENDMDL
MODEL 5
REMARK VINA RESULT: -8.811363548      3.088      6.784
REMARK  13 active torsions:
REMARK  status: ('A' for Active; 'I' for Inactive)
REMARK    1  A    between atoms: N1_2  and  C2_3 
REMARK       I    between atoms: N1_2  and  C4_11 
REMARK    2  A    between atoms: C2_3  and  C3_4 
REMARK    3  A    between atoms: C3_4  and  O1_5 
REMARK    4  A    between atoms: N2_7  and  O2_9 
REMARK    5  A    between atoms: C4_11  and  C5_13 
REMARK    6  A    between atoms: C5_13  and  C6_14 
REMARK    7  A    between atoms: C5_13  and  C13_21 
REMARK    8  A    between atoms: C6_14  and  C7_15 
REMARK       I    between atoms: C13_21  and  N3_23 
REMARK    9  A    between atoms: N4_26  and  C16_27 
REMARK   10  A    between atoms: C16_27  and  C17_28 
REMARK   11  A    between atoms: C20_31  and  O5_32 
REMARK   12  A    between atoms: C21_34  and  C22_35 
REMARK   13  A    between atoms: C22_35  and  C23_36 
ROOT
HETATM    1  C13 UNL     1     -89.330 -14.635  10.799  1.00  0.00     0.241 C 
HETATM    2  O4  UNL     1     -90.370 -13.940  10.497  1.00  0.00    -0.272 OA
HETATM    3  N3  UNL     1     -88.533 -14.201  11.853  1.00  0.00    -0.268 N 
HETATM    4  C14 UNL     1     -88.761 -12.983  12.647  1.00  0.00     0.157 C 
HETATM    5  C15 UNL     1     -87.325 -12.523  12.869  1.00  0.00     0.148 C 
HETATM    6  N4  UNL     1     -86.731 -13.798  13.308  1.00  0.00    -0.332 N 
HETATM    7  C25 UNL     1     -87.364 -14.759  12.470  1.00  0.00     0.327 C 
HETATM    8  O6  UNL     1     -86.978 -15.939  12.278  1.00  0.00    -0.247 OA
ENDROOT
BRANCH   1   9
HETATM    9  C5  UNL     1     -89.152 -15.828   9.941  1.00  0.00     0.171 C 
BRANCH   9  10
HETATM   10  C4  UNL     1     -90.471 -16.569  10.073  1.00  0.00     0.233 C 
HETATM   11  N1  UNL     1     -91.048 -16.993  11.267  1.00  0.00    -0.348 N 
HETATM   12  C1  UNL     1     -92.369 -17.647  11.203  1.00  0.00     0.153 C 
HETATM   13  O3  UNL     1     -91.124 -16.831   8.996  1.00  0.00    -0.272 OA
BRANCH  11  14
HETATM   14  C2  UNL     1     -90.489 -16.908  12.587  1.00  0.00     0.210 C 
BRANCH  14  15
HETATM   15  C3  UNL     1     -91.210 -15.971  13.486  1.00  0.00     0.153 C 
HETATM   16  N2  UNL     1     -91.283 -16.230  14.743  1.00  0.00    -0.250 N 
ATOM     17  H2  UNL     1     -91.781 -15.578  15.348  1.00  0.00     0.196 HD
BRANCH  15  18
HETATM   18  O1  UNL     1     -91.803 -14.833  13.000  1.00  0.00    -0.347 OA
ATOM     19  H1  UNL     1     -91.286 -14.071  12.764  1.00  0.00     0.219 HD
ENDBRANCH  15  18
BRANCH  16  20
HETATM   20  O2  UNL     1     -90.714 -17.353  15.307  1.00  0.00    -0.288 OA
ATOM     21  H2  UNL     1     -91.132 -17.847  16.002  1.00  0.00     0.244 HD
ENDBRANCH  16  20
ENDBRANCH  14  15
ENDBRANCH  11  14
ENDBRANCH   9  10
BRANCH   9  22
HETATM   22  C6  UNL     1     -89.060 -15.507   8.478  1.00  0.00     0.028 C 
BRANCH  22  23
HETATM   23  C7  UNL     1     -87.747 -15.305   7.831  1.00  0.00    -0.013 C 
HETATM   24  C8  UNL     1     -87.908 -15.054   6.333  1.00  0.00     0.005 C 
HETATM   25  C9  UNL     1     -87.940 -13.629   5.949  1.00  0.00     0.000 C 
HETATM   26  C10 UNL     1     -86.970 -12.735   6.626  1.00  0.00     0.000 C 
HETATM   27  C11 UNL     1     -85.992 -13.595   7.399  1.00  0.00     0.000 C 
HETATM   28  C12 UNL     1     -86.895 -14.284   8.472  1.00  0.00     0.005 C 
ENDBRANCH  22  23
ENDBRANCH   9  22
ENDBRANCH   1   9
BRANCH   6  29
HETATM   29  C16 UNL     1     -85.751 -14.001  14.336  1.00  0.00     0.132 C 
BRANCH  29  30
HETATM   30  C17 UNL     1     -86.322 -14.647  15.596  1.00  0.00     0.004 C 
HETATM   31  C18 UNL     1     -87.764 -14.252  15.703  1.00  0.00     0.009 C 
HETATM   32  C19 UNL     1     -88.463 -14.970  16.841  1.00  0.00     0.032 C 
HETATM   33  C20 UNL     1     -87.685 -16.155  17.315  1.00  0.00     0.122 C 
HETATM   34  C21 UNL     1     -87.211 -16.915  16.059  1.00  0.00     0.023 C 
HETATM   35  C24 UNL     1     -86.105 -16.142  15.451  1.00  0.00     0.013 C 
BRANCH  33  36
HETATM   36  O5  UNL     1     -86.664 -15.856  18.173  1.00  0.00    -0.395 OA
ATOM     37  H5  UNL     1     -86.168 -16.609  18.471  1.00  0.00     0.210 HD
ENDBRANCH  33  36
BRANCH  34  38
HETATM   38  C22 UNL     1     -86.901 -18.321  16.433  1.00  0.00     0.124 C 
BRANCH  38  39
HETATM   39  C23 UNL     1     -86.999 -19.246  15.257  1.00  0.00     0.388 C 
HETATM   40  F1  UNL     1     -87.440 -20.489  15.724  1.00  0.00    -0.171 F 
HETATM   41  F2  UNL     1     -87.841 -18.755  14.299  1.00  0.00    -0.171 F 
HETATM   42  F3  UNL     1     -85.723 -19.447  14.746  1.00  0.00    -0.171 F 
ENDBRANCH  38  39
ENDBRANCH  34  38
ENDBRANCH  29  30
ENDBRANCH   6  29
TORSDOF 13
ENDMDL
