MODEL 1
REMARK VINA RESULT: -7.320133789      0.000      0.000
REMARK  11 active torsions:
REMARK  status: ('A' for Active; 'I' for Inactive)
REMARK    1  A    between atoms: C2_2  and  C5_5 
REMARK    2  A    between atoms: C5_5  and  N1_6 
REMARK    3  A    between atoms: C8_10  and  C9_11 
REMARK    4  A    between atoms: C9_11  and  O2_12 
REMARK    5  A    between atoms: C11_15  and  O3_16 
REMARK    6  A    between atoms: C13_19  and  C14_20 
REMARK    7  A    between atoms: C14_20  and  O4_21 
REMARK    8  A    between atoms: C15_23  and  C16_24 
REMARK    9  A    between atoms: C16_24  and  C17_25 
REMARK   10  A    between atoms: N2_30  and  C22_31 
REMARK   11  A    between atoms: C22_31  and  C23_32 
ROOT
HETATM    1  N1  UNL     1     -93.797 -13.331  43.530  1.00  0.00     0.107 N 
HETATM    2  C6  UNL     1     -93.819 -13.310  42.119  1.00  0.00     0.301 C 
HETATM    3  C7  UNL     1     -92.643 -14.208  41.812  1.00  0.00     0.174 C 
HETATM    4  O1  UNL     1     -91.539 -14.165  41.362  1.00  0.00    -0.295 OA
HETATM    5  C8  UNL     1     -93.563 -15.249  42.370  1.00  0.00     0.084 C 
HETATM    6  C10 UNL     1     -94.646 -14.520  41.675  1.00  0.00     0.076 C 
HETATM    7  C11 UNL     1     -96.017 -14.591  42.277  1.00  0.00     0.134 C 
HETATM    8  C12 UNL     1     -96.021 -14.388  43.742  1.00  0.00     0.052 C 
HETATM    9  C13 UNL     1     -97.190 -15.023  44.461  1.00  0.00    -0.047 C 
HETATM   10  C15 UNL     1     -96.764 -15.567  45.596  1.00  0.00    -0.072 C 
HETATM   11  C26 UNL     1     -95.280 -15.247  45.701  1.00  0.00     0.042 C 
HETATM   12  C27 UNL     1     -94.940 -15.358  44.278  1.00  0.00     0.035 C 
HETATM   13  C28 UNL     1     -93.656 -14.774  43.807  1.00  0.00     0.247 C 
ENDROOT
BRANCH  10  14
HETATM   14  C16 UNL     1     -97.532 -16.283  46.607  1.00  0.00     0.075 C 
BRANCH  14  15
HETATM   15  C17 UNL     1     -97.822 -15.595  47.902  1.00  0.00     0.160 C 
HETATM   16  C18 UNL     1     -97.500 -16.362  49.126  1.00  0.00     0.049 C 
HETATM   17  C19 UNL     1     -97.304 -14.206  48.003  1.00  0.00     0.043 C 
HETATM   18  C20 UNL     1     -98.127 -13.676  49.180  1.00  0.00     0.033 C 
HETATM   19  C21 UNL     1     -99.427 -14.382  49.008  1.00  0.00     0.273 C 
HETATM   20  N2  UNL     1     -99.282 -15.363  47.916  1.00  0.00     0.098 N 
BRANCH  20  21
HETATM   21  C22 UNL     1     -99.956 -16.601  48.293  1.00  0.00     0.278 C 
BRANCH  21  22
HETATM   22  C23 UNL     1    -101.104 -16.935  47.405  1.00  0.00     0.014 A 
HETATM   23  C24 UNL     1    -102.336 -16.151  47.263  1.00  0.00     0.007 A 
HETATM   24  C25 UNL     1    -101.307 -16.137  46.146  1.00  0.00     0.007 A 
ENDBRANCH  21  22
ENDBRANCH  20  21
ENDBRANCH  14  15
ENDBRANCH  10  14
BRANCH   9  25
HETATM   25  C14 UNL     1     -98.519 -14.967  43.878  1.00  0.00     0.199 C 
BRANCH  25  26
HETATM   26  O4  UNL     1     -99.139 -13.765  43.767  1.00  0.00    -0.397 OA
ATOM     27  H4  UNL     1     -99.864 -13.564  44.347  1.00  0.00     0.209 HD
ENDBRANCH  25  26
ENDBRANCH   9  25
BRANCH   7  28
HETATM   28  O3  UNL     1     -96.750 -13.527  41.701  1.00  0.00    -0.394 OA
ATOM     29  H3  UNL     1     -97.631 -13.599  42.050  1.00  0.00     0.210 HD
ENDBRANCH   7  28
BRANCH   1  30
HETATM   30  C5  UNL     1     -92.666 -12.657  44.073  1.00  0.00     0.282 C 
BRANCH  30  31
HETATM   31  C2  UNL     1     -92.888 -11.729  45.202  1.00  0.00    -0.025 C 
HETATM   32  C1  UNL     1     -93.893 -12.260  46.215  1.00  0.00     0.016 C 
HETATM   33  C3  UNL     1     -93.193 -10.312  44.905  1.00  0.00     0.016 C 
HETATM   34  C4  UNL     1     -91.551 -11.709  45.988  1.00  0.00     0.016 C 
ENDBRANCH  30  31
ENDBRANCH   1  30
BRANCH   5  35
HETATM   35  C9  UNL     1     -93.259 -16.646  42.110  1.00  0.00     0.184 C 
BRANCH  35  36
HETATM   36  O2  UNL     1     -92.429 -17.238  43.033  1.00  0.00    -0.400 OA
ATOM     37  H2  UNL     1     -92.841 -17.903  43.572  1.00  0.00     0.209 HD
ENDBRANCH  35  36
ENDBRANCH   5  35
TORSDOF 11
ENDMDL
MODEL 2
REMARK VINA RESULT: -6.943238580      2.272      4.392
REMARK  11 active torsions:
REMARK  status: ('A' for Active; 'I' for Inactive)
REMARK    1  A    between atoms: C2_2  and  C5_5 
REMARK    2  A    between atoms: C5_5  and  N1_6 
REMARK    3  A    between atoms: C8_10  and  C9_11 
REMARK    4  A    between atoms: C9_11  and  O2_12 
REMARK    5  A    between atoms: C11_15  and  O3_16 
REMARK    6  A    between atoms: C13_19  and  C14_20 
REMARK    7  A    between atoms: C14_20  and  O4_21 
REMARK    8  A    between atoms: C15_23  and  C16_24 
REMARK    9  A    between atoms: C16_24  and  C17_25 
REMARK   10  A    between atoms: N2_30  and  C22_31 
REMARK   11  A    between atoms: C22_31  and  C23_32 
ROOT
HETATM    1  N1  UNL     1     -93.050 -14.018  44.430  1.00  0.00     0.107 N 
HETATM    2  C6  UNL     1     -91.747 -13.675  44.850  1.00  0.00     0.301 C 
HETATM    3  C7  UNL     1     -91.648 -12.266  44.313  1.00  0.00     0.174 C 
HETATM    4  O1  UNL     1     -91.078 -11.631  43.478  1.00  0.00    -0.295 OA
HETATM    5  C8  UNL     1     -92.664 -12.013  45.383  1.00  0.00     0.084 C 
HETATM    6  C10 UNL     1     -91.891 -12.973  46.202  1.00  0.00     0.076 C 
HETATM    7  C11 UNL     1     -92.646 -13.757  47.233  1.00  0.00     0.134 C 
HETATM    8  C12 UNL     1     -93.919 -14.312  46.726  1.00  0.00     0.052 C 
HETATM    9  C13 UNL     1     -94.965 -14.561  47.790  1.00  0.00    -0.047 C 
HETATM   10  C15 UNL     1     -96.156 -14.199  47.327  1.00  0.00    -0.072 C 
HETATM   11  C26 UNL     1     -95.946 -13.750  45.889  1.00  0.00     0.042 C 
HETATM   12  C27 UNL     1     -94.635 -13.113  46.057  1.00  0.00     0.035 C 
HETATM   13  C28 UNL     1     -93.822 -12.830  44.844  1.00  0.00     0.247 C 
ENDROOT
BRANCH  10  14
HETATM   14  C16 UNL     1     -97.449 -14.257  47.998  1.00  0.00     0.075 C 
BRANCH  14  15
HETATM   15  C17 UNL     1     -98.204 -15.548  47.978  1.00  0.00     0.160 C 
HETATM   16  C18 UNL     1     -97.546 -16.668  47.270  1.00  0.00     0.049 C 
HETATM   17  C19 UNL     1     -98.720 -15.993  49.297  1.00  0.00     0.043 C 
HETATM   18  C20 UNL     1     -99.769 -17.022  48.865  1.00  0.00     0.033 C 
HETATM   19  C21 UNL     1    -100.282 -16.442  47.593  1.00  0.00     0.273 C 
HETATM   20  N2  UNL     1     -99.461 -15.266  47.253  1.00  0.00     0.098 N 
BRANCH  20  21
HETATM   21  C22 UNL     1     -99.194 -15.267  45.819  1.00  0.00     0.278 C 
BRANCH  21  22
HETATM   22  C23 UNL     1    -100.359 -15.716  45.007  1.00  0.00     0.014 A 
HETATM   23  C24 UNL     1    -101.255 -14.846  44.237  1.00  0.00     0.007 A 
HETATM   24  C25 UNL     1    -100.245 -15.715  43.507  1.00  0.00     0.007 A 
ENDBRANCH  21  22
ENDBRANCH  20  21
ENDBRANCH  14  15
ENDBRANCH  10  14
BRANCH   9  25
HETATM   25  C14 UNL     1     -94.576 -15.118  49.074  1.00  0.00     0.199 C 
BRANCH  25  26
HETATM   26  O4  UNL     1     -94.010 -16.350  49.113  1.00  0.00    -0.397 OA
ATOM     27  H4  UNL     1     -94.350 -16.995  49.722  1.00  0.00     0.209 HD
ENDBRANCH  25  26
ENDBRANCH   9  25
BRANCH   7  28
HETATM   28  O3  UNL     1     -91.814 -14.849  47.575  1.00  0.00    -0.394 OA
ATOM     29  H3  UNL     1     -92.088 -15.123  48.443  1.00  0.00     0.210 HD
ENDBRANCH   7  28
BRANCH   1  30
HETATM   30  C5  UNL     1     -93.157 -14.153  43.017  1.00  0.00     0.282 C 
BRANCH  30  31
HETATM   31  C2  UNL     1     -93.815 -15.364  42.483  1.00  0.00    -0.025 C 
HETATM   32  C1  UNL     1     -93.543 -15.581  41.001  1.00  0.00     0.016 C 
HETATM   33  C3  UNL     1     -95.256 -15.565  42.751  1.00  0.00     0.016 C 
HETATM   34  C4  UNL     1     -93.097 -16.558  43.165  1.00  0.00     0.016 C 
ENDBRANCH  30  31
ENDBRANCH   1  30
BRANCH   5  35
HETATM   35  C9  UNL     1     -92.904 -10.639  45.793  1.00  0.00     0.184 C 
BRANCH  35  36
HETATM   36  O2  UNL     1     -93.863  -9.978  45.063  1.00  0.00    -0.400 OA
ATOM     37  H2  UNL     1     -94.473  -9.464  45.579  1.00  0.00     0.209 HD
ENDBRANCH  35  36
ENDBRANCH   5  35
TORSDOF 11
ENDMDL
MODEL 3
REMARK VINA RESULT: -6.905049992      3.000      8.168
REMARK  11 active torsions:
REMARK  status: ('A' for Active; 'I' for Inactive)
REMARK    1  A    between atoms: C2_2  and  C5_5 
REMARK    2  A    between atoms: C5_5  and  N1_6 
REMARK    3  A    between atoms: C8_10  and  C9_11 
REMARK    4  A    between atoms: C9_11  and  O2_12 
REMARK    5  A    between atoms: C11_15  and  O3_16 
REMARK    6  A    between atoms: C13_19  and  C14_20 
REMARK    7  A    between atoms: C14_20  and  O4_21 
REMARK    8  A    between atoms: C15_23  and  C16_24 
REMARK    9  A    between atoms: C16_24  and  C17_25 
REMARK   10  A    between atoms: N2_30  and  C22_31 
REMARK   11  A    between atoms: C22_31  and  C23_32 
ROOT
HETATM    1  N1  UNL     1     -99.792 -15.025  49.505  1.00  0.00     0.107 N 
HETATM    2  C6  UNL     1    -100.180 -16.382  49.512  1.00  0.00     0.301 C 
HETATM    3  C7  UNL     1    -101.018 -16.434  48.255  1.00  0.00     0.174 C 
HETATM    4  O1  UNL     1    -102.151 -16.561  47.901  1.00  0.00    -0.295 OA
HETATM    5  C8  UNL     1     -99.681 -16.239  47.610  1.00  0.00     0.084 C 
HETATM    6  C10 UNL     1     -99.155 -17.137  48.661  1.00  0.00     0.076 C 
HETATM    7  C11 UNL     1     -97.731 -16.939  49.083  1.00  0.00     0.134 C 
HETATM    8  C12 UNL     1     -97.378 -15.518  49.297  1.00  0.00     0.052 C 
HETATM    9  C13 UNL     1     -95.910 -15.201  49.121  1.00  0.00    -0.047 C 
HETATM   10  C15 UNL     1     -95.784 -14.045  48.480  1.00  0.00    -0.072 C 
HETATM   11  C26 UNL     1     -97.193 -13.513  48.262  1.00  0.00     0.042 C 
HETATM   12  C27 UNL     1     -97.865 -14.794  48.017  1.00  0.00     0.035 C 
HETATM   13  C28 UNL     1     -99.350 -14.846  48.108  1.00  0.00     0.247 C 
ENDROOT
BRANCH  10  14
HETATM   14  C16 UNL     1     -94.564 -13.347  48.093  1.00  0.00     0.075 C 
BRANCH  14  15
HETATM   15  C17 UNL     1     -93.891 -13.745  46.819  1.00  0.00     0.160 C 
HETATM   16  C18 UNL     1     -92.412 -13.774  46.853  1.00  0.00     0.049 C 
HETATM   17  C19 UNL     1     -94.424 -14.978  46.186  1.00  0.00     0.043 C 
HETATM   18  C20 UNL     1     -93.868 -14.838  44.766  1.00  0.00     0.033 C 
HETATM   19  C21 UNL     1     -93.893 -13.364  44.555  1.00  0.00     0.273 C 
HETATM   20  N2  UNL     1     -94.273 -12.719  45.825  1.00  0.00     0.098 N 
BRANCH  20  21
HETATM   21  C22 UNL     1     -93.447 -11.533  46.025  1.00  0.00     0.278 C 
BRANCH  21  22
HETATM   22  C23 UNL     1     -93.257 -10.736  44.781  1.00  0.00     0.014 A 
HETATM   23  C24 UNL     1     -92.602  -9.426  44.693  1.00  0.00     0.007 A 
HETATM   24  C25 UNL     1     -91.886 -10.659  44.168  1.00  0.00     0.007 A 
ENDBRANCH  21  22
ENDBRANCH  20  21
ENDBRANCH  14  15
ENDBRANCH  10  14
BRANCH   9  25
HETATM   25  C14 UNL     1     -94.904 -16.117  49.631  1.00  0.00     0.199 C 
BRANCH  25  26
HETATM   26  O4  UNL     1     -94.872 -16.387  50.960  1.00  0.00    -0.397 OA
ATOM     27  H4  UNL     1     -95.578 -16.069  51.512  1.00  0.00     0.209 HD
ENDBRANCH  25  26
ENDBRANCH   9  25
BRANCH   7  28
HETATM   28  O3  UNL     1     -97.599 -17.598  50.328  1.00  0.00    -0.394 OA
ATOM     29  H3  UNL     1     -96.665 -17.684  50.480  1.00  0.00     0.210 HD
ENDBRANCH   7  28
BRANCH   1  30
HETATM   30  C5  UNL     1    -100.879 -14.139  49.748  1.00  0.00     0.282 C 
BRANCH  30  31
HETATM   31  C2  UNL     1    -100.635 -12.960  50.607  1.00  0.00    -0.025 C 
HETATM   32  C1  UNL     1    -101.777 -12.688  51.576  1.00  0.00     0.016 C 
HETATM   33  C3  UNL     1    -100.221 -11.691  49.968  1.00  0.00     0.016 C 
HETATM   34  C4  UNL     1     -99.456 -13.361  51.532  1.00  0.00     0.016 C 
ENDBRANCH  30  31
ENDBRANCH   1  30
BRANCH   5  35
HETATM   35  C9  UNL     1     -99.553 -16.526  46.191  1.00  0.00     0.184 C 
BRANCH  35  36
HETATM   36  O2  UNL     1     -99.881 -15.482  45.358  1.00  0.00    -0.400 OA
ATOM     37  H2  UNL     1     -99.228 -14.795  45.304  1.00  0.00     0.209 HD
ENDBRANCH  35  36
ENDBRANCH   5  35
TORSDOF 11
ENDMDL
MODEL 4
REMARK VINA RESULT: -6.895879212      3.060      7.641
REMARK  11 active torsions:
REMARK  status: ('A' for Active; 'I' for Inactive)
REMARK    1  A    between atoms: C2_2  and  C5_5 
REMARK    2  A    between atoms: C5_5  and  N1_6 
REMARK    3  A    between atoms: C8_10  and  C9_11 
REMARK    4  A    between atoms: C9_11  and  O2_12 
REMARK    5  A    between atoms: C11_15  and  O3_16 
REMARK    6  A    between atoms: C13_19  and  C14_20 
REMARK    7  A    between atoms: C14_20  and  O4_21 
REMARK    8  A    between atoms: C15_23  and  C16_24 
REMARK    9  A    between atoms: C16_24  and  C17_25 
REMARK   10  A    between atoms: N2_30  and  C22_31 
REMARK   11  A    between atoms: C22_31  and  C23_32 
ROOT
HETATM    1  N1  UNL     1     -99.235 -15.189  49.673  1.00  0.00     0.107 N 
HETATM    2  C6  UNL     1     -99.376 -16.580  49.867  1.00  0.00     0.301 C 
HETATM    3  C7  UNL     1    -100.293 -16.925  48.717  1.00  0.00     0.174 C 
HETATM    4  O1  UNL     1    -101.412 -17.280  48.498  1.00  0.00    -0.295 OA
HETATM    5  C8  UNL     1     -99.071 -16.593  47.919  1.00  0.00     0.084 C 
HETATM    6  C10 UNL     1     -98.309 -17.255  49.001  1.00  0.00     0.076 C 
HETATM    7  C11 UNL     1     -96.911 -16.773  49.249  1.00  0.00     0.134 C 
HETATM    8  C12 UNL     1     -96.798 -15.299  49.270  1.00  0.00     0.052 C 
HETATM    9  C13 UNL     1     -95.428 -14.768  48.910  1.00  0.00    -0.047 C 
HETATM   10  C15 UNL     1     -95.563 -13.695  48.138  1.00  0.00    -0.072 C 
HETATM   11  C26 UNL     1     -97.056 -13.434  48.011  1.00  0.00     0.042 C 
HETATM   12  C27 UNL     1     -97.510 -14.829  47.978  1.00  0.00     0.035 C 
HETATM   13  C28 UNL     1     -98.949 -15.114  48.227  1.00  0.00     0.247 C 
ENDROOT
BRANCH  10  14
HETATM   14  C16 UNL     1     -94.521 -12.859  47.553  1.00  0.00     0.075 C 
BRANCH  14  15
HETATM   15  C17 UNL     1     -93.660 -13.441  46.479  1.00  0.00     0.160 C 
HETATM   16  C18 UNL     1     -93.350 -12.545  45.344  1.00  0.00     0.049 C 
HETATM   17  C19 UNL     1     -92.430 -14.121  46.960  1.00  0.00     0.043 C 
HETATM   18  C20 UNL     1     -92.058 -14.951  45.729  1.00  0.00     0.033 C 
HETATM   19  C21 UNL     1     -93.390 -15.303  45.164  1.00  0.00     0.273 C 
HETATM   20  N2  UNL     1     -94.424 -14.580  45.926  1.00  0.00     0.098 N 
BRANCH  20  21
HETATM   21  C22 UNL     1     -95.432 -14.072  45.001  1.00  0.00     0.278 C 
BRANCH  21  22
HETATM   22  C23 UNL     1     -96.324 -15.137  44.466  1.00  0.00     0.014 A 
HETATM   23  C24 UNL     1     -97.611 -14.921  43.793  1.00  0.00     0.007 A 
HETATM   24  C25 UNL     1     -96.400 -15.343  42.977  1.00  0.00     0.007 A 
ENDBRANCH  21  22
ENDBRANCH  20  21
ENDBRANCH  14  15
ENDBRANCH  10  14
BRANCH   9  25
HETATM   25  C14 UNL     1     -94.237 -15.434  49.408  1.00  0.00     0.199 C 
BRANCH  25  26
HETATM   26  O4  UNL     1     -93.947 -15.360  50.731  1.00  0.00    -0.397 OA
ATOM     27  H4  UNL     1     -93.976 -16.153  51.255  1.00  0.00     0.209 HD
ENDBRANCH  25  26
ENDBRANCH   9  25
BRANCH   7  28
HETATM   28  O3  UNL     1     -96.561 -17.242  50.537  1.00  0.00    -0.394 OA
ATOM     29  H3  UNL     1     -95.730 -17.691  50.434  1.00  0.00     0.210 HD
ENDBRANCH   7  28
BRANCH   1  30
HETATM   30  C5  UNL     1    -100.437 -14.471  49.931  1.00  0.00     0.282 C 
BRANCH  30  31
HETATM   31  C2  UNL     1    -100.406 -13.416  50.966  1.00  0.00    -0.025 C 
HETATM   32  C1  UNL     1     -99.049 -13.292  51.645  1.00  0.00     0.016 C 
HETATM   33  C3  UNL     1    -101.471 -13.398  51.993  1.00  0.00     0.016 C 
HETATM   34  C4  UNL     1    -100.553 -12.078  50.195  1.00  0.00     0.016 C 
ENDBRANCH  30  31
ENDBRANCH   1  30
BRANCH   5  35
HETATM   35  C9  UNL     1     -99.013 -17.029  46.534  1.00  0.00     0.184 C 
BRANCH  35  36
HETATM   36  O2  UNL     1    -100.052 -16.591  45.747  1.00  0.00    -0.400 OA
ATOM     37  H2  UNL     1     -99.990 -15.684  45.472  1.00  0.00     0.209 HD
ENDBRANCH  35  36
ENDBRANCH   5  35
TORSDOF 11
ENDMDL
MODEL 5
REMARK VINA RESULT: -6.883513827      5.462      8.632
REMARK  11 active torsions:
REMARK  status: ('A' for Active; 'I' for Inactive)
REMARK    1  A    between atoms: C2_2  and  C5_5 
REMARK    2  A    between atoms: C5_5  and  N1_6 
REMARK    3  A    between atoms: C8_10  and  C9_11 
REMARK    4  A    between atoms: C9_11  and  O2_12 
REMARK    5  A    between atoms: C11_15  and  O3_16 
REMARK    6  A    between atoms: C13_19  and  C14_20 
REMARK    7  A    between atoms: C14_20  and  O4_21 
REMARK    8  A    between atoms: C15_23  and  C16_24 
REMARK    9  A    between atoms: C16_24  and  C17_25 
REMARK   10  A    between atoms: N2_30  and  C22_31 
REMARK   11  A    between atoms: C22_31  and  C23_32 
ROOT
HETATM    1  N1  UNL     1     -97.605 -14.750  53.585  1.00  0.00     0.107 N 
HETATM    2  C6  UNL     1     -96.292 -14.234  53.533  1.00  0.00     0.301 C 
HETATM    3  C7  UNL     1     -95.495 -15.517  53.481  1.00  0.00     0.174 C 
HETATM    4  O1  UNL     1     -94.747 -16.170  54.143  1.00  0.00    -0.295 OA
HETATM    5  C8  UNL     1     -96.116 -15.599  52.122  1.00  0.00     0.084 C 
HETATM    6  C10 UNL     1     -95.916 -14.135  52.053  1.00  0.00     0.076 C 
HETATM    7  C11 UNL     1     -96.882 -13.350  51.218  1.00  0.00     0.134 C 
HETATM    8  C12 UNL     1     -98.292 -13.739  51.436  1.00  0.00     0.052 C 
HETATM    9  C13 UNL     1     -99.210 -13.462  50.266  1.00  0.00    -0.047 C 
HETATM   10  C15 UNL     1    -100.052 -14.479  50.119  1.00  0.00    -0.072 C 
HETATM   11  C26 UNL     1     -99.758 -15.454  51.249  1.00  0.00     0.042 C 
HETATM   12  C27 UNL     1     -98.302 -15.281  51.302  1.00  0.00     0.035 C 
HETATM   13  C28 UNL     1     -97.573 -15.760  52.508  1.00  0.00     0.247 C 
ENDROOT
BRANCH  10  14
HETATM   14  C16 UNL     1    -101.108 -14.649  49.128  1.00  0.00     0.075 C 
BRANCH  14  15
HETATM   15  C17 UNL     1    -101.291 -15.997  48.508  1.00  0.00     0.160 C 
HETATM   16  C18 UNL     1    -100.119 -16.899  48.567  1.00  0.00     0.049 C 
HETATM   17  C19 UNL     1    -102.524 -16.715  48.920  1.00  0.00     0.043 C 
HETATM   18  C20 UNL     1    -102.625 -17.772  47.817  1.00  0.00     0.033 C 
HETATM   19  C21 UNL     1    -102.086 -17.051  46.631  1.00  0.00     0.273 C 
HETATM   20  N2  UNL     1    -101.564 -15.747  47.077  1.00  0.00     0.098 N 
BRANCH  20  21
HETATM   21  C22 UNL     1    -100.304 -15.477  46.392  1.00  0.00     0.278 C 
BRANCH  21  22
HETATM   22  C23 UNL     1    -100.373 -15.713  44.924  1.00  0.00     0.014 A 
HETATM   23  C24 UNL     1    -100.854 -14.754  43.922  1.00  0.00     0.007 A 
HETATM   24  C25 UNL     1     -99.366 -15.042  44.030  1.00  0.00     0.007 A 
ENDBRANCH  21  22
ENDBRANCH  20  21
ENDBRANCH  14  15
ENDBRANCH  10  14
BRANCH   9  25
HETATM   25  C14 UNL     1     -99.074 -12.227  49.513  1.00  0.00     0.199 C 
BRANCH  25  26
HETATM   26  O4  UNL     1     -99.849 -11.165  49.845  1.00  0.00    -0.397 OA
ATOM     27  H4  UNL     1     -99.704 -10.730  50.677  1.00  0.00     0.209 HD
ENDBRANCH  25  26
ENDBRANCH   9  25
BRANCH   7  28
HETATM   28  O3  UNL     1     -96.746 -12.003  51.629  1.00  0.00    -0.394 OA
ATOM     29  H3  UNL     1     -96.183 -11.589  50.986  1.00  0.00     0.210 HD
ENDBRANCH   7  28
BRANCH   1  30
HETATM   30  C5  UNL     1     -97.889 -15.413  54.812  1.00  0.00     0.282 C 
BRANCH  30  31
HETATM   31  C2  UNL     1     -99.297 -15.468  55.261  1.00  0.00    -0.025 C 
HETATM   32  C1  UNL     1     -99.919 -16.848  55.087  1.00  0.00     0.016 C 
HETATM   33  C3  UNL     1    -100.240 -14.440  54.768  1.00  0.00     0.016 C 
HETATM   34  C4  UNL     1     -99.247 -15.280  56.800  1.00  0.00     0.016 C 
ENDBRANCH  30  31
ENDBRANCH   1  30
BRANCH   5  35
HETATM   35  C9  UNL     1     -95.540 -16.520  51.156  1.00  0.00     0.184 C 
BRANCH  35  36
HETATM   36  O2  UNL     1     -96.407 -17.475  50.680  1.00  0.00    -0.400 OA
ATOM     37  H2  UNL     1     -97.271 -17.152  50.452  1.00  0.00     0.209 HD
ENDBRANCH  35  36
ENDBRANCH   5  35
TORSDOF 11
ENDMDL
