MODEL 1
REMARK VINA RESULT: -7.006628362      0.000      0.000
REMARK  7 active torsions:
REMARK  status: ('A' for Active; 'I' for Inactive)
REMARK    1  A    between atoms: N1_3  and  C2_4 
REMARK    2  A    between atoms: C9_11  and  O2_12 
REMARK    3  A    between atoms: N2_14  and  C10_15 
REMARK    4  A    between atoms: C13_18  and  N3_19 
REMARK    5  A    between atoms: C15_22  and  C16_23 
REMARK    6  A    between atoms: C19_27  and  C20_28 
REMARK    7  A    between atoms: C20_28  and  C21_29 
ROOT
HETATM    1  C10 UNL     1     -31.221   4.190 -25.328  1.00  0.00     0.097 C 
HETATM    2  C11 UNL     1     -29.927   3.974 -24.553  1.00  0.00     0.028 C 
HETATM    3  C12 UNL     1     -29.469   2.540 -24.726  1.00  0.00     0.038 C 
HETATM    4  C13 UNL     1     -29.766   2.179 -26.173  1.00  0.00     0.226 C 
HETATM    5  C22 UNL     1     -31.230   1.899 -26.250  1.00  0.00     0.038 C 
HETATM    6  C23 UNL     1     -31.977   2.911 -25.397  1.00  0.00     0.028 C 
ENDROOT
BRANCH   1   7
HETATM    7  N2  UNL     1     -31.914   5.261 -24.649  1.00  0.00    -0.274 N 
HETATM    8  C1  UNL     1     -32.388   5.422 -23.427  1.00  0.00     0.331 A 
HETATM    9  O1  UNL     1     -32.306   4.531 -22.537  1.00  0.00    -0.246 OA
HETATM   10  N1  UNL     1     -32.953   6.635 -23.272  1.00  0.00    -0.301 N 
HETATM   11  C8  UNL     1     -32.837   7.282 -24.450  1.00  0.00     0.152 A 
HETATM   12  C9  UNL     1     -32.189   6.427 -25.311  1.00  0.00     0.162 A 
BRANCH  10  13
HETATM   13  C2  UNL     1     -33.575   7.203 -22.106  1.00  0.00     0.094 C 
HETATM   14  C3  UNL     1     -34.948   6.582 -21.886  1.00  0.00     0.026 C 
HETATM   15  C4  UNL     1     -35.576   7.078 -20.626  1.00  0.00     0.002 C 
HETATM   16  C5  UNL     1     -35.730   8.603 -20.750  1.00  0.00     0.000 C 
HETATM   17  C6  UNL     1     -34.333   9.156 -20.884  1.00  0.00     0.002 C 
HETATM   18  C7  UNL     1     -33.823   8.699 -22.255  1.00  0.00     0.026 C 
ENDBRANCH  10  13
BRANCH  12  19
HETATM   19  O2  UNL     1     -31.887   6.738 -26.617  1.00  0.00    -0.345 OA
ATOM     20  H2  UNL     1     -31.018   6.663 -26.992  1.00  0.00     0.219 HD
ENDBRANCH  12  19
ENDBRANCH   1   7
BRANCH   4  21
HETATM   21  N3  UNL     1     -28.884   1.197 -26.693  1.00  0.00     0.121 N 
HETATM   22  C14 UNL     1     -27.536   1.710 -26.813  1.00  0.00     0.351 C 
HETATM   23  S1  UNL     1     -28.132   2.642 -28.270  1.00  0.00    -0.098 SA
HETATM   24  C15 UNL     1     -28.904   0.981 -28.111  1.00  0.00     0.327 C 
BRANCH  24  25
HETATM   25  C16 UNL     1     -27.901  -0.095 -28.490  1.00  0.00     0.028 A 
HETATM   26  C17 UNL     1     -26.870   0.021 -29.379  1.00  0.00     0.042 A 
HETATM   27  C18 UNL     1     -26.079  -1.048 -29.560  1.00  0.00     0.048 A 
HETATM   28 CL1  UNL     1     -24.665  -1.022 -30.663  1.00  0.00    -0.083 Cl
HETATM   29  C19 UNL     1     -26.359  -2.173 -28.845  1.00  0.00     0.006 A 
HETATM   30  S2  UNL     1     -27.742  -1.694 -27.927  1.00  0.00    -0.094 SA
BRANCH  29  31
HETATM   31  C20 UNL     1     -25.731  -3.513 -28.808  1.00  0.00     0.063 C 
BRANCH  31  32
HETATM   32  C21 UNL     1     -26.371  -4.507 -27.912  1.00  0.00     0.119 C 
HETATM   33 CL2  UNL     1     -26.409  -6.163 -28.505  1.00  0.00    -0.130 Cl
ENDBRANCH  31  32
ENDBRANCH  29  31
ENDBRANCH  24  25
ENDBRANCH   4  21
TORSDOF 7
ENDMDL
MODEL 2
REMARK VINA RESULT: -6.842010144      5.238     12.225
REMARK  7 active torsions:
REMARK  status: ('A' for Active; 'I' for Inactive)
REMARK    1  A    between atoms: N1_3  and  C2_4 
REMARK    2  A    between atoms: C9_11  and  O2_12 
REMARK    3  A    between atoms: N2_14  and  C10_15 
REMARK    4  A    between atoms: C13_18  and  N3_19 
REMARK    5  A    between atoms: C15_22  and  C16_23 
REMARK    6  A    between atoms: C19_27  and  C20_28 
REMARK    7  A    between atoms: C20_28  and  C21_29 
ROOT
HETATM    1  C10 UNL     1     -26.941  -2.631 -26.829  1.00  0.00     0.097 C 
HETATM    2  C11 UNL     1     -28.350  -2.588 -27.406  1.00  0.00     0.028 C 
HETATM    3  C12 UNL     1     -29.209  -1.659 -26.573  1.00  0.00     0.038 C 
HETATM    4  C13 UNL     1     -28.314  -0.487 -26.198  1.00  0.00     0.226 C 
HETATM    5  C22 UNL     1     -27.442  -0.958 -25.083  1.00  0.00     0.038 C 
HETATM    6  C23 UNL     1     -26.998  -2.384 -25.363  1.00  0.00     0.028 C 
ENDROOT
BRANCH   1   7
HETATM    7  N2  UNL     1     -26.400  -3.918 -27.201  1.00  0.00    -0.274 N 
HETATM    8  C1  UNL     1     -26.652  -5.163 -26.837  1.00  0.00     0.331 A 
HETATM    9  O1  UNL     1     -27.526  -5.462 -25.976  1.00  0.00    -0.246 OA
HETATM   10  N1  UNL     1     -25.869  -6.039 -27.496  1.00  0.00    -0.301 N 
HETATM   11  C8  UNL     1     -25.077  -5.322 -28.320  1.00  0.00     0.152 A 
HETATM   12  C9  UNL     1     -25.406  -3.999 -28.138  1.00  0.00     0.162 A 
BRANCH  10  13
HETATM   13  C2  UNL     1     -25.832  -7.473 -27.398  1.00  0.00     0.094 C 
HETATM   14  C3  UNL     1     -24.410  -7.978 -27.604  1.00  0.00     0.026 C 
HETATM   15  C4  UNL     1     -24.322  -9.455 -27.408  1.00  0.00     0.002 C 
HETATM   16  C5  UNL     1     -25.245 -10.120 -28.442  1.00  0.00     0.000 C 
HETATM   17  C6  UNL     1     -26.641  -9.639 -28.130  1.00  0.00     0.002 C 
HETATM   18  C7  UNL     1     -26.666  -8.148 -28.480  1.00  0.00     0.026 C 
ENDBRANCH  10  13
BRANCH  12  19
HETATM   19  O2  UNL     1     -24.805  -2.961 -28.812  1.00  0.00    -0.345 OA
ATOM     20  H2  UNL     1     -25.110  -2.624 -29.647  1.00  0.00     0.219 HD
ENDBRANCH  12  19
ENDBRANCH   1   7
BRANCH   4  21
HETATM   21  N3  UNL     1     -29.033   0.720 -26.004  1.00  0.00     0.121 N 
HETATM   22  C14 UNL     1     -29.500   1.265 -27.261  1.00  0.00     0.351 C 
HETATM   23  S1  UNL     1     -27.769   1.776 -27.562  1.00  0.00    -0.098 SA
HETATM   24  C15 UNL     1     -28.266   1.914 -25.798  1.00  0.00     0.327 C 
BRANCH  24  25
HETATM   25  C16 UNL     1     -29.191   3.104 -25.611  1.00  0.00     0.028 A 
HETATM   26  C17 UNL     1     -29.064   4.340 -26.179  1.00  0.00     0.042 A 
HETATM   27  C18 UNL     1     -30.006   5.255 -25.901  1.00  0.00     0.048 A 
HETATM   28 CL1  UNL     1     -29.986   6.900 -26.613  1.00  0.00    -0.083 Cl
HETATM   29  C19 UNL     1     -31.022   4.888 -25.071  1.00  0.00     0.006 A 
HETATM   30  S2  UNL     1     -30.623   3.249 -24.700  1.00  0.00    -0.094 SA
BRANCH  29  31
HETATM   31  C20 UNL     1     -32.191   5.624 -24.541  1.00  0.00     0.063 C 
BRANCH  31  32
HETATM   32  C21 UNL     1     -33.372   5.700 -25.435  1.00  0.00     0.119 C 
HETATM   33 CL2  UNL     1     -33.446   7.104 -26.493  1.00  0.00    -0.130 Cl
ENDBRANCH  31  32
ENDBRANCH  29  31
ENDBRANCH  24  25
ENDBRANCH   4  21
TORSDOF 7
ENDMDL
MODEL 3
REMARK VINA RESULT: -6.816360603      5.153     11.475
REMARK  7 active torsions:
REMARK  status: ('A' for Active; 'I' for Inactive)
REMARK    1  A    between atoms: N1_3  and  C2_4 
REMARK    2  A    between atoms: C9_11  and  O2_12 
REMARK    3  A    between atoms: N2_14  and  C10_15 
REMARK    4  A    between atoms: C13_18  and  N3_19 
REMARK    5  A    between atoms: C15_22  and  C16_23 
REMARK    6  A    between atoms: C19_27  and  C20_28 
REMARK    7  A    between atoms: C20_28  and  C21_29 
ROOT
HETATM    1  C10 UNL     1     -28.786   0.095 -26.925  1.00  0.00     0.097 C 
HETATM    2  C11 UNL     1     -27.826   1.278 -26.903  1.00  0.00     0.028 C 
HETATM    3  C12 UNL     1     -28.593   2.555 -27.179  1.00  0.00     0.038 C 
HETATM    4  C13 UNL     1     -29.919   2.411 -26.448  1.00  0.00     0.226 C 
HETATM    5  C22 UNL     1     -30.772   1.518 -27.286  1.00  0.00     0.038 C 
HETATM    6  C23 UNL     1     -29.917   0.392 -27.843  1.00  0.00     0.028 C 
ENDROOT
BRANCH   1   7
HETATM    7  N2  UNL     1     -27.991  -1.052 -27.301  1.00  0.00    -0.274 N 
HETATM    8  C1  UNL     1     -27.748  -2.225 -26.745  1.00  0.00     0.331 A 
HETATM    9  O1  UNL     1     -28.234  -2.571 -25.633  1.00  0.00    -0.246 OA
HETATM   10  N1  UNL     1     -26.932  -2.975 -27.511  1.00  0.00    -0.301 N 
HETATM   11  C8  UNL     1     -26.638  -2.248 -28.609  1.00  0.00     0.152 A 
HETATM   12  C9  UNL     1     -27.298  -1.048 -28.481  1.00  0.00     0.162 A 
BRANCH  10  13
HETATM   13  C2  UNL     1     -26.433  -4.303 -27.273  1.00  0.00     0.094 C 
HETATM   14  C3  UNL     1     -25.514  -4.731 -28.410  1.00  0.00     0.026 C 
HETATM   15  C4  UNL     1     -24.900  -6.066 -28.142  1.00  0.00     0.002 C 
HETATM   16  C5  UNL     1     -26.042  -7.086 -28.009  1.00  0.00     0.000 C 
HETATM   17  C6  UNL     1     -26.863  -6.647 -26.821  1.00  0.00     0.002 C 
HETATM   18  C7  UNL     1     -27.548  -5.341 -27.237  1.00  0.00     0.026 C 
ENDBRANCH  10  13
BRANCH  12  19
HETATM   19  O2  UNL     1     -27.240  -0.038 -29.413  1.00  0.00    -0.345 OA
ATOM     20  H2  UNL     1     -27.520   0.854 -29.245  1.00  0.00     0.219 HD
ENDBRANCH  12  19
ENDBRANCH   1   7
BRANCH   4  21
HETATM   21  N3  UNL     1     -30.471   3.655 -26.047  1.00  0.00     0.121 N 
HETATM   22  C14 UNL     1     -29.659   4.289 -25.030  1.00  0.00     0.351 C 
HETATM   23  S1  UNL     1     -30.346   3.058 -23.863  1.00  0.00    -0.098 SA
HETATM   24  C15 UNL     1     -31.564   3.621 -25.120  1.00  0.00     0.327 C 
BRANCH  24  25
HETATM   25  C16 UNL     1     -32.025   5.033 -24.802  1.00  0.00     0.028 A 
HETATM   26  C17 UNL     1     -32.670   5.450 -23.672  1.00  0.00     0.042 A 
HETATM   27  C18 UNL     1     -32.975   6.753 -23.573  1.00  0.00     0.048 A 
HETATM   28 CL1  UNL     1     -33.782   7.444 -22.128  1.00  0.00    -0.083 Cl
HETATM   29  C19 UNL     1     -32.621   7.568 -24.605  1.00  0.00     0.006 A 
HETATM   30  S2  UNL     1     -31.859   6.471 -25.699  1.00  0.00    -0.094 SA
BRANCH  29  31
HETATM   31  C20 UNL     1     -32.812   9.017 -24.842  1.00  0.00     0.063 C 
BRANCH  31  32
HETATM   32  C21 UNL     1     -33.165   9.407 -26.229  1.00  0.00     0.119 C 
HETATM   33 CL2  UNL     1     -34.504  10.537 -26.392  1.00  0.00    -0.130 Cl
ENDBRANCH  31  32
ENDBRANCH  29  31
ENDBRANCH  24  25
ENDBRANCH   4  21
TORSDOF 7
ENDMDL
MODEL 4
REMARK VINA RESULT: -6.812530712      4.885     11.391
REMARK  7 active torsions:
REMARK  status: ('A' for Active; 'I' for Inactive)
REMARK    1  A    between atoms: N1_3  and  C2_4 
REMARK    2  A    between atoms: C9_11  and  O2_12 
REMARK    3  A    between atoms: N2_14  and  C10_15 
REMARK    4  A    between atoms: C13_18  and  N3_19 
REMARK    5  A    between atoms: C15_22  and  C16_23 
REMARK    6  A    between atoms: C19_27  and  C20_28 
REMARK    7  A    between atoms: C20_28  and  C21_29 
ROOT
HETATM    1  C10 UNL     1     -28.768   0.201 -26.770  1.00  0.00     0.097 C 
HETATM    2  C11 UNL     1     -27.773   1.295 -26.409  1.00  0.00     0.028 C 
HETATM    3  C12 UNL     1     -28.416   2.651 -26.613  1.00  0.00     0.038 C 
HETATM    4  C13 UNL     1     -29.857   2.503 -26.147  1.00  0.00     0.226 C 
HETATM    5  C22 UNL     1     -30.589   1.801 -27.242  1.00  0.00     0.038 C 
HETATM    6  C23 UNL     1     -29.703   0.705 -27.811  1.00  0.00     0.028 C 
ENDROOT
BRANCH   1   7
HETATM    7  N2  UNL     1     -27.975  -0.937 -27.176  1.00  0.00    -0.274 N 
HETATM    8  C1  UNL     1     -27.780  -2.147 -26.682  1.00  0.00     0.331 A 
HETATM    9  O1  UNL     1     -28.328  -2.550 -25.619  1.00  0.00    -0.246 OA
HETATM   10  N1  UNL     1     -26.939  -2.865 -27.451  1.00  0.00    -0.301 N 
HETATM   11  C8  UNL     1     -26.577  -2.079 -28.486  1.00  0.00     0.152 A 
HETATM   12  C9  UNL     1     -27.222  -0.876 -28.317  1.00  0.00     0.162 A 
BRANCH  10  13
HETATM   13  C2  UNL     1     -26.475  -4.214 -27.271  1.00  0.00     0.094 C 
HETATM   14  C3  UNL     1     -25.576  -4.621 -28.431  1.00  0.00     0.026 C 
HETATM   15  C4  UNL     1     -24.998  -5.982 -28.222  1.00  0.00     0.002 C 
HETATM   16  C5  UNL     1     -26.167  -6.975 -28.121  1.00  0.00     0.000 C 
HETATM   17  C6  UNL     1     -26.967  -6.562 -26.910  1.00  0.00     0.002 C 
HETATM   18  C7  UNL     1     -27.618  -5.222 -27.267  1.00  0.00     0.026 C 
ENDBRANCH  10  13
BRANCH  12  19
HETATM   19  O2  UNL     1     -27.099   0.188 -29.182  1.00  0.00    -0.345 OA
ATOM     20  H2  UNL     1     -27.513   1.032 -29.045  1.00  0.00     0.219 HD
ENDBRANCH  12  19
ENDBRANCH   1   7
BRANCH   4  21
HETATM   21  N3  UNL     1     -30.411   3.716 -25.662  1.00  0.00     0.121 N 
HETATM   22  C14 UNL     1     -29.800   4.112 -24.411  1.00  0.00     0.351 C 
HETATM   23  S1  UNL     1     -30.785   2.784 -23.629  1.00  0.00    -0.098 SA
HETATM   24  C15 UNL     1     -31.676   3.637 -24.991  1.00  0.00     0.327 C 
BRANCH  24  25
HETATM   25  C16 UNL     1     -32.115   5.019 -24.539  1.00  0.00     0.028 A 
HETATM   26  C17 UNL     1     -32.223   6.140 -25.313  1.00  0.00     0.042 A 
HETATM   27  C18 UNL     1     -32.651   7.267 -24.724  1.00  0.00     0.048 A 
HETATM   28 CL1  UNL     1     -32.881   8.797 -25.629  1.00  0.00    -0.083 Cl
HETATM   29  C19 UNL     1     -32.947   7.215 -23.395  1.00  0.00     0.006 A 
HETATM   30  S2  UNL     1     -32.613   5.566 -23.005  1.00  0.00    -0.094 SA
BRANCH  29  31
HETATM   31  C20 UNL     1     -33.411   8.243 -22.436  1.00  0.00     0.063 C 
BRANCH  31  32
HETATM   32  C21 UNL     1     -32.536   8.479 -21.262  1.00  0.00     0.119 C 
HETATM   33 CL2  UNL     1     -31.500   9.898 -21.348  1.00  0.00    -0.130 Cl
ENDBRANCH  31  32
ENDBRANCH  29  31
ENDBRANCH  24  25
ENDBRANCH   4  21
TORSDOF 7
ENDMDL
MODEL 5
REMARK VINA RESULT: -6.727734671      5.372     12.042
REMARK  7 active torsions:
REMARK  status: ('A' for Active; 'I' for Inactive)
REMARK    1  A    between atoms: N1_3  and  C2_4 
REMARK    2  A    between atoms: C9_11  and  O2_12 
REMARK    3  A    between atoms: N2_14  and  C10_15 
REMARK    4  A    between atoms: C13_18  and  N3_19 
REMARK    5  A    between atoms: C15_22  and  C16_23 
REMARK    6  A    between atoms: C19_27  and  C20_28 
REMARK    7  A    between atoms: C20_28  and  C21_29 
ROOT
HETATM    1  C10 UNL     1     -27.187  -1.837 -26.975  1.00  0.00     0.097 C 
HETATM    2  C11 UNL     1     -28.555  -1.781 -27.641  1.00  0.00     0.028 C 
HETATM    3  C12 UNL     1     -29.456  -0.841 -26.867  1.00  0.00     0.038 C 
HETATM    4  C13 UNL     1     -28.574   0.322 -26.438  1.00  0.00     0.226 C 
HETATM    5  C22 UNL     1     -27.780  -0.155 -25.267  1.00  0.00     0.038 C 
HETATM    6  C23 UNL     1     -27.334  -1.586 -25.517  1.00  0.00     0.028 C 
ENDROOT
BRANCH   1   7
HETATM    7  N2  UNL     1     -26.637  -3.132 -27.309  1.00  0.00    -0.274 N 
HETATM    8  C1  UNL     1     -26.790  -4.350 -26.823  1.00  0.00     0.331 A 
HETATM    9  O1  UNL     1     -27.542  -4.608 -25.842  1.00  0.00    -0.246 OA
HETATM   10  N1  UNL     1     -26.052  -5.250 -27.502  1.00  0.00    -0.301 N 
HETATM   11  C8  UNL     1     -25.395  -4.576 -28.468  1.00  0.00     0.152 A 
HETATM   12  C9  UNL     1     -25.757  -3.255 -28.350  1.00  0.00     0.162 A 
BRANCH  10  13
HETATM   13  C2  UNL     1     -25.940  -6.669 -27.298  1.00  0.00     0.094 C 
HETATM   14  C3  UNL     1     -24.480  -7.096 -27.360  1.00  0.00     0.026 C 
HETATM   15  C4  UNL     1     -24.323  -8.549 -27.052  1.00  0.00     0.002 C 
HETATM   16  C5  UNL     1     -25.121  -9.338 -28.103  1.00  0.00     0.000 C 
HETATM   17  C6  UNL     1     -26.563  -8.926 -27.933  1.00  0.00     0.002 C 
HETATM   18  C7  UNL     1     -26.645  -7.466 -28.390  1.00  0.00     0.026 C 
ENDBRANCH  10  13
BRANCH  12  19
HETATM   19  O2  UNL     1     -25.286  -2.255 -29.170  1.00  0.00    -0.345 OA
ATOM     20  H2  UNL     1     -25.739  -1.952 -29.948  1.00  0.00     0.219 HD
ENDBRANCH  12  19
ENDBRANCH   1   7
BRANCH   4  21
HETATM   21  N3  UNL     1     -29.290   1.538 -26.292  1.00  0.00     0.121 N 
HETATM   22  C14 UNL     1     -29.606   2.122 -27.578  1.00  0.00     0.351 C 
HETATM   23  S1  UNL     1     -27.845   2.608 -27.673  1.00  0.00    -0.098 SA
HETATM   24  C15 UNL     1     -28.532   2.712 -25.971  1.00  0.00     0.327 C 
BRANCH  24  25
HETATM   25  C16 UNL     1     -29.453   3.914 -25.855  1.00  0.00     0.028 A 
HETATM   26  C17 UNL     1     -30.530   4.045 -25.025  1.00  0.00     0.042 A 
HETATM   27  C18 UNL     1     -31.208   5.203 -25.060  1.00  0.00     0.048 A 
HETATM   28 CL1  UNL     1     -32.613   5.526 -23.994  1.00  0.00    -0.083 Cl
HETATM   29  C19 UNL     1     -30.775   6.166 -25.921  1.00  0.00     0.006 A 
HETATM   30  S2  UNL     1     -29.412   5.411 -26.666  1.00  0.00    -0.094 SA
BRANCH  29  31
HETATM   31  C20 UNL     1     -31.279   7.522 -26.235  1.00  0.00     0.063 C 
BRANCH  31  32
HETATM   32  C21 UNL     1     -32.736   7.632 -26.487  1.00  0.00     0.119 C 
HETATM   33 CL2  UNL     1     -33.327   9.239 -26.890  1.00  0.00    -0.130 Cl
ENDBRANCH  31  32
ENDBRANCH  29  31
ENDBRANCH  24  25
ENDBRANCH   4  21
TORSDOF 7
ENDMDL
