MODEL 1
REMARK VINA RESULT: -7.990036113      0.000      0.000
REMARK  8 active torsions:
REMARK  status: ('A' for Active; 'I' for Inactive)
REMARK    1  A    between atoms: C2_2  and  C3_5 
REMARK    2  A    between atoms: C6_10  and  C7_11 
REMARK    3  A    between atoms: C8_12  and  S1_13 
REMARK    4  A    between atoms: S1_13  and  C9_14 
REMARK    5  A    between atoms: C14_20  and  N1_21 
REMARK    6  A    between atoms: N2_24  and  C15_25 
REMARK    7  A    between atoms: C15_25  and  C16_26 
REMARK    8  A    between atoms: C16_26  and  C17_27 
ROOT
HETATM    1  C7  UNL     1     -27.125  -3.849 -27.097  1.00  0.00     0.067 A 
HETATM    2  C8  UNL     1     -26.690  -5.175 -27.155  1.00  0.00     0.070 A 
HETATM    3  S2  UNL     1     -25.440  -5.141 -28.308  1.00  0.00    -0.045 SA
HETATM    4  C14 UNL     1     -25.495  -3.520 -28.674  1.00  0.00     0.146 A 
HETATM    5  N2  UNL     1     -26.507  -3.000 -27.881  1.00  0.00    -0.327 N 
ENDROOT
BRANCH   5   6
HETATM    6  C15 UNL     1     -26.665  -1.538 -28.092  1.00  0.00     0.136 C 
BRANCH   6   7
HETATM    7  C16 UNL     1     -27.674  -1.165 -29.085  1.00  0.00     0.059 C 
BRANCH   7   8
HETATM    8  C17 UNL     1     -27.931   0.310 -29.123  1.00  0.00    -0.054 A 
HETATM    9  C18 UNL     1     -28.876   0.978 -28.403  1.00  0.00     0.009 A 
HETATM   10  C19 UNL     1     -29.063   2.341 -28.436  1.00  0.00     0.032 A 
HETATM   11  C20 UNL     1     -28.258   3.120 -29.241  1.00  0.00     0.060 A 
HETATM   12  N3  UNL     1     -28.239   4.436 -29.439  1.00  0.00    -0.351 N 
HETATM   13  C22 UNL     1     -27.293   2.487 -29.982  1.00  0.00     0.060 A 
HETATM   14  C21 UNL     1     -27.234   4.661 -30.334  1.00  0.00     0.181 A 
ATOM     15  H3  UNL     1     -28.849   5.132 -29.009  1.00  0.00     0.166 HD
HETATM   16  N4  UNL     1     -26.655   3.481 -30.669  1.00  0.00    -0.350 N 
ATOM     17  H4  UNL     1     -25.878   3.358 -31.318  1.00  0.00     0.166 HD
HETATM   18  C23 UNL     1     -27.122   1.123 -29.936  1.00  0.00     0.039 A 
ENDBRANCH   7   8
ENDBRANCH   6   7
ENDBRANCH   5   6
BRANCH   1  19
HETATM   19  C6  UNL     1     -28.170  -3.556 -26.001  1.00  0.00     0.185 C 
HETATM   20  C3  UNL     1     -28.513  -2.135 -25.851  1.00  0.00     0.083 C 
HETATM   21  C4  UNL     1     -27.586  -1.298 -25.008  1.00  0.00     0.181 C 
HETATM   22  O1  UNL     1     -27.691  -1.856 -23.735  1.00  0.00    -0.366 OA
HETATM   23  C5  UNL     1     -27.568  -3.185 -23.724  1.00  0.00     0.338 C 
HETATM   24  O2  UNL     1     -27.761  -3.998 -24.764  1.00  0.00    -0.355 OA
BRANCH  20  25
HETATM   25  C2  UNL     1     -29.952  -1.800 -25.604  1.00  0.00     0.118 C 
HETATM   26  C1  UNL     1     -30.769  -1.764 -26.913  1.00  0.00     0.051 C 
HETATM   27 CL1  UNL     1     -30.830  -2.621 -24.368  1.00  0.00    -0.102 Cl
HETATM   28 CL2  UNL     1     -30.112  -0.008 -25.141  1.00  0.00    -0.102 Cl
ENDBRANCH  20  25
ENDBRANCH   1  19
BRANCH   4  29
HETATM   29  N1  UNL     1     -24.724  -2.951 -29.531  1.00  0.00    -0.379 N 
ATOM     30  H12 UNL     1     -23.713  -2.817 -29.532  1.00  0.00     0.158 HD
ATOM     31  H11 UNL     1     -25.054  -2.520 -30.395  1.00  0.00     0.158 HD
ENDBRANCH   4  29
BRANCH   2  32
HETATM   32  S1  UNL     1     -27.304  -6.628 -26.274  1.00  0.00    -0.116 SA
BRANCH  32  33
HETATM   33  C9  UNL     1     -26.079  -7.330 -25.240  1.00  0.00     0.053 C 
HETATM   34  C10 UNL     1     -25.510  -6.337 -24.237  1.00  0.00     0.015 C 
HETATM   35  C11 UNL     1     -24.267  -7.023 -23.691  1.00  0.00     0.001 C 
HETATM   36  C12 UNL     1     -23.898  -8.119 -24.661  1.00  0.00     0.001 C 
HETATM   37  C13 UNL     1     -24.828  -7.870 -25.848  1.00  0.00     0.015 C 
ENDBRANCH  32  33
ENDBRANCH   2  32
TORSDOF 8
ENDMDL
MODEL 2
REMARK VINA RESULT: -7.778105782      3.899      6.013
REMARK  8 active torsions:
REMARK  status: ('A' for Active; 'I' for Inactive)
REMARK    1  A    between atoms: C2_2  and  C3_5 
REMARK    2  A    between atoms: C6_10  and  C7_11 
REMARK    3  A    between atoms: C8_12  and  S1_13 
REMARK    4  A    between atoms: S1_13  and  C9_14 
REMARK    5  A    between atoms: C14_20  and  N1_21 
REMARK    6  A    between atoms: N2_24  and  C15_25 
REMARK    7  A    between atoms: C15_25  and  C16_26 
REMARK    8  A    between atoms: C16_26  and  C17_27 
ROOT
HETATM    1  C7  UNL     1     -28.596   1.392 -27.250  1.00  0.00     0.067 A 
HETATM    2  C8  UNL     1     -28.328   1.068 -28.581  1.00  0.00     0.070 A 
HETATM    3  S2  UNL     1     -28.279   2.578 -29.362  1.00  0.00    -0.045 SA
HETATM    4  C14 UNL     1     -28.587   3.542 -28.043  1.00  0.00     0.146 A 
HETATM    5  N2  UNL     1     -28.729   2.667 -26.977  1.00  0.00    -0.327 N 
ENDROOT
BRANCH   5   6
HETATM    6  C15 UNL     1     -28.997   3.395 -25.710  1.00  0.00     0.136 C 
BRANCH   6   7
HETATM    7  C16 UNL     1     -30.359   3.248 -25.191  1.00  0.00     0.059 C 
BRANCH   7   8
HETATM    8  C17 UNL     1     -31.181   4.488 -25.366  1.00  0.00    -0.054 A 
HETATM    9  C18 UNL     1     -32.525   4.593 -25.169  1.00  0.00     0.009 A 
HETATM   10  C19 UNL     1     -33.245   5.758 -25.306  1.00  0.00     0.032 A 
HETATM   11  C20 UNL     1     -32.597   6.921 -25.665  1.00  0.00     0.060 A 
HETATM   12  N3  UNL     1     -33.063   8.154 -25.852  1.00  0.00    -0.351 N 
HETATM   13  C22 UNL     1     -31.243   6.859 -25.871  1.00  0.00     0.060 A 
HETATM   14  C21 UNL     1     -31.979   8.911 -26.191  1.00  0.00     0.181 A 
ATOM     15  H3  UNL     1     -34.029   8.468 -25.761  1.00  0.00     0.166 HD
HETATM   16  N4  UNL     1     -30.869   8.131 -26.205  1.00  0.00    -0.350 N 
ATOM     17  H4  UNL     1     -29.923   8.440 -26.424  1.00  0.00     0.166 HD
HETATM   18  C23 UNL     1     -30.541   5.686 -25.731  1.00  0.00     0.039 A 
ENDBRANCH   7   8
ENDBRANCH   6   7
ENDBRANCH   5   6
BRANCH   1  19
HETATM   19  C6  UNL     1     -28.545   0.203 -26.268  1.00  0.00     0.185 C 
HETATM   20  C3  UNL     1     -29.850  -0.405 -25.978  1.00  0.00     0.083 C 
HETATM   21  C4  UNL     1     -30.690   0.263 -24.920  1.00  0.00     0.181 C 
HETATM   22  O1  UNL     1     -29.936   0.129 -23.756  1.00  0.00    -0.366 OA
HETATM   23  C5  UNL     1     -28.659   0.489 -23.903  1.00  0.00     0.338 C 
HETATM   24  O2  UNL     1     -27.993   0.555 -25.058  1.00  0.00    -0.355 OA
BRANCH  20  25
HETATM   25  C2  UNL     1     -29.903  -1.898 -25.877  1.00  0.00     0.118 C 
HETATM   26  C1  UNL     1     -30.278  -2.556 -27.222  1.00  0.00     0.051 C 
HETATM   27 CL1  UNL     1     -28.611  -2.759 -25.125  1.00  0.00    -0.102 Cl
HETATM   28 CL2  UNL     1     -31.399  -2.412 -24.902  1.00  0.00    -0.102 Cl
ENDBRANCH  20  25
ENDBRANCH   1  19
BRANCH   4  29
HETATM   29  N1  UNL     1     -28.664   4.824 -28.093  1.00  0.00    -0.379 N 
ATOM     30  H12 UNL     1     -28.608   5.524 -27.354  1.00  0.00     0.158 HD
ATOM     31  H11 UNL     1     -28.806   5.352 -28.954  1.00  0.00     0.158 HD
ENDBRANCH   4  29
BRANCH   2  32
HETATM   32  S1  UNL     1     -28.120  -0.551 -29.353  1.00  0.00    -0.116 SA
BRANCH  32  33
HETATM   33  C9  UNL     1     -26.676  -1.363 -28.790  1.00  0.00     0.053 C 
HETATM   34  C10 UNL     1     -25.648  -1.575 -29.891  1.00  0.00     0.015 C 
HETATM   35  C11 UNL     1     -24.657  -2.565 -29.297  1.00  0.00     0.001 C 
HETATM   36  C12 UNL     1     -25.336  -3.226 -28.122  1.00  0.00     0.001 C 
HETATM   37  C13 UNL     1     -26.781  -2.742 -28.228  1.00  0.00     0.015 C 
ENDBRANCH  32  33
ENDBRANCH   2  32
TORSDOF 8
ENDMDL
MODEL 3
REMARK VINA RESULT: -7.770055451      1.393      1.809
REMARK  8 active torsions:
REMARK  status: ('A' for Active; 'I' for Inactive)
REMARK    1  A    between atoms: C2_2  and  C3_5 
REMARK    2  A    between atoms: C6_10  and  C7_11 
REMARK    3  A    between atoms: C8_12  and  S1_13 
REMARK    4  A    between atoms: S1_13  and  C9_14 
REMARK    5  A    between atoms: C14_20  and  N1_21 
REMARK    6  A    between atoms: N2_24  and  C15_25 
REMARK    7  A    between atoms: C15_25  and  C16_26 
REMARK    8  A    between atoms: C16_26  and  C17_27 
ROOT
HETATM    1  C7  UNL     1     -27.135  -3.724 -27.027  1.00  0.00     0.067 A 
HETATM    2  C8  UNL     1     -26.733  -5.060 -27.055  1.00  0.00     0.070 A 
HETATM    3  S2  UNL     1     -25.508  -5.090 -28.234  1.00  0.00    -0.045 SA
HETATM    4  C14 UNL     1     -25.533  -3.479 -28.646  1.00  0.00     0.146 A 
HETATM    5  N2  UNL     1     -26.515  -2.913 -27.848  1.00  0.00    -0.327 N 
ENDROOT
BRANCH   5   6
HETATM    6  C15 UNL     1     -26.643  -1.454 -28.098  1.00  0.00     0.136 C 
BRANCH   6   7
HETATM    7  C16 UNL     1     -27.667  -1.085 -29.078  1.00  0.00     0.059 C 
BRANCH   7   8
HETATM    8  C17 UNL     1     -27.918   0.391 -29.124  1.00  0.00    -0.054 A 
HETATM    9  C18 UNL     1     -28.860   1.067 -28.407  1.00  0.00     0.009 A 
HETATM   10  C19 UNL     1     -29.042   2.430 -28.448  1.00  0.00     0.032 A 
HETATM   11  C20 UNL     1     -28.234   3.201 -29.258  1.00  0.00     0.060 A 
HETATM   12  N3  UNL     1     -28.211   4.516 -29.463  1.00  0.00    -0.351 N 
HETATM   13  C22 UNL     1     -27.272   2.560 -29.995  1.00  0.00     0.060 A 
HETATM   14  C21 UNL     1     -27.205   4.732 -30.360  1.00  0.00     0.181 A 
ATOM     15  H3  UNL     1     -28.818   5.217 -29.037  1.00  0.00     0.166 HD
HETATM   16  N4  UNL     1     -26.630   3.548 -30.688  1.00  0.00    -0.350 N 
ATOM     17  H4  UNL     1     -25.854   3.419 -31.337  1.00  0.00     0.166 HD
HETATM   18  C23 UNL     1     -27.107   1.196 -29.942  1.00  0.00     0.039 A 
ENDBRANCH   7   8
ENDBRANCH   6   7
ENDBRANCH   5   6
BRANCH   1  19
HETATM   19  C6  UNL     1     -28.149  -3.373 -25.918  1.00  0.00     0.185 C 
HETATM   20  C3  UNL     1     -28.473  -1.944 -25.818  1.00  0.00     0.083 C 
HETATM   21  C4  UNL     1     -27.516  -1.083 -25.033  1.00  0.00     0.181 C 
HETATM   22  O1  UNL     1     -27.595  -1.588 -23.737  1.00  0.00    -0.366 OA
HETATM   23  C5  UNL     1     -27.485  -2.917 -23.673  1.00  0.00     0.338 C 
HETATM   24  O2  UNL     1     -27.713  -3.769 -24.675  1.00  0.00    -0.355 OA
BRANCH  20  25
HETATM   25  C2  UNL     1     -29.901  -1.582 -25.550  1.00  0.00     0.118 C 
HETATM   26  C1  UNL     1     -30.752  -1.592 -26.838  1.00  0.00     0.051 C 
HETATM   27 CL1  UNL     1     -30.756  -2.340 -24.258  1.00  0.00    -0.102 Cl
HETATM   28 CL2  UNL     1     -30.031   0.229 -25.159  1.00  0.00    -0.102 Cl
ENDBRANCH  20  25
ENDBRANCH   1  19
BRANCH   4  29
HETATM   29  N1  UNL     1     -24.768  -2.955 -29.536  1.00  0.00    -0.379 N 
ATOM     30  H12 UNL     1     -24.631  -3.189 -30.519  1.00  0.00     0.158 HD
ATOM     31  H11 UNL     1     -24.142  -2.169 -29.356  1.00  0.00     0.158 HD
ENDBRANCH   4  29
BRANCH   2  32
HETATM   32  S1  UNL     1     -27.362  -6.472 -26.119  1.00  0.00    -0.116 SA
BRANCH  32  33
HETATM   33  C9  UNL     1     -27.768  -7.817 -27.162  1.00  0.00     0.053 C 
HETATM   34  C10 UNL     1     -28.767  -8.776 -26.529  1.00  0.00     0.015 C 
HETATM   35  C11 UNL     1     -28.722 -10.009 -27.421  1.00  0.00     0.001 C 
HETATM   36  C12 UNL     1     -27.445  -9.935 -28.222  1.00  0.00     0.001 C 
HETATM   37  C13 UNL     1     -26.696  -8.763 -27.590  1.00  0.00     0.015 C 
ENDBRANCH  32  33
ENDBRANCH   2  32
TORSDOF 8
ENDMDL
MODEL 4
REMARK VINA RESULT: -7.753023449      3.981      5.658
REMARK  8 active torsions:
REMARK  status: ('A' for Active; 'I' for Inactive)
REMARK    1  A    between atoms: C2_2  and  C3_5 
REMARK    2  A    between atoms: C6_10  and  C7_11 
REMARK    3  A    between atoms: C8_12  and  S1_13 
REMARK    4  A    between atoms: S1_13  and  C9_14 
REMARK    5  A    between atoms: C14_20  and  N1_21 
REMARK    6  A    between atoms: N2_24  and  C15_25 
REMARK    7  A    between atoms: C15_25  and  C16_26 
REMARK    8  A    between atoms: C16_26  and  C17_27 
ROOT
HETATM    1  C7  UNL     1     -27.865  -0.440 -26.229  1.00  0.00     0.067 A 
HETATM    2  C8  UNL     1     -27.183  -1.657 -26.282  1.00  0.00     0.070 A 
HETATM    3  S2  UNL     1     -26.861  -2.012 -24.650  1.00  0.00    -0.045 SA
HETATM    4  C14 UNL     1     -27.567  -0.670 -23.969  1.00  0.00     0.146 A 
HETATM    5  N2  UNL     1     -28.060   0.065 -25.036  1.00  0.00    -0.327 N 
ENDROOT
BRANCH   5   6
HETATM    6  C15 UNL     1     -28.740   1.303 -24.574  1.00  0.00     0.136 C 
BRANCH   6   7
HETATM    7  C16 UNL     1     -30.098   1.106 -24.062  1.00  0.00     0.059 C 
BRANCH   7   8
HETATM    8  C17 UNL     1     -31.008   2.252 -24.379  1.00  0.00    -0.054 A 
HETATM    9  C18 UNL     1     -32.371   2.223 -24.359  1.00  0.00     0.009 A 
HETATM   10  C19 UNL     1     -33.177   3.306 -24.623  1.00  0.00     0.032 A 
HETATM   11  C20 UNL     1     -32.605   4.522 -24.933  1.00  0.00     0.060 A 
HETATM   12  N3  UNL     1     -33.162   5.698 -25.217  1.00  0.00    -0.351 N 
HETATM   13  C22 UNL     1     -31.237   4.595 -24.963  1.00  0.00     0.060 A 
HETATM   14  C21 UNL     1     -32.124   6.554 -25.439  1.00  0.00     0.181 A 
ATOM     15  H3  UNL     1     -34.159   5.913 -25.260  1.00  0.00     0.166 HD
HETATM   16  N4  UNL     1     -30.950   5.892 -25.286  1.00  0.00    -0.350 N 
ATOM     17  H4  UNL     1     -30.018   6.291 -25.392  1.00  0.00     0.166 HD
HETATM   18  C23 UNL     1     -30.447   3.501 -24.697  1.00  0.00     0.039 A 
ENDBRANCH   7   8
ENDBRANCH   6   7
ENDBRANCH   5   6
BRANCH   1  19
HETATM   19  C6  UNL     1     -28.421   0.053 -27.581  1.00  0.00     0.185 C 
HETATM   20  C3  UNL     1     -27.761   1.253 -28.110  1.00  0.00     0.083 C 
HETATM   21  C4  UNL     1     -28.236   2.582 -27.579  1.00  0.00     0.181 C 
HETATM   22  O1  UNL     1     -29.563   2.656 -27.997  1.00  0.00    -0.366 OA
HETATM   23  C5  UNL     1     -30.269   1.554 -27.734  1.00  0.00     0.338 C 
HETATM   24  O2  UNL     1     -29.766   0.338 -27.513  1.00  0.00    -0.355 OA
BRANCH  20  25
HETATM   25  C2  UNL     1     -27.503   1.299 -29.585  1.00  0.00     0.118 C 
HETATM   26  C1  UNL     1     -26.297   0.425 -29.989  1.00  0.00     0.051 C 
HETATM   27 CL1  UNL     1     -28.804   1.080 -30.696  1.00  0.00    -0.102 Cl
HETATM   28 CL2  UNL     1     -26.802   2.955 -30.052  1.00  0.00    -0.102 Cl
ENDBRANCH  20  25
ENDBRANCH   1  19
BRANCH   4  29
HETATM   29  N1  UNL     1     -27.598  -0.439 -22.705  1.00  0.00    -0.379 N 
ATOM     30  H12 UNL     1     -27.253  -0.990 -21.918  1.00  0.00     0.158 HD
ATOM     31  H11 UNL     1     -28.011   0.395 -22.288  1.00  0.00     0.158 HD
ENDBRANCH   4  29
BRANCH   2  32
HETATM   32  S1  UNL     1     -26.691  -2.639 -27.716  1.00  0.00    -0.116 SA
BRANCH  32  33
HETATM   33  C9  UNL     1     -26.565  -4.341 -27.328  1.00  0.00     0.053 C 
HETATM   34  C10 UNL     1     -26.018  -5.172 -28.480  1.00  0.00     0.015 C 
HETATM   35  C11 UNL     1     -26.304  -6.611 -28.076  1.00  0.00     0.001 C 
HETATM   36  C12 UNL     1     -27.360  -6.572 -26.998  1.00  0.00     0.001 C 
HETATM   37  C13 UNL     1     -27.799  -5.108 -26.984  1.00  0.00     0.015 C 
ENDBRANCH  32  33
ENDBRANCH   2  32
TORSDOF 8
ENDMDL
MODEL 5
REMARK VINA RESULT: -7.745585698      2.616      7.987
REMARK  8 active torsions:
REMARK  status: ('A' for Active; 'I' for Inactive)
REMARK    1  A    between atoms: C2_2  and  C3_5 
REMARK    2  A    between atoms: C6_10  and  C7_11 
REMARK    3  A    between atoms: C8_12  and  S1_13 
REMARK    4  A    between atoms: S1_13  and  C9_14 
REMARK    5  A    between atoms: C14_20  and  N1_21 
REMARK    6  A    between atoms: N2_24  and  C15_25 
REMARK    7  A    between atoms: C15_25  and  C16_26 
REMARK    8  A    between atoms: C16_26  and  C17_27 
ROOT
HETATM    1  C7  UNL     1     -27.603  -1.934 -28.161  1.00  0.00     0.067 A 
HETATM    2  C8  UNL     1     -27.367  -1.178 -29.311  1.00  0.00     0.070 A 
HETATM    3  S2  UNL     1     -25.958  -1.868 -29.966  1.00  0.00    -0.045 SA
HETATM    4  C14 UNL     1     -25.711  -3.046 -28.818  1.00  0.00     0.146 A 
HETATM    5  N2  UNL     1     -26.748  -2.894 -27.910  1.00  0.00    -0.327 N 
ENDROOT
BRANCH   5   6
HETATM    6  C15 UNL     1     -26.667  -3.901 -26.821  1.00  0.00     0.136 C 
BRANCH   6   7
HETATM    7  C16 UNL     1     -27.326  -5.176 -27.111  1.00  0.00     0.059 C 
BRANCH   7   8
HETATM    8  C17 UNL     1     -26.374  -6.333 -27.112  1.00  0.00    -0.054 A 
HETATM    9  C18 UNL     1     -26.250  -7.269 -28.095  1.00  0.00     0.009 A 
HETATM   10  C19 UNL     1     -25.340  -8.300 -28.080  1.00  0.00     0.032 A 
HETATM   11  C20 UNL     1     -24.475  -8.430 -27.013  1.00  0.00     0.060 A 
HETATM   12  N3  UNL     1     -23.518  -9.324 -26.773  1.00  0.00    -0.351 N 
HETATM   13  C22 UNL     1     -24.566  -7.508 -26.002  1.00  0.00     0.060 A 
HETATM   14  C21 UNL     1     -22.976  -8.971 -25.572  1.00  0.00     0.181 A 
ATOM     15  H3  UNL     1     -23.247 -10.110 -27.365  1.00  0.00     0.166 HD
HETATM   16  N4  UNL     1     -23.607  -7.869 -25.097  1.00  0.00    -0.350 N 
ATOM     17  H4  UNL     1     -23.401  -7.392 -24.220  1.00  0.00     0.166 HD
HETATM   18  C23 UNL     1     -25.483  -6.484 -26.035  1.00  0.00     0.039 A 
ENDBRANCH   7   8
ENDBRANCH   6   7
ENDBRANCH   5   6
BRANCH   1  19
HETATM   19  C6  UNL     1     -28.929  -1.619 -27.437  1.00  0.00     0.185 C 
HETATM   20  C3  UNL     1     -28.784  -0.792 -26.232  1.00  0.00     0.083 C 
HETATM   21  C4  UNL     1     -28.409  -1.505 -24.958  1.00  0.00     0.181 C 
HETATM   22  O1  UNL     1     -29.489  -2.352 -24.716  1.00  0.00    -0.366 OA
HETATM   23  C5  UNL     1     -29.859  -3.064 -25.783  1.00  0.00     0.338 C 
HETATM   24  O2  UNL     1     -29.593  -2.762 -27.055  1.00  0.00    -0.355 OA
BRANCH  20  25
HETATM   25  C2  UNL     1     -29.818   0.266 -25.999  1.00  0.00     0.118 C 
HETATM   26  C1  UNL     1     -29.426   1.610 -26.647  1.00  0.00     0.051 C 
HETATM   27 CL1  UNL     1     -31.484  -0.077 -26.285  1.00  0.00    -0.102 Cl
HETATM   28 CL2  UNL     1     -29.780   0.805 -24.222  1.00  0.00    -0.102 Cl
ENDBRANCH  20  25
ENDBRANCH   1  19
BRANCH   4  29
HETATM   29  N1  UNL     1     -24.732  -3.878 -28.844  1.00  0.00    -0.379 N 
ATOM     30  H12 UNL     1     -23.739  -3.734 -29.028  1.00  0.00     0.158 HD
ATOM     31  H11 UNL     1     -24.831  -4.879 -28.670  1.00  0.00     0.158 HD
ENDBRANCH   4  29
BRANCH   2  32
HETATM   32  S1  UNL     1     -28.280   0.235 -29.967  1.00  0.00    -0.116 SA
BRANCH  32  33
HETATM   33  C9  UNL     1     -27.409   1.736 -29.744  1.00  0.00     0.053 C 
HETATM   34  C10 UNL     1     -28.132   2.935 -30.339  1.00  0.00     0.015 C 
HETATM   35  C11 UNL     1     -27.087   4.041 -30.345  1.00  0.00     0.001 C 
HETATM   36  C12 UNL     1     -25.737   3.382 -30.203  1.00  0.00     0.001 C 
HETATM   37  C13 UNL     1     -26.051   1.893 -30.345  1.00  0.00     0.015 C 
ENDBRANCH  32  33
ENDBRANCH   2  32
TORSDOF 8
ENDMDL
